#       Name:                AV-unprocessed.smi:1713
#       Creating user name   scv26
#       Creation time:       Fri Mar 27 08:11:05 2020


#       File generated by GOLD software.
#

@<TRIPOS>MOLECULE
AV-unprocessed.smi:1713
    43    44     1
SMALL
NO_CHARGES


@<TRIPOS>ATOM
      1 ****        -6.2830  -2.1944  -1.9082 C.3            1 S1                 0.0000
      2 ****        -5.7808  -2.1799  -0.4588 C.3            1 S1                 0.0000
      3 ****        -4.5759  -1.3862  -0.3099 N.pl3          1 S1                 0.0000
      4 ****        -3.2894  -1.8242  -0.0656 C.2            1 S1                 0.0000
      5 ****        -2.5194  -0.7019  -0.0052 C.2            1 S1                 0.0000
      6 ****        -1.1225  -0.6903   0.2338 N.am           1 S1                 0.0000
      7 ****        -0.3128   0.3804   0.2634 C.2            1 S1                 0.0000
      8 ****        -0.6678   1.5414   0.0603 O.2            1 S1                 0.0000
      9 ****         0.9511   0.0276   0.5386 N.am           1 S1                 0.0000
     10 ****         2.0816   0.9467   0.6324 C.3            1 S1                 0.0000
     11 ****         2.6952   1.1920  -0.7605 C.3            1 S1                 0.0000
     12 ****         3.9293   2.1075  -0.6806 C.3            1 S1                 0.0000
     13 ****         4.9851   1.5827   0.3106 C.3            1 S1                 0.0000
     14 ****         5.5959   0.4157  -0.2035 O.3            1 S1                 0.0000
     15 ****         4.3696   1.2908   1.6923 C.3            1 S1                 0.0000
     16 ****         3.1355   0.3759   1.5987 C.3            1 S1                 0.0000
     17 ****        -3.4072   0.3903  -0.2176 C.2            1 S1                 0.0000
     18 ****        -4.6486  -0.0349  -0.3985 N.2            1 S1                 0.0000
     19 ****        -7.1722  -2.8177  -2.0030 H              1 S1                 0.0000
     20 ****        -5.5248  -2.5909  -2.5840 H              1 S1                 0.0000
     21 ****        -6.5442  -1.1916  -2.2477 H              1 S1                 0.0000
     22 ****        -6.5475  -1.7793   0.2056 H              1 S1                 0.0000
     23 ****        -5.5722  -3.1971  -0.1253 H              1 S1                 0.0000
     24 ****        -3.0419  -2.8704   0.0400 H              1 S1                 0.0000
     25 ****        -0.6960  -1.5898   0.4003 H              1 S1                 0.0000
     26 ****         1.1493  -0.9508   0.6884 H              1 S1                 0.0000
     27 ****         1.7353   1.8998   1.0372 H              1 S1                 0.0000
     28 ****         2.9768   0.2404  -1.2137 H              1 S1                 0.0000
     29 ****         1.9542   1.6395  -1.4240 H              1 S1                 0.0000
     30 ****         4.3687   2.2318  -1.6710 H              1 S1                 0.0000
     31 ****         3.6089   3.1009  -0.3643 H              1 S1                 0.0000
     32 ****         5.7717   2.3299   0.4204 H              1 S1                 0.0000
     33 ****         6.2713   0.1404   0.3974 H              1 S1                 0.0000
     34 ****         5.1154   0.8485   2.3538 H              1 S1                 0.0000
     35 ****         4.0752   2.2333   2.1557 H              1 S1                 0.0000
     36 ****         2.7013   0.2478   2.5908 H              1 S1                 0.0000
     37 ****         3.4429  -0.6172   1.2677 H              1 S1                 0.0000
     38 ****        -3.2097   1.4515  -0.2442 H              1 S1                 0.0000
     39 ****        -1.6254   1.7427  -0.1459 LP             1 S1                 0.0000
     40 ****         0.0014   2.2834   0.1014 LP             1 S1                 0.0000
     41 ****         5.9994   0.6121  -1.0972 LP             1 S1                 0.0000
     42 ****         4.9130  -0.3086  -0.2980 LP             1 S1                 0.0000
     43 ****        -5.4634   0.5206  -0.5646 LP             1 S1                 0.0000
@<TRIPOS>BOND
    1    1    2 1     
    2    1   19 1     
    3    1   20 1     
    4    1   21 1     
    5    2    3 1     
    6    2   22 1     
    7    2   23 1     
    8    3   18 1     
    9    3    4 1     
   10    4    5 2     
   11    4   24 1     
   12    5    6 1     
   13    5   17 1     
   14    6    7 am    
   15    6   25 1     
   16    7    8 2     
   17    7    9 am    
   18    9   10 1     
   19    9   26 1     
   20   10   16 1     
   21   10   11 1     
   22   10   27 1     
   23   11   12 1     
   24   11   28 1     
   25   11   29 1     
   26   12   13 1     
   27   12   30 1     
   28   12   31 1     
   29   13   14 1     
   30   13   15 1     
   31   13   32 1     
   32   14   33 1     
   33   15   16 1     
   34   15   34 1     
   35   15   35 1     
   36   16   36 1     
   37   16   37 1     
   38   17   18 2     
   39   17   38 1     
   40    8   39 1     
   41    8   40 1     
   42   14   41 1     
   43   14   42 1     
   44   18   43 1     
@<TRIPOS>SUBSTRUCTURE
      1 S1             1
@<TRIPOS>SET
LONE_PAIRS      STATIC     ATOMS    <user>   **** ""
5 39 40 41 42 43
DONOR_HYDROGENS      STATIC     ATOMS    <user>   **** ""
3 25 26 33
ATOM$BLUE        STATIC     ATOMS    COLORGROUP SYSTEM
5 39 40 41 42 43
ATOM$RED        STATIC     ATOMS    COLORGROUP SYSTEM
3 25 26 33
