AV-unprocessed.smi:3199|AV-procd|sdf|12231|dock10
  -GOLD-   2272018 63D 1   1.00000     0.00000
 Structure written by MMmdl.
 35 36  0  0  0  0  0  0  0  0  1 V2000
  151.5231  143.6896  157.6271 C   0  0  0  0  0  0  0  0  0  0  0  0
  151.9496  143.5269  159.0710 C   0  0  0  0  0  0  0  0  0  0  0  0
  151.4138  144.3528  160.0818 C   0  0  0  0  0  0  0  0  0  0  0  0
  151.8453  144.1554  161.4077 C   0  0  0  0  0  0  0  0  0  0  0  0
  152.7930  143.1453  161.6711 C   0  0  0  0  0  0  0  0  0  0  0  0
  153.2850  142.8864  163.0815 C   0  0  0  0  0  0  0  0  0  0  0  0
  153.7587  144.1752  163.7729 C   0  0  0  0  0  0  0  0  0  0  0  0
  154.4533  143.8927  165.0232 N   0  0  0  0  0  0  0  0  0  0  0  0
  155.3793  142.9369  165.1966 C   0  0  0  0  0  0  0  0  0  0  0  0
  155.7499  142.1914  164.2893 O   0  0  0  0  0  0  0  0  0  0  0  0
  155.9676  142.8285  166.6112 C   0  0  2  0  0  0  0  0  0  0  0  0
  154.9492  142.6658  167.7596 C   0  0  0  0  0  0  0  0  0  0  0  0
  155.0870  143.9529  168.5500 C   0  0  0  0  0  0  0  0  0  0  0  0
  156.5309  144.3434  168.2708 C   0  0  0  0  0  0  0  0  0  0  0  0
  156.6789  144.0326  166.8952 O   0  0  0  0  0  0  0  0  0  0  0  0
  153.2667  142.3749  160.5882 C   0  0  0  0  0  0  0  0  0  0  0  0
  152.8582  142.5565  159.3138 N   0  0  0  0  0  0  0  0  0  0  0  0
  150.7597  144.4613  157.5244 H   0  0  0  0  0  0  0  0  0  0  0  0
  151.1141  142.7542  157.2438 H   0  0  0  0  0  0  0  0  0  0  0  0
  152.3767  143.9708  157.0095 H   0  0  0  0  0  0  0  0  0  0  0  0
  150.6886  145.1190  159.8500 H   0  0  0  0  0  0  0  0  0  0  0  0
  151.4528  144.7681  162.2060 H   0  0  0  0  0  0  0  0  0  0  0  0
  152.4790  142.4233  163.6524 H   0  0  0  0  0  0  0  0  0  0  0  0
  154.0969  142.1585  163.0488 H   0  0  0  0  0  0  0  0  0  0  0  0
  154.4476  144.7138  163.1215 H   0  0  0  0  0  0  0  0  0  0  0  0
  152.9168  144.8449  163.9562 H   0  0  0  0  0  0  0  0  0  0  0  0
  154.2050  144.4588  165.8218 H   0  0  0  0  0  0  0  0  0  0  0  0
  156.6708  141.9943  166.6331 H   0  0  0  0  0  0  0  0  0  0  0  0
  153.9189  142.4946  167.4472 H   0  0  0  0  0  0  0  0  0  0  0  0
  155.2375  141.8175  168.3820 H   0  0  0  0  0  0  0  0  0  0  0  0
  154.4123  144.7116  168.1513 H   0  0  0  0  0  0  0  0  0  0  0  0
  154.8756  143.8282  169.6124 H   0  0  0  0  0  0  0  0  0  0  0  0
  156.7310  145.3962  168.4697 H   0  0  0  0  0  0  0  0  0  0  0  0
  157.2220  143.7394  168.8607 H   0  0  0  0  0  0  0  0  0  0  0  0
  153.9904  141.5892  160.7482 H   0  0  0  0  0  0  0  0  0  0  0  0
  1  2  1  0  0  0  0
  1 18  1  0  0  0  0
  1 19  1  0  0  0  0
  1 20  1  0  0  0  0
  2 17  1  0  0  0  0
  2  3  2  0  0  0  0
  3  4  1  0  0  0  0
  3 21  1  0  0  0  0
  4  5  2  0  0  0  0
  4 22  1  0  0  0  0
  5  6  1  0  0  0  0
  5 16  1  0  0  0  0
  6  7  1  0  0  0  0
  6 23  1  0  0  0  0
  6 24  1  0  0  0  0
  7  8  1  0  0  0  0
  7 25  1  0  0  0  0
  7 26  1  0  0  0  0
  8  9  1  0  0  0  0
  8 27  1  0  0  0  0
  9 10  2  0  0  0  0
  9 11  1  0  0  0  0
 11 15  1  0  0  0  0
 11 12  1  0  0  0  0
 11 28  1  0  0  0  0
 12 13  1  0  0  0  0
 12 29  1  0  0  0  0
 12 30  1  0  0  0  0
 13 14  1  0  0  0  0
 13 31  1  0  0  0  0
 13 32  1  0  0  0  0
 14 15  1  0  0  0  0
 14 33  1  0  0  0  0
 14 34  1  0  0  0  0
 16 17  2  0  0  0  0
 16 35  1  0  0  0  0
M  END
> <s_m_source_file>
AV-unprocessed.smi

> <i_m_source_file_index>
3199

> <i_lp_mmshare_version>
43012

> <i_f3d_flags>
0

> <s_epik_input>
W0NIM11jMVtjSF1bY0hdYyhbY0hdbjEpW0NIMl1bQ0gyXVtOSF1DKD1PKVtDQEBIXTJbQ0gyXVtDSDJdW0NIMl1PMg==

> <s_epik_cmdline>
J2VwaWtfcHl0aG9uJywgJy1waCcsICc3LjAnLCAnLXRuJywgJzgnLCAnLW1hJywgJzIwMCcsICctbWV0YWxfYmluZGluZycsICctaW1hZScsICc8aW5maWxlLm1hZT4nLCAnLW9tYWUnLCAnPG91dGZpbGUubWFlPic=

> <r_epik_Ionization_Penalty>
0.0519155

> <r_epik_Ionization_Penalty_Charging>
0

> <r_epik_Ionization_Penalty_Neutral>
0.0519155

> <r_epik_State_Penalty>
0.0445047

> <r_epik_Charging_Adjusted_Penalty>
0.0445047

> <i_epik_Tot_Q>
0

> <i_epik_Tot_abs_Q>
0

> <r_epik_Metal_State_Penalty>
0.0408967

> <b_epik_Metal_Only>
0

> <s_lp_Force_Field>
OPLS_2005

> <r_lp_Energy>
17.3487

> <b_lp_Chiralities_Consistent>
1

> <s_lp_Variant>
AV-unprocessed.smi:3199-1

> <Gold.Version>
5.8.1

> <Gold.Id.Protein>
6NUR|6NUR_protein|mol2

> <Gold.PLP.Fitness>
43.9423

> <Gold.PLP.PLP>
-44.4667

> <Gold.PLP.part.hbond>
-2.0000

> <Gold.PLP.part.metal>
0.0000

> <Gold.PLP.part.buried>
-7.1937

> <Gold.PLP.part.nonpolar>
-34.1777

> <Gold.PLP.part.repulsive>
0.0973

> <Gold.PLP.ligand.clash>
0.0000

> <Gold.PLP.ligand.torsion>
0.2704

> <Gold.PLP.Chemscore.Hbond>
0.0000

> <Gold.PLP.Chemscore.CHOScore>
0.0000

> <Gold.PLP.Chemscore.Metal>
0.0000

> <Gold.PLP.Chemscore.Internal.Correction>
0.0164

> <Gold.Rescore>
     Score         DG    S(hbond)    S(metal)    S(lipo)     H(rot)  DE(clash)    DE(int)     intcor
     13.96     -15.41       0.00        0.00     117.41       1.49       0.13       1.33       ----

> <Gold.Chemscore.Fitness>
13.9583

> <Gold.Chemscore.DG>
-15.4130

> <Gold.Chemscore.ZeroCoef>
-5.4800

> <Gold.Chemscore.Hbond>
0.0000

> <Gold.Chemscore.Metal>
0.0000

> <Gold.Chemscore.Lipo>
117.4088

> <Gold.Chemscore.Internal_Hbond>
0.0000

> <Gold.Chemscore.DEClash>
0.1295

> <Gold.Chemscore.DEInternal>
1.3252

> <Gold.Chemscore.Rot>
1.4859

> <Gold.Chemscore.Internal.Correction>
   9.000000E+99

> <Gold.Chemscore.Hbond.Weighted>
-0.0000

> <Gold.Chemscore.Metal.Weighted>
-0.0000

> <Gold.Chemscore.Lipo.Weighted>
-13.7368

> <Gold.Chemscore.Internal_Hbond.Weighted>
0.0000

> <Gold.Chemscore.DEClash.Weighted>
0.1295

> <Gold.Chemscore.DEInternal.Weighted>
1.3252

> <Gold.Chemscore.Rot.Weighted>
3.8039

> <Gold.Chemscore.Internal.Correction.Weighted>
   9.000000E+99

> <Gold.Protein.RotatedTorsions>
[ 6907 6896 6895 6894 ] final  -69.55 input  -60.11 | X-H torsion
[ 7974 7965 7964 7962 ] final  -54.83 input  175.53 | X-H torsion
[ 8008 7997 7996 7995 ] final -166.92 input   59.86 | X-H torsion
[ 10167 10162 10161 10158 ] final   51.94 input  -65.29 | X-H torsion
[ 10718 10713 10712 10709 ] final  113.89 input   66.30 | X-H torsion
[ 10763 10752 10751 10750 ] final   76.60 input  -60.55 | X-H torsion
[ 11005 11000 10999 10996 ] final   33.21 input  -57.11 | X-H torsion

> <Gold.Protein.ActiveResidues>
 VAL166  LYS551  ARG553  GLY616  TRP617  ASP618  TYR619  PRO620  LYS621  CYS622 
 ASP623  PHE694  ASN695  SER759  ASP760  ASP761  ALA762  ILE779  LEU786  VAL792 
 PHE793  MET794  SER795  GLU796  ALA797  LYS798  CYS799  TRP800  GLU811  SER814 

> <Gold.Protein.RotatedAtoms>
  150.7300  134.5580  159.5827 H   0  0  0  0  0  0  0  0  0  0  0  0  # atno 6907 bound_to 6896
  152.3051  134.7562  160.0358 H   0  0  0  0  0  0  0  0  0  0  0  0  # atno 6908 bound_to 6896
  151.8129  133.3348  159.3597 H   0  0  0  0  0  0  0  0  0  0  0  0  # atno 6909 bound_to 6896
  145.8811  140.8143  142.9839 H   0  0  0  0  0  0  0  0  0  0  0  0  # atno 7974 bound_to 7965
  155.8706  140.0992  157.1553 H   0  0  0  0  0  0  0  0  0  0  0  0  # atno 8008 bound_to 7997
  154.3997  140.1348  156.4136 H   0  0  0  0  0  0  0  0  0  0  0  0  # atno 8009 bound_to 7997
  155.7755  140.3460  155.5272 H   0  0  0  0  0  0  0  0  0  0  0  0  # atno 8010 bound_to 7997
  140.2566  144.3420  150.6331 H   0  0  0  0  0  0  0  0  0  0  0  0  # atno 10167 bound_to 10162
  157.6312  131.0990  150.7107 H   0  0  0  0  0  0  0  0  0  0  0  0  # atno 10718 bound_to 10713
  153.0737  135.4945  154.8359 H   0  0  0  0  0  0  0  0  0  0  0  0  # atno 10763 bound_to 10752
  154.7058  135.3010  154.9274 H   0  0  0  0  0  0  0  0  0  0  0  0  # atno 10764 bound_to 10752
  153.9984  135.6769  153.4810 H   0  0  0  0  0  0  0  0  0  0  0  0  # atno 10765 bound_to 10752
  140.2655  134.3143  155.7844 H   0  0  0  0  0  0  0  0  0  0  0  0  # atno 11005 bound_to 11000
  144.6727  140.1386  143.7438 LP  0  0  0  0  0  0  0  0  0  0  0  0  # atno 17320 bound_to 7965
  145.9022  139.2437  143.1487 LP  0  0  0  0  0  0  0  0  0  0  0  0  # atno 17321 bound_to 7965
  140.5999  143.2167  151.7093 LP  0  0  0  0  0  0  0  0  0  0  0  0  # atno 17342 bound_to 10162
  139.5029  144.3809  152.0376 LP  0  0  0  0  0  0  0  0  0  0  0  0  # atno 17343 bound_to 10162
  156.7446  130.4749  149.5470 LP  0  0  0  0  0  0  0  0  0  0  0  0  # atno 17370 bound_to 10713
  156.1518  130.6315  151.0605 LP  0  0  0  0  0  0  0  0  0  0  0  0  # atno 17371 bound_to 10713
  141.2185  133.7435  156.9253 LP  0  0  0  0  0  0  0  0  0  0  0  0  # atno 17394 bound_to 11000
  140.1424  134.9285  157.2484 LP  0  0  0  0  0  0  0  0  0  0  0  0  # atno 17395 bound_to 11000

$$$$
