AV-unprocessed.smi:68|AV-procd|sdf|641|dock2
  -GOLD-   2262016533D 1   1.00000     0.00000
 Structure written by MMmdl.
 22 23  0  0  0  0  0  0  0  0  2 V2000
  150.8871  139.2660  154.3596 O   0  0  0  0  0  0  0  0  0  0  0  0
  151.0721  139.9089  155.3919 C   0  0  0  0  0  0  0  0  0  0  0  0
  152.0122  139.5636  156.3188 N   0  5  0  0  0  0  0  0  0  0  0  0
  152.2164  140.2763  157.4660 C   0  0  0  0  0  0  0  0  0  0  0  0
  153.0524  139.9552  158.3102 O   0  0  0  0  0  0  0  0  0  0  0  0
  151.4219  141.4324  157.7043 N   0  0  0  0  0  0  0  0  0  0  0  0
  151.6202  142.2643  158.9511 C   0  0  2  0  0  0  0  0  0  0  0  0
  150.9591  143.6427  158.8031 C   0  0  0  0  0  0  0  0  0  0  0  0
  152.1523  144.5751  158.7169 C   0  0  0  0  0  0  0  0  0  0  0  0
  153.2124  143.8125  159.5014 C   0  0  0  0  0  0  0  0  0  0  0  0
  152.9915  142.4580  159.1363 O   0  0  0  0  0  0  0  0  0  0  0  0
  150.4594  141.8041  156.7822 C   0  0  0  0  0  0  0  0  0  0  0  0
  150.2589  141.0948  155.6531 C   0  0  0  0  0  0  0  0  0  0  0  0
  149.3156  141.4820  154.7775 F   0  0  0  0  0  0  0  0  0  0  0  0
  151.2341  141.7018  159.8007 H   0  0  0  0  0  0  0  0  0  0  0  0
  150.3015  143.6961  157.9344 H   0  0  0  0  0  0  0  0  0  0  0  0
  150.3733  143.8445  159.7006 H   0  0  0  0  0  0  0  0  0  0  0  0
  152.4655  144.6909  157.6788 H   0  0  0  0  0  0  0  0  0  0  0  0
  151.9506  145.5658  159.1248 H   0  0  0  0  0  0  0  0  0  0  0  0
  154.2269  144.1328  159.2634 H   0  0  0  0  0  0  0  0  0  0  0  0
  153.0564  143.9282  160.5751 H   0  0  0  0  0  0  0  0  0  0  0  0
  149.8552  142.6797  156.9664 H   0  0  0  0  0  0  0  0  0  0  0  0
  1  2  2  0  0  0  0
  2 13  1  0  0  0  0
  2  3  1  0  0  0  0
  3  4  1  0  0  0  0
  4  5  2  0  0  0  0
  4  6  1  0  0  0  0
  6  7  1  0  0  0  0
  6 12  1  0  0  0  0
  7 11  1  0  0  0  0
  7  8  1  0  0  0  0
  7 15  1  0  0  0  0
  8  9  1  0  0  0  0
  8 16  1  0  0  0  0
  8 17  1  0  0  0  0
  9 10  1  0  0  0  0
  9 18  1  0  0  0  0
  9 19  1  0  0  0  0
 10 11  1  0  0  0  0
 10 20  1  0  0  0  0
 10 21  1  0  0  0  0
 12 13  2  0  0  0  0
 12 22  1  0  0  0  0
 13 14  1  0  0  0  0
M  CHG  1   3  -1
M  END
> <s_m_source_file>
AV-unprocessed.smi

> <i_m_source_file_index>
68

> <i_lp_mmshare_version>
43012

> <i_f3d_flags>
0

> <s_epik_input>
Tz1jMVtuSF1jKD1PKW4oW2NIXWMxRilbQ0BASF0yW0NIMl1bQ0gyXVtDSDJdTzI=

> <s_epik_cmdline>
J2VwaWtfcHl0aG9uJywgJy1waCcsICc3LjAnLCAnLXRuJywgJzgnLCAnLW1hJywgJzIwMCcsICctbWV0YWxfYmluZGluZycsICctaW1hZScsICc8aW5maWxlLm1hZT4nLCAnLW9tYWUnLCAnPG91dGZpbGUubWFlPic=

> <r_epik_Ionization_Penalty>
1.69229

> <r_epik_Ionization_Penalty_Charging>
3.30034e-08

> <r_epik_Ionization_Penalty_Neutral>
1.69229

> <r_epik_State_Penalty>
1.7976

> <r_epik_Charging_Adjusted_Penalty>
1.7976

> <i_epik_Tot_Q>
-1

> <i_epik_Tot_abs_Q>
1

> <r_epik_Metal_State_Penalty>
0.0116051

> <b_epik_Metal_Only>
0

> <s_epik_Chemistry_Notes>
This compound contains an acetal/aminal-like group ( X-CH(R)-Y where X, Y are N, S, or O) that may be acid/base labile, releasing an aldehyde.

> <s_lp_Force_Field>
OPLS_2005

> <r_lp_Energy>
34.1498

> <b_lp_Chiralities_Consistent>
1

> <s_lp_Variant>
AV-unprocessed.smi:68-3

> <Gold.Version>
5.8.1

> <Gold.Id.Protein>
6NUR|6NUR_protein|mol2

> <Gold.PLP.Fitness>
35.3167

> <Gold.PLP.PLP>
-29.6515

> <Gold.PLP.part.hbond>
-2.0000

> <Gold.PLP.part.metal>
0.0000

> <Gold.PLP.part.buried>
-2.7943

> <Gold.PLP.part.nonpolar>
-24.5992

> <Gold.PLP.part.repulsive>
0.1654

> <Gold.PLP.ligand.clash>
0.0000

> <Gold.PLP.ligand.torsion>
0.3900

> <Gold.PLP.Chemscore.Hbond>
1.1500

> <Gold.PLP.Chemscore.CHOScore>
0.9976

> <Gold.PLP.Chemscore.Metal>
0.0000

> <Gold.Chemscore.Hbonds>
donor molecule, donor type, donor heavy atom, donor atom, acceptor molecule, acceptor atom, score
      P1  H  7989  7998       L1     1  0.20
      P1  H  7997  8010       L1     5  0.80
      L1  C    12    22       P1  8028  0.81

> <Gold.PLP.Chemscore.Internal.Correction>
0.0025

> <Gold.Rescore>
     Score         DG    S(hbond)    S(metal)    S(lipo)     H(rot)  DE(clash)    DE(int)     intcor
      9.55     -11.67       0.93        0.00      48.26       1.00       0.26       1.87       ----

> <Gold.Chemscore.Fitness>
9.5455

> <Gold.Chemscore.DG>
-11.6717

> <Gold.Chemscore.ZeroCoef>
-5.4800

> <Gold.Chemscore.Hbond>
0.9296

> <Gold.Chemscore.Metal>
0.0000

> <Gold.Chemscore.Lipo>
48.2631

> <Gold.Chemscore.Internal_Hbond>
0.0000

> <Gold.Chemscore.DEClash>
0.2588

> <Gold.Chemscore.DEInternal>
1.8674

> <Gold.Chemscore.Rot>
1.0000

> <Gold.Chemscore.Internal.Correction>
   9.000000E+99

> <Gold.Chemscore.Hbonds>
donor molecule, donor type, donor heavy atom, donor atom, acceptor molecule, acceptor atom, score
      P1  H  7997  8010       L1     5  0.11

> <Gold.Chemscore.Hbond.Weighted>
-3.1049

> <Gold.Chemscore.Metal.Weighted>
-0.0000

> <Gold.Chemscore.Lipo.Weighted>
-5.6468

> <Gold.Chemscore.Internal_Hbond.Weighted>
0.0000

> <Gold.Chemscore.DEClash.Weighted>
0.2588

> <Gold.Chemscore.DEInternal.Weighted>
1.8674

> <Gold.Chemscore.Rot.Weighted>
2.5600

> <Gold.Chemscore.Internal.Correction.Weighted>
   9.000000E+99

> <Gold.Protein.RotatedTorsions>
[ 6907 6896 6895 6894 ] final   51.19 input  -60.11 | X-H torsion
[ 7974 7965 7964 7962 ] final  -68.07 input  175.53 | X-H torsion
[ 8008 7997 7996 7995 ] final   29.98 input   59.86 | X-H torsion
[ 10167 10162 10161 10158 ] final  -14.60 input  -65.29 | X-H torsion
[ 10718 10713 10712 10709 ] final -148.84 input   66.30 | X-H torsion
[ 10763 10752 10751 10750 ] final  167.89 input  -60.55 | X-H torsion
[ 11005 11000 10999 10996 ] final  138.88 input  -57.11 | X-H torsion

> <Gold.Protein.ActiveResidues>
 VAL166  LYS551  ARG553  GLY616  TRP617  ASP618  TYR619  PRO620  LYS621  CYS622 
 ASP623  PHE694  ASN695  SER759  ASP760  ASP761  ALA762  ILE779  LEU786  VAL792 
 PHE793  MET794  SER795  GLU796  ALA797  LYS798  CYS799  TRP800  GLU811  SER814 

> <Gold.Protein.RotatedAtoms>
  152.3100  134.7508  160.0338 H   0  0  0  0  0  0  0  0  0  0  0  0  # atno 6907 bound_to 6896
  151.7992  133.3363  159.3530 H   0  0  0  0  0  0  0  0  0  0  0  0  # atno 6908 bound_to 6896
  150.7315  134.5700  159.5930 H   0  0  0  0  0  0  0  0  0  0  0  0  # atno 6909 bound_to 6896
  145.7212  140.9037  143.0629 H   0  0  0  0  0  0  0  0  0  0  0  0  # atno 7974 bound_to 7965
  155.0831  140.3212  155.4595 H   0  0  0  0  0  0  0  0  0  0  0  0  # atno 8008 bound_to 7997
  156.2762  140.2091  156.5904 H   0  0  0  0  0  0  0  0  0  0  0  0  # atno 8009 bound_to 7997
  154.6963  140.0511  157.0401 H   0  0  0  0  0  0  0  0  0  0  0  0  # atno 8010 bound_to 7997
  140.7204  143.5305  150.9525 H   0  0  0  0  0  0  0  0  0  0  0  0  # atno 10167 bound_to 10162
  156.4254  130.8049  151.2274 H   0  0  0  0  0  0  0  0  0  0  0  0  # atno 10718 bound_to 10713
  154.3606  135.2753  155.2322 H   0  0  0  0  0  0  0  0  0  0  0  0  # atno 10763 bound_to 10752
  154.4512  135.5930  153.6196 H   0  0  0  0  0  0  0  0  0  0  0  0  # atno 10764 bound_to 10752
  152.9844  135.6042  154.3826 H   0  0  0  0  0  0  0  0  0  0  0  0  # atno 10765 bound_to 10752
  140.0215  134.9394  157.0484 H   0  0  0  0  0  0  0  0  0  0  0  0  # atno 11005 bound_to 11000
  144.6916  139.9205  143.7467 LP  0  0  0  0  0  0  0  0  0  0  0  0  # atno 17320 bound_to 7965
  146.0624  139.3616  143.0573 LP  0  0  0  0  0  0  0  0  0  0  0  0  # atno 17321 bound_to 7965
  139.9025  143.6818  152.3129 LP  0  0  0  0  0  0  0  0  0  0  0  0  # atno 17342 bound_to 10162
  139.7173  144.7609  151.1013 LP  0  0  0  0  0  0  0  0  0  0  0  0  # atno 17343 bound_to 10162
  157.7508  131.0215  150.3753 LP  0  0  0  0  0  0  0  0  0  0  0  0  # atno 17370 bound_to 10713
  156.4079  130.3928  149.6913 LP  0  0  0  0  0  0  0  0  0  0  0  0  # atno 17371 bound_to 10713
  140.4379  134.1712  155.7172 LP  0  0  0  0  0  0  0  0  0  0  0  0  # atno 17394 bound_to 11000
  141.1777  133.8480  157.1367 LP  0  0  0  0  0  0  0  0  0  0  0  0  # atno 17395 bound_to 11000

$$$$
