AV-unprocessed.smi:2442|AV-procd|sdf|9623|dock4
  -GOLD-   2272013253D 1   1.00000     0.00000
 Structure written by MMmdl.
 46 47  0  0  0  0  0  0  0  0  1 V2000
  144.5889  135.7311  151.6620 C   0  0  0  0  0  0  0  0  0  0  0  0
  145.7551  135.3885  150.9304 O   0  0  0  0  0  0  0  0  0  0  0  0
  145.9681  133.9876  150.8015 C   0  0  2  0  0  0  0  0  0  0  0  0
  144.6896  133.3072  150.2680 C   0  0  0  0  0  0  0  0  0  0  0  0
  144.8328  131.7765  150.2459 C   0  0  0  0  0  0  0  0  0  0  0  0
  145.1975  131.2280  151.6344 C   0  0  0  0  0  0  0  0  0  0  0  0
  146.4735  131.8916  152.1741 C   0  0  0  0  0  0  0  0  0  0  0  0
  146.3303  133.4291  152.1986 C   0  0  1  0  0  0  0  0  0  0  0  0
  147.5071  134.0758  152.7844 N   0  0  0  0  0  0  0  0  0  0  0  0
  148.2565  133.6309  153.8047 C   0  0  0  0  0  0  0  0  0  0  0  0
  148.0791  132.5599  154.3851 O   0  0  0  0  0  0  0  0  0  0  0  0
  149.2087  134.5141  154.1392 N   0  0  0  0  0  0  0  0  0  0  0  0
  150.1360  134.3700  155.2593 C   0  0  0  0  0  0  0  0  0  0  0  0
  150.0868  135.5677  156.2325 C   0  0  0  0  0  0  0  0  0  0  0  0
  150.6409  136.8682  155.6604 C   0  0  0  0  0  0  0  0  0  0  0  0
  149.9272  137.5351  154.6412 C   0  0  0  0  0  0  0  0  0  0  0  0
  150.4282  138.7543  154.1462 C   0  0  0  0  0  0  0  0  0  0  0  0
  151.5664  139.3227  154.5930 N   0  0  0  0  0  0  0  0  0  0  0  0
  152.2523  138.6803  155.5614 C   0  0  0  0  0  0  0  0  0  0  0  0
  151.8436  137.4540  156.1295 C   0  0  0  0  0  0  0  0  0  0  0  0
  152.6847  136.8169  157.2208 C   0  0  0  0  0  0  0  0  0  0  0  0
  144.4952  136.8159  151.7080 H   0  0  0  0  0  0  0  0  0  0  0  0
  144.6266  135.3570  152.6847 H   0  0  0  0  0  0  0  0  0  0  0  0
  143.6930  135.3399  151.1779 H   0  0  0  0  0  0  0  0  0  0  0  0
  146.7879  133.7915  150.1090 H   0  0  0  0  0  0  0  0  0  0  0  0
  143.8399  133.5827  150.8941 H   0  0  0  0  0  0  0  0  0  0  0  0
  144.4585  133.6600  149.2633 H   0  0  0  0  0  0  0  0  0  0  0  0
  143.9038  131.3221  149.9003 H   0  0  0  0  0  0  0  0  0  0  0  0
  145.6023  131.4923  149.5271 H   0  0  0  0  0  0  0  0  0  0  0  0
  144.3724  131.4039  152.3256 H   0  0  0  0  0  0  0  0  0  0  0  0
  145.3339  130.1474  151.5834 H   0  0  0  0  0  0  0  0  0  0  0  0
  146.6849  131.5186  153.1769 H   0  0  0  0  0  0  0  0  0  0  0  0
  147.3186  131.5959  151.5515 H   0  0  0  0  0  0  0  0  0  0  0  0
  145.5070  133.6690  152.8727 H   0  0  0  0  0  0  0  0  0  0  0  0
  147.7579  134.9687  152.3862 H   0  0  0  0  0  0  0  0  0  0  0  0
  149.2754  135.3654  153.6008 H   0  0  0  0  0  0  0  0  0  0  0  0
  149.9420  133.4381  155.7907 H   0  0  0  0  0  0  0  0  0  0  0  0
  151.1435  134.2753  154.8541 H   0  0  0  0  0  0  0  0  0  0  0  0
  149.0643  135.7247  156.5750 H   0  0  0  0  0  0  0  0  0  0  0  0
  150.6540  135.3170  157.1297 H   0  0  0  0  0  0  0  0  0  0  0  0
  149.0038  137.1305  154.2539 H   0  0  0  0  0  0  0  0  0  0  0  0
  149.8977  139.2891  153.3724 H   0  0  0  0  0  0  0  0  0  0  0  0
  153.1582  139.1652  155.8946 H   0  0  0  0  0  0  0  0  0  0  0  0
  153.6319  137.3432  157.3428 H   0  0  0  0  0  0  0  0  0  0  0  0
  152.9135  135.7787  156.9817 H   0  0  0  0  0  0  0  0  0  0  0  0
  152.1615  136.8510  158.1759 H   0  0  0  0  0  0  0  0  0  0  0  0
  1  2  1  0  0  0  0
  1 22  1  0  0  0  0
  1 23  1  0  0  0  0
  1 24  1  0  0  0  0
  2  3  1  0  0  0  0
  3  8  1  0  0  0  0
  3  4  1  0  0  0  0
  3 25  1  0  0  0  0
  4  5  1  0  0  0  0
  4 26  1  0  0  0  0
  4 27  1  0  0  0  0
  5  6  1  0  0  0  0
  5 28  1  0  0  0  0
  5 29  1  0  0  0  0
  6  7  1  0  0  0  0
  6 30  1  0  0  0  0
  6 31  1  0  0  0  0
  7  8  1  0  0  0  0
  7 32  1  0  0  0  0
  7 33  1  0  0  0  0
  8  9  1  0  0  0  0
  8 34  1  0  0  0  0
  9 10  1  0  0  0  0
  9 35  1  0  0  0  0
 10 11  2  0  0  0  0
 10 12  1  0  0  0  0
 12 13  1  0  0  0  0
 12 36  1  0  0  0  0
 13 14  1  0  0  0  0
 13 37  1  0  0  0  0
 13 38  1  0  0  0  0
 14 15  1  0  0  0  0
 14 39  1  0  0  0  0
 14 40  1  0  0  0  0
 15 20  1  0  0  0  0
 15 16  2  0  0  0  0
 16 17  1  0  0  0  0
 16 41  1  0  0  0  0
 17 18  2  0  0  0  0
 17 42  1  0  0  0  0
 18 19  1  0  0  0  0
 19 20  2  0  0  0  0
 19 43  1  0  0  0  0
 20 21  1  0  0  0  0
 21 44  1  0  0  0  0
 21 45  1  0  0  0  0
 21 46  1  0  0  0  0
M  END
> <s_m_source_file>
AV-unprocessed.smi

> <i_m_source_file_index>
2442

> <i_lp_mmshare_version>
43012

> <i_f3d_flags>
0

> <s_epik_input>
W0NIM11PW0NAQEhdMVtDSDJdW0NIMl1bQ0gyXVtDSDJdW0NASF0xW05IXUMoPU8pW05IXVtDSDJdW0NIMl1jMltjSF1bY0hdbltjSF1jMltDSDNd

> <s_epik_cmdline>
J2VwaWtfcHl0aG9uJywgJy1waCcsICc3LjAnLCAnLXRuJywgJzgnLCAnLW1hJywgJzIwMCcsICctbWV0YWxfYmluZGluZycsICctaW1hZScsICc8aW5maWxlLm1hZT4nLCAnLW9tYWUnLCAnPG91dGZpbGUubWFlPic=

> <r_epik_Ionization_Penalty>
0.106136

> <r_epik_Ionization_Penalty_Charging>
0

> <r_epik_Ionization_Penalty_Neutral>
0.106136

> <r_epik_State_Penalty>
0.0959393

> <r_epik_Charging_Adjusted_Penalty>
0.0959393

> <i_epik_Tot_Q>
0

> <i_epik_Tot_abs_Q>
0

> <r_epik_Metal_State_Penalty>
0.0812517

> <b_epik_Metal_Only>
0

> <s_lp_Force_Field>
OPLS_2005

> <r_lp_Energy>
10.1716

> <b_lp_Chiralities_Consistent>
1

> <s_lp_Variant>
AV-unprocessed.smi:2442-1

> <Gold.Version>
5.8.1

> <Gold.Id.Protein>
6NUR|6NUR_protein|mol2

> <Gold.PLP.Fitness>
46.8313

> <Gold.PLP.PLP>
-35.9442

> <Gold.PLP.part.hbond>
-3.0000

> <Gold.PLP.part.metal>
0.0000

> <Gold.PLP.part.buried>
-5.8298

> <Gold.PLP.part.nonpolar>
-27.5477

> <Gold.PLP.part.repulsive>
0.3764

> <Gold.PLP.ligand.clash>
0.0000

> <Gold.PLP.ligand.torsion>
0.4273

> <Gold.PLP.Chemscore.Hbond>
2.8960

> <Gold.PLP.Chemscore.CHOScore>
1.0000

> <Gold.PLP.Chemscore.Metal>
0.0000

> <Gold.Chemscore.Hbonds>
donor molecule, donor type, donor heavy atom, donor atom, acceptor molecule, acceptor atom, score
      L1  H     9    35       P1  7948  1.00
      L1  H    12    36       P1  7948  0.91
      P1  H  7989  7998       L1    18  1.00
      L1  C    17    42       P1  7957  1.00

> <Gold.PLP.Chemscore.Internal.Correction>
0.0537

> <Gold.Rescore>
     Score         DG    S(hbond)    S(metal)    S(lipo)     H(rot)  DE(clash)    DE(int)     intcor
     17.89     -19.85       2.30        0.00      93.11       1.64       0.01       1.95       ----

> <Gold.Chemscore.Fitness>
17.8851

> <Gold.Chemscore.DG>
-19.8496

> <Gold.Chemscore.ZeroCoef>
-5.4800

> <Gold.Chemscore.Hbond>
2.2962

> <Gold.Chemscore.Metal>
0.0000

> <Gold.Chemscore.Lipo>
93.1094

> <Gold.Chemscore.Internal_Hbond>
0.0000

> <Gold.Chemscore.DEClash>
0.0098

> <Gold.Chemscore.DEInternal>
1.9547

> <Gold.Chemscore.Rot>
1.6380

> <Gold.Chemscore.Internal.Correction>
   9.000000E+99

> <Gold.Chemscore.Hbonds>
donor molecule, donor type, donor heavy atom, donor atom, acceptor molecule, acceptor atom, score
      L1  H     9    35       P1  7948  0.89
      L1  H    12    36       P1  7948  0.31
      P1  H  7989  7998       L1    18  0.30

> <Gold.Chemscore.Hbond.Weighted>
-7.6692

> <Gold.Chemscore.Metal.Weighted>
-0.0000

> <Gold.Chemscore.Lipo.Weighted>
-10.8938

> <Gold.Chemscore.Internal_Hbond.Weighted>
0.0000

> <Gold.Chemscore.DEClash.Weighted>
0.0098

> <Gold.Chemscore.DEInternal.Weighted>
1.9547

> <Gold.Chemscore.Rot.Weighted>
4.1934

> <Gold.Chemscore.Internal.Correction.Weighted>
   9.000000E+99

> <Gold.Protein.RotatedTorsions>
[ 6907 6896 6895 6894 ] final  124.81 input  -60.11 | X-H torsion
[ 7974 7965 7964 7962 ] final -108.86 input  175.53 | X-H torsion
[ 8008 7997 7996 7995 ] final  167.94 input   59.86 | X-H torsion
[ 10167 10162 10161 10158 ] final  -23.92 input  -65.29 | X-H torsion
[ 10718 10713 10712 10709 ] final -169.50 input   66.30 | X-H torsion
[ 10763 10752 10751 10750 ] final  119.80 input  -60.55 | X-H torsion
[ 11005 11000 10999 10996 ] final  -55.41 input  -57.11 | X-H torsion

> <Gold.Protein.ActiveResidues>
 VAL166  LYS551  ARG553  GLY616  TRP617  ASP618  TYR619  PRO620  LYS621  CYS622 
 ASP623  PHE694  ASN695  SER759  ASP760  ASP761  ALA762  ILE779  LEU786  VAL792 
 PHE793  MET794  SER795  GLU796  ALA797  LYS798  CYS799  TRP800  GLU811  SER814 

> <Gold.Protein.RotatedAtoms>
  152.4046  133.6870  159.6345 H   0  0  0  0  0  0  0  0  0  0  0  0  # atno 6907 bound_to 6896
  150.7933  133.8731  159.3273 H   0  0  0  0  0  0  0  0  0  0  0  0  # atno 6908 bound_to 6896
  151.6488  135.1006  160.0208 H   0  0  0  0  0  0  0  0  0  0  0  0  # atno 6909 bound_to 6896
  145.1876  140.9000  143.3443 H   0  0  0  0  0  0  0  0  0  0  0  0  # atno 7974 bound_to 7965
  156.1590  140.1603  156.8644 H   0  0  0  0  0  0  0  0  0  0  0  0  # atno 8008 bound_to 7997
  154.5142  140.0793  156.8085 H   0  0  0  0  0  0  0  0  0  0  0  0  # atno 8009 bound_to 7997
  155.3745  140.3402  155.4246 H   0  0  0  0  0  0  0  0  0  0  0  0  # atno 8010 bound_to 7997
  140.7288  143.4399  151.0672 H   0  0  0  0  0  0  0  0  0  0  0  0  # atno 10167 bound_to 10162
  156.7125  130.9239  151.3090 H   0  0  0  0  0  0  0  0  0  0  0  0  # atno 10718 bound_to 10713
  153.5886  135.3470  155.2902 H   0  0  0  0  0  0  0  0  0  0  0  0  # atno 10763 bound_to 10752
  154.8656  135.4199  154.2541 H   0  0  0  0  0  0  0  0  0  0  0  0  # atno 10764 bound_to 10752
  153.3344  135.7046  153.6991 H   0  0  0  0  0  0  0  0  0  0  0  0  # atno 10765 bound_to 10752
  141.1072  133.6612  156.4466 H   0  0  0  0  0  0  0  0  0  0  0  0  # atno 11005 bound_to 11000
  145.0073  139.3542  143.6137 LP  0  0  0  0  0  0  0  0  0  0  0  0  # atno 17320 bound_to 7965
  146.3442  139.9321  142.8752 LP  0  0  0  0  0  0  0  0  0  0  0  0  # atno 17321 bound_to 7965
  139.8065  143.8010  152.3168 LP  0  0  0  0  0  0  0  0  0  0  0  0  # atno 17342 bound_to 10162
  139.8045  144.7361  150.9780 LP  0  0  0  0  0  0  0  0  0  0  0  0  # atno 17343 bound_to 10162
  157.6930  130.9253  150.0567 LP  0  0  0  0  0  0  0  0  0  0  0  0  # atno 17370 bound_to 10713
  156.1651  130.3645  149.9244 LP  0  0  0  0  0  0  0  0  0  0  0  0  # atno 17371 bound_to 10713
  140.4870  134.6611  157.5195 LP  0  0  0  0  0  0  0  0  0  0  0  0  # atno 17394 bound_to 11000
  139.9948  134.6928  155.9627 LP  0  0  0  0  0  0  0  0  0  0  0  0  # atno 17395 bound_to 11000

$$$$
