#       Name:                AV-unprocessed.smi:224
#       Creating user name   scv26
#       Creation time:       Thu Mar 26 20:20:09 2020


#       File generated by GOLD software.
#

@<TRIPOS>MOLECULE
AV-unprocessed.smi:224
    66    69     1
SMALL
NO_CHARGES


@<TRIPOS>ATOM
      1 ****        -2.6063   3.0824  -5.3882 C.3            1 S1                 0.0000
      2 ****        -3.4115   2.6534  -4.1525 C.3            1 S1                 0.0000
      3 ****        -4.7827   2.7149  -4.4845 O.3            1 S1                 0.0000
      4 ****        -3.0889   1.2156  -3.6910 C.3            1 S1                 0.0000
      5 ****        -1.6640   1.0277  -3.2897 N.4            1 S1                 1.0000
      6 ****        -1.3630   1.7213  -2.0041 C.3            1 S1                 0.0000
      7 ****         0.1115   1.5831  -1.6005 C.3            1 S1                 0.0000
      8 ****         0.4911   0.1788  -1.5440 N.3            1 S1                 0.0000
      9 ****         0.2868  -0.4625  -0.3615 C.ar           1 S1                 0.0000
     10 ****        -0.4706  -1.5917  -0.3280 N.ar           1 S1                 0.0000
     11 ****        -0.6929  -2.2262   0.8265 C.ar           1 S1                 0.0000
     12 ****        -0.2573  -1.9121   2.0469 N.ar           1 S1                 0.0000
     13 ****         0.5183  -0.7912   2.0225 C.ar           1 S1                 0.0000
     14 ****         0.8363  -0.0115   0.8737 C.ar           1 S1                 0.0000
     15 ****         1.6545   1.0509   1.2402 N.2            1 S1                 0.0000
     16 ****         1.8005   0.9147   2.5297 C.2            1 S1                 0.0000
     17 ****         1.1597  -0.1715   3.0813 N.pl3          1 S1                 0.0000
     18 ****         1.1553  -0.5653   4.4826 C.3            1 S1                 0.0000
     19 ****         2.2970  -1.5401   4.8582 C.3            1 S1                 0.0000
     20 ****         2.1744  -2.7193   4.0817 O.3            1 S1                 0.0000
     21 ****         2.2802  -1.9319   6.3303 C.3            1 S1                 0.0000
     22 ****         3.7465  -2.2263   6.6163 C.3            1 S1                 0.0000
     23 ****         4.4215  -1.2164   5.8861 O.3            1 S1                 0.0000
     24 ****         3.7205  -0.9756   4.6689 C.3            1 S1                 0.0000
     25 ****         0.2500  -0.5296  -2.7973 C.3            1 S1                 0.0000
     26 ****        -1.2167  -0.4036  -3.2785 C.3            1 S1                 0.0000
     27 ****        -1.3277  -1.0835  -4.6585 C.3            1 S1                 0.0000
     28 ****        -1.5365   3.0967  -5.1786 H              1 S1                 0.0000
     29 ****        -2.8874   4.0856  -5.7105 H              1 S1                 0.0000
     30 ****        -2.7719   2.4052  -6.2269 H              1 S1                 0.0000
     31 ****        -3.2536   3.3707  -3.3484 H              1 S1                 0.0000
     32 ****        -5.2933   2.5373  -3.7090 H              1 S1                 0.0000
     33 ****        -3.7339   0.9270  -2.8591 H              1 S1                 0.0000
     34 ****        -3.3540   0.5565  -4.5138 H              1 S1                 0.0000
     35 ****        -1.5932   2.7827  -2.0752 H              1 S1                 0.0000
     36 ****        -1.9986   1.3134  -1.2162 H              1 S1                 0.0000
     37 ****         0.7462   2.0837  -2.3328 H              1 S1                 0.0000
     38 ****         0.2792   2.0936  -0.6535 H              1 S1                 0.0000
     39 ****        -1.3074  -3.1122   0.7636 H              1 S1                 0.0000
     40 ****         2.3869   1.6070   3.1162 H              1 S1                 0.0000
     41 ****         1.2192   0.3397   5.0884 H              1 S1                 0.0000
     42 ****         0.1878  -1.0149   4.7096 H              1 S1                 0.0000
     43 ****         2.8755  -3.3078   4.3167 H              1 S1                 0.0000
     44 ****         1.9619  -1.0874   6.9432 H              1 S1                 0.0000
     45 ****         1.6213  -2.7718   6.5546 H              1 S1                 0.0000
     46 ****         3.9881  -2.1843   7.6784 H              1 S1                 0.0000
     47 ****         4.0315  -3.2079   6.2347 H              1 S1                 0.0000
     48 ****         4.2435  -1.4405   3.8317 H              1 S1                 0.0000
     49 ****         3.7180   0.1000   4.4958 H              1 S1                 0.0000
     50 ****         0.9166  -0.1033  -3.5482 H              1 S1                 0.0000
     51 ****         0.5403  -1.5774  -2.7063 H              1 S1                 0.0000
     52 ****        -1.8584  -0.9432  -2.5809 H              1 S1                 0.0000
     53 ****        -0.8469  -2.0622  -4.6453 H              1 S1                 0.0000
     54 ****        -0.8415  -0.4914  -5.4345 H              1 S1                 0.0000
     55 ****        -2.3583  -1.2626  -4.9608 H              1 S1                 0.0000
     56 ****        -1.1061   1.4821  -3.9985 H              1 S1                 0.0000
     57 ****        -4.9892   2.0329  -5.1861 LP             1 S1                 0.0000
     58 ****        -5.0038   3.6267  -4.8307 LP             1 S1                 0.0000
     59 ****         1.4898   0.1650  -1.4949 LP             1 S1                 0.0000
     60 ****        -0.8643  -1.9500  -1.1745 LP             1 S1                 0.0000
     61 ****        -0.4719  -2.4319   2.8738 LP             1 S1                 0.0000
     62 ****         2.0429   1.7586   0.6499 LP             1 S1                 0.0000
     63 ****         2.2370  -2.4912   3.1100 LP             1 S1                 0.0000
     64 ****         1.2930  -3.1542   4.2659 LP             1 S1                 0.0000
     65 ****         5.3535  -1.5163   5.6824 LP             1 S1                 0.0000
     66 ****         4.4526  -0.3758   6.4269 LP             1 S1                 0.0000
@<TRIPOS>BOND
    1    1    2 1     
    2    1   28 1     
    3    1   29 1     
    4    1   30 1     
    5    2    3 1     
    6    2    4 1     
    7    2   31 1     
    8    3   32 1     
    9    4    5 1     
   10    4   33 1     
   11    4   34 1     
   12    5   26 1     
   13    5    6 1     
   14    5   56 1     
   15    6    7 1     
   16    6   35 1     
   17    6   36 1     
   18    7    8 1     
   19    7   37 1     
   20    7   38 1     
   21    8    9 1     
   22    8   25 1     
   23    9   14 ar    
   24    9   10 ar    
   25   10   11 ar    
   26   11   12 ar    
   27   11   39 1     
   28   12   13 ar    
   29   13   17 1     
   30   13   14 ar    
   31   14   15 1     
   32   15   16 2     
   33   16   17 1     
   34   16   40 1     
   35   17   18 1     
   36   18   19 1     
   37   18   41 1     
   38   18   42 1     
   39   19   24 1     
   40   19   20 1     
   41   19   21 1     
   42   20   43 1     
   43   21   22 1     
   44   21   44 1     
   45   21   45 1     
   46   22   23 1     
   47   22   46 1     
   48   22   47 1     
   49   23   24 1     
   50   24   48 1     
   51   24   49 1     
   52   25   26 1     
   53   25   50 1     
   54   25   51 1     
   55   26   27 1     
   56   26   52 1     
   57   27   53 1     
   58   27   54 1     
   59   27   55 1     
   60    3   57 1     
   61    3   58 1     
   62    8   59 1     
   63   10   60 1     
   64   12   61 1     
   65   15   62 1     
   66   20   63 1     
   67   20   64 1     
   68   23   65 1     
   69   23   66 1     
@<TRIPOS>SUBSTRUCTURE
      1 S1             1
@<TRIPOS>SET
LONE_PAIRS      STATIC     ATOMS    <user>   **** ""
10 57 58 59 60 61 62 63 64 65 66
DONOR_HYDROGENS      STATIC     ATOMS    <user>   **** ""
3 32 56 43
ATOM$BLUE        STATIC     ATOMS    COLORGROUP SYSTEM
10 57 58 59 60 61 62 63 64 65 66
ATOM$RED        STATIC     ATOMS    COLORGROUP SYSTEM
3 32 56 43
