#       Name:                AV-unprocessed.smi:8
#       Creating user name   scv26
#       Creation time:       Thu Mar 26 15:16:29 2020


#       File generated by GOLD software.
#

@<TRIPOS>MOLECULE
AV-unprocessed.smi:8
    41    42     1
SMALL
NO_CHARGES


@<TRIPOS>ATOM
      1 ****        -3.6161   1.2322   2.7310 C.3            1 S1                 0.0000
      2 ****        -3.0216   1.3022   1.3174 C.3            1 S1                 0.0000
      3 ****        -2.2479   0.0947   1.0002 N.am           1 S1                 0.0000
      4 ****        -0.8682   0.1227   1.2599 C.2            1 S1                 0.0000
      5 ****        -0.0595  -0.9244   0.9976 C.2            1 S1                 0.0000
      6 ****         1.4358  -0.8835   1.2841 C.3            1 S1                 0.0000
      7 ****         2.2591  -0.9514   0.0816 N.3            1 S1                 0.0000
      8 ****         2.2356   0.1352  -0.8060 C.ar           1 S1                 0.0000
      9 ****         2.0698   1.3840  -0.3076 N.ar           1 S1                 0.0000
     10 ****         2.0475   2.3938  -1.1799 C.ar           1 S1                 0.0000
     11 ****         2.1775   2.3070  -2.5051 N.ar           1 S1                 0.0000
     12 ****         2.3457   1.0694  -3.0171 C.ar           1 S1                 0.0000
     13 ****         2.3850  -0.0785  -2.1970 C.ar           1 S1                 0.0000
     14 ****         2.5637  -1.4625  -2.7933 C.3            1 S1                 0.0000
     15 ****        -0.6814  -2.1313   0.4416 C.2            1 S1                 0.0000
     16 ****         0.0112  -3.1181   0.1933 O.2            1 S1                 0.0000
     17 ****        -2.0276  -2.1117   0.2175 N.pl3          1 S1                -1.0000
     18 ****        -2.8227  -1.0312   0.4849 C.2            1 S1                 0.0000
     19 ****        -4.0367  -1.0404   0.2791 O.2            1 S1                 0.0000
     20 ****        -4.1770   2.1384   2.9600 H              1 S1                 0.0000
     21 ****        -2.8340   1.1256   3.4833 H              1 S1                 0.0000
     22 ****        -4.2967   0.3864   2.8328 H              1 S1                 0.0000
     23 ****        -3.8173   1.4545   0.5864 H              1 S1                 0.0000
     24 ****        -2.3868   2.1855   1.2332 H              1 S1                 0.0000
     25 ****        -0.5052   1.0496   1.6796 H              1 S1                 0.0000
     26 ****         1.6831   0.0090   1.8601 H              1 S1                 0.0000
     27 ****         1.6896  -1.7316   1.9204 H              1 S1                 0.0000
     28 ****         2.3107  -1.8628  -0.3509 H              1 S1                 0.0000
     29 ****         1.9124   3.3839  -0.7704 H              1 S1                 0.0000
     30 ****         2.4474   0.9969  -4.0899 H              1 S1                 0.0000
     31 ****         2.6279  -1.4179  -3.8808 H              1 S1                 0.0000
     32 ****         1.7201  -2.1015  -2.5293 H              1 S1                 0.0000
     33 ****         3.4776  -1.9230  -2.4172 H              1 S1                 0.0000
     34 ****         3.1635  -0.8126   0.4851 LP             1 S1                 0.0000
     35 ****         1.9682   1.5427   0.6745 LP             1 S1                 0.0000
     36 ****         2.1516   3.1180  -3.0895 LP             1 S1                 0.0000
     37 ****         0.9951  -3.0959   0.3706 LP             1 S1                 0.0000
     38 ****        -0.4101  -3.9421  -0.1857 LP             1 S1                 0.0000
     39 ****        -2.4558  -2.9315  -0.1627 LP             1 S1                 0.0000
     40 ****        -4.5856  -0.2313   0.4891 LP             1 S1                 0.0000
     41 ****        -4.4738  -1.8570  -0.0980 LP             1 S1                 0.0000
@<TRIPOS>BOND
    1    1    2 1     
    2    1   20 1     
    3    1   21 1     
    4    1   22 1     
    5    2    3 1     
    6    2   23 1     
    7    2   24 1     
    8    3   18 am    
    9    3    4 1     
   10    4    5 2     
   11    4   25 1     
   12    5    6 1     
   13    5   15 1     
   14    6    7 1     
   15    6   26 1     
   16    6   27 1     
   17    7    8 1     
   18    7   28 1     
   19    8   13 ar    
   20    8    9 ar    
   21    9   10 ar    
   22   10   11 ar    
   23   10   29 1     
   24   11   12 ar    
   25   12   13 ar    
   26   12   30 1     
   27   13   14 1     
   28   14   31 1     
   29   14   32 1     
   30   14   33 1     
   31   15   16 2     
   32   15   17 1     
   33   17   18 1     
   34   18   19 2     
   35    7   34 1     
   36    9   35 1     
   37   11   36 1     
   38   16   37 1     
   39   16   38 1     
   40   17   39 1     
   41   19   40 1     
   42   19   41 1     
@<TRIPOS>SUBSTRUCTURE
      1 S1             1
@<TRIPOS>SET
LONE_PAIRS      STATIC     ATOMS    <user>   **** ""
8 34 35 36 37 38 39 40 41
DONOR_HYDROGENS      STATIC     ATOMS    <user>   **** ""
1 28
ATOM$BLUE        STATIC     ATOMS    COLORGROUP SYSTEM
8 34 35 36 37 38 39 40 41
ATOM$RED        STATIC     ATOMS    COLORGROUP SYSTEM
1 28
