AV-unprocessed.smi:2555|AV-procd|sdf|10022|dock9
  -GOLD-   2272014 63D 1   1.00000     0.00000
 Structure written by MMmdl.
 40 41  0  0  0  0  0  0  0  0  1 V2000
  150.2260  137.7967  158.9371 C   0  0  0  0  0  0  0  0  0  0  0  0
  151.4017  137.3071  158.1412 C   0  0  0  0  0  0  0  0  0  0  0  0
  151.2066  136.7692  156.9489 N   0  0  0  0  0  0  0  0  0  0  0  0
  152.4746  136.4199  156.4743 O   0  0  0  0  0  0  0  0  0  0  0  0
  153.3940  136.7640  157.4117 C   0  0  0  0  0  0  0  0  0  0  0  0
  154.8204  136.4683  157.0927 C   0  0  0  0  0  0  0  0  0  0  0  0
  152.7814  137.3328  158.4943 C   0  0  0  0  0  0  0  0  0  0  0  0
  153.4073  137.8594  159.7594 C   0  0  0  0  0  0  0  0  0  0  0  0
  154.0274  139.2307  159.4917 C   0  0  0  0  0  0  0  0  0  0  0  0
  154.9892  139.3310  158.7300 O   0  0  0  0  0  0  0  0  0  0  0  0
  153.4695  140.2748  160.1246 N   0  0  0  0  0  0  0  0  0  0  0  0
  153.9222  141.6602  160.0381 C   0  0  0  0  0  0  0  0  0  0  0  0
  152.7527  142.6640  159.9497 C   0  0  0  0  0  0  0  0  0  0  0  0
  152.9849  143.7701  158.8947 C   0  0  0  0  0  0  0  0  0  0  0  0
  151.8251  144.7787  158.8539 C   0  0  0  0  0  0  0  0  0  0  0  0
  151.5685  145.3935  160.2373 C   0  0  0  0  0  0  0  0  0  0  0  0
  151.3185  144.3004  161.2862 C   0  0  0  0  0  0  0  0  0  0  0  0
  152.4827  143.2977  161.3304 C   0  0  0  0  0  0  0  0  0  0  0  0
  150.1671  137.2861  159.8982 H   0  0  0  0  0  0  0  0  0  0  0  0
  149.2838  137.6267  158.4148 H   0  0  0  0  0  0  0  0  0  0  0  0
  150.3079  138.8659  159.1333 H   0  0  0  0  0  0  0  0  0  0  0  0
  155.3585  136.1474  157.9849 H   0  0  0  0  0  0  0  0  0  0  0  0
  155.3182  137.3540  156.6980 H   0  0  0  0  0  0  0  0  0  0  0  0
  154.8996  135.6745  156.3496 H   0  0  0  0  0  0  0  0  0  0  0  0
  152.6681  137.9613  160.5546 H   0  0  0  0  0  0  0  0  0  0  0  0
  154.1683  137.1779  160.1420 H   0  0  0  0  0  0  0  0  0  0  0  0
  152.6797  140.0934  160.7272 H   0  0  0  0  0  0  0  0  0  0  0  0
  154.5082  141.8622  160.9351 H   0  0  0  0  0  0  0  0  0  0  0  0
  154.6048  141.7971  159.1976 H   0  0  0  0  0  0  0  0  0  0  0  0
  151.8590  142.1086  159.6604 H   0  0  0  0  0  0  0  0  0  0  0  0
  153.9163  144.2948  159.1119 H   0  0  0  0  0  0  0  0  0  0  0  0
  153.1024  143.3331  157.9033 H   0  0  0  0  0  0  0  0  0  0  0  0
  152.0446  145.5665  158.1329 H   0  0  0  0  0  0  0  0  0  0  0  0
  150.9207  144.2809  158.5019 H   0  0  0  0  0  0  0  0  0  0  0  0
  152.4269  145.9974  160.5345 H   0  0  0  0  0  0  0  0  0  0  0  0
  150.7142  146.0697  160.1922 H   0  0  0  0  0  0  0  0  0  0  0  0
  151.1816  144.7533  162.2686 H   0  0  0  0  0  0  0  0  0  0  0  0
  150.3908  143.7752  161.0553 H   0  0  0  0  0  0  0  0  0  0  0  0
  152.2611  142.5189  162.0609 H   0  0  0  0  0  0  0  0  0  0  0  0
  153.3817  143.8036  161.6849 H   0  0  0  0  0  0  0  0  0  0  0  0
  1  2  1  0  0  0  0
  1 19  1  0  0  0  0
  1 20  1  0  0  0  0
  1 21  1  0  0  0  0
  2  7  1  0  0  0  0
  2  3  2  0  0  0  0
  3  4  1  0  0  0  0
  4  5  1  0  0  0  0
  5  6  1  0  0  0  0
  5  7  2  0  0  0  0
  6 22  1  0  0  0  0
  6 23  1  0  0  0  0
  6 24  1  0  0  0  0
  7  8  1  0  0  0  0
  8  9  1  0  0  0  0
  8 25  1  0  0  0  0
  8 26  1  0  0  0  0
  9 10  2  0  0  0  0
  9 11  1  0  0  0  0
 11 12  1  0  0  0  0
 11 27  1  0  0  0  0
 12 13  1  0  0  0  0
 12 28  1  0  0  0  0
 12 29  1  0  0  0  0
 13 18  1  0  0  0  0
 13 14  1  0  0  0  0
 13 30  1  0  0  0  0
 14 15  1  0  0  0  0
 14 31  1  0  0  0  0
 14 32  1  0  0  0  0
 15 16  1  0  0  0  0
 15 33  1  0  0  0  0
 15 34  1  0  0  0  0
 16 17  1  0  0  0  0
 16 35  1  0  0  0  0
 16 36  1  0  0  0  0
 17 18  1  0  0  0  0
 17 37  1  0  0  0  0
 17 38  1  0  0  0  0
 18 39  1  0  0  0  0
 18 40  1  0  0  0  0
M  END
> <s_m_source_file>
AV-unprocessed.smi

> <i_m_source_file_index>
2555

> <i_lp_mmshare_version>
43012

> <i_f3d_flags>
0

> <s_epik_input>
W0NIM11jMW5vYyhbQ0gzXSljMVtDSDJdQyg9TylbTkhdW0NIMl1bQ0hdMltDSDJdW0NIMl1bQ0gyXVtDSDJdW0NIMl0y

> <s_epik_cmdline>
J2VwaWtfcHl0aG9uJywgJy1waCcsICc3LjAnLCAnLXRuJywgJzgnLCAnLW1hJywgJzIwMCcsICctbWV0YWxfYmluZGluZycsICctaW1hZScsICc8aW5maWxlLm1hZT4nLCAnLW9tYWUnLCAnPG91dGZpbGUubWFlPic=

> <r_lp_tautomer_probability>
1

> <r_epik_Ionization_Penalty>
1.94914e-08

> <r_epik_Ionization_Penalty_Charging>
0

> <r_epik_Ionization_Penalty_Neutral>
1.94914e-08

> <r_epik_State_Penalty>
-0

> <r_epik_Charging_Adjusted_Penalty>
0

> <i_epik_Tot_Q>
0

> <i_epik_Tot_abs_Q>
0

> <r_epik_Metal_State_Penalty>
-0

> <b_epik_Metal_Only>
0

> <s_lp_Force_Field>
OPLS_2005

> <r_lp_Energy>
4.99285

> <b_lp_Chiralities_Consistent>
1

> <s_lp_Variant>
AV-unprocessed.smi:2555-1

> <Gold.Version>
5.8.1

> <Gold.Id.Protein>
6NUR|6NUR_protein|mol2

> <Gold.PLP.Fitness>
42.3215

> <Gold.PLP.PLP>
-38.3024

> <Gold.PLP.part.hbond>
-2.0000

> <Gold.PLP.part.metal>
0.0000

> <Gold.PLP.part.buried>
-4.7197

> <Gold.PLP.part.nonpolar>
-31.3810

> <Gold.PLP.part.repulsive>
0.0792

> <Gold.PLP.ligand.clash>
0.0000

> <Gold.PLP.ligand.torsion>
0.9977

> <Gold.PLP.Chemscore.Hbond>
2.0000

> <Gold.PLP.Chemscore.CHOScore>
0.0000

> <Gold.PLP.Chemscore.Metal>
0.0000

> <Gold.Chemscore.Hbonds>
donor molecule, donor type, donor heavy atom, donor atom, acceptor molecule, acceptor atom, score
      P1  H  7997  8008       L1    10  1.00
      P1  H 10752 10763       L1     4  1.00

> <Gold.PLP.Chemscore.Internal.Correction>
0.0145

> <Gold.Rescore>
     Score         DG    S(hbond)    S(metal)    S(lipo)     H(rot)  DE(clash)    DE(int)     intcor
     20.07     -21.18       1.98        0.00     108.90       1.43       0.03       1.08       ----

> <Gold.Chemscore.Fitness>
20.0748

> <Gold.Chemscore.DG>
-21.1767

> <Gold.Chemscore.ZeroCoef>
-5.4800

> <Gold.Chemscore.Hbond>
1.9831

> <Gold.Chemscore.Metal>
0.0000

> <Gold.Chemscore.Lipo>
108.9017

> <Gold.Chemscore.Internal_Hbond>
0.0000

> <Gold.Chemscore.DEClash>
0.0263

> <Gold.Chemscore.DEInternal>
1.0756

> <Gold.Chemscore.Rot>
1.4329

> <Gold.Chemscore.Internal.Correction>
   9.000000E+99

> <Gold.Chemscore.Hbonds>
donor molecule, donor type, donor heavy atom, donor atom, acceptor molecule, acceptor atom, score
      P1  H  7997  8008       L1    10  0.95
      P1  H 10752 10763       L1     4  0.82

> <Gold.Chemscore.Hbond.Weighted>
-6.6235

> <Gold.Chemscore.Metal.Weighted>
-0.0000

> <Gold.Chemscore.Lipo.Weighted>
-12.7415

> <Gold.Chemscore.Internal_Hbond.Weighted>
0.0000

> <Gold.Chemscore.DEClash.Weighted>
0.0263

> <Gold.Chemscore.DEInternal.Weighted>
1.0756

> <Gold.Chemscore.Rot.Weighted>
3.6683

> <Gold.Chemscore.Internal.Correction.Weighted>
   9.000000E+99

> <Gold.Protein.RotatedTorsions>
[ 6907 6896 6895 6894 ] final   81.19 input  -60.11 | X-H torsion
[ 7974 7965 7964 7962 ] final  111.46 input  175.53 | X-H torsion
[ 8008 7997 7996 7995 ] final -130.10 input   59.86 | X-H torsion
[ 10167 10162 10161 10158 ] final -113.97 input  -65.29 | X-H torsion
[ 10718 10713 10712 10709 ] final -102.79 input   66.30 | X-H torsion
[ 10763 10752 10751 10750 ] final   94.68 input  -60.55 | X-H torsion
[ 11005 11000 10999 10996 ] final -126.65 input  -57.11 | X-H torsion

> <Gold.Protein.ActiveResidues>
 VAL166  LYS551  ARG553  GLY616  TRP617  ASP618  TYR619  PRO620  LYS621  CYS622 
 ASP623  PHE694  ASN695  SER759  ASP760  ASP761  ALA762  ILE779  LEU786  VAL792 
 PHE793  MET794  SER795  GLU796  ALA797  LYS798  CYS799  TRP800  GLU811  SER814 

> <Gold.Protein.RotatedAtoms>
  152.5260  134.3243  159.9159 H   0  0  0  0  0  0  0  0  0  0  0  0  # atno 6907 bound_to 6896
  151.3192  133.4041  159.2661 H   0  0  0  0  0  0  0  0  0  0  0  0  # atno 6908 bound_to 6896
  150.9973  134.9311  159.7991 H   0  0  0  0  0  0  0  0  0  0  0  0  # atno 6909 bound_to 6896
  145.2419  139.2775  143.4113 H   0  0  0  0  0  0  0  0  0  0  0  0  # atno 7974 bound_to 7965
  155.2901  140.0448  157.3022 H   0  0  0  0  0  0  0  0  0  0  0  0  # atno 8008 bound_to 7997
  154.5546  140.2328  155.8398 H   0  0  0  0  0  0  0  0  0  0  0  0  # atno 8009 bound_to 7997
  156.1996  140.3029  155.9506 H   0  0  0  0  0  0  0  0  0  0  0  0  # atno 8010 bound_to 7997
  140.1060  143.4570  152.1782 H   0  0  0  0  0  0  0  0  0  0  0  0  # atno 10167 bound_to 10162
  156.0241  130.5437  150.7160 H   0  0  0  0  0  0  0  0  0  0  0  0  # atno 10718 bound_to 10713
  153.2444  135.4281  155.0732 H   0  0  0  0  0  0  0  0  0  0  0  0  # atno 10763 bound_to 10752
  154.8355  135.3410  154.6602 H   0  0  0  0  0  0  0  0  0  0  0  0  # atno 10764 bound_to 10752
  153.7025  135.7027  153.5116 H   0  0  0  0  0  0  0  0  0  0  0  0  # atno 10765 bound_to 10752
  140.9664  134.0865  157.3915 H   0  0  0  0  0  0  0  0  0  0  0  0  # atno 11005 bound_to 11000
  146.3326  140.2785  142.8609 LP  0  0  0  0  0  0  0  0  0  0  0  0  # atno 17320 bound_to 7965
  144.9581  140.8247  143.5530 LP  0  0  0  0  0  0  0  0  0  0  0  0  # atno 17321 bound_to 7965
  139.5645  144.7426  151.4062 LP  0  0  0  0  0  0  0  0  0  0  0  0  # atno 17342 bound_to 10162
  140.6952  143.7767  150.7315 LP  0  0  0  0  0  0  0  0  0  0  0  0  # atno 17343 bound_to 10162
  157.4787  131.0900  151.0561 LP  0  0  0  0  0  0  0  0  0  0  0  0  # atno 17370 bound_to 10713
  157.1001  130.5978  149.5458 LP  0  0  0  0  0  0  0  0  0  0  0  0  # atno 17371 bound_to 10713
  139.8896  135.0106  156.6689 LP  0  0  0  0  0  0  0  0  0  0  0  0  # atno 17394 bound_to 11000
  140.7393  133.8992  155.8266 LP  0  0  0  0  0  0  0  0  0  0  0  0  # atno 17395 bound_to 11000

$$$$
