AV-unprocessed.smi:2032|AV-procd|sdf|8256|dock7
  -GOLD-   2272010533D 1   1.00000     0.00000
 Structure written by MMmdl.
 42 43  0  0  0  0  0  0  0  0  3 V2000
  146.5816  132.0359  149.3833 C   0  0  0  0  0  0  0  0  0  0  0  0
  145.5391  131.6313  150.4410 C   0  0  1  0  0  0  0  0  0  0  0  0
  145.7271  130.1998  150.9755 C   0  0  0  0  0  0  0  0  0  0  0  0
  146.9108  130.0995  151.8706 N   0  3  2  0  0  0  0  0  0  0  0  0
  147.1879  128.6881  152.2902 C   0  0  2  0  0  0  0  0  0  0  0  0
  146.0488  128.0457  153.1183 C   0  0  0  0  0  0  0  0  0  0  0  0
  148.5238  128.6276  153.0766 C   0  0  0  0  0  0  0  0  0  0  0  0
  149.5241  127.7807  152.4349 N   0  0  0  0  0  0  0  0  0  0  0  0
  149.2918  126.5828  151.8805 C   0  0  0  0  0  0  0  0  0  0  0  0
  148.1473  126.1234  151.8684 O   0  0  0  0  0  0  0  0  0  0  0  0
  150.4006  125.9907  151.3836 N   0  5  0  0  0  0  0  0  0  0  0  0
  150.3197  125.2328  150.2779 C   0  0  0  0  0  0  0  0  0  0  0  0
  149.2064  124.5840  149.9174 N   0  0  0  0  0  0  0  0  0  0  0  0
  149.3437  123.8636  148.7293 C   0  0  0  0  0  0  0  0  0  0  0  0
  150.5884  123.9721  148.1683 C   0  0  0  0  0  0  0  0  0  0  0  0
  151.6311  124.9897  149.1204 S   0  0  0  0  0  0  0  0  0  0  0  0
  146.7837  131.0970  152.9667 C   0  0  0  0  0  0  0  0  0  0  0  0
  146.6016  132.5172  152.3990 C   0  0  2  0  0  0  0  0  0  0  0  0
  146.3698  133.5516  153.5064 C   0  0  0  0  0  0  0  0  0  0  0  0
  145.4764  132.5523  151.5278 O   0  0  0  0  0  0  0  0  0  0  0  0
  146.5133  131.3885  148.5084 H   0  0  0  0  0  0  0  0  0  0  0  0
  147.6027  131.9648  149.7572 H   0  0  0  0  0  0  0  0  0  0  0  0
  146.4178  133.0600  149.0477 H   0  0  0  0  0  0  0  0  0  0  0  0
  144.5649  131.6766  149.9534 H   0  0  0  0  0  0  0  0  0  0  0  0
  144.8371  129.9034  151.5335 H   0  0  0  0  0  0  0  0  0  0  0  0
  145.8026  129.5126  150.1343 H   0  0  0  0  0  0  0  0  0  0  0  0
  147.2832  128.0909  151.3818 H   0  0  0  0  0  0  0  0  0  0  0  0
  146.2955  127.0271  153.4177 H   0  0  0  0  0  0  0  0  0  0  0  0
  145.1228  127.9679  152.5485 H   0  0  0  0  0  0  0  0  0  0  0  0
  145.8471  128.6122  154.0280 H   0  0  0  0  0  0  0  0  0  0  0  0
  148.9584  129.6157  153.2233 H   0  0  0  0  0  0  0  0  0  0  0  0
  148.3442  128.2294  154.0757 H   0  0  0  0  0  0  0  0  0  0  0  0
  150.4741  128.1227  152.4188 H   0  0  0  0  0  0  0  0  0  0  0  0
  148.5017  123.3007  148.3550 H   0  0  0  0  0  0  0  0  0  0  0  0
  150.9536  123.5205  147.2585 H   0  0  0  0  0  0  0  0  0  0  0  0
  145.9427  130.8291  153.6086 H   0  0  0  0  0  0  0  0  0  0  0  0
  147.6794  131.1090  153.5870 H   0  0  0  0  0  0  0  0  0  0  0  0
  147.4983  132.8084  151.8516 H   0  0  0  0  0  0  0  0  0  0  0  0
  147.2100  133.5804  154.2008 H   0  0  0  0  0  0  0  0  0  0  0  0
  145.4704  133.3232  154.0787 H   0  0  0  0  0  0  0  0  0  0  0  0
  146.2523  134.5511  153.0869 H   0  0  0  0  0  0  0  0  0  0  0  0
  147.7136  130.3886  151.3303 H   0  0  0  0  0  0  0  0  0  0  0  0
  1  2  1  0  0  0  0
  1 21  1  0  0  0  0
  1 22  1  0  0  0  0
  1 23  1  0  0  0  0
  2 20  1  0  0  0  0
  2  3  1  0  0  0  0
  2 24  1  0  0  0  0
  3  4  1  0  0  0  0
  3 25  1  0  0  0  0
  3 26  1  0  0  0  0
  4  5  1  0  0  0  0
  4 17  1  0  0  0  0
  4 42  1  0  0  0  0
  5  6  1  0  0  0  0
  5  7  1  0  0  0  0
  5 27  1  0  0  0  0
  6 28  1  0  0  0  0
  6 29  1  0  0  0  0
  6 30  1  0  0  0  0
  7  8  1  0  0  0  0
  7 31  1  0  0  0  0
  7 32  1  0  0  0  0
  8  9  1  0  0  0  0
  8 33  1  0  0  0  0
  9 10  2  0  0  0  0
  9 11  1  0  0  0  0
 11 12  1  0  0  0  0
 12 16  1  0  0  0  0
 12 13  2  0  0  0  0
 13 14  1  0  0  0  0
 14 15  2  0  0  0  0
 14 34  1  0  0  0  0
 15 16  1  0  0  0  0
 15 35  1  0  0  0  0
 17 18  1  0  0  0  0
 17 36  1  0  0  0  0
 17 37  1  0  0  0  0
 18 19  1  0  0  0  0
 18 20  1  0  0  0  0
 18 38  1  0  0  0  0
 19 39  1  0  0  0  0
 19 40  1  0  0  0  0
 19 41  1  0  0  0  0
M  CHG  1   4   1
M  CHG  1  11  -1
M  END
> <s_m_source_file>
AV-unprocessed.smi

> <i_m_source_file_index>
2032

> <i_lp_mmshare_version>
43012

> <i_f3d_flags>
0

> <s_epik_input>
W0NIM11bQ0BASF0xW0NIMl1OKFtDSDJdW0NASF0oTzEpW0NIM10pW0NASF0oW0NIM10pW0NIMl1bTkhdQyg9TylbTkhdYzJuW2NIXVtjSF1zMg==

> <s_epik_cmdline>
J2VwaWtfcHl0aG9uJywgJy1waCcsICc3LjAnLCAnLXRuJywgJzgnLCAnLW1hJywgJzIwMCcsICctbWV0YWxfYmluZGluZycsICctaW1hZScsICc8aW5maWxlLm1hZT4nLCAnLW9tYWUnLCAnPG91dGZpbGUubWFlPic=

> <r_lp_tautomer_probability>
0.999

> <r_epik_Ionization_Penalty>
6.71699

> <r_epik_Ionization_Penalty_Charging>
5.88592

> <r_epik_Ionization_Penalty_Neutral>
0.831074

> <r_epik_State_Penalty>
6.08365

> <r_epik_Charging_Adjusted_Penalty>
11.9696

> <i_epik_Tot_Q>
0

> <i_epik_Tot_abs_Q>
2

> <r_epik_Metal_State_Penalty>
2.0947

> <b_epik_Metal_Only>
1

> <s_lp_Force_Field>
OPLS_2005

> <r_lp_Energy>
13.0478

> <b_lp_Chiralities_Consistent>
1

> <s_lp_Variant>
AV-unprocessed.smi:2032-26

> <Gold.Version>
5.8.1

> <Gold.Id.Protein>
6NUR|6NUR_protein|mol2

> <Gold.PLP.Fitness>
40.2077

> <Gold.PLP.PLP>
-36.8401

> <Gold.PLP.part.hbond>
-3.0000

> <Gold.PLP.part.metal>
0.0000

> <Gold.PLP.part.buried>
-5.6181

> <Gold.PLP.part.nonpolar>
-29.5390

> <Gold.PLP.part.repulsive>
0.4459

> <Gold.PLP.ligand.clash>
0.0000

> <Gold.PLP.ligand.torsion>
1.2825

> <Gold.PLP.Chemscore.Hbond>
1.9440

> <Gold.PLP.Chemscore.CHOScore>
0.0000

> <Gold.PLP.Chemscore.Metal>
0.0000

> <Gold.Chemscore.Hbonds>
donor molecule, donor type, donor heavy atom, donor atom, acceptor molecule, acceptor atom, score
      L1  H     4    42       P1 10747  1.00
      L1  H     8    33       P1 10737  0.80

> <Gold.PLP.Chemscore.Internal.Correction>
0.1005

> <Gold.Rescore>
     Score         DG    S(hbond)    S(metal)    S(lipo)     H(rot)  DE(clash)    DE(int)     intcor
     13.77     -18.38       1.90        0.00      90.58       1.58       0.18       4.44       ----

> <Gold.Chemscore.Fitness>
13.7685

> <Gold.Chemscore.DG>
-18.3812

> <Gold.Chemscore.ZeroCoef>
-5.4800

> <Gold.Chemscore.Hbond>
1.8998

> <Gold.Chemscore.Metal>
0.0000

> <Gold.Chemscore.Lipo>
90.5845

> <Gold.Chemscore.Internal_Hbond>
0.0000

> <Gold.Chemscore.DEClash>
0.1762

> <Gold.Chemscore.DEInternal>
4.4364

> <Gold.Chemscore.Rot>
1.5791

> <Gold.Chemscore.Internal.Correction>
   9.000000E+99

> <Gold.Chemscore.Hbonds>
donor molecule, donor type, donor heavy atom, donor atom, acceptor molecule, acceptor atom, score
      L1  H     4    42       P1 10747  1.00
      L1  H     8    33       P1 10737  0.80

> <Gold.Chemscore.Hbond.Weighted>
-6.3453

> <Gold.Chemscore.Metal.Weighted>
-0.0000

> <Gold.Chemscore.Lipo.Weighted>
-10.5984

> <Gold.Chemscore.Internal_Hbond.Weighted>
0.0000

> <Gold.Chemscore.DEClash.Weighted>
0.1762

> <Gold.Chemscore.DEInternal.Weighted>
4.4364

> <Gold.Chemscore.Rot.Weighted>
4.0425

> <Gold.Chemscore.Internal.Correction.Weighted>
   9.000000E+99

> <Gold.Protein.RotatedTorsions>
[ 6907 6896 6895 6894 ] final  106.13 input  -60.11 | X-H torsion
[ 7974 7965 7964 7962 ] final   61.67 input  175.53 | X-H torsion
[ 8008 7997 7996 7995 ] final  -94.22 input   59.86 | X-H torsion
[ 10167 10162 10161 10158 ] final   71.67 input  -65.29 | X-H torsion
[ 10718 10713 10712 10709 ] final  -79.91 input   66.30 | X-H torsion
[ 10763 10752 10751 10750 ] final   42.61 input  -60.55 | X-H torsion
[ 11005 11000 10999 10996 ] final  174.44 input  -57.11 | X-H torsion

> <Gold.Protein.ActiveResidues>
 VAL166  LYS551  ARG553  GLY616  TRP617  ASP618  TYR619  PRO620  LYS621  CYS622 
 ASP623  PHE694  ASN695  SER759  ASP760  ASP761  ALA762  ILE779  LEU786  VAL792 
 PHE793  MET794  SER795  GLU796  ALA797  LYS798  CYS799  TRP800  GLU811  SER814 

> <Gold.Protein.RotatedAtoms>
  152.5205  133.9427  159.7633 H   0  0  0  0  0  0  0  0  0  0  0  0  # atno 6907 bound_to 6896
  150.9753  133.6293  159.2738 H   0  0  0  0  0  0  0  0  0  0  0  0  # atno 6908 bound_to 6896
  151.3489  135.0886  159.9449 H   0  0  0  0  0  0  0  0  0  0  0  0  # atno 6909 bound_to 6896
  145.8821  139.3450  143.0700 H   0  0  0  0  0  0  0  0  0  0  0  0  # atno 7974 bound_to 7965
  154.7457  140.0491  157.0850 H   0  0  0  0  0  0  0  0  0  0  0  0  # atno 8008 bound_to 7997
  155.0121  140.3137  155.4806 H   0  0  0  0  0  0  0  0  0  0  0  0  # atno 8009 bound_to 7997
  156.2874  140.2182  156.5236 H   0  0  0  0  0  0  0  0  0  0  0  0  # atno 8010 bound_to 7997
  140.0435  144.5370  150.7416 H   0  0  0  0  0  0  0  0  0  0  0  0  # atno 10167 bound_to 10162
  156.0082  130.4559  150.3720 H   0  0  0  0  0  0  0  0  0  0  0  0  # atno 10718 bound_to 10713
  152.9879  135.6126  154.2977 H   0  0  0  0  0  0  0  0  0  0  0  0  # atno 10763 bound_to 10752
  154.2699  135.2780  155.2744 H   0  0  0  0  0  0  0  0  0  0  0  0  # atno 10764 bound_to 10752
  154.5131  135.5835  153.6677 H   0  0  0  0  0  0  0  0  0  0  0  0  # atno 10765 bound_to 10752
  140.3513  134.7192  157.4270 H   0  0  0  0  0  0  0  0  0  0  0  0  # atno 11005 bound_to 11000
  145.9011  140.9242  143.0502 LP  0  0  0  0  0  0  0  0  0  0  0  0  # atno 17320 bound_to 7965
  144.6727  140.1034  143.7459 LP  0  0  0  0  0  0  0  0  0  0  0  0  # atno 17321 bound_to 7965
  140.7249  143.2626  151.4154 LP  0  0  0  0  0  0  0  0  0  0  0  0  # atno 17342 bound_to 10162
  139.5998  144.1319  152.2185 LP  0  0  0  0  0  0  0  0  0  0  0  0  # atno 17343 bound_to 10162
  157.1804  131.0391  151.2751 LP  0  0  0  0  0  0  0  0  0  0  0  0  # atno 17370 bound_to 10713
  157.4150  130.7406  149.6869 LP  0  0  0  0  0  0  0  0  0  0  0  0  # atno 17371 bound_to 10713
  140.0700  134.5875  155.8652 LP  0  0  0  0  0  0  0  0  0  0  0  0  # atno 17394 bound_to 11000
  141.2011  133.6616  156.5933 LP  0  0  0  0  0  0  0  0  0  0  0  0  # atno 17395 bound_to 11000

$$$$
