AV-unprocessed.smi:249|AV-procd|sdf|1923|dock7
  -GOLD-   2262021 33D 1   1.00000     0.00000
 Structure written by MMmdl.
 64 67  0  0  0  0  0  0  0  0  2 V2000
  144.9935  134.4350  151.1751 C   0  0  0  0  0  0  0  0  0  0  0  0
  144.1784  133.5241  152.1080 C   0  0  0  0  0  0  0  0  0  0  0  0
  144.5924  133.6060  153.5392 N   0  3  1  0  0  0  0  0  0  0  0  0
  145.9827  133.1056  153.7455 C   0  0  0  0  0  0  0  0  0  0  0  0
  146.3884  133.1091  155.2280 C   0  0  0  0  0  0  0  0  0  0  0  0
  146.2824  134.5164  155.8390 C   0  0  1  0  0  0  0  0  0  0  0  0
  147.2764  135.4482  155.2810 N   0  0  0  0  0  0  0  0  0  0  0  0
  148.6099  134.9201  155.0106 C   0  0  0  0  0  0  0  0  0  0  0  0
  147.3623  136.6425  155.9084 C   0  0  0  0  0  0  0  0  0  0  0  0
  146.6791  136.7858  157.0705 N   0  0  0  0  0  0  0  0  0  0  0  0
  146.7389  137.9411  157.7404 C   0  0  0  0  0  0  0  0  0  0  0  0
  147.4068  139.0544  157.4282 N   0  0  0  0  0  0  0  0  0  0  0  0
  148.0877  138.9125  156.2546 C   0  0  0  0  0  0  0  0  0  0  0  0
  148.1196  137.7503  155.4349 C   0  0  0  0  0  0  0  0  0  0  0  0
  148.9165  137.9759  154.3191 N   0  0  0  0  0  0  0  0  0  0  0  0
  149.3342  139.2033  154.4714 C   0  0  0  0  0  0  0  0  0  0  0  0
  148.8818  139.8402  155.6051 N   0  0  0  0  0  0  0  0  0  0  0  0
  149.1874  141.1970  156.0219 C   0  0  0  0  0  0  0  0  0  0  0  0
  149.9372  141.2529  157.3786 C   0  0  2  0  0  0  0  0  0  0  0  0
  149.7501  142.5952  158.1239 C   0  0  0  0  0  0  0  0  0  0  0  0
  150.3005  143.6806  157.4062 O   0  0  0  0  0  0  0  0  0  0  0  0
  151.4252  140.8158  157.3090 C   0  0  1  0  0  0  0  0  0  0  0  0
  152.0632  140.4571  158.6529 C   0  0  0  0  0  0  0  0  0  0  0  0
  152.7776  139.1306  158.3906 C   0  0  0  0  0  0  0  0  0  0  0  0
  152.9511  139.1019  156.9836 O   0  0  0  0  0  0  0  0  0  0  0  0
  151.7531  139.6082  156.4197 C   0  0  0  0  0  0  0  0  0  0  0  0
  144.8214  134.9711  155.6324 C   0  0  0  0  0  0  0  0  0  0  0  0
  144.3952  134.9636  154.1454 C   0  0  2  0  0  0  0  0  0  0  0  0
  142.9405  135.4673  154.0495 C   0  0  0  0  0  0  0  0  0  0  0  0
  144.7655  134.2116  150.1325 H   0  0  0  0  0  0  0  0  0  0  0  0
  146.0651  134.2896  151.3151 H   0  0  0  0  0  0  0  0  0  0  0  0
  144.7679  135.4902  151.3246 H   0  0  0  0  0  0  0  0  0  0  0  0
  143.1137  133.7432  152.0161 H   0  0  0  0  0  0  0  0  0  0  0  0
  144.3216  132.5130  151.7333 H   0  0  0  0  0  0  0  0  0  0  0  0
  146.0778  132.0826  153.3857 H   0  0  0  0  0  0  0  0  0  0  0  0
  146.6785  133.7095  153.1612 H   0  0  0  0  0  0  0  0  0  0  0  0
  145.7350  132.4287  155.7763 H   0  0  0  0  0  0  0  0  0  0  0  0
  147.3924  132.7016  155.3457 H   0  0  0  0  0  0  0  0  0  0  0  0
  146.4727  134.4347  156.9096 H   0  0  0  0  0  0  0  0  0  0  0  0
  149.3446  135.7147  154.8677 H   0  0  0  0  0  0  0  0  0  0  0  0
  148.6002  134.3224  154.0992 H   0  0  0  0  0  0  0  0  0  0  0  0
  148.9494  134.2879  155.8318 H   0  0  0  0  0  0  0  0  0  0  0  0
  146.1707  137.9792  158.6583 H   0  0  0  0  0  0  0  0  0  0  0  0
  149.9838  139.6835  153.7539 H   0  0  0  0  0  0  0  0  0  0  0  0
  149.7727  141.6622  155.2293 H   0  0  0  0  0  0  0  0  0  0  0  0
  148.2497  141.7494  156.0723 H   0  0  0  0  0  0  0  0  0  0  0  0
  149.4585  140.5103  158.0187 H   0  0  0  0  0  0  0  0  0  0  0  0
  148.6926  142.7970  158.2957 H   0  0  0  0  0  0  0  0  0  0  0  0
  150.2162  142.5530  159.1086 H   0  0  0  0  0  0  0  0  0  0  0  0
  149.5957  144.1561  156.9932 H   0  0  0  0  0  0  0  0  0  0  0  0
  151.9993  141.6579  156.9194 H   0  0  0  0  0  0  0  0  0  0  0  0
  152.7817  141.2266  158.9381 H   0  0  0  0  0  0  0  0  0  0  0  0
  151.3497  140.3661  159.4715 H   0  0  0  0  0  0  0  0  0  0  0  0
  153.7295  139.0524  158.9161 H   0  0  0  0  0  0  0  0  0  0  0  0
  152.1508  138.2900  158.6925 H   0  0  0  0  0  0  0  0  0  0  0  0
  150.9896  138.8323  156.4683 H   0  0  0  0  0  0  0  0  0  0  0  0
  151.8934  139.8825  155.3740 H   0  0  0  0  0  0  0  0  0  0  0  0
  144.1644  134.3028  156.1913 H   0  0  0  0  0  0  0  0  0  0  0  0
  144.6576  135.9567  156.0696 H   0  0  0  0  0  0  0  0  0  0  0  0
  145.0261  135.6671  153.5999 H   0  0  0  0  0  0  0  0  0  0  0  0
  142.8096  136.3853  154.6236 H   0  0  0  0  0  0  0  0  0  0  0  0
  142.2366  134.7323  154.4415 H   0  0  0  0  0  0  0  0  0  0  0  0
  142.6498  135.7113  153.0284 H   0  0  0  0  0  0  0  0  0  0  0  0
  143.9840  132.9807  154.0483 H   0  0  0  0  0  0  0  0  0  0  0  0
  1  2  1  0  0  0  0
  1 30  1  0  0  0  0
  1 31  1  0  0  0  0
  1 32  1  0  0  0  0
  2  3  1  0  0  0  0
  2 33  1  0  0  0  0
  2 34  1  0  0  0  0
  3 28  1  0  0  0  0
  3  4  1  0  0  0  0
  3 64  1  0  0  0  0
  4  5  1  0  0  0  0
  4 35  1  0  0  0  0
  4 36  1  0  0  0  0
  5  6  1  0  0  0  0
  5 37  1  0  0  0  0
  5 38  1  0  0  0  0
  6  7  1  0  0  0  0
  6 27  1  0  0  0  0
  6 39  1  0  0  0  0
  7  8  1  0  0  0  0
  7  9  1  0  0  0  0
  8 40  1  0  0  0  0
  8 41  1  0  0  0  0
  8 42  1  0  0  0  0
  9 14  1  0  0  0  0
  9 10  2  0  0  0  0
 10 11  1  0  0  0  0
 11 12  2  0  0  0  0
 11 43  1  0  0  0  0
 12 13  1  0  0  0  0
 13 17  1  0  0  0  0
 13 14  2  0  0  0  0
 14 15  1  0  0  0  0
 15 16  2  0  0  0  0
 16 17  1  0  0  0  0
 16 44  1  0  0  0  0
 17 18  1  0  0  0  0
 18 19  1  0  0  0  0
 18 45  1  0  0  0  0
 18 46  1  0  0  0  0
 19 20  1  0  0  0  0
 19 22  1  0  0  0  0
 19 47  1  0  0  0  0
 20 21  1  0  0  0  0
 20 48  1  0  0  0  0
 20 49  1  0  0  0  0
 21 50  1  0  0  0  0
 22 26  1  0  0  0  0
 22 23  1  0  0  0  0
 22 51  1  0  0  0  0
 23 24  1  0  0  0  0
 23 52  1  0  0  0  0
 23 53  1  0  0  0  0
 24 25  1  0  0  0  0
 24 54  1  0  0  0  0
 24 55  1  0  0  0  0
 25 26  1  0  0  0  0
 26 56  1  0  0  0  0
 26 57  1  0  0  0  0
 27 28  1  0  0  0  0
 27 58  1  0  0  0  0
 27 59  1  0  0  0  0
 28 29  1  0  0  0  0
 28 60  1  0  0  0  0
 29 61  1  0  0  0  0
 29 62  1  0  0  0  0
 29 63  1  0  0  0  0
M  CHG  1   3   1
M  END
> <s_m_source_file>
AV-unprocessed.smi

> <i_m_source_file_index>
249

> <i_lp_mmshare_version>
43012

> <i_f3d_flags>
0

> <s_epik_input>
W0NIM11bQ0gyXU4xW0NIMl1bQ0gyXVtDQEhdKFtDSDJdW0NASF0xW0NIM10pTihbQ0gzXSljKG5bY0hdbjIpYyhjMjMpbltjSF1uM1tDSDJdW0NASF0oW0NIMl1bT0hdKVtDQEBIXTRbQ0gyXVtDSDJdT1tDSDJdNA==

> <s_epik_cmdline>
J2VwaWtfcHl0aG9uJywgJy1waCcsICc3LjAnLCAnLXRuJywgJzgnLCAnLW1hJywgJzIwMCcsICctbWV0YWxfYmluZGluZycsICctaW1hZScsICc8aW5maWxlLm1hZT4nLCAnLW9tYWUnLCAnPG91dGZpbGUubWFlPic=

> <r_lp_tautomer_probability>
1

> <r_epik_Ionization_Penalty>
0.00294688

> <r_epik_Ionization_Penalty_Charging>
0.00169971

> <r_epik_Ionization_Penalty_Neutral>
0.00124717

> <r_epik_State_Penalty>
-0

> <r_epik_Charging_Adjusted_Penalty>
0.00169971

> <i_epik_Tot_Q>
1

> <i_epik_Tot_abs_Q>
1

> <r_epik_Metal_State_Penalty>
-0

> <b_epik_Metal_Only>
0

> <s_lp_Force_Field>
OPLS_2005

> <r_lp_Energy>
58.1803

> <b_lp_Chiralities_Consistent>
1

> <s_lp_Variant>
AV-unprocessed.smi:249-26

> <Gold.Version>
5.8.1

> <Gold.Id.Protein>
6NUR|6NUR_protein|mol2

> <Gold.PLP.Fitness>
40.9064

> <Gold.PLP.PLP>
-26.8534

> <Gold.PLP.part.hbond>
-3.0000

> <Gold.PLP.part.metal>
0.0000

> <Gold.PLP.part.buried>
-6.1428

> <Gold.PLP.part.nonpolar>
-19.7764

> <Gold.PLP.part.repulsive>
1.1933

> <Gold.PLP.ligand.clash>
0.0000

> <Gold.PLP.ligand.torsion>
0.7668

> <Gold.PLP.Chemscore.Hbond>
4.0000

> <Gold.PLP.Chemscore.CHOScore>
0.9951

> <Gold.PLP.Chemscore.Metal>
0.0000

> <Gold.Chemscore.Hbonds>
donor molecule, donor type, donor heavy atom, donor atom, acceptor molecule, acceptor atom, score
      L1  H     3    64       P1 10957  2.00
      L1  H    21    50       P1  8028  1.00
      P1  H  7997  8009       L1    25  1.00
      L1  C    16    44       P1  7957  0.71

> <Gold.PLP.Chemscore.Internal.Correction>
0.6013

> <Gold.Rescore>
     Score         DG    S(hbond)    S(metal)    S(lipo)     H(rot)  DE(clash)    DE(int)     intcor
     11.86     -13.39       2.36        0.00      63.77       2.90       0.42       1.11       ----

> <Gold.Chemscore.Fitness>
11.8610

> <Gold.Chemscore.DG>
-13.3905

> <Gold.Chemscore.ZeroCoef>
-5.4800

> <Gold.Chemscore.Hbond>
2.3579

> <Gold.Chemscore.Metal>
0.0000

> <Gold.Chemscore.Lipo>
63.7683

> <Gold.Chemscore.Internal_Hbond>
0.0000

> <Gold.Chemscore.DEClash>
0.4233

> <Gold.Chemscore.DEInternal>
1.1063

> <Gold.Chemscore.Rot>
2.9006

> <Gold.Chemscore.Internal.Correction>
   9.000000E+99

> <Gold.Chemscore.Hbonds>
donor molecule, donor type, donor heavy atom, donor atom, acceptor molecule, acceptor atom, score
      L1  H     3    64       P1 10957  0.98
      L1  H    21    50       P1  8028  0.57
      P1  H  7997  8009       L1    25  0.57

> <Gold.Chemscore.Hbond.Weighted>
-7.8753

> <Gold.Chemscore.Metal.Weighted>
-0.0000

> <Gold.Chemscore.Lipo.Weighted>
-7.4609

> <Gold.Chemscore.Internal_Hbond.Weighted>
0.0000

> <Gold.Chemscore.DEClash.Weighted>
0.4233

> <Gold.Chemscore.DEInternal.Weighted>
1.1063

> <Gold.Chemscore.Rot.Weighted>
7.4256

> <Gold.Chemscore.Internal.Correction.Weighted>
   9.000000E+99

> <Gold.Protein.RotatedTorsions>
[ 6907 6896 6895 6894 ] final  -78.74 input  -60.11 | X-H torsion
[ 7974 7965 7964 7962 ] final   -7.69 input  175.53 | X-H torsion
[ 8008 7997 7996 7995 ] final -174.43 input   59.86 | X-H torsion
[ 10167 10162 10161 10158 ] final  100.13 input  -65.29 | X-H torsion
[ 10718 10713 10712 10709 ] final   72.23 input   66.30 | X-H torsion
[ 10763 10752 10751 10750 ] final -178.95 input  -60.55 | X-H torsion
[ 11005 11000 10999 10996 ] final   31.05 input  -57.11 | X-H torsion

> <Gold.Protein.ActiveResidues>
 VAL166  LYS551  ARG553  GLY616  TRP617  ASP618  TYR619  PRO620  LYS621  CYS622 
 ASP623  PHE694  ASN695  SER759  ASP760  ASP761  ALA762  ILE779  LEU786  VAL792 
 PHE793  MET794  SER795  GLU796  ALA797  LYS798  CYS799  TRP800  GLU811  SER814 

> <Gold.Protein.RotatedAtoms>
  150.6966  134.4226  159.5211 H   0  0  0  0  0  0  0  0  0  0  0  0  # atno 6907 bound_to 6896
  152.1967  134.8622  160.0521 H   0  0  0  0  0  0  0  0  0  0  0  0  # atno 6908 bound_to 6896
  151.9557  133.3645  159.4053 H   0  0  0  0  0  0  0  0  0  0  0  0  # atno 6909 bound_to 6896
  146.2300  140.2356  142.8341 H   0  0  0  0  0  0  0  0  0  0  0  0  # atno 7974 bound_to 7965
  155.9700  140.1161  157.0821 H   0  0  0  0  0  0  0  0  0  0  0  0  # atno 8008 bound_to 7997
  154.4154  140.1165  156.5361 H   0  0  0  0  0  0  0  0  0  0  0  0  # atno 8009 bound_to 7997
  155.6609  140.3473  155.4784 H   0  0  0  0  0  0  0  0  0  0  0  0  # atno 8010 bound_to 7997
  139.7555  144.6971  151.0369 H   0  0  0  0  0  0  0  0  0  0  0  0  # atno 10167 bound_to 10162
  157.6491  130.9568  150.0899 H   0  0  0  0  0  0  0  0  0  0  0  0  # atno 10718 bound_to 10713
  154.5412  135.2806  155.1094 H   0  0  0  0  0  0  0  0  0  0  0  0  # atno 10763 bound_to 10752
  154.2575  135.6328  153.5266 H   0  0  0  0  0  0  0  0  0  0  0  0  # atno 10764 bound_to 10752
  152.9979  135.5597  154.5952 H   0  0  0  0  0  0  0  0  0  0  0  0  # atno 10765 bound_to 10752
  140.2880  134.2897  155.7783 H   0  0  0  0  0  0  0  0  0  0  0  0  # atno 11005 bound_to 11000
  144.9524  140.8192  143.5564 LP  0  0  0  0  0  0  0  0  0  0  0  0  # atno 17320 bound_to 7965
  145.2318  139.2111  143.5038 LP  0  0  0  0  0  0  0  0  0  0  0  0  # atno 17321 bound_to 7965
  140.7802  143.4758  151.0084 LP  0  0  0  0  0  0  0  0  0  0  0  0  # atno 17342 bound_to 10162
  139.8445  143.7519  152.3179 LP  0  0  0  0  0  0  0  0  0  0  0  0  # atno 17343 bound_to 10162
  156.1851  130.3652  149.8983 LP  0  0  0  0  0  0  0  0  0  0  0  0  # atno 17370 bound_to 10713
  156.6926  130.8901  151.3590 LP  0  0  0  0  0  0  0  0  0  0  0  0  # atno 17371 bound_to 10713
  141.2151  133.7567  156.9581 LP  0  0  0  0  0  0  0  0  0  0  0  0  # atno 17394 bound_to 11000
  140.1222  134.9410  157.2219 LP  0  0  0  0  0  0  0  0  0  0  0  0  # atno 17395 bound_to 11000

$$$$
