AV-unprocessed.smi:3258|AV-procd|sdf|12471|dock5
  -GOLD-   2272018373D 1   1.00000     0.00000
 Structure written by MMmdl.
 38 39  0  0  0  0  0  0  0  0  1 V2000
  143.2947  136.2705  152.5584 C   0  0  0  0  0  0  0  0  0  0  0  0
  144.8113  136.5175  152.5190 C   0  0  1  0  0  0  0  0  0  0  0  0
  145.4832  135.9674  151.2367 C   0  0  0  0  0  0  0  0  0  0  0  0
  145.4163  134.5199  151.1137 N   0  0  0  0  0  0  0  0  0  0  0  0
  144.3011  133.7209  150.9711 C   0  0  0  0  0  0  0  0  0  0  0  0
  144.7334  132.4276  150.9006 C   0  0  0  0  0  0  0  0  0  0  0  0
  146.1474  132.5370  151.0163 C   0  0  0  0  0  0  0  0  0  0  0  0
  146.5528  133.7895  151.1453 N   0  0  0  0  0  0  0  0  0  0  0  0
  145.0708  137.9454  152.6917 N   0  0  0  0  0  0  0  0  0  0  0  0
  146.1996  138.4770  153.1806 C   0  0  0  0  0  0  0  0  0  0  0  0
  147.1521  137.8151  153.5938 O   0  0  0  0  0  0  0  0  0  0  0  0
  146.1730  139.8163  153.1401 N   0  0  0  0  0  0  0  0  0  0  0  0
  147.2744  140.6934  153.5228 C   0  0  0  0  0  0  0  0  0  0  0  0
  146.7910  141.8541  154.4123 C   0  0  1  0  0  0  0  0  0  0  0  0
  145.9539  142.8817  153.6788 C   0  0  0  0  0  0  0  0  0  0  0  0
  145.2644  143.6085  154.8298 C   0  0  0  0  0  0  0  0  0  0  0  0
  145.1199  142.6454  155.8701 O   0  0  0  0  0  0  0  0  0  0  0  0
  145.8372  141.4595  155.5418 C   0  0  0  0  0  0  0  0  0  0  0  0
  143.0679  135.2115  152.4331 H   0  0  0  0  0  0  0  0  0  0  0  0
  142.7739  136.8183  151.7725 H   0  0  0  0  0  0  0  0  0  0  0  0
  142.8729  136.5856  153.5134 H   0  0  0  0  0  0  0  0  0  0  0  0
  145.2465  135.9944  153.3723 H   0  0  0  0  0  0  0  0  0  0  0  0
  145.0431  136.4147  150.3441 H   0  0  0  0  0  0  0  0  0  0  0  0
  146.5348  136.2559  151.2262 H   0  0  0  0  0  0  0  0  0  0  0  0
  143.3045  134.1353  150.9296 H   0  0  0  0  0  0  0  0  0  0  0  0
  144.1315  131.5385  150.7861 H   0  0  0  0  0  0  0  0  0  0  0  0
  146.8860  131.7492  151.0114 H   0  0  0  0  0  0  0  0  0  0  0  0
  144.3503  138.5771  152.3742 H   0  0  0  0  0  0  0  0  0  0  0  0
  145.3416  140.2627  152.7812 H   0  0  0  0  0  0  0  0  0  0  0  0
  148.0010  140.0936  154.0712 H   0  0  0  0  0  0  0  0  0  0  0  0
  147.7957  141.0733  152.6423 H   0  0  0  0  0  0  0  0  0  0  0  0
  147.6547  142.3609  154.8466 H   0  0  0  0  0  0  0  0  0  0  0  0
  146.5449  143.5483  153.0500 H   0  0  0  0  0  0  0  0  0  0  0  0
  145.2104  142.3891  153.0504 H   0  0  0  0  0  0  0  0  0  0  0  0
  145.8917  144.4219  155.1964 H   0  0  0  0  0  0  0  0  0  0  0  0
  144.3016  144.0288  154.5383 H   0  0  0  0  0  0  0  0  0  0  0  0
  145.1224  140.7098  155.1994 H   0  0  0  0  0  0  0  0  0  0  0  0
  146.3584  141.0572  156.4109 H   0  0  0  0  0  0  0  0  0  0  0  0
  1  2  1  0  0  0  0
  1 19  1  0  0  0  0
  1 20  1  0  0  0  0
  1 21  1  0  0  0  0
  2  3  1  0  0  0  0
  2  9  1  0  0  0  0
  2 22  1  0  0  0  0
  3  4  1  0  0  0  0
  3 23  1  0  0  0  0
  3 24  1  0  0  0  0
  4  8  1  0  0  0  0
  4  5  1  0  0  0  0
  5  6  2  0  0  0  0
  5 25  1  0  0  0  0
  6  7  1  0  0  0  0
  6 26  1  0  0  0  0
  7  8  2  0  0  0  0
  7 27  1  0  0  0  0
  9 10  1  0  0  0  0
  9 28  1  0  0  0  0
 10 11  2  0  0  0  0
 10 12  1  0  0  0  0
 12 13  1  0  0  0  0
 12 29  1  0  0  0  0
 13 14  1  0  0  0  0
 13 30  1  0  0  0  0
 13 31  1  0  0  0  0
 14 18  1  0  0  0  0
 14 15  1  0  0  0  0
 14 32  1  0  0  0  0
 15 16  1  0  0  0  0
 15 33  1  0  0  0  0
 15 34  1  0  0  0  0
 16 17  1  0  0  0  0
 16 35  1  0  0  0  0
 16 36  1  0  0  0  0
 17 18  1  0  0  0  0
 18 37  1  0  0  0  0
 18 38  1  0  0  0  0
M  END
> <s_m_source_file>
AV-unprocessed.smi

> <i_m_source_file_index>
3258

> <i_lp_mmshare_version>
43012

> <i_f3d_flags>
0

> <s_epik_input>
bjFbY0hdW2NIXVtjSF1uMVtDSDJdW0NAQEhdKFtDSDNdKVtOSF1DKD1PKVtOSF1bQ0gyXVtDQEBIXTJbQ0gyXVtDSDJdT1tDSDJdMg==

> <s_epik_cmdline>
J2VwaWtfcHl0aG9uJywgJy1waCcsICc3LjAnLCAnLXRuJywgJzgnLCAnLW1hJywgJzIwMCcsICctbWV0YWxfYmluZGluZycsICctaW1hZScsICc8aW5maWxlLm1hZT4nLCAnLW9tYWUnLCAnPG91dGZpbGUubWFlPic=

> <r_lp_tautomer_probability>
1

> <r_epik_Ionization_Penalty>
6.85079e-05

> <r_epik_Ionization_Penalty_Charging>
0

> <r_epik_Ionization_Penalty_Neutral>
6.85079e-05

> <r_epik_State_Penalty>
-0

> <r_epik_Charging_Adjusted_Penalty>
0

> <i_epik_Tot_Q>
0

> <i_epik_Tot_abs_Q>
0

> <r_epik_Metal_State_Penalty>
-0

> <b_epik_Metal_Only>
0

> <s_lp_Force_Field>
OPLS_2005

> <r_lp_Energy>
16.3591

> <b_lp_Chiralities_Consistent>
1

> <s_lp_Variant>
AV-unprocessed.smi:3258-4

> <Gold.Version>
5.8.1

> <Gold.Id.Protein>
6NUR|6NUR_protein|mol2

> <Gold.PLP.Fitness>
43.5195

> <Gold.PLP.PLP>
-32.6922

> <Gold.PLP.part.hbond>
-2.7047

> <Gold.PLP.part.metal>
0.0000

> <Gold.PLP.part.buried>
-7.1939

> <Gold.PLP.part.nonpolar>
-26.2255

> <Gold.PLP.part.repulsive>
2.0112

> <Gold.PLP.ligand.clash>
0.0000

> <Gold.PLP.ligand.torsion>
0.5229

> <Gold.PLP.Chemscore.Hbond>
1.9440

> <Gold.PLP.Chemscore.CHOScore>
2.0000

> <Gold.PLP.Chemscore.Metal>
0.0000

> <Gold.Chemscore.Hbonds>
donor molecule, donor type, donor heavy atom, donor atom, acceptor molecule, acceptor atom, score
      L1  H     9    28       P1 10175  0.91
      L1  H    12    29       P1 10175  1.00
      L1  C     5    25       P1 10186  0.61
      L1  C     7    27       P1 10747  1.00

> <Gold.PLP.Chemscore.Internal.Correction>
0.0410

> <Gold.Rescore>
     Score         DG    S(hbond)    S(metal)    S(lipo)     H(rot)  DE(clash)    DE(int)     intcor
     13.81     -14.27       1.86        0.00      63.12       1.87       0.03       0.44       ----

> <Gold.Chemscore.Fitness>
13.8067

> <Gold.Chemscore.DG>
-14.2689

> <Gold.Chemscore.ZeroCoef>
-5.4800

> <Gold.Chemscore.Hbond>
1.8555

> <Gold.Chemscore.Metal>
0.0000

> <Gold.Chemscore.Lipo>
63.1170

> <Gold.Chemscore.Internal_Hbond>
0.0000

> <Gold.Chemscore.DEClash>
0.0270

> <Gold.Chemscore.DEInternal>
0.4353

> <Gold.Chemscore.Rot>
1.8724

> <Gold.Chemscore.Internal.Correction>
   9.000000E+99

> <Gold.Chemscore.Hbonds>
donor molecule, donor type, donor heavy atom, donor atom, acceptor molecule, acceptor atom, score
      L1  H     9    28       P1 10175  0.87
      L1  H    12    29       P1 10175  0.94

> <Gold.Chemscore.Hbond.Weighted>
-6.1975

> <Gold.Chemscore.Metal.Weighted>
-0.0000

> <Gold.Chemscore.Lipo.Weighted>
-7.3847

> <Gold.Chemscore.Internal_Hbond.Weighted>
0.0000

> <Gold.Chemscore.DEClash.Weighted>
0.0270

> <Gold.Chemscore.DEInternal.Weighted>
0.4353

> <Gold.Chemscore.Rot.Weighted>
4.7933

> <Gold.Chemscore.Internal.Correction.Weighted>
   9.000000E+99

> <Gold.Protein.RotatedTorsions>
[ 6907 6896 6895 6894 ] final -119.58 input  -60.11 | X-H torsion
[ 7974 7965 7964 7962 ] final  173.01 input  175.53 | X-H torsion
[ 8008 7997 7996 7995 ] final  -52.01 input   59.86 | X-H torsion
[ 10167 10162 10161 10158 ] final  -23.46 input  -65.29 | X-H torsion
[ 10718 10713 10712 10709 ] final -133.65 input   66.30 | X-H torsion
[ 10763 10752 10751 10750 ] final  105.50 input  -60.55 | X-H torsion
[ 11005 11000 10999 10996 ] final  -21.03 input  -57.11 | X-H torsion

> <Gold.Protein.ActiveResidues>
 VAL166  LYS551  ARG553  GLY616  TRP617  ASP618  TYR619  PRO620  LYS621  CYS622 
 ASP623  PHE694  ASN695  SER759  ASP760  ASP761  ALA762  ILE779  LEU786  VAL792 
 PHE793  MET794  SER795  GLU796  ALA797  LYS798  CYS799  TRP800  GLU811  SER814 

> <Gold.Protein.RotatedAtoms>
  150.8317  133.8080  159.3095 H   0  0  0  0  0  0  0  0  0  0  0  0  # atno 6907 bound_to 6896
  151.5807  135.1057  160.0026 H   0  0  0  0  0  0  0  0  0  0  0  0  # atno 6908 bound_to 6896
  152.4396  133.7381  159.6682 H   0  0  0  0  0  0  0  0  0  0  0  0  # atno 6909 bound_to 6896
  144.7254  139.9583  143.6434 H   0  0  0  0  0  0  0  0  0  0  0  0  # atno 7974 bound_to 7965
  154.4096  140.1234  156.4922 H   0  0  0  0  0  0  0  0  0  0  0  0  # atno 8008 bound_to 7997
  155.6979  140.3495  155.4901 H   0  0  0  0  0  0  0  0  0  0  0  0  # atno 8009 bound_to 7997
  155.9411  140.1087  157.1044 H   0  0  0  0  0  0  0  0  0  0  0  0  # atno 8010 bound_to 7997
  140.7288  143.4441  151.0613 H   0  0  0  0  0  0  0  0  0  0  0  0  # atno 10167 bound_to 10162
  156.2471  130.7131  151.1016 H   0  0  0  0  0  0  0  0  0  0  0  0  # atno 10718 bound_to 10713
  153.3802  135.3908  155.1851 H   0  0  0  0  0  0  0  0  0  0  0  0  # atno 10763 bound_to 10752
  154.8706  135.3723  154.4867 H   0  0  0  0  0  0  0  0  0  0  0  0  # atno 10764 bound_to 10752
  153.5343  135.7085  153.5729 H   0  0  0  0  0  0  0  0  0  0  0  0  # atno 10765 bound_to 10752
  140.8522  133.7849  155.9978 H   0  0  0  0  0  0  0  0  0  0  0  0  # atno 11005 bound_to 11000
  146.0657  139.3648  143.0554 LP  0  0  0  0  0  0  0  0  0  0  0  0  # atno 17320 bound_to 7965
  145.8034  140.9760  143.0987 LP  0  0  0  0  0  0  0  0  0  0  0  0  # atno 17321 bound_to 7965
  139.8111  143.7950  152.3171 LP  0  0  0  0  0  0  0  0  0  0  0  0  # atno 17342 bound_to 10162
  139.8000  144.7378  150.9838 LP  0  0  0  0  0  0  0  0  0  0  0  0  # atno 17343 bound_to 10162
  157.7199  131.0687  150.6176 LP  0  0  0  0  0  0  0  0  0  0  0  0  # atno 17370 bound_to 10713
  156.6253  130.4417  149.5806 LP  0  0  0  0  0  0  0  0  0  0  0  0  # atno 17371 bound_to 10713
  140.8778  134.2649  157.5159 LP  0  0  0  0  0  0  0  0  0  0  0  0  # atno 17394 bound_to 11000
  139.8704  134.9599  156.4349 LP  0  0  0  0  0  0  0  0  0  0  0  0  # atno 17395 bound_to 11000

$$$$
