AV-unprocessed.smi:99|AV-procd|sdf|886|dock5
  -GOLD-   2262017363D 1   1.00000     0.00000
 Structure written by MMmdl.
 52 55  0  0  0  0  0  0  0  0  2 V2000
  147.6888  137.3172  160.4990 O   0  0  0  0  0  0  0  0  0  0  0  0
  148.2163  136.2504  160.1781 C   0  0  0  0  0  0  0  0  0  0  0  0
  149.3034  136.1635  159.3878 O   0  0  0  0  0  0  0  0  0  0  0  0
  149.5882  137.1951  158.4587 C   0  0  0  0  0  0  0  0  0  0  0  0
  150.9747  136.9475  157.8319 C   0  0  1  0  0  0  0  0  0  0  0  0
  150.9295  135.8596  156.9122 O   0  0  0  0  0  0  0  0  0  0  0  0
  150.5596  136.2906  155.6313 C   0  0  1  0  0  0  0  0  0  0  0  0
  149.1036  135.9234  155.3773 N   0  0  0  0  0  0  0  0  0  0  0  0
  148.1285  136.9029  155.2564 C   0  0  0  0  0  0  0  0  0  0  0  0
  146.8308  136.5918  155.0636 C   0  0  0  0  0  0  0  0  0  0  0  0
  146.4327  135.1897  155.0065 C   0  0  0  0  0  0  0  0  0  0  0  0
  145.2560  134.9123  154.7839 O   0  0  0  0  0  0  0  0  0  0  0  0
  147.3923  134.2433  155.2136 N   0  5  0  0  0  0  0  0  0  0  0  0
  148.7025  134.5580  155.4309 C   0  0  0  0  0  0  0  0  0  0  0  0
  149.5582  133.7102  155.6842 O   0  0  0  0  0  0  0  0  0  0  0  0
  150.8060  137.8194  155.6063 C   0  0  2  0  0  0  0  0  0  0  0  0
  151.6835  138.1953  154.5653 O   0  0  0  0  0  0  0  0  0  0  0  0
  151.4741  138.0921  156.9467 C   0  0  1  0  0  0  0  0  0  0  0  0
  151.0973  139.3748  157.4340 O   0  0  0  0  0  0  0  0  0  0  0  0
  151.3561  140.4889  156.7178 C   0  0  0  0  0  0  0  0  0  0  0  0
  151.4082  140.5137  155.4867 O   0  0  0  0  0  0  0  0  0  0  0  0
  151.5830  141.6869  157.5762 C   0  0  0  0  0  0  0  0  0  0  0  0
  152.0950  141.5166  158.8837 C   0  0  0  0  0  0  0  0  0  0  0  0
  152.3201  142.6300  159.7164 C   0  0  0  0  0  0  0  0  0  0  0  0
  152.0346  143.9273  159.2522 C   0  0  0  0  0  0  0  0  0  0  0  0
  151.5233  144.1097  157.9542 C   0  0  0  0  0  0  0  0  0  0  0  0
  151.2981  142.9977  157.1198 C   0  0  0  0  0  0  0  0  0  0  0  0
  147.7134  134.9177  160.6183 C   0  0  0  0  0  0  0  0  0  0  0  0
  147.9655  133.7820  159.8143 C   0  0  0  0  0  0  0  0  0  0  0  0
  147.5076  132.5094  160.2070 C   0  0  0  0  0  0  0  0  0  0  0  0
  146.7928  132.3568  161.4093 C   0  0  0  0  0  0  0  0  0  0  0  0
  146.5365  133.4787  162.2185 C   0  0  0  0  0  0  0  0  0  0  0  0
  146.9933  134.7523  161.8273 C   0  0  0  0  0  0  0  0  0  0  0  0
  148.8173  137.2521  157.6896 H   0  0  0  0  0  0  0  0  0  0  0  0
  149.5791  138.1459  158.9925 H   0  0  0  0  0  0  0  0  0  0  0  0
  151.6951  136.7359  158.6227 H   0  0  0  0  0  0  0  0  0  0  0  0
  151.1151  135.7325  154.8758 H   0  0  0  0  0  0  0  0  0  0  0  0
  148.3891  137.9476  155.3226 H   0  0  0  0  0  0  0  0  0  0  0  0
  146.0902  137.3725  154.9694 H   0  0  0  0  0  0  0  0  0  0  0  0
  149.8598  138.3581  155.5348 H   0  0  0  0  0  0  0  0  0  0  0  0
  151.7421  139.1395  154.5599 H   0  0  0  0  0  0  0  0  0  0  0  0
  152.5569  138.0113  156.8327 H   0  0  0  0  0  0  0  0  0  0  0  0
  152.3211  140.5300  159.2624 H   0  0  0  0  0  0  0  0  0  0  0  0
  152.7122  142.4880  160.7127 H   0  0  0  0  0  0  0  0  0  0  0  0
  152.2077  144.7807  159.8910 H   0  0  0  0  0  0  0  0  0  0  0  0
  151.3033  145.1049  157.5964 H   0  0  0  0  0  0  0  0  0  0  0  0
  150.9046  143.1741  156.1292 H   0  0  0  0  0  0  0  0  0  0  0  0
  148.5133  133.8745  158.8874 H   0  0  0  0  0  0  0  0  0  0  0  0
  147.7053  131.6495  159.5845 H   0  0  0  0  0  0  0  0  0  0  0  0
  146.4421  131.3807  161.7104 H   0  0  0  0  0  0  0  0  0  0  0  0
  145.9885  133.3630  163.1420 H   0  0  0  0  0  0  0  0  0  0  0  0
  146.7814  135.5918  162.4732 H   0  0  0  0  0  0  0  0  0  0  0  0
  1  2  2  0  0  0  0
  2  3  1  0  0  0  0
  2 28  1  0  0  0  0
  3  4  1  0  0  0  0
  4  5  1  0  0  0  0
  4 34  1  0  0  0  0
  4 35  1  0  0  0  0
  5 18  1  0  0  0  0
  5  6  1  0  0  0  0
  5 36  1  0  0  0  0
  6  7  1  0  0  0  0
  7  8  1  0  0  0  0
  7 16  1  0  0  0  0
  7 37  1  0  0  0  0
  8 14  1  0  0  0  0
  8  9  1  0  0  0  0
  9 10  2  0  0  0  0
  9 38  1  0  0  0  0
 10 11  1  0  0  0  0
 10 39  1  0  0  0  0
 11 12  2  0  0  0  0
 11 13  1  0  0  0  0
 13 14  1  0  0  0  0
 14 15  2  0  0  0  0
 16 17  1  0  0  0  0
 16 18  1  0  0  0  0
 16 40  1  0  0  0  0
 17 41  1  0  0  0  0
 18 19  1  0  0  0  0
 18 42  1  0  0  0  0
 19 20  1  0  0  0  0
 20 21  2  0  0  0  0
 20 22  1  0  0  0  0
 22 27  1  0  0  0  0
 22 23  2  0  0  0  0
 23 24  1  0  0  0  0
 23 43  1  0  0  0  0
 24 25  2  0  0  0  0
 24 44  1  0  0  0  0
 25 26  1  0  0  0  0
 25 45  1  0  0  0  0
 26 27  2  0  0  0  0
 26 46  1  0  0  0  0
 27 47  1  0  0  0  0
 28 33  1  0  0  0  0
 28 29  2  0  0  0  0
 29 30  1  0  0  0  0
 29 48  1  0  0  0  0
 30 31  2  0  0  0  0
 30 49  1  0  0  0  0
 31 32  1  0  0  0  0
 31 50  1  0  0  0  0
 32 33  2  0  0  0  0
 32 51  1  0  0  0  0
 33 52  1  0  0  0  0
M  CHG  1  13  -1
M  END
> <s_m_source_file>
AV-unprocessed.smi

> <i_m_source_file_index>
99

> <i_lp_mmshare_version>
43012

> <i_f3d_flags>
0

> <s_epik_input>
W2NIXTFbY0hdW2NIXVtjSF1bY0hdYzFDKD1PKU9bQ0gyXVtDQEBIXTJPW0NAQEhdKG4zW2NIXVtjSF1jKD1PKVtuSF1jMz1PKVtDQEBIXShbT0hdKVtDQEhdMk9DKD1PKWM0W2NIXVtjSF1bY0hdW2NIXVtjSF00

> <s_epik_cmdline>
J2VwaWtfcHl0aG9uJywgJy1waCcsICc3LjAnLCAnLXRuJywgJzgnLCAnLW1hJywgJzIwMCcsICctbWV0YWxfYmluZGluZycsICctaW1hZScsICc8aW5maWxlLm1hZT4nLCAnLW9tYWUnLCAnPG91dGZpbGUubWFlPic=

> <r_lp_tautomer_probability>
1

> <r_epik_Ionization_Penalty>
2.89159

> <r_epik_Ionization_Penalty_Charging>
2.1077e-08

> <r_epik_Ionization_Penalty_Neutral>
2.89159

> <r_epik_State_Penalty>
2.88671

> <r_epik_Charging_Adjusted_Penalty>
2.88671

> <i_epik_Tot_Q>
-1

> <i_epik_Tot_abs_Q>
1

> <r_epik_Metal_State_Penalty>
0.0727308

> <b_epik_Metal_Only>
1

> <s_epik_Chemistry_Notes>
This compound has an ester and may undergo hydrolysis at high or low pH. This compound contains an acetal/aminal-like group ( X-CH(R)-Y where X, Y are N, S, or O) that may be acid/base labile, releasing an aldehyde.

> <s_lp_Force_Field>
OPLS_2005

> <r_lp_Energy>
40.5539

> <b_lp_Chiralities_Consistent>
1

> <s_lp_Variant>
AV-unprocessed.smi:99-22

> <Gold.Version>
5.8.1

> <Gold.Id.Protein>
6NUR|6NUR_protein|mol2

> <Gold.PLP.Fitness>
52.2045

> <Gold.PLP.PLP>
-47.5690

> <Gold.PLP.part.hbond>
-4.0000

> <Gold.PLP.part.metal>
0.0000

> <Gold.PLP.part.buried>
-7.5306

> <Gold.PLP.part.nonpolar>
-37.4535

> <Gold.PLP.part.repulsive>
0.1108

> <Gold.PLP.ligand.clash>
0.0000

> <Gold.PLP.ligand.torsion>
1.4952

> <Gold.PLP.Chemscore.Hbond>
2.4320

> <Gold.PLP.Chemscore.CHOScore>
0.0000

> <Gold.PLP.Chemscore.Metal>
0.0000

> <Gold.Chemscore.Hbonds>
donor molecule, donor type, donor heavy atom, donor atom, acceptor molecule, acceptor atom, score
      P1  H  6931  6943       L1     1  0.48
      P1  H  6934  6947       L1     1  0.90
      P1  H  7989  7998       L1    21  0.85

> <Gold.PLP.Chemscore.Internal.Correction>
0.3298

> <Gold.Rescore>
     Score         DG    S(hbond)    S(metal)    S(lipo)     H(rot)  DE(clash)    DE(int)     intcor
     12.40     -19.18       2.32        0.00     119.39       3.13       0.83       5.95       ----

> <Gold.Chemscore.Fitness>
12.4044

> <Gold.Chemscore.DG>
-19.1794

> <Gold.Chemscore.ZeroCoef>
-5.4800

> <Gold.Chemscore.Hbond>
2.3220

> <Gold.Chemscore.Metal>
0.0000

> <Gold.Chemscore.Lipo>
119.3901

> <Gold.Chemscore.Internal_Hbond>
0.0000

> <Gold.Chemscore.DEClash>
0.8273

> <Gold.Chemscore.DEInternal>
5.9478

> <Gold.Chemscore.Rot>
3.1346

> <Gold.Chemscore.Internal.Correction>
   9.000000E+99

> <Gold.Chemscore.Hbonds>
donor molecule, donor type, donor heavy atom, donor atom, acceptor molecule, acceptor atom, score
      P1  H  6931  6943       L1     1  0.27
      P1  H  6934  6947       L1     1  0.88
      P1  H  7989  7998       L1    21  0.78

> <Gold.Chemscore.Hbond.Weighted>
-7.7554

> <Gold.Chemscore.Metal.Weighted>
-0.0000

> <Gold.Chemscore.Lipo.Weighted>
-13.9686

> <Gold.Chemscore.Internal_Hbond.Weighted>
0.0000

> <Gold.Chemscore.DEClash.Weighted>
0.8273

> <Gold.Chemscore.DEInternal.Weighted>
5.9478

> <Gold.Chemscore.Rot.Weighted>
8.0246

> <Gold.Chemscore.Internal.Correction.Weighted>
   9.000000E+99

> <Gold.Protein.RotatedTorsions>
[ 6907 6896 6895 6894 ] final -119.64 input  -60.11 | X-H torsion
[ 7974 7965 7964 7962 ] final  -54.82 input  175.53 | X-H torsion
[ 8008 7997 7996 7995 ] final   71.89 input   59.86 | X-H torsion
[ 10167 10162 10161 10158 ] final  -18.29 input  -65.29 | X-H torsion
[ 10718 10713 10712 10709 ] final  -46.81 input   66.30 | X-H torsion
[ 10763 10752 10751 10750 ] final   23.95 input  -60.55 | X-H torsion
[ 11005 11000 10999 10996 ] final -102.11 input  -57.11 | X-H torsion

> <Gold.Protein.ActiveResidues>
 VAL166  LYS551  ARG553  GLY616  TRP617  ASP618  TYR619  PRO620  LYS621  CYS622 
 ASP623  PHE694  ASN695  SER759  ASP760  ASP761  ALA762  ILE779  LEU786  VAL792 
 PHE793  MET794  SER795  GLU796  ALA797  LYS798  CYS799  TRP800  GLU811  SER814 

> <Gold.Protein.RotatedAtoms>
  150.8323  133.8071  159.3093 H   0  0  0  0  0  0  0  0  0  0  0  0  # atno 6907 bound_to 6896
  151.5798  135.1057  160.0024 H   0  0  0  0  0  0  0  0  0  0  0  0  # atno 6908 bound_to 6896
  152.4400  133.7389  159.6686 H   0  0  0  0  0  0  0  0  0  0  0  0  # atno 6909 bound_to 6896
  145.8812  140.8143  142.9839 H   0  0  0  0  0  0  0  0  0  0  0  0  # atno 7974 bound_to 7965
  155.7607  140.3486  155.5196 H   0  0  0  0  0  0  0  0  0  0  0  0  # atno 8008 bound_to 7997
  155.8917  140.1019  157.1435 H   0  0  0  0  0  0  0  0  0  0  0  0  # atno 8009 bound_to 7997
  154.4034  140.1303  156.4311 H   0  0  0  0  0  0  0  0  0  0  0  0  # atno 8010 bound_to 7997
  140.7257  143.4931  150.9966 H   0  0  0  0  0  0  0  0  0  0  0  0  # atno 10167 bound_to 10162
  156.2146  130.4162  149.9071 H   0  0  0  0  0  0  0  0  0  0  0  0  # atno 10718 bound_to 10713
  153.0800  135.6616  154.0065 H   0  0  0  0  0  0  0  0  0  0  0  0  # atno 10763 bound_to 10752
  153.9690  135.2966  155.3430 H   0  0  0  0  0  0  0  0  0  0  0  0  # atno 10764 bound_to 10752
  154.7197  135.5170  153.8864 H   0  0  0  0  0  0  0  0  0  0  0  0  # atno 10765 bound_to 10752
  141.1203  133.8532  157.1318 H   0  0  0  0  0  0  0  0  0  0  0  0  # atno 11005 bound_to 11000
  144.6727  140.1387  143.7438 LP  0  0  0  0  0  0  0  0  0  0  0  0  # atno 17320 bound_to 7965
  145.9021  139.2436  143.1487 LP  0  0  0  0  0  0  0  0  0  0  0  0  # atno 17321 bound_to 7965
  139.8637  143.7282  152.3171 LP  0  0  0  0  0  0  0  0  0  0  0  0  # atno 17342 bound_to 10162
  139.7506  144.7535  151.0512 LP  0  0  0  0  0  0  0  0  0  0  0  0  # atno 17343 bound_to 10162
  156.6738  130.8831  151.3566 LP  0  0  0  0  0  0  0  0  0  0  0  0  # atno 17370 bound_to 10713
  157.7056  130.9381  150.0921 LP  0  0  0  0  0  0  0  0  0  0  0  0  # atno 17371 bound_to 10713
  140.0155  134.9969  157.0484 LP  0  0  0  0  0  0  0  0  0  0  0  0  # atno 17394 bound_to 11000
  140.4527  134.1565  155.7183 LP  0  0  0  0  0  0  0  0  0  0  0  0  # atno 17395 bound_to 11000

$$$$
