AV-unprocessed.smi:881|AV-procd|sdf|4036|dock7
  -GOLD-   22720 1533D 1   1.00000     0.00000
 Structure written by MMmdl.
 31 32  0  0  0  0  0  0  0  0  2 V2000
  152.5640  140.0535  157.0649 O   0  0  0  0  0  0  0  0  0  0  0  0
  151.6769  140.6892  156.4906 C   0  0  0  0  0  0  0  0  0  0  0  0
  150.9141  140.2498  155.4634 N   0  5  0  0  0  0  0  0  0  0  0  0
  150.7448  138.9317  155.2681 C   0  0  0  0  0  0  0  0  0  0  0  0
  151.6790  138.0294  155.6086 N   0  0  0  0  0  0  0  0  0  0  0  0
  151.3046  136.7227  155.3264 N   0  0  0  0  0  0  0  0  0  0  0  0
  150.0874  136.6721  154.7858 C   0  0  0  0  0  0  0  0  0  0  0  0
  149.2868  138.2150  154.5754 S   0  0  0  0  0  0  0  0  0  0  0  0
  151.3925  141.9425  156.8749 N   0  0  0  0  0  0  0  0  0  0  0  0
  152.0453  142.6917  157.9476 C   0  0  0  0  0  0  0  0  0  0  0  0
  151.8758  141.9284  159.2779 C   0  0  0  0  0  0  0  0  0  0  0  0
  152.4744  142.6213  160.5142 C   0  0  0  0  0  0  0  0  0  0  0  0
  151.6335  143.8158  160.9922 C   0  0  0  0  0  0  0  0  0  0  0  0
  151.9455  145.1585  160.3084 C   0  0  0  0  0  0  0  0  0  0  0  0
  152.3078  145.1011  158.8140 C   0  0  0  0  0  0  0  0  0  0  0  0
  151.4750  144.1254  157.9652 C   0  0  0  0  0  0  0  0  0  0  0  0
  149.6570  135.7204  154.5122 H   0  0  0  0  0  0  0  0  0  0  0  0
  150.6567  142.4189  156.3748 H   0  0  0  0  0  0  0  0  0  0  0  0
  153.1103  142.7601  157.7177 H   0  0  0  0  0  0  0  0  0  0  0  0
  150.8195  141.7190  159.4534 H   0  0  0  0  0  0  0  0  0  0  0  0
  152.3523  140.9522  159.1779 H   0  0  0  0  0  0  0  0  0  0  0  0
  152.5010  141.8876  161.3204 H   0  0  0  0  0  0  0  0  0  0  0  0
  153.5117  142.9108  160.3420 H   0  0  0  0  0  0  0  0  0  0  0  0
  150.5748  143.5830  160.8720 H   0  0  0  0  0  0  0  0  0  0  0  0
  151.7769  143.9448  162.0654 H   0  0  0  0  0  0  0  0  0  0  0  0
  151.0863  145.8163  160.4440 H   0  0  0  0  0  0  0  0  0  0  0  0
  152.7688  145.6425  160.8352 H   0  0  0  0  0  0  0  0  0  0  0  0
  152.1953  146.1064  158.4063 H   0  0  0  0  0  0  0  0  0  0  0  0
  153.3670  144.8663  158.7022 H   0  0  0  0  0  0  0  0  0  0  0  0
  151.4785  144.5017  156.9410 H   0  0  0  0  0  0  0  0  0  0  0  0
  150.4305  144.1306  158.2796 H   0  0  0  0  0  0  0  0  0  0  0  0
  1  2  2  0  0  0  0
  2  3  1  0  0  0  0
  2  9  1  0  0  0  0
  3  4  1  0  0  0  0
  4  8  1  0  0  0  0
  4  5  2  0  0  0  0
  5  6  1  0  0  0  0
  6  7  2  0  0  0  0
  7  8  1  0  0  0  0
  7 17  1  0  0  0  0
  9 10  1  0  0  0  0
  9 18  1  0  0  0  0
 10 16  1  0  0  0  0
 10 11  1  0  0  0  0
 10 19  1  0  0  0  0
 11 12  1  0  0  0  0
 11 20  1  0  0  0  0
 11 21  1  0  0  0  0
 12 13  1  0  0  0  0
 12 22  1  0  0  0  0
 12 23  1  0  0  0  0
 13 14  1  0  0  0  0
 13 24  1  0  0  0  0
 13 25  1  0  0  0  0
 14 15  1  0  0  0  0
 14 26  1  0  0  0  0
 14 27  1  0  0  0  0
 15 16  1  0  0  0  0
 15 28  1  0  0  0  0
 15 29  1  0  0  0  0
 16 30  1  0  0  0  0
 16 31  1  0  0  0  0
M  CHG  1   3  -1
M  END
> <s_m_source_file>
AV-unprocessed.smi

> <i_m_source_file_index>
881

> <i_lp_mmshare_version>
43012

> <i_f3d_flags>
0

> <s_epik_input>
czFbY0hdbm5jMVtOSF1DKD1PKVtOSF1bQ0hdMltDSDJdW0NIMl1bQ0gyXVtDSDJdW0NIMl1bQ0gyXTI=

> <s_epik_cmdline>
J2VwaWtfcHl0aG9uJywgJy1waCcsICc3LjAnLCAnLXRuJywgJzgnLCAnLW1hJywgJzIwMCcsICctbWV0YWxfYmluZGluZycsICctaW1hZScsICc8aW5maWxlLm1hZT4nLCAnLW9tYWUnLCAnPG91dGZpbGUubWFlPic=

> <r_lp_tautomer_probability>
1

> <r_epik_Ionization_Penalty>
4.55263

> <r_epik_Ionization_Penalty_Charging>
4.50588

> <r_epik_Ionization_Penalty_Neutral>
0.0467569

> <r_epik_State_Penalty>
4.50558

> <r_epik_Charging_Adjusted_Penalty>
9.01146

> <i_epik_Tot_Q>
-1

> <i_epik_Tot_abs_Q>
1

> <r_epik_Metal_State_Penalty>
0.822218

> <b_epik_Metal_Only>
1

> <s_lp_Force_Field>
OPLS_2005

> <r_lp_Energy>
12.3928

> <b_lp_Chiralities_Consistent>
1

> <s_lp_Variant>
AV-unprocessed.smi:881-2

> <Gold.Version>
5.8.1

> <Gold.Id.Protein>
6NUR|6NUR_protein|mol2

> <Gold.PLP.Fitness>
39.2177

> <Gold.PLP.PLP>
-30.7463

> <Gold.PLP.part.hbond>
-2.9138

> <Gold.PLP.part.metal>
0.0000

> <Gold.PLP.part.buried>
-1.0327

> <Gold.PLP.part.nonpolar>
-26.5950

> <Gold.PLP.part.repulsive>
0.2482

> <Gold.PLP.ligand.clash>
0.0000

> <Gold.PLP.ligand.torsion>
0.3145

> <Gold.PLP.Chemscore.Hbond>
2.7800

> <Gold.PLP.Chemscore.CHOScore>
0.2488

> <Gold.PLP.Chemscore.Metal>
0.0000

> <Gold.Chemscore.Hbonds>
donor molecule, donor type, donor heavy atom, donor atom, acceptor molecule, acceptor atom, score
      P1  H  7989  7998       L1     3  0.63
      P1  H  7997  8009       L1     1  1.00
      P1  H 10752 10764       L1     6  0.80
      L1  C     7    17       P1  7948  0.18

> <Gold.PLP.Chemscore.Internal.Correction>
0.0138

> <Gold.Rescore>
     Score         DG    S(hbond)    S(metal)    S(lipo)     H(rot)  DE(clash)    DE(int)     intcor
     17.41     -20.42       2.22        0.00      86.30       1.00       0.00       3.01       ----

> <Gold.Chemscore.Fitness>
17.4057

> <Gold.Chemscore.DG>
-20.4234

> <Gold.Chemscore.ZeroCoef>
-5.4800

> <Gold.Chemscore.Hbond>
2.2176

> <Gold.Chemscore.Metal>
0.0000

> <Gold.Chemscore.Lipo>
86.2964

> <Gold.Chemscore.Internal_Hbond>
0.0000

> <Gold.Chemscore.DEClash>
0.0043

> <Gold.Chemscore.DEInternal>
3.0135

> <Gold.Chemscore.Rot>
1.0000

> <Gold.Chemscore.Internal.Correction>
   9.000000E+99

> <Gold.Chemscore.Hbonds>
donor molecule, donor type, donor heavy atom, donor atom, acceptor molecule, acceptor atom, score
      P1  H  7989  7998       L1     3  0.16
      P1  H  7997  8009       L1     1  0.95
      P1  H 10752 10764       L1     6  0.61

> <Gold.Chemscore.Hbond.Weighted>
-7.4068

> <Gold.Chemscore.Metal.Weighted>
-0.0000

> <Gold.Chemscore.Lipo.Weighted>
-10.0967

> <Gold.Chemscore.Internal_Hbond.Weighted>
0.0000

> <Gold.Chemscore.DEClash.Weighted>
0.0043

> <Gold.Chemscore.DEInternal.Weighted>
3.0135

> <Gold.Chemscore.Rot.Weighted>
2.5600

> <Gold.Chemscore.Internal.Correction.Weighted>
   9.000000E+99

> <Gold.Protein.RotatedTorsions>
[ 6907 6896 6895 6894 ] final   99.38 input  -60.11 | X-H torsion
[ 7974 7965 7964 7962 ] final  177.45 input  175.53 | X-H torsion
[ 8008 7997 7996 7995 ] final -168.71 input   59.86 | X-H torsion
[ 10167 10162 10161 10158 ] final  127.93 input  -65.29 | X-H torsion
[ 10718 10713 10712 10709 ] final  130.51 input   66.30 | X-H torsion
[ 10763 10752 10751 10750 ] final  -57.40 input  -60.55 | X-H torsion
[ 11005 11000 10999 10996 ] final   49.44 input  -57.11 | X-H torsion

> <Gold.Protein.ActiveResidues>
 VAL166  LYS551  ARG553  GLY616  TRP617  ASP618  TYR619  PRO620  LYS621  CYS622 
 ASP623  PHE694  ASN695  SER759  ASP760  ASP761  ALA762  ILE779  LEU786  VAL792 
 PHE793  MET794  SER795  GLU796  ALA797  LYS798  CYS799  TRP800  GLU811  SER814 

> <Gold.Protein.RotatedAtoms>
  152.5393  134.0437  159.8078 H   0  0  0  0  0  0  0  0  0  0  0  0  # atno 6907 bound_to 6896
  151.0589  133.5553  159.2643 H   0  0  0  0  0  0  0  0  0  0  0  0  # atno 6908 bound_to 6896
  151.2460  135.0613  159.9097 H   0  0  0  0  0  0  0  0  0  0  0  0  # atno 6909 bound_to 6896
  144.7169  140.0249  143.6439 H   0  0  0  0  0  0  0  0  0  0  0  0  # atno 7974 bound_to 7965
  155.8951  140.1031  157.1390 H   0  0  0  0  0  0  0  0  0  0  0  0  # atno 8008 bound_to 7997
  154.4019  140.1303  156.4429 H   0  0  0  0  0  0  0  0  0  0  0  0  # atno 8009 bound_to 7997
  155.7488  140.3465  155.5142 H   0  0  0  0  0  0  0  0  0  0  0  0  # atno 8010 bound_to 7997
  139.5553  144.6844  151.4202 H   0  0  0  0  0  0  0  0  0  0  0  0  # atno 10167 bound_to 10162
  157.5055  131.1095  150.9368 H   0  0  0  0  0  0  0  0  0  0  0  0  # atno 10718 bound_to 10713
  154.2218  135.6376  153.5147 H   0  0  0  0  0  0  0  0  0  0  0  0  # atno 10763 bound_to 10752
  152.9967  135.5498  154.6106 H   0  0  0  0  0  0  0  0  0  0  0  0  # atno 10764 bound_to 10752
  154.5568  135.2906  155.0931 H   0  0  0  0  0  0  0  0  0  0  0  0  # atno 10765 bound_to 10752
  140.1103  134.4963  155.8683 H   0  0  0  0  0  0  0  0  0  0  0  0  # atno 11005 bound_to 11000
  146.0150  139.3202  143.0847 LP  0  0  0  0  0  0  0  0  0  0  0  0  # atno 17320 bound_to 7965
  145.8636  140.9461  143.0687 LP  0  0  0  0  0  0  0  0  0  0  0  0  # atno 17321 bound_to 7965
  140.6824  143.8051  150.7140 LP  0  0  0  0  0  0  0  0  0  0  0  0  # atno 17342 bound_to 10162
  140.1508  143.4359  152.2132 LP  0  0  0  0  0  0  0  0  0  0  0  0  # atno 17343 bound_to 10162
  157.0025  130.5605  149.5313 LP  0  0  0  0  0  0  0  0  0  0  0  0  # atno 17370 bound_to 10713
  156.0255  130.5349  150.8395 LP  0  0  0  0  0  0  0  0  0  0  0  0  # atno 17371 bound_to 10713
  141.2128  133.6725  156.6692 LP  0  0  0  0  0  0  0  0  0  0  0  0  # atno 17394 bound_to 11000
  140.3100  134.8094  157.4168 LP  0  0  0  0  0  0  0  0  0  0  0  0  # atno 17395 bound_to 11000

$$$$
