AV-unprocessed.smi:3331|AV-procd|sdf|12828|dock7
  -GOLD-   2272019203D 1   1.00000     0.00000
 Structure written by MMmdl.
 46 47  0  0  0  0  0  0  0  0  1 V2000
  153.5508  142.2933  160.8689 C   0  0  0  0  0  0  0  0  0  0  0  0
  152.5135  141.8079  159.8469 C   0  0  1  0  0  0  0  0  0  0  0  0
  152.1511  142.9217  158.8375 C   0  0  0  0  0  0  0  0  0  0  0  0
  151.2172  142.4313  157.7076 C   0  0  2  0  0  0  0  0  0  0  0  0
  149.7589  142.2914  158.1796 C   0  0  0  0  0  0  0  0  0  0  0  0
  151.7772  141.1290  157.0949 C   0  0  0  0  0  0  0  0  0  0  0  0
  151.9596  140.1235  158.1518 N   0  0  0  0  0  0  0  0  0  0  0  0
  151.2388  138.9850  158.3188 C   0  0  0  0  0  0  0  0  0  0  0  0
  151.4869  138.1865  159.2248 O   0  0  0  0  0  0  0  0  0  0  0  0
  150.0675  138.6531  157.3633 C   0  0  1  0  0  0  0  0  0  0  0  0
  150.5903  138.5140  155.9249 C   0  0  0  0  0  0  0  0  0  0  0  0
  149.3302  137.4320  157.7388 N   0  0  0  0  0  0  0  0  0  0  0  0
  148.7956  137.4652  159.0960 C   0  0  0  0  0  0  0  0  0  0  0  0
  148.4640  136.0362  159.5482 C   0  0  0  0  0  0  0  0  0  0  0  0
  147.9610  136.0104  160.9082 N   0  0  0  0  0  0  0  0  0  0  0  0
  147.6903  134.9153  161.7015 C   0  0  0  0  0  0  0  0  0  0  0  0
  147.2394  135.3851  162.9019 C   0  0  0  0  0  0  0  0  0  0  0  0
  147.2702  136.7989  162.7443 C   0  0  0  0  0  0  0  0  0  0  0  0
  147.7013  137.1702  161.5495 N   0  0  0  0  0  0  0  0  0  0  0  0
  152.9969  140.5447  159.1035 C   0  0  0  0  0  0  0  0  0  0  0  0
  154.4897  142.5628  160.3844 H   0  0  0  0  0  0  0  0  0  0  0  0
  153.7665  141.5196  161.6063 H   0  0  0  0  0  0  0  0  0  0  0  0
  153.1897  143.1696  161.4077 H   0  0  0  0  0  0  0  0  0  0  0  0
  151.6114  141.5449  160.4012 H   0  0  0  0  0  0  0  0  0  0  0  0
  151.7054  143.7726  159.3545 H   0  0  0  0  0  0  0  0  0  0  0  0
  153.0707  143.2951  158.3846 H   0  0  0  0  0  0  0  0  0  0  0  0
  151.2199  143.1917  156.9257 H   0  0  0  0  0  0  0  0  0  0  0  0
  149.6555  141.5557  158.9770 H   0  0  0  0  0  0  0  0  0  0  0  0
  149.1105  141.9830  157.3595 H   0  0  0  0  0  0  0  0  0  0  0  0
  149.3783  143.2405  158.5572 H   0  0  0  0  0  0  0  0  0  0  0  0
  151.1624  140.7961  156.2614 H   0  0  0  0  0  0  0  0  0  0  0  0
  152.7494  141.3336  156.6437 H   0  0  0  0  0  0  0  0  0  0  0  0
  149.3349  139.4573  157.3810 H   0  0  0  0  0  0  0  0  0  0  0  0
  151.1002  139.4200  155.5957 H   0  0  0  0  0  0  0  0  0  0  0  0
  149.7723  138.3308  155.2272 H   0  0  0  0  0  0  0  0  0  0  0  0
  151.2948  137.6859  155.8338 H   0  0  0  0  0  0  0  0  0  0  0  0
  149.8942  136.6040  157.6097 H   0  0  0  0  0  0  0  0  0  0  0  0
  149.5148  137.9060  159.7868 H   0  0  0  0  0  0  0  0  0  0  0  0
  147.8970  138.0833  159.1219 H   0  0  0  0  0  0  0  0  0  0  0  0
  147.7170  135.5870  158.8917 H   0  0  0  0  0  0  0  0  0  0  0  0
  149.3523  135.4046  159.4971 H   0  0  0  0  0  0  0  0  0  0  0  0
  147.8403  133.9048  161.3510 H   0  0  0  0  0  0  0  0  0  0  0  0
  146.9343  134.8072  163.7616 H   0  0  0  0  0  0  0  0  0  0  0  0
  146.9931  137.5614  163.4573 H   0  0  0  0  0  0  0  0  0  0  0  0
  153.9217  140.7531  158.5632 H   0  0  0  0  0  0  0  0  0  0  0  0
  153.2504  139.7665  159.8247 H   0  0  0  0  0  0  0  0  0  0  0  0
  1  2  1  0  0  0  0
  1 21  1  0  0  0  0
  1 22  1  0  0  0  0
  1 23  1  0  0  0  0
  2 20  1  0  0  0  0
  2  3  1  0  0  0  0
  2 24  1  0  0  0  0
  3  4  1  0  0  0  0
  3 25  1  0  0  0  0
  3 26  1  0  0  0  0
  4  5  1  0  0  0  0
  4  6  1  0  0  0  0
  4 27  1  0  0  0  0
  5 28  1  0  0  0  0
  5 29  1  0  0  0  0
  5 30  1  0  0  0  0
  6  7  1  0  0  0  0
  6 31  1  0  0  0  0
  6 32  1  0  0  0  0
  7  8  1  0  0  0  0
  7 20  1  0  0  0  0
  8  9  2  0  0  0  0
  8 10  1  0  0  0  0
 10 11  1  0  0  0  0
 10 12  1  0  0  0  0
 10 33  1  0  0  0  0
 11 34  1  0  0  0  0
 11 35  1  0  0  0  0
 11 36  1  0  0  0  0
 12 13  1  0  0  0  0
 12 37  1  0  0  0  0
 13 14  1  0  0  0  0
 13 38  1  0  0  0  0
 13 39  1  0  0  0  0
 14 15  1  0  0  0  0
 14 40  1  0  0  0  0
 14 41  1  0  0  0  0
 15 19  1  0  0  0  0
 15 16  1  0  0  0  0
 16 17  2  0  0  0  0
 16 42  1  0  0  0  0
 17 18  1  0  0  0  0
 17 43  1  0  0  0  0
 18 19  2  0  0  0  0
 18 44  1  0  0  0  0
 20 45  1  0  0  0  0
 20 46  1  0  0  0  0
M  END
> <s_m_source_file>
AV-unprocessed.smi

> <i_m_source_file_index>
3331

> <i_lp_mmshare_version>
43012

> <i_f3d_flags>
0

> <s_epik_input>
W0NIM11bQ0BASF0xW0NIMl1bQ0BASF0oW0NIM10pW0NIMl1OKFtDSDJdMSlDKD1PKVtDQEhdKFtDSDNdKVtOSF1bQ0gyXVtDSDJdbjJbY0hdW2NIXVtjSF1uMg==

> <s_epik_cmdline>
J2VwaWtfcHl0aG9uJywgJy1waCcsICc3LjAnLCAnLXRuJywgJzgnLCAnLW1hJywgJzIwMCcsICctbWV0YWxfYmluZGluZycsICctaW1hZScsICc8aW5maWxlLm1hZT4nLCAnLW9tYWUnLCAnPG91dGZpbGUubWFlPic=

> <r_lp_tautomer_probability>
1

> <r_epik_Ionization_Penalty>
0.767994

> <r_epik_Ionization_Penalty_Charging>
0

> <r_epik_Ionization_Penalty_Neutral>
0.767994

> <r_epik_State_Penalty>
0.795453

> <r_epik_Charging_Adjusted_Penalty>
0.795453

> <i_epik_Tot_Q>
0

> <i_epik_Tot_abs_Q>
0

> <r_epik_Metal_State_Penalty>
0.794784

> <b_epik_Metal_Only>
0

> <s_lp_Force_Field>
OPLS_2005

> <r_lp_Energy>
29.1639

> <b_lp_Chiralities_Consistent>
1

> <s_lp_Variant>
AV-unprocessed.smi:3331-12

> <Gold.Version>
5.8.1

> <Gold.Id.Protein>
6NUR|6NUR_protein|mol2

> <Gold.PLP.Fitness>
45.3850

> <Gold.PLP.PLP>
-40.3504

> <Gold.PLP.part.hbond>
-2.0000

> <Gold.PLP.part.metal>
0.0000

> <Gold.PLP.part.buried>
-5.3060

> <Gold.PLP.part.nonpolar>
-32.3197

> <Gold.PLP.part.repulsive>
0.0000

> <Gold.PLP.ligand.clash>
0.0000

> <Gold.PLP.ligand.torsion>
0.1590

> <Gold.PLP.Chemscore.Hbond>
1.7680

> <Gold.PLP.Chemscore.CHOScore>
0.0000

> <Gold.PLP.Chemscore.Metal>
0.0000

> <Gold.Chemscore.Hbonds>
donor molecule, donor type, donor heavy atom, donor atom, acceptor molecule, acceptor atom, score
      P1  H  6931  6943       L1    19  1.00
      P1  H  6934  6947       L1    19  0.77

> <Gold.PLP.Chemscore.Internal.Correction>
0.0487

> <Gold.Rescore>
     Score         DG    S(hbond)    S(metal)    S(lipo)     H(rot)  DE(clash)    DE(int)     intcor
     16.76     -18.29       1.45        0.00     104.42       1.66       0.06       1.47       ----

> <Gold.Chemscore.Fitness>
16.7588

> <Gold.Chemscore.DG>
-18.2892

> <Gold.Chemscore.ZeroCoef>
-5.4800

> <Gold.Chemscore.Hbond>
1.4534

> <Gold.Chemscore.Metal>
0.0000

> <Gold.Chemscore.Lipo>
104.4174

> <Gold.Chemscore.Internal_Hbond>
0.0000

> <Gold.Chemscore.DEClash>
0.0607

> <Gold.Chemscore.DEInternal>
1.4697

> <Gold.Chemscore.Rot>
1.6649

> <Gold.Chemscore.Internal.Correction>
   9.000000E+99

> <Gold.Chemscore.Hbonds>
donor molecule, donor type, donor heavy atom, donor atom, acceptor molecule, acceptor atom, score
      P1  H  6931  6943       L1    19  0.37
      P1  H  6934  6947       L1    19  0.67

> <Gold.Chemscore.Hbond.Weighted>
-4.8545

> <Gold.Chemscore.Metal.Weighted>
-0.0000

> <Gold.Chemscore.Lipo.Weighted>
-12.2168

> <Gold.Chemscore.Internal_Hbond.Weighted>
0.0000

> <Gold.Chemscore.DEClash.Weighted>
0.0607

> <Gold.Chemscore.DEInternal.Weighted>
1.4697

> <Gold.Chemscore.Rot.Weighted>
4.2621

> <Gold.Chemscore.Internal.Correction.Weighted>
   9.000000E+99

> <Gold.Protein.RotatedTorsions>
[ 6907 6896 6895 6894 ] final   60.82 input  -60.11 | X-H torsion
[ 7974 7965 7964 7962 ] final  174.12 input  175.53 | X-H torsion
[ 8008 7997 7996 7995 ] final  100.64 input   59.86 | X-H torsion
[ 10167 10162 10161 10158 ] final  -14.67 input  -65.29 | X-H torsion
[ 10718 10713 10712 10709 ] final   93.01 input   66.30 | X-H torsion
[ 10763 10752 10751 10750 ] final  123.66 input  -60.55 | X-H torsion
[ 11005 11000 10999 10996 ] final -106.33 input  -57.11 | X-H torsion

> <Gold.Protein.ActiveResidues>
 VAL166  LYS551  ARG553  GLY616  TRP617  ASP618  TYR619  PRO620  LYS621  CYS622 
 ASP623  PHE694  ASN695  SER759  ASP760  ASP761  ALA762  ILE779  LEU786  VAL792 
 PHE793  MET794  SER795  GLU796  ALA797  LYS798  CYS799  TRP800  GLU811  SER814 

> <Gold.Protein.RotatedAtoms>
  152.4036  134.6244  160.0059 H   0  0  0  0  0  0  0  0  0  0  0  0  # atno 6907 bound_to 6896
  151.6442  133.3318  159.3145 H   0  0  0  0  0  0  0  0  0  0  0  0  # atno 6908 bound_to 6896
  150.7934  134.7016  159.6598 H   0  0  0  0  0  0  0  0  0  0  0  0  # atno 6909 bound_to 6896
  144.7228  139.9749  143.6438 H   0  0  0  0  0  0  0  0  0  0  0  0  # atno 7974 bound_to 7965
  156.1223  140.3210  155.8226 H   0  0  0  0  0  0  0  0  0  0  0  0  # atno 8008 bound_to 7997
  155.4483  140.0530  157.3021 H   0  0  0  0  0  0  0  0  0  0  0  0  # atno 8009 bound_to 7997
  154.4836  140.2063  155.9719 H   0  0  0  0  0  0  0  0  0  0  0  0  # atno 8010 bound_to 7997
  140.7205  143.5298  150.9534 H   0  0  0  0  0  0  0  0  0  0  0  0  # atno 10167 bound_to 10162
  157.6956  131.0463  150.3969 H   0  0  0  0  0  0  0  0  0  0  0  0  # atno 10718 bound_to 10713
  153.6491  135.3366  155.3094 H   0  0  0  0  0  0  0  0  0  0  0  0  # atno 10763 bound_to 10752
  154.8542  135.4336  154.1923 H   0  0  0  0  0  0  0  0  0  0  0  0  # atno 10764 bound_to 10752
  153.2861  135.7013  153.7412 H   0  0  0  0  0  0  0  0  0  0  0  0  # atno 10765 bound_to 10752
  141.1010  133.8884  157.1842 H   0  0  0  0  0  0  0  0  0  0  0  0  # atno 11005 bound_to 11000
  146.0533  139.3532  143.0626 LP  0  0  0  0  0  0  0  0  0  0  0  0  # atno 17320 bound_to 7965
  145.8187  140.9690  143.0910 LP  0  0  0  0  0  0  0  0  0  0  0  0  # atno 17321 bound_to 7965
  139.9018  143.6827  152.3130 LP  0  0  0  0  0  0  0  0  0  0  0  0  # atno 17342 bound_to 10162
  139.7179  144.7608  151.1004 LP  0  0  0  0  0  0  0  0  0  0  0  0  # atno 17343 bound_to 10162
  156.4367  130.3983  149.6724 LP  0  0  0  0  0  0  0  0  0  0  0  0  # atno 17370 bound_to 10713
  156.3922  130.7633  151.2635 LP  0  0  0  0  0  0  0  0  0  0  0  0  # atno 17371 bound_to 10713
  139.9861  135.0081  156.9867 LP  0  0  0  0  0  0  0  0  0  0  0  0  # atno 17394 bound_to 11000
  140.5022  134.1086  155.7253 LP  0  0  0  0  0  0  0  0  0  0  0  0  # atno 17395 bound_to 11000

$$$$
