AV-unprocessed.smi:3330|AV-procd|sdf|12801|dock6
  -GOLD-   2272019163D 1   1.00000     0.00000
 Structure written by MMmdl.
 39 40  0  0  0  0  0  0  0  0  2 V2000
  151.2213  141.2674  156.2979 C   0  0  0  0  0  0  0  0  0  0  0  0
  150.2995  141.8751  157.3709 C   0  0  2  0  0  0  0  0  0  0  0  0
  149.0601  142.3834  156.7406 N   0  3  0  0  0  0  0  0  0  0  0  0
  147.8531  142.3716  157.5934 C   0  0  0  0  0  0  0  0  0  0  0  0
  146.7143  141.5642  156.9440 C   0  0  0  0  0  0  0  0  0  0  0  0
  146.1460  142.2404  155.7695 N   0  0  0  0  0  0  0  0  0  0  0  0
  146.7743  142.3480  154.5912 C   0  0  0  0  0  0  0  0  0  0  0  0
  147.8841  141.9082  154.2940 O   0  0  0  0  0  0  0  0  0  0  0  0
  145.8801  143.1085  153.6364 C   0  0  0  0  0  0  0  0  0  0  0  0
  144.7454  143.3311  154.5060 N   0  0  0  0  0  0  0  0  0  0  0  0
  144.9288  142.8141  155.7276 C   0  0  0  0  0  0  0  0  0  0  0  0
  144.1070  142.8475  156.6419 O   0  0  0  0  0  0  0  0  0  0  0  0
  150.9811  143.0176  158.1718 C   0  0  2  0  0  0  0  0  0  0  0  0
  151.6467  144.0750  157.2715 C   0  0  0  0  0  0  0  0  0  0  0  0
  151.9609  142.5005  159.1232 N   0  0  0  0  0  0  0  0  0  0  0  0
  152.7022  143.2042  160.0503 C   0  0  0  0  0  0  0  0  0  0  0  0
  153.4953  142.3072  160.7066 C   0  0  0  0  0  0  0  0  0  0  0  0
  153.1741  141.0627  160.0976 C   0  0  0  0  0  0  0  0  0  0  0  0
  152.2559  141.1805  159.1530 N   0  0  0  0  0  0  0  0  0  0  0  0
  152.1054  140.8089  156.7398 H   0  0  0  0  0  0  0  0  0  0  0  0
  151.5571  142.0243  155.5883 H   0  0  0  0  0  0  0  0  0  0  0  0
  150.7145  140.4854  155.7324 H   0  0  0  0  0  0  0  0  0  0  0  0
  150.0273  141.0874  158.0753 H   0  0  0  0  0  0  0  0  0  0  0  0
  149.2345  143.3505  156.5061 H   0  0  0  0  0  0  0  0  0  0  0  0
  148.1002  141.9521  158.5687 H   0  0  0  0  0  0  0  0  0  0  0  0
  147.5146  143.3945  157.7639 H   0  0  0  0  0  0  0  0  0  0  0  0
  147.0767  140.5723  156.6682 H   0  0  0  0  0  0  0  0  0  0  0  0
  145.9269  141.3903  157.6796 H   0  0  0  0  0  0  0  0  0  0  0  0
  146.3350  144.0472  153.3191 H   0  0  0  0  0  0  0  0  0  0  0  0
  145.6117  142.5066  152.7679 H   0  0  0  0  0  0  0  0  0  0  0  0
  143.9110  143.8155  154.2079 H   0  0  0  0  0  0  0  0  0  0  0  0
  150.2120  143.5228  158.7584 H   0  0  0  0  0  0  0  0  0  0  0  0
  150.9174  144.6003  156.6556 H   0  0  0  0  0  0  0  0  0  0  0  0
  152.3846  143.6253  156.6063 H   0  0  0  0  0  0  0  0  0  0  0  0
  152.1583  144.8296  157.8698 H   0  0  0  0  0  0  0  0  0  0  0  0
  152.6047  144.2738  160.1668 H   0  0  0  0  0  0  0  0  0  0  0  0
  154.2014  142.5097  161.4982 H   0  0  0  0  0  0  0  0  0  0  0  0
  153.5752  140.0836  160.3149 H   0  0  0  0  0  0  0  0  0  0  0  0
  148.8806  141.8777  155.8848 H   0  0  0  0  0  0  0  0  0  0  0  0
  1  2  1  0  0  0  0
  1 20  1  0  0  0  0
  1 21  1  0  0  0  0
  1 22  1  0  0  0  0
  2  3  1  0  0  0  0
  2 13  1  0  0  0  0
  2 23  1  0  0  0  0
  3  4  1  0  0  0  0
  3 24  1  0  0  0  0
  3 39  1  0  0  0  0
  4  5  1  0  0  0  0
  4 25  1  0  0  0  0
  4 26  1  0  0  0  0
  5  6  1  0  0  0  0
  5 27  1  0  0  0  0
  5 28  1  0  0  0  0
  6 11  1  0  0  0  0
  6  7  1  0  0  0  0
  7  8  2  0  0  0  0
  7  9  1  0  0  0  0
  9 10  1  0  0  0  0
  9 29  1  0  0  0  0
  9 30  1  0  0  0  0
 10 11  1  0  0  0  0
 10 31  1  0  0  0  0
 11 12  2  0  0  0  0
 13 14  1  0  0  0  0
 13 15  1  0  0  0  0
 13 32  1  0  0  0  0
 14 33  1  0  0  0  0
 14 34  1  0  0  0  0
 14 35  1  0  0  0  0
 15 19  1  0  0  0  0
 15 16  1  0  0  0  0
 16 17  2  0  0  0  0
 16 36  1  0  0  0  0
 17 18  1  0  0  0  0
 17 37  1  0  0  0  0
 18 19  2  0  0  0  0
 18 38  1  0  0  0  0
M  CHG  1   3   1
M  END
> <s_m_source_file>
AV-unprocessed.smi

> <i_m_source_file_index>
3330

> <i_lp_mmshare_version>
43012

> <i_f3d_flags>
0

> <s_epik_input>
bjFbY0hdW2NIXVtjSF1uMVtDQEBIXShbQ0gzXSlbQ0BIXShbQ0gzXSlbTkhdW0NIMl1bQ0gyXU4yQyg9TylbQ0gyXVtOSF1DMj1P

> <s_epik_cmdline>
J2VwaWtfcHl0aG9uJywgJy1waCcsICc3LjAnLCAnLXRuJywgJzgnLCAnLW1hJywgJzIwMCcsICctbWV0YWxfYmluZGluZycsICctaW1hZScsICc8aW5maWxlLm1hZT4nLCAnLW9tYWUnLCAnPG91dGZpbGUubWFlPic=

> <r_lp_tautomer_probability>
1

> <r_epik_Ionization_Penalty>
0.0124905

> <r_epik_Ionization_Penalty_Charging>
0.0123685

> <r_epik_Ionization_Penalty_Neutral>
0.000122059

> <r_epik_State_Penalty>
0.00957041

> <r_epik_Charging_Adjusted_Penalty>
0.0219389

> <i_epik_Tot_Q>
1

> <i_epik_Tot_abs_Q>
1

> <r_epik_Metal_State_Penalty>
0.0858301

> <b_epik_Metal_Only>
0

> <s_lp_Force_Field>
OPLS_2005

> <r_lp_Energy>
30.1395

> <b_lp_Chiralities_Consistent>
1

> <s_lp_Variant>
AV-unprocessed.smi:3330-1

> <Gold.Version>
5.8.1

> <Gold.Id.Protein>
6NUR|6NUR_protein|mol2

> <Gold.PLP.Fitness>
42.5000

> <Gold.PLP.PLP>
-38.4825

> <Gold.PLP.part.hbond>
-1.3737

> <Gold.PLP.part.metal>
0.0000

> <Gold.PLP.part.buried>
-5.9702

> <Gold.PLP.part.nonpolar>
-31.3488

> <Gold.PLP.part.repulsive>
0.2125

> <Gold.PLP.ligand.clash>
0.0000

> <Gold.PLP.ligand.torsion>
1.0544

> <Gold.PLP.Chemscore.Hbond>
2.0000

> <Gold.PLP.Chemscore.CHOScore>
0.0000

> <Gold.PLP.Chemscore.Metal>
0.0000

> <Gold.Chemscore.Hbonds>
donor molecule, donor type, donor heavy atom, donor atom, acceptor molecule, acceptor atom, score
      L1  H     3    24       P1  8028  2.00

> <Gold.PLP.Chemscore.Internal.Correction>
0.1263

> <Gold.Rescore>
     Score         DG    S(hbond)    S(metal)    S(lipo)     H(rot)  DE(clash)    DE(int)     intcor
      9.72     -11.22       0.98        0.00      79.40       2.67       0.09       1.41       ----

> <Gold.Chemscore.Fitness>
9.7192

> <Gold.Chemscore.DG>
-11.2249

> <Gold.Chemscore.ZeroCoef>
-5.4800

> <Gold.Chemscore.Hbond>
0.9824

> <Gold.Chemscore.Metal>
0.0000

> <Gold.Chemscore.Lipo>
79.4037

> <Gold.Chemscore.Internal_Hbond>
0.0000

> <Gold.Chemscore.DEClash>
0.0933

> <Gold.Chemscore.DEInternal>
1.4124

> <Gold.Chemscore.Rot>
2.6666

> <Gold.Chemscore.Internal.Correction>
   9.000000E+99

> <Gold.Chemscore.Hbonds>
donor molecule, donor type, donor heavy atom, donor atom, acceptor molecule, acceptor atom, score
      L1  H     3    24       P1  8028  0.96

> <Gold.Chemscore.Hbond.Weighted>
-3.2811

> <Gold.Chemscore.Metal.Weighted>
-0.0000

> <Gold.Chemscore.Lipo.Weighted>
-9.2902

> <Gold.Chemscore.Internal_Hbond.Weighted>
0.0000

> <Gold.Chemscore.DEClash.Weighted>
0.0933

> <Gold.Chemscore.DEInternal.Weighted>
1.4124

> <Gold.Chemscore.Rot.Weighted>
6.8265

> <Gold.Chemscore.Internal.Correction.Weighted>
   9.000000E+99

> <Gold.Protein.RotatedTorsions>
[ 6907 6896 6895 6894 ] final   58.82 input  -60.11 | X-H torsion
[ 7974 7965 7964 7962 ] final -145.29 input  175.53 | X-H torsion
[ 8008 7997 7996 7995 ] final -113.93 input   59.86 | X-H torsion
[ 10167 10162 10161 10158 ] final  -12.54 input  -65.29 | X-H torsion
[ 10718 10713 10712 10709 ] final   90.31 input   66.30 | X-H torsion
[ 10763 10752 10751 10750 ] final -173.27 input  -60.55 | X-H torsion
[ 11005 11000 10999 10996 ] final  114.98 input  -57.11 | X-H torsion

> <Gold.Protein.ActiveResidues>
 VAL166  LYS551  ARG553  GLY616  TRP617  ASP618  TYR619  PRO620  LYS621  CYS622 
 ASP623  PHE694  ASN695  SER759  ASP760  ASP761  ALA762  ILE779  LEU786  VAL792 
 PHE793  MET794  SER795  GLU796  ALA797  LYS798  CYS799  TRP800  GLU811  SER814 

> <Gold.Protein.RotatedAtoms>
  152.3859  134.6517  160.0125 H   0  0  0  0  0  0  0  0  0  0  0  0  # atno 6907 bound_to 6896
  151.6766  133.3307  159.3217 H   0  0  0  0  0  0  0  0  0  0  0  0  # atno 6908 bound_to 6896
  150.7785  134.6753  159.6459 H   0  0  0  0  0  0  0  0  0  0  0  0  # atno 6909 bound_to 6896
  144.8237  140.5602  143.5561 H   0  0  0  0  0  0  0  0  0  0  0  0  # atno 7974 bound_to 7965
  155.0285  140.0393  157.2465 H   0  0  0  0  0  0  0  0  0  0  0  0  # atno 8008 bound_to 7997
  154.7317  140.2732  155.6426 H   0  0  0  0  0  0  0  0  0  0  0  0  # atno 8009 bound_to 7997
  156.2843  140.2683  156.2019 H   0  0  0  0  0  0  0  0  0  0  0  0  # atno 8010 bound_to 7997
  140.7163  143.5521  150.9290 H   0  0  0  0  0  0  0  0  0  0  0  0  # atno 10167 bound_to 10162
  157.6958  131.0366  150.3559 H   0  0  0  0  0  0  0  0  0  0  0  0  # atno 10718 bound_to 10713
  154.6098  135.2863  155.0445 H   0  0  0  0  0  0  0  0  0  0  0  0  # atno 10763 bound_to 10752
  154.1679  135.6477  153.5006 H   0  0  0  0  0  0  0  0  0  0  0  0  # atno 10764 bound_to 10752
  153.0190  135.5394  154.6847 H   0  0  0  0  0  0  0  0  0  0  0  0  # atno 10765 bound_to 10752
  139.8996  134.9577  156.6975 H   0  0  0  0  0  0  0  0  0  0  0  0  # atno 11005 bound_to 11000
  145.5047  139.1482  143.3638 LP  0  0  0  0  0  0  0  0  0  0  0  0  # atno 17320 bound_to 7965
  146.2543  140.5187  142.8880 LP  0  0  0  0  0  0  0  0  0  0  0  0  # atno 17321 bound_to 7965
  139.9245  143.6566  152.3090 LP  0  0  0  0  0  0  0  0  0  0  0  0  # atno 17342 bound_to 10162
  139.6995  144.7637  151.1298 LP  0  0  0  0  0  0  0  0  0  0  0  0  # atno 17343 bound_to 10162
  156.4001  130.3914  149.6966 LP  0  0  0  0  0  0  0  0  0  0  0  0  # atno 17370 bound_to 10713
  156.4286  130.7804  151.2823 LP  0  0  0  0  0  0  0  0  0  0  0  0  # atno 17371 bound_to 10713
  140.7177  133.9168  155.8126 LP  0  0  0  0  0  0  0  0  0  0  0  0  # atno 17394 bound_to 11000
  141.0252  134.0834  157.4076 LP  0  0  0  0  0  0  0  0  0  0  0  0  # atno 17395 bound_to 11000

$$$$
