AV-unprocessed.smi:2353|AV-procd|sdf|9383|dock3
  -GOLD-   2272013 13D 1   1.00000     0.00000
 Structure written by MMmdl.
 46 48  0  0  0  0  0  0  0  0  2 V2000
  151.2619  145.3737  159.9628 C   0  0  0  0  0  0  0  0  0  0  0  0
  151.9791  144.0852  160.3102 C   0  0  0  0  0  0  0  0  0  0  0  0
  152.5218  143.9001  161.5962 C   0  0  0  0  0  0  0  0  0  0  0  0
  153.1884  142.7025  161.9113 C   0  0  0  0  0  0  0  0  0  0  0  0
  153.3170  141.6840  160.9444 C   0  0  0  0  0  0  0  0  0  0  0  0
  154.0382  140.3982  161.3033 C   0  0  0  0  0  0  0  0  0  0  0  0
  152.7770  141.8566  159.6488 C   0  0  0  0  0  0  0  0  0  0  0  0
  152.9375  140.8210  158.7512 O   0  0  0  0  0  0  0  0  0  0  0  0
  152.0793  140.7608  157.6196 C   0  0  0  0  0  0  0  0  0  0  0  0
  152.0256  139.3061  157.1211 C   0  0  1  0  0  0  0  0  0  0  0  0
  153.3630  138.8583  157.0162 O   0  0  0  0  0  0  0  0  0  0  0  0
  151.2847  138.3788  158.1106 C   0  0  0  0  0  0  0  0  0  0  0  0
  149.9305  138.0550  157.6442 N   0  0  0  0  0  0  0  0  0  0  0  0
  149.4474  138.9151  156.6732 N   0  0  0  0  0  0  0  0  0  0  0  0
  148.2745  138.7463  156.1552 C   0  0  0  0  0  0  0  0  0  0  0  0
  147.7759  139.6536  155.1332 N   0  0  0  0  0  0  0  0  0  0  0  0
  148.4220  140.7451  154.6066 C   0  0  0  0  0  0  0  0  0  0  0  0
  147.5697  141.2899  153.6813 C   0  0  0  0  0  0  0  0  0  0  0  0
  146.4432  140.5108  153.6824 N   0  3  0  0  0  0  0  0  0  0  0  0
  146.5658  139.5131  154.5655 C   0  0  0  0  0  0  0  0  0  0  0  0
  147.4439  137.6326  156.6008 C   0  0  0  0  0  0  0  0  0  0  0  0
  147.9267  136.7979  157.5464 C   0  0  0  0  0  0  0  0  0  0  0  0
  149.2529  136.9762  158.1336 C   0  0  0  0  0  0  0  0  0  0  0  0
  149.7186  136.2208  158.9854 O   0  0  0  0  0  0  0  0  0  0  0  0
  152.1079  143.0691  159.3418 C   0  0  0  0  0  0  0  0  0  0  0  0
  150.9657  145.9154  160.8617 H   0  0  0  0  0  0  0  0  0  0  0  0
  150.3627  145.1671  159.3818 H   0  0  0  0  0  0  0  0  0  0  0  0
  151.9129  146.0185  159.3721 H   0  0  0  0  0  0  0  0  0  0  0  0
  152.4298  144.6739  162.3444 H   0  0  0  0  0  0  0  0  0  0  0  0
  153.6008  142.5696  162.9007 H   0  0  0  0  0  0  0  0  0  0  0  0
  153.3432  139.5587  161.2833 H   0  0  0  0  0  0  0  0  0  0  0  0
  154.4782  140.4517  162.2992 H   0  0  0  0  0  0  0  0  0  0  0  0
  154.8390  140.1992  160.5908 H   0  0  0  0  0  0  0  0  0  0  0  0
  151.0786  141.1323  157.8483 H   0  0  0  0  0  0  0  0  0  0  0  0
  152.5032  141.3988  156.8424 H   0  0  0  0  0  0  0  0  0  0  0  0
  151.5422  139.2757  156.1434 H   0  0  0  0  0  0  0  0  0  0  0  0
  153.3840  137.9279  157.1819 H   0  0  0  0  0  0  0  0  0  0  0  0
  151.8697  137.4828  158.3283 H   0  0  0  0  0  0  0  0  0  0  0  0
  151.1854  138.8810  159.0747 H   0  0  0  0  0  0  0  0  0  0  0  0
  149.4120  141.0479  154.9170 H   0  0  0  0  0  0  0  0  0  0  0  0
  147.6776  142.1514  153.0383 H   0  0  0  0  0  0  0  0  0  0  0  0
  145.8166  138.7667  154.7528 H   0  0  0  0  0  0  0  0  0  0  0  0
  146.4591  137.4483  156.2046 H   0  0  0  0  0  0  0  0  0  0  0  0
  147.3166  135.9711  157.8799 H   0  0  0  0  0  0  0  0  0  0  0  0
  151.6828  143.2437  158.3650 H   0  0  0  0  0  0  0  0  0  0  0  0
  145.6307  140.6656  153.0983 H   0  0  0  0  0  0  0  0  0  0  0  0
  1  2  1  0  0  0  0
  1 26  1  0  0  0  0
  1 27  1  0  0  0  0
  1 28  1  0  0  0  0
  2 25  1  0  0  0  0
  2  3  2  0  0  0  0
  3  4  1  0  0  0  0
  3 29  1  0  0  0  0
  4  5  2  0  0  0  0
  4 30  1  0  0  0  0
  5  6  1  0  0  0  0
  5  7  1  0  0  0  0
  6 31  1  0  0  0  0
  6 32  1  0  0  0  0
  6 33  1  0  0  0  0
  7  8  1  0  0  0  0
  7 25  2  0  0  0  0
  8  9  1  0  0  0  0
  9 10  1  0  0  0  0
  9 34  1  0  0  0  0
  9 35  1  0  0  0  0
 10 11  1  0  0  0  0
 10 12  1  0  0  0  0
 10 36  1  0  0  0  0
 11 37  1  0  0  0  0
 12 13  1  0  0  0  0
 12 38  1  0  0  0  0
 12 39  1  0  0  0  0
 13 23  1  0  0  0  0
 13 14  1  0  0  0  0
 14 15  2  0  0  0  0
 15 16  1  0  0  0  0
 15 21  1  0  0  0  0
 16 20  1  0  0  0  0
 16 17  1  0  0  0  0
 17 18  2  0  0  0  0
 17 40  1  0  0  0  0
 18 19  1  0  0  0  0
 18 41  1  0  0  0  0
 19 20  2  0  0  0  0
 19 46  1  0  0  0  0
 20 42  1  0  0  0  0
 21 22  2  0  0  0  0
 21 43  1  0  0  0  0
 22 23  1  0  0  0  0
 22 44  1  0  0  0  0
 23 24  2  0  0  0  0
 25 45  1  0  0  0  0
M  CHG  1  19   1
M  END
> <s_m_source_file>
AV-unprocessed.smi

> <i_m_source_file_index>
2353

> <i_lp_mmshare_version>
43012

> <i_f3d_flags>
0

> <s_epik_input>
W0NIM11jMVtjSF1bY0hdYyhbQ0gzXSljKFtjSF0xKU9bQ0gyXVtDQEhdKFtPSF0pW0NIMl1uMm5jKFtjSF1bY0hdYzI9TyktbjNbY0hdW2NIXW5bY0hdMw==

> <s_epik_cmdline>
J2VwaWtfcHl0aG9uJywgJy1waCcsICc3LjAnLCAnLXRuJywgJzgnLCAnLW1hJywgJzIwMCcsICctbWV0YWxfYmluZGluZycsICctaW1hZScsICc8aW5maWxlLm1hZT4nLCAnLW9tYWUnLCAnPG91dGZpbGUubWFlPic=

> <r_lp_tautomer_probability>
1

> <r_epik_Ionization_Penalty>
1.66053

> <r_epik_Ionization_Penalty_Charging>
2.43903e-09

> <r_epik_Ionization_Penalty_Neutral>
1.66053

> <r_epik_State_Penalty>
1.76336

> <r_epik_Charging_Adjusted_Penalty>
1.76336

> <i_epik_Tot_Q>
1

> <i_epik_Tot_abs_Q>
1

> <r_epik_Metal_State_Penalty>
1.79856

> <b_epik_Metal_Only>
0

> <s_lp_Force_Field>
OPLS_2005

> <r_lp_Energy>
39.4345

> <b_lp_Chiralities_Consistent>
1

> <s_lp_Variant>
AV-unprocessed.smi:2353-4

> <Gold.Version>
5.8.1

> <Gold.Id.Protein>
6NUR|6NUR_protein|mol2

> <Gold.PLP.Fitness>
54.3724

> <Gold.PLP.PLP>
-44.8940

> <Gold.PLP.part.hbond>
-3.0000

> <Gold.PLP.part.metal>
0.0000

> <Gold.PLP.part.buried>
-7.7362

> <Gold.PLP.part.nonpolar>
-34.4058

> <Gold.PLP.part.repulsive>
0.0059

> <Gold.PLP.ligand.clash>
0.0000

> <Gold.PLP.ligand.torsion>
1.3071

> <Gold.PLP.Chemscore.Hbond>
4.0000

> <Gold.PLP.Chemscore.CHOScore>
0.0000

> <Gold.PLP.Chemscore.Metal>
0.0000

> <Gold.Chemscore.Hbonds>
donor molecule, donor type, donor heavy atom, donor atom, acceptor molecule, acceptor atom, score
      L1  H    19    46       P1 10175  1.92
      P1  H  6896  6907       L1    24  1.00
      P1  H  7997  8010       L1    11  1.00

> <Gold.PLP.Chemscore.Internal.Correction>
0.0926

> <Gold.Rescore>
     Score         DG    S(hbond)    S(metal)    S(lipo)     H(rot)  DE(clash)    DE(int)     intcor
     21.11     -22.63       2.95        0.00     120.35       2.65       0.09       1.43       ----

> <Gold.Chemscore.Fitness>
21.1139

> <Gold.Chemscore.DG>
-22.6343

> <Gold.Chemscore.ZeroCoef>
-5.4800

> <Gold.Chemscore.Hbond>
2.9541

> <Gold.Chemscore.Metal>
0.0000

> <Gold.Chemscore.Lipo>
120.3528

> <Gold.Chemscore.Internal_Hbond>
0.0000

> <Gold.Chemscore.DEClash>
0.0923

> <Gold.Chemscore.DEInternal>
1.4281

> <Gold.Chemscore.Rot>
2.6537

> <Gold.Chemscore.Internal.Correction>
   9.000000E+99

> <Gold.Chemscore.Hbonds>
donor molecule, donor type, donor heavy atom, donor atom, acceptor molecule, acceptor atom, score
      L1  H    19    46       P1 10175  0.67
      P1  H  6896  6907       L1    24  1.00
      P1  H  7997  8010       L1    11  0.89

> <Gold.Chemscore.Hbond.Weighted>
-9.8666

> <Gold.Chemscore.Metal.Weighted>
-0.0000

> <Gold.Chemscore.Lipo.Weighted>
-14.0813

> <Gold.Chemscore.Internal_Hbond.Weighted>
0.0000

> <Gold.Chemscore.DEClash.Weighted>
0.0923

> <Gold.Chemscore.DEInternal.Weighted>
1.4281

> <Gold.Chemscore.Rot.Weighted>
6.7935

> <Gold.Chemscore.Internal.Correction.Weighted>
   9.000000E+99

> <Gold.Protein.RotatedTorsions>
[ 6907 6896 6895 6894 ] final  -40.52 input  -60.11 | X-H torsion
[ 7974 7965 7964 7962 ] final -175.29 input  175.53 | X-H torsion
[ 8008 7997 7996 7995 ] final   47.07 input   59.86 | X-H torsion
[ 10167 10162 10161 10158 ] final  -83.37 input  -65.29 | X-H torsion
[ 10718 10713 10712 10709 ] final   56.81 input   66.30 | X-H torsion
[ 10763 10752 10751 10750 ] final -176.33 input  -60.55 | X-H torsion
[ 11005 11000 10999 10996 ] final  161.06 input  -57.11 | X-H torsion

> <Gold.Protein.ActiveResidues>
 VAL166  LYS551  ARG553  GLY616  TRP617  ASP618  TYR619  PRO620  LYS621  CYS622 
 ASP623  PHE694  ASN695  SER759  ASP760  ASP761  ALA762  ILE779  LEU786  VAL792 
 PHE793  MET794  SER795  GLU796  ALA797  LYS798  CYS799  TRP800  GLU811  SER814 

> <Gold.Protein.RotatedAtoms>
  150.9775  134.9136  159.7824 H   0  0  0  0  0  0  0  0  0  0  0  0  # atno 6907 bound_to 6896
  152.5211  134.3456  159.9243 H   0  0  0  0  0  0  0  0  0  0  0  0  # atno 6908 bound_to 6896
  151.3464  133.3901  159.2710 H   0  0  0  0  0  0  0  0  0  0  0  0  # atno 6909 bound_to 6896
  144.7128  140.1343  143.6396 H   0  0  0  0  0  0  0  0  0  0  0  0  # atno 7974 bound_to 7965
  155.3629  140.3419  155.4241 H   0  0  0  0  0  0  0  0  0  0  0  0  # atno 8008 bound_to 7997
  156.1704  140.1630  156.8492 H   0  0  0  0  0  0  0  0  0  0  0  0  # atno 8009 bound_to 7997
  154.5227  140.0763  156.8184 H   0  0  0  0  0  0  0  0  0  0  0  0  # atno 8010 bound_to 7997
  140.4232  143.2576  151.8861 H   0  0  0  0  0  0  0  0  0  0  0  0  # atno 10167 bound_to 10162
  157.5462  130.8732  149.8895 H   0  0  0  0  0  0  0  0  0  0  0  0  # atno 10718 bound_to 10713
  154.5737  135.2830  155.0802 H   0  0  0  0  0  0  0  0  0  0  0  0  # atno 10763 bound_to 10752
  154.2165  135.6399  153.5135 H   0  0  0  0  0  0  0  0  0  0  0  0  # atno 10764 bound_to 10752
  153.0065  135.5504  154.6368 H   0  0  0  0  0  0  0  0  0  0  0  0  # atno 10765 bound_to 10752
  140.2120  134.8260  157.3131 H   0  0  0  0  0  0  0  0  0  0  0  0  # atno 11005 bound_to 11000
  145.9259  139.2575  143.1354 LP  0  0  0  0  0  0  0  0  0  0  0  0  # atno 17320 bound_to 7965
  145.9573  140.8863  143.0229 LP  0  0  0  0  0  0  0  0  0  0  0  0  # atno 17321 bound_to 7965
  139.4783  144.5414  151.8522 LP  0  0  0  0  0  0  0  0  0  0  0  0  # atno 17342 bound_to 10162
  140.4510  144.1855  150.5897 LP  0  0  0  0  0  0  0  0  0  0  0  0  # atno 17343 bound_to 10162
  156.0537  130.3712  150.1140 LP  0  0  0  0  0  0  0  0  0  0  0  0  # atno 17370 bound_to 10713
  156.9316  130.9715  151.3532 LP  0  0  0  0  0  0  0  0  0  0  0  0  # atno 17371 bound_to 10713
  140.1940  134.4336  155.7699 LP  0  0  0  0  0  0  0  0  0  0  0  0  # atno 17394 bound_to 11000
  141.2226  133.7040  156.8075 LP  0  0  0  0  0  0  0  0  0  0  0  0  # atno 17395 bound_to 11000

$$$$
