AV-unprocessed.smi:2539|AV-procd|sdf|9985|dock10
  -GOLD-   2272014 33D 1   1.00000     0.00000
 Structure written by MMmdl.
 40 41  0  0  0  0  0  0  0  0  1 V2000
  151.7974  138.3034  157.6032 O   0  0  0  0  0  0  0  0  0  0  0  0
  151.7697  139.5019  157.3198 C   0  0  0  0  0  0  0  0  0  0  0  0
  152.1303  140.4553  158.1971 N   0  0  0  0  0  0  0  0  0  0  0  0
  152.6907  140.2236  159.5262 C   0  0  0  0  0  0  0  0  0  0  0  0
  153.5969  141.3850  159.9815 C   0  0  0  0  0  0  0  0  0  0  0  0
  152.9126  142.7410  159.9463 C   0  0  0  0  0  0  0  0  0  0  0  0
  152.7304  143.4334  158.7307 C   0  0  0  0  0  0  0  0  0  0  0  0
  152.1209  144.7023  158.7580 C   0  0  0  0  0  0  0  0  0  0  0  0
  151.7161  145.2252  160.0023 C   0  0  0  0  0  0  0  0  0  0  0  0
  151.8799  144.5694  161.1712 N   0  0  0  0  0  0  0  0  0  0  0  0
  152.4666  143.3537  161.1367 C   0  0  0  0  0  0  0  0  0  0  0  0
  151.4423  139.9641  156.0871 N   0  0  0  0  0  0  0  0  0  0  0  0
  151.1978  139.1517  154.8860 C   0  0  0  0  0  0  0  0  0  0  0  0
  149.6797  139.1038  154.6272 C   0  0  0  0  0  0  0  0  0  0  0  0
  149.0586  140.5207  154.5080 C   0  0  0  0  0  0  0  0  0  0  0  0
  149.4998  141.0815  153.2838 O   0  0  0  0  0  0  0  0  0  0  0  0
  147.5132  140.4600  154.4498 C   0  0  0  0  0  0  0  0  0  0  0  0
  147.0105  141.6866  154.3077 F   0  0  0  0  0  0  0  0  0  0  0  0
  147.1112  139.7236  153.4129 F   0  0  0  0  0  0  0  0  0  0  0  0
  147.0193  139.9378  155.5734 F   0  0  0  0  0  0  0  0  0  0  0  0
  149.5535  141.4452  155.6522 C   0  0  0  0  0  0  0  0  0  0  0  0
  151.0801  141.3654  155.8537 C   0  0  0  0  0  0  0  0  0  0  0  0
  152.0818  141.4153  157.8889 H   0  0  0  0  0  0  0  0  0  0  0  0
  151.8651  140.1084  160.2285 H   0  0  0  0  0  0  0  0  0  0  0  0
  153.2436  139.2831  159.5525 H   0  0  0  0  0  0  0  0  0  0  0  0
  153.9554  141.1948  160.9940 H   0  0  0  0  0  0  0  0  0  0  0  0
  154.4849  141.4259  159.3498 H   0  0  0  0  0  0  0  0  0  0  0  0
  153.0616  143.0079  157.7950 H   0  0  0  0  0  0  0  0  0  0  0  0
  151.9693  145.2632  157.8480 H   0  0  0  0  0  0  0  0  0  0  0  0
  151.2467  146.1961  160.0601 H   0  0  0  0  0  0  0  0  0  0  0  0
  152.5942  142.8599  162.0889 H   0  0  0  0  0  0  0  0  0  0  0  0
  151.7088  139.6052  154.0356 H   0  0  0  0  0  0  0  0  0  0  0  0
  151.6018  138.1414  154.9515 H   0  0  0  0  0  0  0  0  0  0  0  0
  149.4749  138.5220  153.7278 H   0  0  0  0  0  0  0  0  0  0  0  0
  149.2058  138.5660  155.4492 H   0  0  0  0  0  0  0  0  0  0  0  0
  149.3634  140.4454  152.5981 H   0  0  0  0  0  0  0  0  0  0  0  0
  149.2575  142.4779  155.4641 H   0  0  0  0  0  0  0  0  0  0  0  0
  149.0673  141.1588  156.5859 H   0  0  0  0  0  0  0  0  0  0  0  0
  151.3802  142.0218  156.6718 H   0  0  0  0  0  0  0  0  0  0  0  0
  151.6025  141.7386  154.9718 H   0  0  0  0  0  0  0  0  0  0  0  0
  1  2  2  0  0  0  0
  2  3  1  0  0  0  0
  2 12  1  0  0  0  0
  3  4  1  0  0  0  0
  3 23  1  0  0  0  0
  4  5  1  0  0  0  0
  4 24  1  0  0  0  0
  4 25  1  0  0  0  0
  5  6  1  0  0  0  0
  5 26  1  0  0  0  0
  5 27  1  0  0  0  0
  6 11  1  0  0  0  0
  6  7  2  0  0  0  0
  7  8  1  0  0  0  0
  7 28  1  0  0  0  0
  8  9  2  0  0  0  0
  8 29  1  0  0  0  0
  9 10  1  0  0  0  0
  9 30  1  0  0  0  0
 10 11  2  0  0  0  0
 11 31  1  0  0  0  0
 12 22  1  0  0  0  0
 12 13  1  0  0  0  0
 13 14  1  0  0  0  0
 13 32  1  0  0  0  0
 13 33  1  0  0  0  0
 14 15  1  0  0  0  0
 14 34  1  0  0  0  0
 14 35  1  0  0  0  0
 15 16  1  0  0  0  0
 15 17  1  0  0  0  0
 15 21  1  0  0  0  0
 16 36  1  0  0  0  0
 17 18  1  0  0  0  0
 17 19  1  0  0  0  0
 17 20  1  0  0  0  0
 21 22  1  0  0  0  0
 21 37  1  0  0  0  0
 21 38  1  0  0  0  0
 22 39  1  0  0  0  0
 22 40  1  0  0  0  0
M  END
> <s_m_source_file>
AV-unprocessed.smi

> <i_m_source_file_index>
2539

> <i_lp_mmshare_version>
43012

> <i_f3d_flags>
0

> <s_epik_input>
RkMoRikoRilDMShbT0hdKVtDSDJdW0NIMl1OKFtDSDJdW0NIMl0xKUMoPU8pW05IXVtDSDJdW0NIMl1jMltjSF1bY0hdW2NIXW5bY0hdMg==

> <s_epik_cmdline>
J2VwaWtfcHl0aG9uJywgJy1waCcsICc3LjAnLCAnLXRuJywgJzgnLCAnLW1hJywgJzIwMCcsICctbWV0YWxfYmluZGluZycsICctaW1hZScsICc8aW5maWxlLm1hZT4nLCAnLW9tYWUnLCAnPG91dGZpbGUubWFlPic=

> <r_epik_Ionization_Penalty>
0.0144431

> <r_epik_Ionization_Penalty_Charging>
0

> <r_epik_Ionization_Penalty_Neutral>
0.0144431

> <r_epik_State_Penalty>
0.0112443

> <r_epik_Charging_Adjusted_Penalty>
0.0112443

> <i_epik_Tot_Q>
0

> <i_epik_Tot_abs_Q>
0

> <r_epik_Metal_State_Penalty>
0.0109773

> <b_epik_Metal_Only>
0

> <s_lp_Force_Field>
OPLS_2005

> <r_lp_Energy>
34.3491

> <b_lp_Chiralities_Consistent>
1

> <s_lp_Variant>
AV-unprocessed.smi:2539-1

> <Gold.Version>
5.8.1

> <Gold.Id.Protein>
6NUR|6NUR_protein|mol2

> <Gold.PLP.Fitness>
56.7653

> <Gold.PLP.PLP>
-52.8621

> <Gold.PLP.part.hbond>
-2.5279

> <Gold.PLP.part.metal>
0.0000

> <Gold.PLP.part.buried>
-6.2147

> <Gold.PLP.part.nonpolar>
-44.9042

> <Gold.PLP.part.repulsive>
0.4022

> <Gold.PLP.ligand.clash>
0.9225

> <Gold.PLP.ligand.torsion>
0.5132

> <Gold.PLP.Chemscore.Hbond>
1.9343

> <Gold.PLP.Chemscore.CHOScore>
0.0000

> <Gold.PLP.Chemscore.Metal>
0.0000

> <Gold.Chemscore.Hbonds>
donor molecule, donor type, donor heavy atom, donor atom, acceptor molecule, acceptor atom, score
      L1  H    16    36       P1  7957  0.91
      P1  H  7989  7998       L1    16  0.12
      P1  H  8011  8017       L1    16  0.90

> <Gold.PLP.Chemscore.Internal.Correction>
0.0492

> <Gold.Rescore>
     Score         DG    S(hbond)    S(metal)    S(lipo)     H(rot)  DE(clash)    DE(int)     intcor
     17.81     -18.39       1.11        0.00     121.99       1.97       0.03       0.55       ----

> <Gold.Chemscore.Fitness>
17.8076

> <Gold.Chemscore.DG>
-18.3945

> <Gold.Chemscore.ZeroCoef>
-5.4800

> <Gold.Chemscore.Hbond>
1.1062

> <Gold.Chemscore.Metal>
0.0000

> <Gold.Chemscore.Lipo>
121.9878

> <Gold.Chemscore.Internal_Hbond>
0.0000

> <Gold.Chemscore.DEClash>
0.0350

> <Gold.Chemscore.DEInternal>
0.5519

> <Gold.Chemscore.Rot>
1.9737

> <Gold.Chemscore.Internal.Correction>
   9.000000E+99

> <Gold.Chemscore.Hbonds>
donor molecule, donor type, donor heavy atom, donor atom, acceptor molecule, acceptor atom, score
      L1  H    16    36       P1  7957  0.82
      P1  H  7989  7998       L1    16  0.01
      P1  H  8011  8017       L1    16  0.18

> <Gold.Chemscore.Hbond.Weighted>
-3.6947

> <Gold.Chemscore.Metal.Weighted>
-0.0000

> <Gold.Chemscore.Lipo.Weighted>
-14.2726

> <Gold.Chemscore.Internal_Hbond.Weighted>
0.0000

> <Gold.Chemscore.DEClash.Weighted>
0.0350

> <Gold.Chemscore.DEInternal.Weighted>
0.5519

> <Gold.Chemscore.Rot.Weighted>
5.0528

> <Gold.Chemscore.Internal.Correction.Weighted>
   9.000000E+99

> <Gold.Protein.RotatedTorsions>
[ 6907 6896 6895 6894 ] final -166.78 input  -60.11 | X-H torsion
[ 7974 7965 7964 7962 ] final  -71.41 input  175.53 | X-H torsion
[ 8008 7997 7996 7995 ] final -145.68 input   59.86 | X-H torsion
[ 10167 10162 10161 10158 ] final  -61.56 input  -65.29 | X-H torsion
[ 10718 10713 10712 10709 ] final  -90.92 input   66.30 | X-H torsion
[ 10763 10752 10751 10750 ] final  -88.44 input  -60.55 | X-H torsion
[ 11005 11000 10999 10996 ] final   24.20 input  -57.11 | X-H torsion

> <Gold.Protein.ActiveResidues>
 VAL166  LYS551  ARG553  GLY616  TRP617  ASP618  TYR619  PRO620  LYS621  CYS622 
 ASP623  PHE694  ASN695  SER759  ASP760  ASP761  ALA762  ILE779  LEU786  VAL792 
 PHE793  MET794  SER795  GLU796  ALA797  LYS798  CYS799  TRP800  GLU811  SER814 

> <Gold.Protein.RotatedAtoms>
  151.4491  133.3622  159.2792 H   0  0  0  0  0  0  0  0  0  0  0  0  # atno 6907 bound_to 6896
  150.9104  134.8522  159.7432 H   0  0  0  0  0  0  0  0  0  0  0  0  # atno 6908 bound_to 6896
  152.4929  134.4420  159.9598 H   0  0  0  0  0  0  0  0  0  0  0  0  # atno 6909 bound_to 6896
  145.6784  140.9196  143.0845 H   0  0  0  0  0  0  0  0  0  0  0  0  # atno 7974 bound_to 7965
  155.5471  140.0613  157.2858 H   0  0  0  0  0  0  0  0  0  0  0  0  # atno 8008 bound_to 7997
  154.4433  140.1909  156.0693 H   0  0  0  0  0  0  0  0  0  0  0  0  # atno 8009 bound_to 7997
  156.0543  140.3280  155.7391 H   0  0  0  0  0  0  0  0  0  0  0  0  # atno 8010 bound_to 7997
  140.5997  143.2359  151.5955 H   0  0  0  0  0  0  0  0  0  0  0  0  # atno 10167 bound_to 10162
  155.9990  130.4928  150.5396 H   0  0  0  0  0  0  0  0  0  0  0  0  # atno 10718 bound_to 10713
  154.6446  135.5377  153.7829 H   0  0  0  0  0  0  0  0  0  0  0  0  # atno 10763 bound_to 10752
  153.0352  135.6467  154.1108 H   0  0  0  0  0  0  0  0  0  0  0  0  # atno 10764 bound_to 10752
  154.1030  135.2932  155.3227 H   0  0  0  0  0  0  0  0  0  0  0  0  # atno 10765 bound_to 10752
  140.3613  134.2122  155.7672 H   0  0  0  0  0  0  0  0  0  0  0  0  # atno 11005 bound_to 11000
  144.7034  139.8664  143.7437 LP  0  0  0  0  0  0  0  0  0  0  0  0  # atno 17320 bound_to 7965
  146.0985  139.3979  143.0361 LP  0  0  0  0  0  0  0  0  0  0  0  0  # atno 17321 bound_to 7965
  139.5283  144.2993  152.1087 LP  0  0  0  0  0  0  0  0  0  0  0  0  # atno 17342 bound_to 10162
  140.2172  144.4503  150.6358 LP  0  0  0  0  0  0  0  0  0  0  0  0  # atno 17343 bound_to 10162
  157.3334  131.0704  151.1843 LP  0  0  0  0  0  0  0  0  0  0  0  0  # atno 17370 bound_to 10713
  157.2716  130.6707  149.6022 LP  0  0  0  0  0  0  0  0  0  0  0  0  # atno 17371 bound_to 10713
  141.1983  133.8038  157.0588 LP  0  0  0  0  0  0  0  0  0  0  0  0  # atno 17394 bound_to 11000
  140.0624  134.9747  157.1328 LP  0  0  0  0  0  0  0  0  0  0  0  0  # atno 17395 bound_to 11000

$$$$
