AV-unprocessed.smi:1005|AV-procd|sdf|4377|dock7
  -GOLD-   22720 2293D 1   1.00000     0.00000
 Structure written by MMmdl.
 57 59  0  0  0  0  0  0  0  0  3 V2000
  152.4715  145.6887  159.8342 C   0  0  0  0  0  0  0  0  0  0  0  0
  152.2281  144.3971  159.0725 C   0  0  0  0  0  0  0  0  0  0  0  0
  151.2680  144.3964  158.0356 C   0  0  0  0  0  0  0  0  0  0  0  0
  151.0666  143.1998  157.3583 C   0  0  0  0  0  0  0  0  0  0  0  0
  150.2032  142.8789  156.3087 N   0  3  0  0  0  0  0  0  0  0  0  0
  150.3596  141.5679  155.9765 C   0  0  0  0  0  0  0  0  0  0  0  0
  151.3098  141.0457  156.7987 N   0  0  0  0  0  0  0  0  0  0  0  0
  151.8471  139.6786  156.8522 C   0  0  0  0  0  0  0  0  0  0  0  0
  151.6978  138.9247  155.5162 C   0  0  1  0  0  0  0  0  0  0  0  0
  152.5627  139.5391  154.5833 O   0  0  0  0  0  0  0  0  0  0  0  0
  152.0556  137.4244  155.6112 C   0  0  0  0  0  0  0  0  0  0  0  0
  151.1738  136.6153  156.4538 N   0  0  0  0  0  0  0  0  0  0  0  0
  151.3300  136.9069  157.8775 C   0  0  0  0  0  0  0  0  0  0  0  0
  150.4235  136.0199  158.7473 C   0  0  0  0  0  0  0  0  0  0  0  0
  150.6854  134.6489  158.4670 O   0  0  0  0  0  0  0  0  0  0  0  0
  150.4799  134.3118  157.0976 C   0  0  2  0  0  0  0  0  0  0  0  0
  150.7853  132.8137  156.9195 C   0  0  0  0  0  0  0  0  0  0  0  0
  150.4598  132.3181  155.5576 N   0  3  0  0  0  0  0  0  0  0  0  0
  150.6334  130.8551  155.4028 C   0  0  0  0  0  0  0  0  0  0  0  0
  149.1168  132.7536  155.1147 C   0  0  0  0  0  0  0  0  0  0  0  0
  151.4070  135.1918  156.2353 C   0  0  0  0  0  0  0  0  0  0  0  0
  151.7823  142.0290  157.6773 C   0  0  0  0  0  0  0  0  0  0  0  0
  152.7327  142.0135  158.6962 C   0  0  0  0  0  0  0  0  0  0  0  0
  152.9506  143.2203  159.3987 C   0  0  0  0  0  0  0  0  0  0  0  0
  153.9784  143.2312  160.5178 C   0  0  0  0  0  0  0  0  0  0  0  0
  151.8323  146.4935  159.4700 H   0  0  0  0  0  0  0  0  0  0  0  0
  153.5075  146.0099  159.7222 H   0  0  0  0  0  0  0  0  0  0  0  0
  152.2630  145.5530  160.8957 H   0  0  0  0  0  0  0  0  0  0  0  0
  150.7136  145.2882  157.7819 H   0  0  0  0  0  0  0  0  0  0  0  0
  149.8255  141.0377  155.2009 H   0  0  0  0  0  0  0  0  0  0  0  0
  152.9034  139.7658  157.1115 H   0  0  0  0  0  0  0  0  0  0  0  0
  151.3787  139.1336  157.6716 H   0  0  0  0  0  0  0  0  0  0  0  0
  150.6749  139.0581  155.1666 H   0  0  0  0  0  0  0  0  0  0  0  0
  152.7552  138.9203  153.8957 H   0  0  0  0  0  0  0  0  0  0  0  0
  152.0598  137.0170  154.5991 H   0  0  0  0  0  0  0  0  0  0  0  0
  153.0767  137.3146  155.9765 H   0  0  0  0  0  0  0  0  0  0  0  0
  152.3696  136.7600  158.1741 H   0  0  0  0  0  0  0  0  0  0  0  0
  151.0905  137.9491  158.0833 H   0  0  0  0  0  0  0  0  0  0  0  0
  150.6092  136.2100  159.8044 H   0  0  0  0  0  0  0  0  0  0  0  0
  149.3716  136.2423  158.5617 H   0  0  0  0  0  0  0  0  0  0  0  0
  149.4460  134.5229  156.8233 H   0  0  0  0  0  0  0  0  0  0  0  0
  151.8336  132.6071  157.1399 H   0  0  0  0  0  0  0  0  0  0  0  0
  150.2016  132.2581  157.6551 H   0  0  0  0  0  0  0  0  0  0  0  0
  149.9783  130.3090  156.0827 H   0  0  0  0  0  0  0  0  0  0  0  0
  151.6606  130.5488  155.5961 H   0  0  0  0  0  0  0  0  0  0  0  0
  150.3947  130.5481  154.3840 H   0  0  0  0  0  0  0  0  0  0  0  0
  148.3392  132.3281  155.7508 H   0  0  0  0  0  0  0  0  0  0  0  0
  148.9278  132.4401  154.0874 H   0  0  0  0  0  0  0  0  0  0  0  0
  149.0299  133.8403  155.1469 H   0  0  0  0  0  0  0  0  0  0  0  0
  151.2498  134.9524  155.1826 H   0  0  0  0  0  0  0  0  0  0  0  0
  152.4481  134.9508  156.4571 H   0  0  0  0  0  0  0  0  0  0  0  0
  153.2826  141.1195  158.9495 H   0  0  0  0  0  0  0  0  0  0  0  0
  154.4483  142.2547  160.6386 H   0  0  0  0  0  0  0  0  0  0  0  0
  153.5091  143.4940  161.4660 H   0  0  0  0  0  0  0  0  0  0  0  0
  154.7660  143.9553  160.3079 H   0  0  0  0  0  0  0  0  0  0  0  0
  151.1167  132.7601  154.9296 H   0  0  0  0  0  0  0  0  0  0  0  0
  149.5545  143.5064  155.8506 H   0  0  0  0  0  0  0  0  0  0  0  0
  1  2  1  0  0  0  0
  1 26  1  0  0  0  0
  1 27  1  0  0  0  0
  1 28  1  0  0  0  0
  2 24  1  0  0  0  0
  2  3  2  0  0  0  0
  3  4  1  0  0  0  0
  3 29  1  0  0  0  0
  4 22  2  0  0  0  0
  4  5  1  0  0  0  0
  5  6  2  0  0  0  0
  5 57  1  0  0  0  0
  6  7  1  0  0  0  0
  6 30  1  0  0  0  0
  7  8  1  0  0  0  0
  7 22  1  0  0  0  0
  8  9  1  0  0  0  0
  8 31  1  0  0  0  0
  8 32  1  0  0  0  0
  9 10  1  0  0  0  0
  9 11  1  0  0  0  0
  9 33  1  0  0  0  0
 10 34  1  0  0  0  0
 11 12  1  0  0  0  0
 11 35  1  0  0  0  0
 11 36  1  0  0  0  0
 12 21  1  0  0  0  0
 12 13  1  0  0  0  0
 13 14  1  0  0  0  0
 13 37  1  0  0  0  0
 13 38  1  0  0  0  0
 14 15  1  0  0  0  0
 14 39  1  0  0  0  0
 14 40  1  0  0  0  0
 15 16  1  0  0  0  0
 16 17  1  0  0  0  0
 16 21  1  0  0  0  0
 16 41  1  0  0  0  0
 17 18  1  0  0  0  0
 17 42  1  0  0  0  0
 17 43  1  0  0  0  0
 18 19  1  0  0  0  0
 18 20  1  0  0  0  0
 18 56  1  0  0  0  0
 19 44  1  0  0  0  0
 19 45  1  0  0  0  0
 19 46  1  0  0  0  0
 20 47  1  0  0  0  0
 20 48  1  0  0  0  0
 20 49  1  0  0  0  0
 21 50  1  0  0  0  0
 21 51  1  0  0  0  0
 22 23  1  0  0  0  0
 23 24  2  0  0  0  0
 23 52  1  0  0  0  0
 24 25  1  0  0  0  0
 25 53  1  0  0  0  0
 25 54  1  0  0  0  0
 25 55  1  0  0  0  0
M  CHG  1   5   1
M  CHG  1  18   1
M  END
> <s_m_source_file>
AV-unprocessed.smi

> <i_m_source_file_index>
1005

> <i_lp_mmshare_version>
43012

> <i_f3d_flags>
0

> <s_epik_input>
W0NIM11jKFtjSF0xKWMoW0NIM10pW2NIXWMoYzEyKW4oW2NIXW4yKVtDSDJdW0NASF0oW09IXSlbQ0gyXU4zW0NIMl1bQ0gyXU9bQ0BIXShbQ0gyXTMpW0NIMl1OKFtDSDNdKVtDSDNd

> <s_epik_cmdline>
J2VwaWtfcHl0aG9uJywgJy1waCcsICc3LjAnLCAnLXRuJywgJzgnLCAnLW1hJywgJzIwMCcsICctbWV0YWxfYmluZGluZycsICctaW1hZScsICc8aW5maWxlLm1hZT4nLCAnLW9tYWUnLCAnPG91dGZpbGUubWFlPic=

> <r_epik_Ionization_Penalty>
1.3281

> <r_epik_Ionization_Penalty_Charging>
1.21988

> <r_epik_Ionization_Penalty_Neutral>
0.10822

> <r_epik_State_Penalty>
1.32886

> <r_epik_Charging_Adjusted_Penalty>
2.54875

> <i_epik_Tot_Q>
2

> <i_epik_Tot_abs_Q>
2

> <r_epik_Metal_State_Penalty>
5.33912

> <b_epik_Metal_Only>
0

> <s_lp_Force_Field>
OPLS_2005

> <r_lp_Energy>
45.9182

> <b_lp_Chiralities_Consistent>
1

> <s_lp_Variant>
AV-unprocessed.smi:1005-16

> <Gold.Version>
5.8.1

> <Gold.Id.Protein>
6NUR|6NUR_protein|mol2

> <Gold.PLP.Fitness>
61.0847

> <Gold.PLP.PLP>
-50.0071

> <Gold.PLP.part.hbond>
-3.7117

> <Gold.PLP.part.metal>
0.0000

> <Gold.PLP.part.buried>
-7.2617

> <Gold.PLP.part.nonpolar>
-40.8587

> <Gold.PLP.part.repulsive>
0.1479

> <Gold.PLP.ligand.clash>
0.0000

> <Gold.PLP.ligand.torsion>
0.5352

> <Gold.PLP.Chemscore.Hbond>
3.9992

> <Gold.PLP.Chemscore.CHOScore>
0.0000

> <Gold.PLP.Chemscore.Metal>
0.0000

> <Gold.Chemscore.Hbonds>
donor molecule, donor type, donor heavy atom, donor atom, acceptor molecule, acceptor atom, score
      L1  H     5    57       P1  8028  1.33
      P1  H  7989  7998       L1    10  0.49
      P1  H  7997  8008       L1    10  0.10

> <Gold.PLP.Chemscore.Internal.Correction>
0.1503

> <Gold.Rescore>
     Score         DG    S(hbond)    S(metal)    S(lipo)     H(rot)  DE(clash)    DE(int)     intcor
     19.07     -20.52       1.81        0.00     131.34       2.49       0.29       1.16       ----

> <Gold.Chemscore.Fitness>
19.0717

> <Gold.Chemscore.DG>
-20.5162

> <Gold.Chemscore.ZeroCoef>
-5.4800

> <Gold.Chemscore.Hbond>
1.8095

> <Gold.Chemscore.Metal>
0.0000

> <Gold.Chemscore.Lipo>
131.3361

> <Gold.Chemscore.Internal_Hbond>
0.0000

> <Gold.Chemscore.DEClash>
0.2862

> <Gold.Chemscore.DEInternal>
1.1583

> <Gold.Chemscore.Rot>
2.4897

> <Gold.Chemscore.Internal.Correction>
   9.000000E+99

> <Gold.Chemscore.Hbonds>
donor molecule, donor type, donor heavy atom, donor atom, acceptor molecule, acceptor atom, score
      L1  H     5    57       P1  8028  0.65
      P1  H  7989  7998       L1    10  0.07
      P1  H  7997  8008       L1    10  0.05

> <Gold.Chemscore.Hbond.Weighted>
-6.0436

> <Gold.Chemscore.Metal.Weighted>
-0.0000

> <Gold.Chemscore.Lipo.Weighted>
-15.3663

> <Gold.Chemscore.Internal_Hbond.Weighted>
0.0000

> <Gold.Chemscore.DEClash.Weighted>
0.2862

> <Gold.Chemscore.DEInternal.Weighted>
1.1583

> <Gold.Chemscore.Rot.Weighted>
6.3737

> <Gold.Chemscore.Internal.Correction.Weighted>
   9.000000E+99

> <Gold.Protein.RotatedTorsions>
[ 6907 6896 6895 6894 ] final   17.26 input  -60.11 | X-H torsion
[ 7974 7965 7964 7962 ] final  150.01 input  175.53 | X-H torsion
[ 8008 7997 7996 7995 ] final  -18.29 input   59.86 | X-H torsion
[ 10167 10162 10161 10158 ] final  162.73 input  -65.29 | X-H torsion
[ 10718 10713 10712 10709 ] final  -25.64 input   66.30 | X-H torsion
[ 10763 10752 10751 10750 ] final  -38.64 input  -60.55 | X-H torsion
[ 11005 11000 10999 10996 ] final -177.95 input  -57.11 | X-H torsion

> <Gold.Protein.ActiveResidues>
 VAL166  LYS551  ARG553  GLY616  TRP617  ASP618  TYR619  PRO620  LYS621  CYS622 
 ASP623  PHE694  ASN695  SER759  ASP760  ASP761  ALA762  ILE779  LEU786  VAL792 
 PHE793  MET794  SER795  GLU796  ALA797  LYS798  CYS799  TRP800  GLU811  SER814 

> <Gold.Protein.RotatedAtoms>
  151.8468  135.0571  160.0454 H   0  0  0  0  0  0  0  0  0  0  0  0  # atno 6907 bound_to 6896
  152.2767  133.5428  159.5481 H   0  0  0  0  0  0  0  0  0  0  0  0  # atno 6908 bound_to 6896
  150.7173  134.0537  159.3849 H   0  0  0  0  0  0  0  0  0  0  0  0  # atno 6909 bound_to 6896
  144.8396  139.6353  143.6022 H   0  0  0  0  0  0  0  0  0  0  0  0  # atno 7974 bound_to 7965
  154.4917  140.2120  155.9534 H   0  0  0  0  0  0  0  0  0  0  0  0  # atno 8008 bound_to 7997
  156.1314  140.3196  155.8323 H   0  0  0  0  0  0  0  0  0  0  0  0  # atno 8009 bound_to 7997
  155.4289  140.0502  157.3011 H   0  0  0  0  0  0  0  0  0  0  0  0  # atno 8010 bound_to 7997
  139.4864  144.4408  151.8954 H   0  0  0  0  0  0  0  0  0  0  0  0  # atno 10167 bound_to 10162
  156.4617  130.4505  149.6925 H   0  0  0  0  0  0  0  0  0  0  0  0  # atno 10718 bound_to 10713
  153.9162  135.6787  153.4749 H   0  0  0  0  0  0  0  0  0  0  0  0  # atno 10763 bound_to 10752
  153.1052  135.4809  154.8936 H   0  0  0  0  0  0  0  0  0  0  0  0  # atno 10764 bound_to 10752
  154.7501  135.3182  154.8528 H   0  0  0  0  0  0  0  0  0  0  0  0  # atno 10765 bound_to 10752
  140.4352  134.6482  157.4731 H   0  0  0  0  0  0  0  0  0  0  0  0  # atno 11005 bound_to 11000
  146.2690  139.6589  142.9309 LP  0  0  0  0  0  0  0  0  0  0  0  0  # atno 17320 bound_to 7965
  145.4722  141.0436  143.2692 LP  0  0  0  0  0  0  0  0  0  0  0  0  # atno 17321 bound_to 7965
  140.3860  144.2676  150.5904 LP  0  0  0  0  0  0  0  0  0  0  0  0  # atno 17342 bound_to 10162
  140.5190  143.2270  151.8419 LP  0  0  0  0  0  0  0  0  0  0  0  0  # atno 17343 bound_to 10162
  156.3710  130.7530  151.2513 LP  0  0  0  0  0  0  0  0  0  0  0  0  # atno 17370 bound_to 10713
  157.7497  131.0323  150.4220 LP  0  0  0  0  0  0  0  0  0  0  0  0  # atno 17371 bound_to 10713
  140.0107  134.6695  155.9385 LP  0  0  0  0  0  0  0  0  0  0  0  0  # atno 17394 bound_to 11000
  141.1729  133.6538  156.4718 LP  0  0  0  0  0  0  0  0  0  0  0  0  # atno 17395 bound_to 11000

$$$$
