#       Name:                AV-unprocessed.smi:2430
#       Creating user name   scv26
#       Creation time:       Fri Mar 27 13:21:41 2020


#       File generated by GOLD software.
#

@<TRIPOS>MOLECULE
AV-unprocessed.smi:2430
    54    55     1
SMALL
NO_CHARGES


@<TRIPOS>ATOM
      1 ****        -5.5860  -0.7608  -1.1121 C.3            1 S1                 0.0000
      2 ****        -5.0565   0.5261  -1.7696 C.3            1 S1                 0.0000
      3 ****        -3.5196   0.5689  -1.8851 C.3            1 S1                 0.0000
      4 ****        -2.9024   0.8563  -0.5934 N.3            1 S1                 0.0000
      5 ****        -1.5089   0.6435  -0.5294 C.ar           1 S1                 0.0000
      6 ****        -0.9672  -0.6137  -0.8857 C.ar           1 S1                 0.0000
      7 ****         0.4253  -0.8095  -0.8151 C.ar           1 S1                 0.0000
      8 ****         1.2449   0.2577  -0.3813 C.ar           1 S1                 0.0000
      9 ****         2.6603   0.1888  -0.2855 N.am           1 S1                 0.0000
     10 ****         3.4278  -0.8990  -0.1028 C.2            1 S1                 0.0000
     11 ****         3.0113  -2.0512   0.0159 O.2            1 S1                 0.0000
     12 ****         4.7260  -0.5712  -0.0379 N.am           1 S1                 0.0000
     13 ****         5.8144  -1.5105   0.2065 C.3            1 S1                 0.0000
     14 ****         5.9915  -1.7834   1.7089 C.3            1 S1                 0.0000
     15 ****         7.1437  -2.7544   1.9965 C.3            1 S1                 0.0000
     16 ****         7.2628  -2.9560   3.3879 O.3            1 S1                 0.0000
     17 ****         0.6158   1.4766  -0.0606 C.ar           1 S1                 0.0000
     18 ****        -0.7186   1.6671  -0.1230 N.ar           1 S1                 0.0000
     19 ****        -3.4436   2.0507   0.0488 C.3            1 S1                 0.0000
     20 ****        -4.9740   1.9466   0.1700 C.3            1 S1                 0.0000
     21 ****        -5.5929   3.2340   0.7242 C.3            1 S1                 0.0000
     22 ****        -5.5389   1.7032  -1.1176 O.3            1 S1                 0.0000
     23 ****        -5.3183  -1.6350  -1.7058 H              1 S1                 0.0000
     24 ****        -6.6730  -0.7377  -1.0313 H              1 S1                 0.0000
     25 ****        -5.1786  -0.9128  -0.1130 H              1 S1                 0.0000
     26 ****        -5.4637   0.5523  -2.7807 H              1 S1                 0.0000
     27 ****        -3.1618  -0.3685  -2.3093 H              1 S1                 0.0000
     28 ****        -3.2283   1.3566  -2.5812 H              1 S1                 0.0000
     29 ****        -1.6020  -1.4283  -1.2013 H              1 S1                 0.0000
     30 ****         0.8348  -1.7649  -1.1043 H              1 S1                 0.0000
     31 ****         3.1385   1.0777  -0.2770 H              1 S1                 0.0000
     32 ****         4.9788   0.4002  -0.1454 H              1 S1                 0.0000
     33 ****         5.6386  -2.4418  -0.3346 H              1 S1                 0.0000
     34 ****         6.7292  -1.0820  -0.2037 H              1 S1                 0.0000
     35 ****         6.1709  -0.8415   2.2297 H              1 S1                 0.0000
     36 ****         5.0666  -2.1919   2.1192 H              1 S1                 0.0000
     37 ****         6.9671  -3.7148   1.5114 H              1 S1                 0.0000
     38 ****         8.0856  -2.3613   1.6126 H              1 S1                 0.0000
     39 ****         7.9704  -3.5625   3.5446 H              1 S1                 0.0000
     40 ****         1.1987   2.3266   0.2633 H              1 S1                 0.0000
     41 ****        -3.0093   2.1732   1.0421 H              1 S1                 0.0000
     42 ****        -3.1701   2.9287  -0.5382 H              1 S1                 0.0000
     43 ****        -5.2327   1.1310   0.8455 H              1 S1                 0.0000
     44 ****        -5.1999   3.4637   1.7149 H              1 S1                 0.0000
     45 ****        -6.6757   3.1398   0.8101 H              1 S1                 0.0000
     46 ****        -5.3824   4.0844   0.0750 H              1 S1                 0.0000
     47 ****        -3.2025   0.1292   0.0240 LP             1 S1                 0.0000
     48 ****         2.0289  -2.2340  -0.0211 LP             1 S1                 0.0000
     49 ****         3.6554  -2.8045   0.1492 LP             1 S1                 0.0000
     50 ****         6.4096  -3.3332   3.7480 LP             1 S1                 0.0000
     51 ****         7.4590  -2.0854   3.8390 LP             1 S1                 0.0000
     52 ****        -1.1180   2.5492   0.1265 LP             1 S1                 0.0000
     53 ****        -6.5295   1.6166  -1.0117 LP             1 S1                 0.0000
     54 ****        -5.3334   2.4888  -1.7013 LP             1 S1                 0.0000
@<TRIPOS>BOND
    1    1    2 1     
    2    1   23 1     
    3    1   24 1     
    4    1   25 1     
    5    2   22 1     
    6    2    3 1     
    7    2   26 1     
    8    3    4 1     
    9    3   27 1     
   10    3   28 1     
   11    4    5 1     
   12    4   19 1     
   13    5   18 ar    
   14    5    6 ar    
   15    6    7 ar    
   16    6   29 1     
   17    7    8 ar    
   18    7   30 1     
   19    8    9 1     
   20    8   17 ar    
   21    9   10 am    
   22    9   31 1     
   23   10   11 2     
   24   10   12 am    
   25   12   13 1     
   26   12   32 1     
   27   13   14 1     
   28   13   33 1     
   29   13   34 1     
   30   14   15 1     
   31   14   35 1     
   32   14   36 1     
   33   15   16 1     
   34   15   37 1     
   35   15   38 1     
   36   16   39 1     
   37   17   18 ar    
   38   17   40 1     
   39   19   20 1     
   40   19   41 1     
   41   19   42 1     
   42   20   21 1     
   43   20   22 1     
   44   20   43 1     
   45   21   44 1     
   46   21   45 1     
   47   21   46 1     
   48    4   47 1     
   49   11   48 1     
   50   11   49 1     
   51   16   50 1     
   52   16   51 1     
   53   18   52 1     
   54   22   53 1     
   55   22   54 1     
@<TRIPOS>SUBSTRUCTURE
      1 S1             1
@<TRIPOS>SET
LONE_PAIRS      STATIC     ATOMS    <user>   **** ""
8 47 48 49 50 51 52 53 54
DONOR_HYDROGENS      STATIC     ATOMS    <user>   **** ""
3 31 32 39
ATOM$BLUE        STATIC     ATOMS    COLORGROUP SYSTEM
8 47 48 49 50 51 52 53 54
ATOM$RED        STATIC     ATOMS    COLORGROUP SYSTEM
3 31 32 39
