AV-unprocessed.smi:1419|AV-procd|sdf|5783|dock4
  -GOLD-   22720 5423D 1   1.00000     0.00000
 Structure written by MMmdl.
 41 42  0  0  0  0  0  0  0  0  1 V2000
  151.7087  140.3562  156.7574 C   0  0  0  0  0  0  0  0  0  0  0  0
  150.5025  140.8492  157.5733 C   0  0  1  0  0  0  0  0  0  0  0  0
  150.8530  142.0035  158.5373 C   0  0  0  0  0  0  0  0  0  0  0  0
  151.6483  141.5666  159.6687 N   0  0  0  0  0  0  0  0  0  0  0  0
  152.9774  141.8723  159.9311 C   0  0  0  0  0  0  0  0  0  0  0  0
  153.3007  141.2389  161.1099 C   0  0  0  0  0  0  0  0  0  0  0  0
  152.1914  140.5465  161.5896 N   0  0  0  0  0  0  0  0  0  0  0  0
  151.2512  140.7891  160.6852 C   0  0  0  0  0  0  0  0  0  0  0  0
  149.4461  141.2668  156.6571 N   0  0  0  0  0  0  0  0  0  0  0  0
  148.1512  140.9167  156.7404 C   0  0  0  0  0  0  0  0  0  0  0  0
  147.7307  140.1602  157.6168 O   0  0  0  0  0  0  0  0  0  0  0  0
  147.3586  141.4547  155.7805 N   0  0  0  0  0  0  0  0  0  0  0  0
  147.6339  142.6571  154.9818 C   0  0  0  0  0  0  0  0  0  0  0  0
  146.6926  143.7907  155.4405 C   0  0  2  0  0  0  0  0  0  0  0  0
  147.0227  144.3508  156.8363 C   0  0  0  0  0  0  0  0  0  0  0  0
  145.3333  143.3499  155.3602 O   0  0  0  0  0  0  0  0  0  0  0  0
  145.0328  142.1308  156.0456 C   0  0  1  0  0  0  0  0  0  0  0  0
  143.5614  141.7925  155.7836 C   0  0  0  0  0  0  0  0  0  0  0  0
  145.9797  141.0165  155.5576 C   0  0  0  0  0  0  0  0  0  0  0  0
  152.4879  139.9480  157.4014 H   0  0  0  0  0  0  0  0  0  0  0  0
  152.1487  141.1648  156.1728 H   0  0  0  0  0  0  0  0  0  0  0  0
  151.4166  139.5659  156.0650 H   0  0  0  0  0  0  0  0  0  0  0  0
  150.1384  140.0033  158.1595 H   0  0  0  0  0  0  0  0  0  0  0  0
  151.4019  142.7850  158.0096 H   0  0  0  0  0  0  0  0  0  0  0  0
  149.9450  142.4685  158.9239 H   0  0  0  0  0  0  0  0  0  0  0  0
  153.5678  142.4942  159.2743 H   0  0  0  0  0  0  0  0  0  0  0  0
  154.2384  141.2292  161.6456 H   0  0  0  0  0  0  0  0  0  0  0  0
  150.2502  140.3901  160.7621 H   0  0  0  0  0  0  0  0  0  0  0  0
  149.7161  141.8849  155.9058 H   0  0  0  0  0  0  0  0  0  0  0  0
  148.6698  142.9938  155.0218 H   0  0  0  0  0  0  0  0  0  0  0  0
  147.4475  142.4296  153.9311 H   0  0  0  0  0  0  0  0  0  0  0  0
  146.7900  144.6142  154.7328 H   0  0  0  0  0  0  0  0  0  0  0  0
  148.0323  144.7619  156.8587 H   0  0  0  0  0  0  0  0  0  0  0  0
  146.9661  143.5909  157.6152 H   0  0  0  0  0  0  0  0  0  0  0  0
  146.3341  145.1522  157.1045 H   0  0  0  0  0  0  0  0  0  0  0  0
  145.1618  142.2761  157.1186 H   0  0  0  0  0  0  0  0  0  0  0  0
  143.2715  140.8766  156.2990 H   0  0  0  0  0  0  0  0  0  0  0  0
  143.3723  141.6523  154.7190 H   0  0  0  0  0  0  0  0  0  0  0  0
  142.9090  142.5925  156.1349 H   0  0  0  0  0  0  0  0  0  0  0  0
  145.8269  140.8247  154.4944 H   0  0  0  0  0  0  0  0  0  0  0  0
  145.7499  140.0788  156.0659 H   0  0  0  0  0  0  0  0  0  0  0  0
  1  2  1  0  0  0  0
  1 20  1  0  0  0  0
  1 21  1  0  0  0  0
  1 22  1  0  0  0  0
  2  3  1  0  0  0  0
  2  9  1  0  0  0  0
  2 23  1  0  0  0  0
  3  4  1  0  0  0  0
  3 24  1  0  0  0  0
  3 25  1  0  0  0  0
  4  8  1  0  0  0  0
  4  5  1  0  0  0  0
  5  6  2  0  0  0  0
  5 26  1  0  0  0  0
  6  7  1  0  0  0  0
  6 27  1  0  0  0  0
  7  8  2  0  0  0  0
  8 28  1  0  0  0  0
  9 10  1  0  0  0  0
  9 29  1  0  0  0  0
 10 11  2  0  0  0  0
 10 12  1  0  0  0  0
 12 19  1  0  0  0  0
 12 13  1  0  0  0  0
 13 14  1  0  0  0  0
 13 30  1  0  0  0  0
 13 31  1  0  0  0  0
 14 15  1  0  0  0  0
 14 16  1  0  0  0  0
 14 32  1  0  0  0  0
 15 33  1  0  0  0  0
 15 34  1  0  0  0  0
 15 35  1  0  0  0  0
 16 17  1  0  0  0  0
 17 18  1  0  0  0  0
 17 19  1  0  0  0  0
 17 36  1  0  0  0  0
 18 37  1  0  0  0  0
 18 38  1  0  0  0  0
 18 39  1  0  0  0  0
 19 40  1  0  0  0  0
 19 41  1  0  0  0  0
M  END
> <s_m_source_file>
AV-unprocessed.smi

> <i_m_source_file_index>
1419

> <i_lp_mmshare_version>
43012

> <i_f3d_flags>
0

> <s_epik_input>
W2NIXTFuW2NIXVtjSF1uMVtDSDJdW0NAQEhdKFtDSDNdKVtOSF1DKD1PKU4yW0NIMl1bQ0BASF0oW0NIM10pT1tDQEBIXShbQ0gzXSlbQ0gyXTI=

> <s_epik_cmdline>
J2VwaWtfcHl0aG9uJywgJy1waCcsICc3LjAnLCAnLXRuJywgJzgnLCAnLW1hJywgJzIwMCcsICctbWV0YWxfYmluZGluZycsICctaW1hZScsICc8aW5maWxlLm1hZT4nLCAnLW9tYWUnLCAnPG91dGZpbGUubWFlPic=

> <r_lp_tautomer_probability>
1

> <r_epik_Ionization_Penalty>
0.625124

> <r_epik_Ionization_Penalty_Charging>
0.625093

> <r_epik_Ionization_Penalty_Neutral>
3.17415e-05

> <r_epik_State_Penalty>
0.641455

> <r_epik_Charging_Adjusted_Penalty>
1.26655

> <i_epik_Tot_Q>
0

> <i_epik_Tot_abs_Q>
0

> <r_epik_Metal_State_Penalty>
0.307717

> <b_epik_Metal_Only>
0

> <s_lp_Force_Field>
OPLS_2005

> <r_lp_Energy>
30.8813

> <b_lp_Chiralities_Consistent>
1

> <s_lp_Variant>
AV-unprocessed.smi:1419-10

> <Gold.Version>
5.8.1

> <Gold.Id.Protein>
6NUR|6NUR_protein|mol2

> <Gold.PLP.Fitness>
38.7757

> <Gold.PLP.PLP>
-33.9893

> <Gold.PLP.part.hbond>
-2.0000

> <Gold.PLP.part.metal>
0.0000

> <Gold.PLP.part.buried>
-0.2101

> <Gold.PLP.part.nonpolar>
-32.9546

> <Gold.PLP.part.repulsive>
0.2853

> <Gold.PLP.ligand.clash>
0.0000

> <Gold.PLP.ligand.torsion>
0.4637

> <Gold.PLP.Chemscore.Hbond>
1.8880

> <Gold.PLP.Chemscore.CHOScore>
0.0000

> <Gold.PLP.Chemscore.Metal>
0.0000

> <Gold.PLP.Chemscore.Internal.Correction>
0.0498

> <Gold.Rescore>
     Score         DG    S(hbond)    S(metal)    S(lipo)     H(rot)  DE(clash)    DE(int)     intcor
     12.65     -16.09       1.63        0.00      78.64       1.58       2.86       0.57       ----

> <Gold.Chemscore.Fitness>
12.6544

> <Gold.Chemscore.DG>
-16.0867

> <Gold.Chemscore.ZeroCoef>
-5.4800

> <Gold.Chemscore.Hbond>
1.6297

> <Gold.Chemscore.Metal>
0.0000

> <Gold.Chemscore.Lipo>
78.6357

> <Gold.Chemscore.Internal_Hbond>
0.0000

> <Gold.Chemscore.DEClash>
2.8642

> <Gold.Chemscore.DEInternal>
0.5681

> <Gold.Chemscore.Rot>
1.5769

> <Gold.Chemscore.Internal.Correction>
   9.000000E+99

> <Gold.Chemscore.Hbond.Weighted>
-5.4432

> <Gold.Chemscore.Metal.Weighted>
-0.0000

> <Gold.Chemscore.Lipo.Weighted>
-9.2004

> <Gold.Chemscore.Internal_Hbond.Weighted>
0.0000

> <Gold.Chemscore.DEClash.Weighted>
2.8642

> <Gold.Chemscore.DEInternal.Weighted>
0.5681

> <Gold.Chemscore.Rot.Weighted>
4.0369

> <Gold.Chemscore.Internal.Correction.Weighted>
   9.000000E+99

> <Gold.Protein.RotatedTorsions>
[ 6907 6896 6895 6894 ] final -133.17 input  -60.11 | X-H torsion
[ 7974 7965 7964 7962 ] final -156.73 input  175.53 | X-H torsion
[ 8008 7997 7996 7995 ] final  -85.37 input   59.86 | X-H torsion
[ 10167 10162 10161 10158 ] final -123.49 input  -65.29 | X-H torsion
[ 10718 10713 10712 10709 ] final  123.29 input   66.30 | X-H torsion
[ 10763 10752 10751 10750 ] final   53.99 input  -60.55 | X-H torsion
[ 11005 11000 10999 10996 ] final   18.84 input  -57.11 | X-H torsion

> <Gold.Protein.ActiveResidues>
 VAL166  LYS551  ARG553  GLY616  TRP617  ASP618  TYR619  PRO620  LYS621  CYS622 
 ASP623  PHE694  ASN695  SER759  ASP760  ASP761  ALA762  ILE779  LEU786  VAL792 
 PHE793  MET794  SER795  GLU796  ALA797  LYS798  CYS799  TRP800  GLU811  SER814 

> <Gold.Protein.RotatedAtoms>
  150.9709  133.6345  159.2737 H   0  0  0  0  0  0  0  0  0  0  0  0  # atno 6907 bound_to 6896
  151.3634  135.0907  159.9451 H   0  0  0  0  0  0  0  0  0  0  0  0  # atno 6908 bound_to 6896
  152.5182  133.9278  159.7620 H   0  0  0  0  0  0  0  0  0  0  0  0  # atno 6909 bound_to 6896
  144.7580  140.4068  143.5998 H   0  0  0  0  0  0  0  0  0  0  0  0  # atno 7974 bound_to 7965
  154.6400  140.0592  156.9835 H   0  0  0  0  0  0  0  0  0  0  0  0  # atno 8008 bound_to 7997
  155.1531  140.3276  155.4408 H   0  0  0  0  0  0  0  0  0  0  0  0  # atno 8009 bound_to 7997
  156.2526  140.1944  156.6642 H   0  0  0  0  0  0  0  0  0  0  0  0  # atno 8010 bound_to 7997
  140.0029  143.5521  152.2296 H   0  0  0  0  0  0  0  0  0  0  0  0  # atno 10167 bound_to 10162
  157.5676  131.1085  150.8425 H   0  0  0  0  0  0  0  0  0  0  0  0  # atno 10718 bound_to 10713
  152.9800  135.5760  154.4832 H   0  0  0  0  0  0  0  0  0  0  0  0  # atno 10763 bound_to 10752
  154.4377  135.2775  155.1871 H   0  0  0  0  0  0  0  0  0  0  0  0  # atno 10764 bound_to 10752
  154.3552  135.6200  153.5716 H   0  0  0  0  0  0  0  0  0  0  0  0  # atno 10765 bound_to 10752
  140.4203  134.1526  155.7672 H   0  0  0  0  0  0  0  0  0  0  0  0  # atno 11005 bound_to 11000
  145.6715  139.1600  143.2752 LP  0  0  0  0  0  0  0  0  0  0  0  0  # atno 17320 bound_to 7965
  146.1612  140.6786  142.9277 LP  0  0  0  0  0  0  0  0  0  0  0  0  # atno 17321 bound_to 7965
  139.6259  144.7637  151.2640 LP  0  0  0  0  0  0  0  0  0  0  0  0  # atno 17342 bound_to 10162
  140.7411  143.6566  150.8201 LP  0  0  0  0  0  0  0  0  0  0  0  0  # atno 17343 bound_to 10162
  156.8906  130.5211  149.5286 LP  0  0  0  0  0  0  0  0  0  0  0  0  # atno 17370 bound_to 10713
  156.0723  130.5753  150.9408 LP  0  0  0  0  0  0  0  0  0  0  0  0  # atno 17371 bound_to 10713
  141.1787  133.8461  157.1334 LP  0  0  0  0  0  0  0  0  0  0  0  0  # atno 17394 bound_to 11000
  140.0205  134.9948  157.0581 LP  0  0  0  0  0  0  0  0  0  0  0  0  # atno 17395 bound_to 11000

$$$$
