AV-unprocessed.smi:2009|AV-procd|sdf|8148|dock2
  -GOLD-   2272010383D 1   1.00000     0.00000
 Structure written by MMmdl.
 37 38  0  0  0  0  0  0  0  0  2 V2000
  147.8996  139.1196  157.6306 C   0  0  0  0  0  0  0  0  0  0  0  0
  149.0123  139.7588  156.7889 C   0  0  1  0  0  0  0  0  0  0  0  0
  148.7486  141.2624  156.5246 C   0  0  0  0  0  0  0  0  0  0  0  0
  147.7507  141.5224  155.4902 N   0  0  0  0  0  0  0  0  0  0  0  0
  147.8660  142.3145  154.3633 C   0  0  0  0  0  0  0  0  0  0  0  0
  146.6735  142.2629  153.7009 C   0  0  0  0  0  0  0  0  0  0  0  0
  145.8734  141.4128  154.5136 C   0  0  0  0  0  0  0  0  0  0  0  0
  146.5142  140.9788  155.5866 N   0  0  0  0  0  0  0  0  0  0  0  0
  150.2812  139.5950  157.4848 N   0  5  0  0  0  0  0  0  0  0  0  0
  151.6550  140.0531  156.7553 S   0  0  0  0  0  0  0  0  0  0  0  0
  152.7900  139.1522  157.0131 O   0  0  0  0  0  0  0  0  0  0  0  0
  151.4410  140.5097  155.3721 O   0  0  0  0  0  0  0  0  0  0  0  0
  151.9500  141.4793  157.7059 N   0  0  0  0  0  0  0  0  0  0  0  0
  152.0628  141.2983  159.1683 C   0  0  0  0  0  0  0  0  0  0  0  0
  152.7007  142.5242  159.8434 C   0  0  0  0  0  0  0  0  0  0  0  0
  151.9438  143.8084  159.4960 C   0  0  0  0  0  0  0  0  0  0  0  0
  151.8837  143.9596  157.9742 C   0  0  0  0  0  0  0  0  0  0  0  0
  151.2468  142.7240  157.3176 C   0  0  0  0  0  0  0  0  0  0  0  0
  146.9334  139.2120  157.1342 H   0  0  0  0  0  0  0  0  0  0  0  0
  147.8170  139.5936  158.6093 H   0  0  0  0  0  0  0  0  0  0  0  0
  148.0865  138.0566  157.7883 H   0  0  0  0  0  0  0  0  0  0  0  0
  149.0149  139.2494  155.8241 H   0  0  0  0  0  0  0  0  0  0  0  0
  148.4136  141.7423  157.4455 H   0  0  0  0  0  0  0  0  0  0  0  0
  149.6739  141.7665  156.2417 H   0  0  0  0  0  0  0  0  0  0  0  0
  148.7838  142.8330  154.1269 H   0  0  0  0  0  0  0  0  0  0  0  0
  146.4140  142.7562  152.7762 H   0  0  0  0  0  0  0  0  0  0  0  0
  144.8508  141.1024  154.3577 H   0  0  0  0  0  0  0  0  0  0  0  0
  151.0702  141.1089  159.5787 H   0  0  0  0  0  0  0  0  0  0  0  0
  152.6689  140.4200  159.3888 H   0  0  0  0  0  0  0  0  0  0  0  0
  152.7198  142.3843  160.9243 H   0  0  0  0  0  0  0  0  0  0  0  0
  153.7405  142.6145  159.5256 H   0  0  0  0  0  0  0  0  0  0  0  0
  150.9347  143.7705  159.9081 H   0  0  0  0  0  0  0  0  0  0  0  0
  152.4372  144.6716  159.9433 H   0  0  0  0  0  0  0  0  0  0  0  0
  151.3168  144.8528  157.7108 H   0  0  0  0  0  0  0  0  0  0  0  0
  152.8901  144.1034  157.5786 H   0  0  0  0  0  0  0  0  0  0  0  0
  151.2618  142.8504  156.2357 H   0  0  0  0  0  0  0  0  0  0  0  0
  150.1982  142.6403  157.6052 H   0  0  0  0  0  0  0  0  0  0  0  0
  1  2  1  0  0  0  0
  1 19  1  0  0  0  0
  1 20  1  0  0  0  0
  1 21  1  0  0  0  0
  2  3  1  0  0  0  0
  2  9  1  0  0  0  0
  2 22  1  0  0  0  0
  3  4  1  0  0  0  0
  3 23  1  0  0  0  0
  3 24  1  0  0  0  0
  4  8  1  0  0  0  0
  4  5  1  0  0  0  0
  5  6  2  0  0  0  0
  5 25  1  0  0  0  0
  6  7  1  0  0  0  0
  6 26  1  0  0  0  0
  7  8  2  0  0  0  0
  7 27  1  0  0  0  0
  9 10  1  0  0  0  0
 10 11  2  0  0  0  0
 10 12  2  0  0  0  0
 10 13  1  0  0  0  0
 13 18  1  0  0  0  0
 13 14  1  0  0  0  0
 14 15  1  0  0  0  0
 14 28  1  0  0  0  0
 14 29  1  0  0  0  0
 15 16  1  0  0  0  0
 15 30  1  0  0  0  0
 15 31  1  0  0  0  0
 16 17  1  0  0  0  0
 16 32  1  0  0  0  0
 16 33  1  0  0  0  0
 17 18  1  0  0  0  0
 17 34  1  0  0  0  0
 17 35  1  0  0  0  0
 18 36  1  0  0  0  0
 18 37  1  0  0  0  0
M  CHG  1   9  -1
M  END
> <s_m_source_file>
AV-unprocessed.smi

> <i_m_source_file_index>
2009

> <i_lp_mmshare_version>
43012

> <i_f3d_flags>
0

> <s_epik_input>
bjFbY0hdW2NIXVtjSF1uMVtDSDJdW0NAQEhdKFtDSDNdKVtOSF1TKD1PKSg9TylOMltDSDJdW0NIMl1bQ0gyXVtDSDJdW0NIMl0y

> <s_epik_cmdline>
J2VwaWtfcHl0aG9uJywgJy1waCcsICc3LjAnLCAnLXRuJywgJzgnLCAnLW1hJywgJzIwMCcsICctbWV0YWxfYmluZGluZycsICctaW1hZScsICc8aW5maWxlLm1hZT4nLCAnLW9tYWUnLCAnPG91dGZpbGUubWFlPic=

> <r_lp_tautomer_probability>
1

> <r_epik_Ionization_Penalty>
1.75622

> <r_epik_Ionization_Penalty_Charging>
1.7562

> <r_epik_Ionization_Penalty_Neutral>
2.38826e-05

> <r_epik_State_Penalty>
1.86645

> <r_epik_Charging_Adjusted_Penalty>
3.62264

> <i_epik_Tot_Q>
-1

> <i_epik_Tot_abs_Q>
1

> <r_epik_Metal_State_Penalty>
0.460135

> <b_epik_Metal_Only>
0

> <s_lp_Force_Field>
OPLS_2005

> <r_lp_Energy>
6.21629

> <b_lp_Chiralities_Consistent>
1

> <s_lp_Variant>
AV-unprocessed.smi:2009-4

> <Gold.Version>
5.8.1

> <Gold.Id.Protein>
6NUR|6NUR_protein|mol2

> <Gold.PLP.Fitness>
39.1220

> <Gold.PLP.PLP>
-29.6725

> <Gold.PLP.part.hbond>
-2.0000

> <Gold.PLP.part.metal>
0.0000

> <Gold.PLP.part.buried>
-0.6506

> <Gold.PLP.part.nonpolar>
-26.6400

> <Gold.PLP.part.repulsive>
0.0798

> <Gold.PLP.ligand.clash>
0.0000

> <Gold.PLP.ligand.torsion>
1.2046

> <Gold.PLP.Chemscore.Hbond>
1.8640

> <Gold.PLP.Chemscore.CHOScore>
1.5557

> <Gold.PLP.Chemscore.Metal>
0.0000

> <Gold.Chemscore.Hbonds>
donor molecule, donor type, donor heavy atom, donor atom, acceptor molecule, acceptor atom, score
      P1  H  7989  7998       L1    12  0.85
      P1  H  7997  8008       L1    11  1.00
      L1  C     5    25       P1  8028  0.52
      L1  C     7    27       P1 10175  1.00

> <Gold.PLP.Chemscore.Internal.Correction>
1.5996

> <Gold.Rescore>
     Score         DG    S(hbond)    S(metal)    S(lipo)     H(rot)  DE(clash)    DE(int)     intcor
     15.14     -16.57       1.83        0.00      76.94       1.57       0.08       1.35       ----

> <Gold.Chemscore.Fitness>
15.1370

> <Gold.Chemscore.DG>
-16.5714

> <Gold.Chemscore.ZeroCoef>
-5.4800

> <Gold.Chemscore.Hbond>
1.8266

> <Gold.Chemscore.Metal>
0.0000

> <Gold.Chemscore.Lipo>
76.9442

> <Gold.Chemscore.Internal_Hbond>
0.0000

> <Gold.Chemscore.DEClash>
0.0842

> <Gold.Chemscore.DEInternal>
1.3502

> <Gold.Chemscore.Rot>
1.5672

> <Gold.Chemscore.Internal.Correction>
   9.000000E+99

> <Gold.Chemscore.Hbonds>
donor molecule, donor type, donor heavy atom, donor atom, acceptor molecule, acceptor atom, score
      P1  H  7989  7998       L1    12  0.83
      P1  H  7997  8008       L1    11  0.70

> <Gold.Chemscore.Hbond.Weighted>
-6.1008

> <Gold.Chemscore.Metal.Weighted>
-0.0000

> <Gold.Chemscore.Lipo.Weighted>
-9.0025

> <Gold.Chemscore.Internal_Hbond.Weighted>
0.0000

> <Gold.Chemscore.DEClash.Weighted>
0.0842

> <Gold.Chemscore.DEInternal.Weighted>
1.3502

> <Gold.Chemscore.Rot.Weighted>
4.0119

> <Gold.Chemscore.Internal.Correction.Weighted>
   9.000000E+99

> <Gold.Protein.RotatedTorsions>
[ 6907 6896 6895 6894 ] final  -18.46 input  -60.11 | X-H torsion
[ 7974 7965 7964 7962 ] final  -90.20 input  175.53 | X-H torsion
[ 8008 7997 7996 7995 ] final  -62.68 input   59.86 | X-H torsion
[ 10167 10162 10161 10158 ] final -155.52 input  -65.29 | X-H torsion
[ 10718 10713 10712 10709 ] final  178.22 input   66.30 | X-H torsion
[ 10763 10752 10751 10750 ] final  -51.55 input  -60.55 | X-H torsion
[ 11005 11000 10999 10996 ] final  -85.88 input  -57.11 | X-H torsion

> <Gold.Protein.ActiveResidues>
 VAL166  LYS551  ARG553  GLY616  TRP617  ASP618  TYR619  PRO620  LYS621  CYS622 
 ASP623  PHE694  ASN695  SER759  ASP760  ASP761  ALA762  ILE779  LEU786  VAL792 
 PHE793  MET794  SER795  GLU796  ALA797  LYS798  CYS799  TRP800  GLU811  SER814 

> <Gold.Protein.RotatedAtoms>
  151.2779  135.0705  159.9158 H   0  0  0  0  0  0  0  0  0  0  0  0  # atno 6907 bound_to 6896
  152.5339  134.0062  159.7927 H   0  0  0  0  0  0  0  0  0  0  0  0  # atno 6908 bound_to 6896
  151.0311  133.5739  159.2691 H   0  0  0  0  0  0  0  0  0  0  0  0  # atno 6909 bound_to 6896
  145.4297  140.9555  143.2135 H   0  0  0  0  0  0  0  0  0  0  0  0  # atno 7974 bound_to 7965
  154.4513  140.0991  156.6624 H   0  0  0  0  0  0  0  0  0  0  0  0  # atno 8008 bound_to 7997
  155.5278  140.3480  155.4401 H   0  0  0  0  0  0  0  0  0  0  0  0  # atno 8009 bound_to 7997
  156.0686  140.1344  156.9845 H   0  0  0  0  0  0  0  0  0  0  0  0  # atno 8010 bound_to 7997
  139.6925  143.9397  152.2391 H   0  0  0  0  0  0  0  0  0  0  0  0  # atno 10167 bound_to 10162
  156.8937  130.9856  151.3046 H   0  0  0  0  0  0  0  0  0  0  0  0  # atno 10718 bound_to 10713
  154.1285  135.6524  153.4917 H   0  0  0  0  0  0  0  0  0  0  0  0  # atno 10763 bound_to 10752
  153.0203  135.5287  154.7025 H   0  0  0  0  0  0  0  0  0  0  0  0  # atno 10764 bound_to 10752
  154.6253  135.2969  155.0249 H   0  0  0  0  0  0  0  0  0  0  0  0  # atno 10765 bound_to 10752
  141.1636  133.7424  156.9080 H   0  0  0  0  0  0  0  0  0  0  0  0  # atno 11005 bound_to 11000
  144.8191  139.5824  143.6995 LP  0  0  0  0  0  0  0  0  0  0  0  0  # atno 17320 bound_to 7965
  146.2614  139.6418  142.9359 LP  0  0  0  0  0  0  0  0  0  0  0  0  # atno 17321 bound_to 7965
  139.9217  144.6795  150.8454 LP  0  0  0  0  0  0  0  0  0  0  0  0  # atno 17342 bound_to 10162
  140.7687  143.3370  151.2288 LP  0  0  0  0  0  0  0  0  0  0  0  0  # atno 17343 bound_to 10162
  157.6068  130.8553  149.8888 LP  0  0  0  0  0  0  0  0  0  0  0  0  # atno 17370 bound_to 10713
  156.0616  130.3699  150.0969 LP  0  0  0  0  0  0  0  0  0  0  0  0  # atno 17371 bound_to 10713
  140.1536  134.9213  157.2625 LP  0  0  0  0  0  0  0  0  0  0  0  0  # atno 17394 bound_to 11000
  140.2693  134.3479  155.7379 LP  0  0  0  0  0  0  0  0  0  0  0  0  # atno 17395 bound_to 11000

$$$$
