AV-unprocessed.smi:96|AV-procd|sdf|860|dock6
  -GOLD-   2262017303D 1   1.00000     0.00000
 Structure written by MMmdl.
 43 46  0  0  0  0  0  0  0  0  1 V2000
  152.5418  136.4086  156.6787 O   0  0  0  0  0  0  0  0  0  0  0  0
  152.0768  137.3000  155.9668 C   0  0  0  0  0  0  0  0  0  0  0  0
  152.7636  138.6730  155.8873 C   0  0  0  0  0  0  0  0  0  0  0  0
  151.8692  139.8007  156.2304 N   0  0  0  0  0  0  0  0  0  0  0  0
  150.8549  140.1729  155.3137 C   0  0  0  0  0  0  0  0  0  0  0  0
  150.7028  139.5707  154.2500 O   0  0  0  0  0  0  0  0  0  0  0  0
  150.0271  141.3046  155.7159 C   0  0  0  0  0  0  0  0  0  0  0  0
  149.0310  141.7184  154.9142 F   0  0  0  0  0  0  0  0  0  0  0  0
  150.2445  141.9455  156.8829 C   0  0  0  0  0  0  0  0  0  0  0  0
  151.2509  141.5824  157.7603 N   0  0  0  0  0  0  0  0  0  0  0  0
  151.4897  142.3183  159.0622 C   0  0  1  0  0  0  0  0  0  0  0  0
  152.7656  143.1776  158.9728 C   0  0  0  0  0  0  0  0  0  0  0  0
  152.2859  144.5390  159.4348 C   0  0  0  0  0  0  0  0  0  0  0  0
  150.8257  144.5191  159.0083 C   0  0  0  0  0  0  0  0  0  0  0  0
  150.4258  143.1907  159.3186 O   0  0  0  0  0  0  0  0  0  0  0  0
  152.0859  140.4879  157.4483 C   0  0  0  0  0  0  0  0  0  0  0  0
  152.9872  140.1468  158.2180 O   0  0  0  0  0  0  0  0  0  0  0  0
  150.9599  137.1759  155.2271 N   0  0  0  0  0  0  0  0  0  0  0  0
  150.1098  136.0449  155.1026 C   0  0  0  0  0  0  0  0  0  0  0  0
  148.6916  136.1462  155.0115 C   0  0  0  0  0  0  0  0  0  0  0  0
  147.8887  134.9878  154.9063 C   0  0  0  0  0  0  0  0  0  0  0  0
  148.5330  133.7408  154.9046 C   0  0  0  0  0  0  0  0  0  0  0  0
  149.9039  133.6355  155.0096 C   0  0  0  0  0  0  0  0  0  0  0  0
  150.7245  134.7700  155.1177 C   0  0  0  0  0  0  0  0  0  0  0  0
  150.2620  132.3264  154.9899 O   0  0  0  0  0  0  0  0  0  0  0  0
  149.0652  131.6027  154.8641 C   0  0  0  0  0  0  0  0  0  0  0  0
  147.9870  132.5012  154.8157 O   0  0  0  0  0  0  0  0  0  0  0  0
  153.6421  138.6519  156.5336 H   0  0  0  0  0  0  0  0  0  0  0  0
  153.1768  138.8042  154.8856 H   0  0  0  0  0  0  0  0  0  0  0  0
  149.5947  142.7734  157.1214 H   0  0  0  0  0  0  0  0  0  0  0  0
  151.5214  141.5487  159.8356 H   0  0  0  0  0  0  0  0  0  0  0  0
  153.5594  142.7662  159.5968 H   0  0  0  0  0  0  0  0  0  0  0  0
  153.1163  143.2285  157.9405 H   0  0  0  0  0  0  0  0  0  0  0  0
  152.3572  144.6144  160.5206 H   0  0  0  0  0  0  0  0  0  0  0  0
  152.8487  145.3628  158.9951 H   0  0  0  0  0  0  0  0  0  0  0  0
  150.2202  145.2549  159.5379 H   0  0  0  0  0  0  0  0  0  0  0  0
  150.7321  144.7014  157.9368 H   0  0  0  0  0  0  0  0  0  0  0  0
  150.6381  138.0149  154.7668 H   0  0  0  0  0  0  0  0  0  0  0  0
  148.1994  137.1065  155.0341 H   0  0  0  0  0  0  0  0  0  0  0  0
  146.8135  135.0593  154.8345 H   0  0  0  0  0  0  0  0  0  0  0  0
  151.7966  134.6653  155.2007 H   0  0  0  0  0  0  0  0  0  0  0  0
  149.0897  131.0120  153.9477 H   0  0  0  0  0  0  0  0  0  0  0  0
  148.9490  130.9375  155.7202 H   0  0  0  0  0  0  0  0  0  0  0  0
  1  2  2  0  0  0  0
  2  3  1  0  0  0  0
  2 18  1  0  0  0  0
  3  4  1  0  0  0  0
  3 28  1  0  0  0  0
  3 29  1  0  0  0  0
  4 16  1  0  0  0  0
  4  5  1  0  0  0  0
  5  6  2  0  0  0  0
  5  7  1  0  0  0  0
  7  8  1  0  0  0  0
  7  9  2  0  0  0  0
  9 10  1  0  0  0  0
  9 30  1  0  0  0  0
 10 11  1  0  0  0  0
 10 16  1  0  0  0  0
 11 15  1  0  0  0  0
 11 12  1  0  0  0  0
 11 31  1  0  0  0  0
 12 13  1  0  0  0  0
 12 32  1  0  0  0  0
 12 33  1  0  0  0  0
 13 14  1  0  0  0  0
 13 34  1  0  0  0  0
 13 35  1  0  0  0  0
 14 15  1  0  0  0  0
 14 36  1  0  0  0  0
 14 37  1  0  0  0  0
 16 17  2  0  0  0  0
 18 19  1  0  0  0  0
 18 38  1  0  0  0  0
 19 24  1  0  0  0  0
 19 20  2  0  0  0  0
 20 21  1  0  0  0  0
 20 39  1  0  0  0  0
 21 22  2  0  0  0  0
 21 40  1  0  0  0  0
 22 27  1  0  0  0  0
 22 23  1  0  0  0  0
 23 24  2  0  0  0  0
 23 25  1  0  0  0  0
 24 41  1  0  0  0  0
 25 26  1  0  0  0  0
 26 27  1  0  0  0  0
 26 42  1  0  0  0  0
 26 43  1  0  0  0  0
M  END
> <s_m_source_file>
AV-unprocessed.smi

> <i_m_source_file_index>
96

> <i_lp_mmshare_version>
43012

> <i_f3d_flags>
0

> <s_epik_input>
TzFbQ0gyXU9jKGMxMilbY0hdYyhbY0hdW2NIXTIpW05IXUMoPU8pW0NIMl1uM2MoPU8pYyhGKVtjSF1uKGMzPU8pW0NAQEhdNFtDSDJdW0NIMl1bQ0gyXU80

> <s_epik_cmdline>
J2VwaWtfcHl0aG9uJywgJy1waCcsICc3LjAnLCAnLXRuJywgJzgnLCAnLW1hJywgJzIwMCcsICctbWV0YWxfYmluZGluZycsICctaW1hZScsICc8aW5maWxlLm1hZT4nLCAnLW9tYWUnLCAnPG91dGZpbGUubWFlPic=

> <r_lp_tautomer_probability>
1

> <r_epik_Ionization_Penalty>
1.04778e-05

> <r_epik_Ionization_Penalty_Charging>
3.88729e-08

> <r_epik_Ionization_Penalty_Neutral>
1.04389e-05

> <r_epik_State_Penalty>
-0

> <r_epik_Charging_Adjusted_Penalty>
3.88729e-08

> <i_epik_Tot_Q>
0

> <i_epik_Tot_abs_Q>
0

> <r_epik_Metal_State_Penalty>
-0

> <b_epik_Metal_Only>
0

> <s_epik_Chemistry_Notes>
This compound contains an acetal/aminal-like group ( X-CH(R)-Y where X, Y are N, S, or O) that may be acid/base labile, releasing an aldehyde.

> <s_lp_Force_Field>
OPLS_2005

> <r_lp_Energy>
46.4939

> <b_lp_Chiralities_Consistent>
1

> <s_lp_Variant>
AV-unprocessed.smi:96-2

> <Gold.Version>
5.8.1

> <Gold.Id.Protein>
6NUR|6NUR_protein|mol2

> <Gold.PLP.Fitness>
52.8262

> <Gold.PLP.PLP>
-43.9392

> <Gold.PLP.part.hbond>
-3.4235

> <Gold.PLP.part.metal>
0.0000

> <Gold.PLP.part.buried>
0.0039

> <Gold.PLP.part.nonpolar>
-39.4011

> <Gold.PLP.part.repulsive>
0.3110

> <Gold.PLP.ligand.clash>
0.0000

> <Gold.PLP.ligand.torsion>
0.6735

> <Gold.PLP.Chemscore.Hbond>
2.4000

> <Gold.PLP.Chemscore.CHOScore>
1.0000

> <Gold.PLP.Chemscore.Metal>
0.0000

> <Gold.Chemscore.Hbonds>
donor molecule, donor type, donor heavy atom, donor atom, acceptor molecule, acceptor atom, score
      P1  H  7989  7998       L1     6  0.40
      P1  H  7997  8010       L1    17  1.00
      P1  H 10752 10763       L1     1  1.00
      L1  C     9    30       P1  8028  0.99

> <Gold.PLP.Chemscore.Internal.Correction>
0.0340

> <Gold.Rescore>
     Score         DG    S(hbond)    S(metal)    S(lipo)     H(rot)  DE(clash)    DE(int)     intcor
     12.46     -15.69       1.77        0.00      77.12       1.85       0.11       3.12       ----

> <Gold.Chemscore.Fitness>
12.4629

> <Gold.Chemscore.DG>
-15.6910

> <Gold.Chemscore.ZeroCoef>
-5.4800

> <Gold.Chemscore.Hbond>
1.7735

> <Gold.Chemscore.Metal>
0.0000

> <Gold.Chemscore.Lipo>
77.1192

> <Gold.Chemscore.Internal_Hbond>
0.0000

> <Gold.Chemscore.DEClash>
0.1058

> <Gold.Chemscore.DEInternal>
3.1224

> <Gold.Chemscore.Rot>
1.8497

> <Gold.Chemscore.Internal.Correction>
   9.000000E+99

> <Gold.Chemscore.Hbonds>
donor molecule, donor type, donor heavy atom, donor atom, acceptor molecule, acceptor atom, score
      P1  H  7989  7998       L1     6  0.01
      P1  H  7997  8010       L1    17  0.27
      P1  H 10752 10763       L1     1  0.25

> <Gold.Chemscore.Hbond.Weighted>
-5.9234

> <Gold.Chemscore.Metal.Weighted>
-0.0000

> <Gold.Chemscore.Lipo.Weighted>
-9.0229

> <Gold.Chemscore.Internal_Hbond.Weighted>
0.0000

> <Gold.Chemscore.DEClash.Weighted>
0.1058

> <Gold.Chemscore.DEInternal.Weighted>
3.1224

> <Gold.Chemscore.Rot.Weighted>
4.7354

> <Gold.Chemscore.Internal.Correction.Weighted>
   9.000000E+99

> <Gold.Protein.RotatedTorsions>
[ 6907 6896 6895 6894 ] final  170.91 input  -60.11 | X-H torsion
[ 7974 7965 7964 7962 ] final -107.24 input  175.53 | X-H torsion
[ 8008 7997 7996 7995 ] final   38.89 input   59.86 | X-H torsion
[ 10167 10162 10161 10158 ] final -177.60 input  -65.29 | X-H torsion
[ 10718 10713 10712 10709 ] final -112.58 input   66.30 | X-H torsion
[ 10763 10752 10751 10750 ] final  118.75 input  -60.55 | X-H torsion
[ 11005 11000 10999 10996 ] final -159.22 input  -57.11 | X-H torsion

> <Gold.Protein.ActiveResidues>
 VAL166  LYS551  ARG553  GLY616  TRP617  ASP618  TYR619  PRO620  LYS621  CYS622 
 ASP623  PHE694  ASN695  SER759  ASP760  ASP761  ALA762  ILE779  LEU786  VAL792 
 PHE793  MET794  SER795  GLU796  ALA797  LYS798  CYS799  TRP800  GLU811  SER814 

> <Gold.Protein.RotatedAtoms>
  151.8085  133.3379  159.3548 H   0  0  0  0  0  0  0  0  0  0  0  0  # atno 6907 bound_to 6896
  150.7334  134.5686  159.5888 H   0  0  0  0  0  0  0  0  0  0  0  0  # atno 6908 bound_to 6896
  152.3092  134.7520  160.0391 H   0  0  0  0  0  0  0  0  0  0  0  0  # atno 6909 bound_to 6896
  145.2078  140.9083  143.3332 H   0  0  0  0  0  0  0  0  0  0  0  0  # atno 7974 bound_to 7965
  155.2277  140.3336  155.4307 H   0  0  0  0  0  0  0  0  0  0  0  0  # atno 8008 bound_to 7997
  156.2308  140.1849  156.7295 H   0  0  0  0  0  0  0  0  0  0  0  0  # atno 8009 bound_to 7997
  154.5974  140.0628  156.9307 H   0  0  0  0  0  0  0  0  0  0  0  0  # atno 8010 bound_to 7997
  139.5472  144.2204  152.1010 H   0  0  0  0  0  0  0  0  0  0  0  0  # atno 10167 bound_to 10162
  156.0714  130.5928  150.8528 H   0  0  0  0  0  0  0  0  0  0  0  0  # atno 10718 bound_to 10713
  153.5724  135.3499  155.2843 H   0  0  0  0  0  0  0  0  0  0  0  0  # atno 10763 bound_to 10752
  154.8680  135.4162  154.2711 H   0  0  0  0  0  0  0  0  0  0  0  0  # atno 10764 bound_to 10752
  153.3479  135.7053  153.6882 H   0  0  0  0  0  0  0  0  0  0  0  0  # atno 10765 bound_to 10752
  140.6450  134.4511  157.5234 H   0  0  0  0  0  0  0  0  0  0  0  0  # atno 11005 bound_to 11000
  144.9885  139.3713  143.6226 LP  0  0  0  0  0  0  0  0  0  0  0  0  # atno 17320 bound_to 7965
  146.3404  139.9057  142.8787 LP  0  0  0  0  0  0  0  0  0  0  0  0  # atno 17321 bound_to 7965
  140.1692  144.4952  150.6589 LP  0  0  0  0  0  0  0  0  0  0  0  0  # atno 17342 bound_to 10162
  140.6724  143.2291  151.5592 LP  0  0  0  0  0  0  0  0  0  0  0  0  # atno 17343 bound_to 10162
  157.5787  131.0946  150.9304 LP  0  0  0  0  0  0  0  0  0  0  0  0  # atno 17370 bound_to 10713
  156.9505  130.5418  149.5282 LP  0  0  0  0  0  0  0  0  0  0  0  0  # atno 17371 bound_to 10713
  139.9066  134.8435  156.1682 LP  0  0  0  0  0  0  0  0  0  0  0  0  # atno 17394 bound_to 11000
  141.0579  133.6856  156.1896 LP  0  0  0  0  0  0  0  0  0  0  0  0  # atno 17395 bound_to 11000

$$$$
