#       Name:                AV-unprocessed.smi:36
#       Creating user name   scv26
#       Creation time:       Thu Mar 26 16:08:00 2020


#       File generated by GOLD software.
#

@<TRIPOS>MOLECULE
AV-unprocessed.smi:36
    73    76     1
SMALL
NO_CHARGES


@<TRIPOS>ATOM
      1 ****        -3.7715   2.8165   2.9889 C.3            1 S1                 0.0000
      2 ****        -3.2029   2.9938   1.5711 C.3            1 S1                 0.0000
      3 ****        -2.9112   1.6145   0.9551 C.3            1 S1                 0.0000
      4 ****        -4.2098   3.7575   0.6948 C.3            1 S1                 0.0000
      5 ****        -1.5716   3.9819   1.6714 Si             1 S1                 0.0000
      6 ****        -0.8161   4.2204  -0.0576 C.3            1 S1                 0.0000
      7 ****        -1.8390   5.6758   2.4881 C.3            1 S1                 0.0000
      8 ****        -0.4958   3.1014   2.6385 O.3            1 S1                 0.0000
      9 ****         0.9022   3.3075   2.6666 C.3            1 S1                 0.0000
     10 ****         1.5804   2.2763   1.7510 C.3            1 S1                 0.0000
     11 ****         1.5802   0.9842   2.3448 O.3            1 S1                 0.0000
     12 ****         2.5795   0.1982   1.7673 C.3            1 S1                 0.0000
     13 ****         1.9461  -0.7650   0.8122 N.pl3          1 S1                 0.0000
     14 ****         0.7167  -0.7112   0.2612 C.2            1 S1                 0.0000
     15 ****         0.4173  -1.7133  -0.5620 N.2            1 S1                 0.0000
     16 ****         1.5722  -2.4882  -0.5315 C.2            1 S1                 0.0000
     17 ****         1.8973  -3.7534  -1.2259 C.2            1 S1                 0.0000
     18 ****         0.9952  -4.2609  -2.0106 N.2            1 S1                 0.0000
     19 ****         1.2395  -5.4581  -2.6719 C.2            1 S1                 0.0000
     20 ****         2.2291  -6.1920  -2.5983 O.2            1 S1                 0.0000
     21 ****         0.1676  -5.8258  -3.6474 C.ar           1 S1                 0.0000
     22 ****        -1.1151  -6.1963  -3.1892 C.ar           1 S1                 0.0000
     23 ****        -2.1230  -6.5397  -4.1113 C.ar           1 S1                 0.0000
     24 ****        -1.8525  -6.5154  -5.4932 C.ar           1 S1                 0.0000
     25 ****        -0.5737  -6.1468  -5.9539 C.ar           1 S1                 0.0000
     26 ****         0.4346  -5.8011  -5.0330 C.ar           1 S1                 0.0000
     27 ****         3.1890  -4.1687  -0.8767 N.pl3          1 S1                 0.0000
     28 ****         4.0635  -3.4973  -0.0083 C.2            1 S1                 0.0000
     29 ****         3.7910  -2.3787   0.6089 N.2            1 S1                 0.0000
     30 ****         2.5155  -1.9265   0.3014 C.2            1 S1                 0.0000
     31 ****         3.5299   1.1398   1.0113 C.3            1 S1                 0.0000
     32 ****         3.0608   2.5185   1.4418 C.3            1 S1                 0.0000
     33 ****         3.7750   2.9605   2.5809 O.3            1 S1                 0.0000
     34 ****        -4.6944   2.2360   2.9761 H              1 S1                 0.0000
     35 ****        -3.9954   3.7779   3.4516 H              1 S1                 0.0000
     36 ****        -3.0648   2.2967   3.6366 H              1 S1                 0.0000
     37 ****        -2.1831   1.0613   1.5496 H              1 S1                 0.0000
     38 ****        -2.5091   1.7049  -0.0542 H              1 S1                 0.0000
     39 ****        -3.8150   1.0076   0.8941 H              1 S1                 0.0000
     40 ****        -5.1550   3.2193   0.6169 H              1 S1                 0.0000
     41 ****        -3.8291   3.8992  -0.3170 H              1 S1                 0.0000
     42 ****        -4.4266   4.7437   1.1063 H              1 S1                 0.0000
     43 ****        -1.4644   4.8201  -0.6960 H              1 S1                 0.0000
     44 ****        -0.6571   3.2686  -0.5637 H              1 S1                 0.0000
     45 ****         0.1472   4.7275  -0.0092 H              1 S1                 0.0000
     46 ****        -2.5415   6.2876   1.9224 H              1 S1                 0.0000
     47 ****        -0.9065   6.2349   2.5608 H              1 S1                 0.0000
     48 ****        -2.2347   5.5752   3.4984 H              1 S1                 0.0000
     49 ****         1.1250   4.3205   2.3298 H              1 S1                 0.0000
     50 ****         1.2618   3.2216   3.6921 H              1 S1                 0.0000
     51 ****         1.0439   2.2156   0.8037 H              1 S1                 0.0000
     52 ****         3.0667  -0.4239   2.5189 H              1 S1                 0.0000
     53 ****         0.0152   0.0835   0.4676 H              1 S1                 0.0000
     54 ****        -1.3317  -6.2159  -2.1308 H              1 S1                 0.0000
     55 ****        -3.1042  -6.8215  -3.7583 H              1 S1                 0.0000
     56 ****        -2.6258  -6.7793  -6.1996 H              1 S1                 0.0000
     57 ****        -0.3658  -6.1281  -7.0135 H              1 S1                 0.0000
     58 ****         1.4126  -5.5184  -5.3950 H              1 S1                 0.0000
     59 ****         5.0265  -3.9933   0.1215 H              1 S1                 0.0000
     60 ****         4.5710   0.9291   1.2588 H              1 S1                 0.0000
     61 ****         3.3984   1.0162  -0.0651 H              1 S1                 0.0000
     62 ****         3.1898   3.2554   0.6487 H              1 S1                 0.0000
     63 ****         3.4232   3.7944   2.8525 H              1 S1                 0.0000
     64 ****         3.5215  -5.0274  -1.2914 H              1 S1                 0.0000
     65 ****         0.6909   0.5514   2.1978 LP             1 S1                 0.0000
     66 ****         1.7511   1.0700   3.3264 LP             1 S1                 0.0000
     67 ****        -0.4269  -1.8700  -1.0744 LP             1 S1                 0.0000
     68 ****         0.1230  -3.7889  -2.1390 LP             1 S1                 0.0000
     69 ****         2.9909  -5.9456  -1.9990 LP             1 S1                 0.0000
     70 ****         2.2692  -7.0329  -3.1378 LP             1 S1                 0.0000
     71 ****         4.4219  -1.9076   1.2254 LP             1 S1                 0.0000
     72 ****         4.7434   3.0616   2.3531 LP             1 S1                 0.0000
     73 ****         3.6742   2.2953   3.3208 LP             1 S1                 0.0000
@<TRIPOS>BOND
    1    1    2 1     
    2    1   34 1     
    3    1   35 1     
    4    1   36 1     
    5    2    3 1     
    6    2    4 1     
    7    2    5 1     
    8    3   37 1     
    9    3   38 1     
   10    3   39 1     
   11    4   40 1     
   12    4   41 1     
   13    4   42 1     
   14    5    6 1     
   15    5    7 1     
   16    5    8 1     
   17    6   43 1     
   18    6   44 1     
   19    6   45 1     
   20    7   46 1     
   21    7   47 1     
   22    7   48 1     
   23    8    9 1     
   24    9   10 1     
   25    9   49 1     
   26    9   50 1     
   27   10   32 1     
   28   10   11 1     
   29   10   51 1     
   30   11   12 1     
   31   12   13 1     
   32   12   31 1     
   33   12   52 1     
   34   13   30 1     
   35   13   14 1     
   36   14   15 2     
   37   14   53 1     
   38   15   16 1     
   39   16   30 2     
   40   16   17 1     
   41   17   18 2     
   42   17   27 1     
   43   18   19 1     
   44   19   20 2     
   45   19   21 1     
   46   21   26 ar    
   47   21   22 ar    
   48   22   23 ar    
   49   22   54 1     
   50   23   24 ar    
   51   23   55 1     
   52   24   25 ar    
   53   24   56 1     
   54   25   26 ar    
   55   25   57 1     
   56   26   58 1     
   57   27   28 1     
   58   27   64 1     
   59   28   29 2     
   60   28   59 1     
   61   29   30 1     
   62   31   32 1     
   63   31   60 1     
   64   31   61 1     
   65   32   33 1     
   66   32   62 1     
   67   33   63 1     
   68   11   65 1     
   69   11   66 1     
   70   15   67 1     
   71   18   68 1     
   72   20   69 1     
   73   20   70 1     
   74   29   71 1     
   75   33   72 1     
   76   33   73 1     
@<TRIPOS>SUBSTRUCTURE
      1 S1             1
@<TRIPOS>SET
LONE_PAIRS      STATIC     ATOMS    <user>   **** ""
9 65 66 67 68 69 70 71 72 73
DONOR_HYDROGENS      STATIC     ATOMS    <user>   **** ""
2 64 63
ATOM$BLUE        STATIC     ATOMS    COLORGROUP SYSTEM
9 65 66 67 68 69 70 71 72 73
ATOM$RED        STATIC     ATOMS    COLORGROUP SYSTEM
2 64 63
