AV-unprocessed.smi:392|AV-procd|sdf|2480|dock10
  -GOLD-   2262022423D 1   1.00000     0.00000
 Structure written by MMmdl.
 32 34  0  0  0  0  0  0  0  0  1 V2000
  151.3379  144.1470  156.8929 O   0  0  0  0  0  0  0  0  0  0  0  0
  151.5813  142.9423  157.5912 C   0  0  2  0  0  0  0  0  0  0  0  0
  150.3285  142.0537  157.4664 C   0  0  0  0  0  0  0  0  0  0  0  0
  150.2557  141.3870  156.1791 N   0  0  0  0  0  0  0  0  0  0  0  0
  149.5835  141.7979  155.0864 C   0  0  0  0  0  0  0  0  0  0  0  0
  149.6442  141.0237  154.0066 N   0  0  0  0  0  0  0  0  0  0  0  0
  150.4528  139.9907  154.4489 C   0  0  0  0  0  0  0  0  0  0  0  0
  150.9099  138.8324  153.7804 C   0  0  0  0  0  0  0  0  0  0  0  0
  151.7393  137.9047  154.4445 C   0  0  0  0  0  0  0  0  0  0  0  0
  152.1234  138.1195  155.7843 C   0  0  0  0  0  0  0  0  0  0  0  0
  151.6796  139.2656  156.4715 C   0  0  0  0  0  0  0  0  0  0  0  0
  150.8534  140.1890  155.8047 C   0  0  0  0  0  0  0  0  0  0  0  0
  151.9724  143.1850  159.0449 C   0  0  0  0  0  0  0  0  0  0  0  0
  151.7731  144.4543  159.6326 C   0  0  0  0  0  0  0  0  0  0  0  0
  152.1144  144.6772  160.9803 C   0  0  0  0  0  0  0  0  0  0  0  0
  152.6558  143.6317  161.7516 C   0  0  0  0  0  0  0  0  0  0  0  0
  152.8536  142.3632  161.1743 C   0  0  0  0  0  0  0  0  0  0  0  0
  152.5126  142.1376  159.8263 C   0  0  0  0  0  0  0  0  0  0  0  0
  152.6994  140.9071  159.2911 F   0  0  0  0  0  0  0  0  0  0  0  0
  150.6291  144.0019  156.2848 H   0  0  0  0  0  0  0  0  0  0  0  0
  152.4109  142.4594  157.0739 H   0  0  0  0  0  0  0  0  0  0  0  0
  150.3053  141.3022  158.2570 H   0  0  0  0  0  0  0  0  0  0  0  0
  149.4257  142.6555  157.5809 H   0  0  0  0  0  0  0  0  0  0  0  0
  149.0108  142.7139  155.0864 H   0  0  0  0  0  0  0  0  0  0  0  0
  150.6222  138.6577  152.7543 H   0  0  0  0  0  0  0  0  0  0  0  0
  152.0827  137.0231  153.9235 H   0  0  0  0  0  0  0  0  0  0  0  0
  152.7588  137.4033  156.2844 H   0  0  0  0  0  0  0  0  0  0  0  0
  151.9699  139.4332  157.4980 H   0  0  0  0  0  0  0  0  0  0  0  0
  151.3521  145.2621  159.0521 H   0  0  0  0  0  0  0  0  0  0  0  0
  151.9588  145.6503  161.4226 H   0  0  0  0  0  0  0  0  0  0  0  0
  152.9166  143.8020  162.7858 H   0  0  0  0  0  0  0  0  0  0  0  0
  153.2654  141.5600  161.7675 H   0  0  0  0  0  0  0  0  0  0  0  0
  1  2  1  0  0  0  0
  1 20  1  0  0  0  0
  2  3  1  0  0  0  0
  2 13  1  0  0  0  0
  2 21  1  0  0  0  0
  3  4  1  0  0  0  0
  3 22  1  0  0  0  0
  3 23  1  0  0  0  0
  4 12  1  0  0  0  0
  4  5  1  0  0  0  0
  5  6  2  0  0  0  0
  5 24  1  0  0  0  0
  6  7  1  0  0  0  0
  7 12  2  0  0  0  0
  7  8  1  0  0  0  0
  8  9  2  0  0  0  0
  8 25  1  0  0  0  0
  9 10  1  0  0  0  0
  9 26  1  0  0  0  0
 10 11  2  0  0  0  0
 10 27  1  0  0  0  0
 11 12  1  0  0  0  0
 11 28  1  0  0  0  0
 13 18  1  0  0  0  0
 13 14  2  0  0  0  0
 14 15  1  0  0  0  0
 14 29  1  0  0  0  0
 15 16  2  0  0  0  0
 15 30  1  0  0  0  0
 16 17  1  0  0  0  0
 16 31  1  0  0  0  0
 17 18  2  0  0  0  0
 17 32  1  0  0  0  0
 18 19  1  0  0  0  0
M  END
> <s_m_source_file>
AV-unprocessed.smi

> <i_m_source_file_index>
392

> <i_lp_mmshare_version>
43012

> <i_f3d_flags>
0

> <s_epik_input>
RmMxW2NIXVtjSF1bY0hdW2NIXWMxW0NASF0oW09IXSlbQ0gyXW4oW2NIXW4yKWMoYzIzKVtjSF1bY0hdW2NIXVtjSF0z

> <s_epik_cmdline>
J2VwaWtfcHl0aG9uJywgJy1waCcsICc3LjAnLCAnLXRuJywgJzgnLCAnLW1hJywgJzIwMCcsICctbWV0YWxfYmluZGluZycsICctaW1hZScsICc8aW5maWxlLm1hZT4nLCAnLW9tYWUnLCAnPG91dGZpbGUubWFlPic=

> <r_epik_Ionization_Penalty>
0.0696512

> <r_epik_Ionization_Penalty_Charging>
0

> <r_epik_Ionization_Penalty_Neutral>
0.0696512

> <r_epik_State_Penalty>
0.0610247

> <r_epik_Charging_Adjusted_Penalty>
0.0610247

> <i_epik_Tot_Q>
0

> <i_epik_Tot_abs_Q>
0

> <r_epik_Metal_State_Penalty>
6.42746e-05

> <b_epik_Metal_Only>
0

> <s_lp_Force_Field>
OPLS_2005

> <r_lp_Energy>
12.7977

> <b_lp_Chiralities_Consistent>
1

> <s_lp_Variant>
AV-unprocessed.smi:392-1

> <Gold.Version>
5.8.1

> <Gold.Id.Protein>
6NUR|6NUR_protein|mol2

> <Gold.PLP.Fitness>
51.3262

> <Gold.PLP.PLP>
-46.6513

> <Gold.PLP.part.hbond>
-2.5254

> <Gold.PLP.part.metal>
0.0000

> <Gold.PLP.part.buried>
-3.2318

> <Gold.PLP.part.nonpolar>
-41.2485

> <Gold.PLP.part.repulsive>
0.6765

> <Gold.PLP.ligand.clash>
0.0000

> <Gold.PLP.ligand.torsion>
0.8257

> <Gold.PLP.Chemscore.Hbond>
1.1020

> <Gold.PLP.Chemscore.CHOScore>
1.0000

> <Gold.PLP.Chemscore.Metal>
0.0000

> <Gold.Chemscore.Hbonds>
donor molecule, donor type, donor heavy atom, donor atom, acceptor molecule, acceptor atom, score
      L1  H     1    20       P1  8028  0.85
      P1  H  8011  8017       L1     6  0.55
      L1  C     5    24       P1  8028  1.00

> <Gold.PLP.Chemscore.Internal.Correction>
0.0203

> <Gold.Rescore>
     Score         DG    S(hbond)    S(metal)    S(lipo)     H(rot)  DE(clash)    DE(int)     intcor
     16.76     -18.11       0.99        0.00     121.51       1.91       0.36       1.00       ----

> <Gold.Chemscore.Fitness>
16.7614

> <Gold.Chemscore.DG>
-18.1148

> <Gold.Chemscore.ZeroCoef>
-5.4800

> <Gold.Chemscore.Hbond>
0.9915

> <Gold.Chemscore.Metal>
0.0000

> <Gold.Chemscore.Lipo>
121.5122

> <Gold.Chemscore.Internal_Hbond>
0.0000

> <Gold.Chemscore.DEClash>
0.3556

> <Gold.Chemscore.DEInternal>
0.9979

> <Gold.Chemscore.Rot>
1.9116

> <Gold.Chemscore.Internal.Correction>
   9.000000E+99

> <Gold.Chemscore.Hbonds>
donor molecule, donor type, donor heavy atom, donor atom, acceptor molecule, acceptor atom, score
      L1  H     1    20       P1  8028  0.83
      P1  H  8011  8017       L1     6  0.27

> <Gold.Chemscore.Hbond.Weighted>
-3.3116

> <Gold.Chemscore.Metal.Weighted>
-0.0000

> <Gold.Chemscore.Lipo.Weighted>
-14.2169

> <Gold.Chemscore.Internal_Hbond.Weighted>
0.0000

> <Gold.Chemscore.DEClash.Weighted>
0.3556

> <Gold.Chemscore.DEInternal.Weighted>
0.9979

> <Gold.Chemscore.Rot.Weighted>
4.8937

> <Gold.Chemscore.Internal.Correction.Weighted>
   9.000000E+99

> <Gold.Protein.RotatedTorsions>
[ 6907 6896 6895 6894 ] final  143.28 input  -60.11 | X-H torsion
[ 7974 7965 7964 7962 ] final  -36.23 input  175.53 | X-H torsion
[ 8008 7997 7996 7995 ] final  108.26 input   59.86 | X-H torsion
[ 10167 10162 10161 10158 ] final  -57.66 input  -65.29 | X-H torsion
[ 10718 10713 10712 10709 ] final -151.81 input   66.30 | X-H torsion
[ 10763 10752 10751 10750 ] final   91.58 input  -60.55 | X-H torsion
[ 11005 11000 10999 10996 ] final -104.28 input  -57.11 | X-H torsion

> <Gold.Protein.ActiveResidues>
 VAL166  LYS551  ARG553  GLY616  TRP617  ASP618  TYR619  PRO620  LYS621  CYS622 
 ASP623  PHE694  ASN695  SER759  ASP760  ASP761  ALA762  ILE779  LEU786  VAL792 
 PHE793  MET794  SER795  GLU796  ALA797  LYS798  CYS799  TRP800  GLU811  SER814 

> <Gold.Protein.RotatedAtoms>
  152.2083  133.4892  159.5095 H   0  0  0  0  0  0  0  0  0  0  0  0  # atno 6907 bound_to 6896
  150.6984  134.1501  159.4146 H   0  0  0  0  0  0  0  0  0  0  0  0  # atno 6908 bound_to 6896
  151.9420  135.0209  160.0587 H   0  0  0  0  0  0  0  0  0  0  0  0  # atno 6909 bound_to 6896
  146.0679  140.6254  142.8966 H   0  0  0  0  0  0  0  0  0  0  0  0  # atno 7974 bound_to 7965
  156.1889  140.3079  155.9294 H   0  0  0  0  0  0  0  0  0  0  0  0  # atno 8008 bound_to 7997
  155.3218  140.0456  157.3056 H   0  0  0  0  0  0  0  0  0  0  0  0  # atno 8009 bound_to 7997
  154.5429  140.2267  155.8621 H   0  0  0  0  0  0  0  0  0  0  0  0  # atno 8010 bound_to 7997
  140.6244  143.2432  151.5399 H   0  0  0  0  0  0  0  0  0  0  0  0  # atno 10167 bound_to 10162
  156.4642  130.8228  151.2458 H   0  0  0  0  0  0  0  0  0  0  0  0  # atno 10718 bound_to 10713
  153.2098  135.4392  155.0366 H   0  0  0  0  0  0  0  0  0  0  0  0  # atno 10763 bound_to 10752
  154.8193  135.3330  154.7086 H   0  0  0  0  0  0  0  0  0  0  0  0  # atno 10764 bound_to 10752
  153.7525  135.6997  153.4998 H   0  0  0  0  0  0  0  0  0  0  0  0  # atno 10765 bound_to 10752
  141.1108  133.8710  157.1591 H   0  0  0  0  0  0  0  0  0  0  0  0  # atno 11005 bound_to 11000
  144.7213  140.4383  143.7006 LP  0  0  0  0  0  0  0  0  0  0  0  0  # atno 17320 bound_to 7965
  145.6445  139.1555  143.2897 LP  0  0  0  0  0  0  0  0  0  0  0  0  # atno 17321 bound_to 7965
  139.5467  144.2502  152.1455 LP  0  0  0  0  0  0  0  0  0  0  0  0  # atno 17342 bound_to 10162
  140.1730  144.4917  150.6569 LP  0  0  0  0  0  0  0  0  0  0  0  0  # atno 17343 bound_to 10162
  157.7496  131.0097  150.3278 LP  0  0  0  0  0  0  0  0  0  0  0  0  # atno 17370 bound_to 10713
  156.3685  130.3859  149.7194 LP  0  0  0  0  0  0  0  0  0  0  0  0  # atno 17371 bound_to 10713
  140.0000  135.0031  157.0169 LP  0  0  0  0  0  0  0  0  0  0  0  0  # atno 17394 bound_to 11000
  140.4781  134.1317  155.7213 LP  0  0  0  0  0  0  0  0  0  0  0  0  # atno 17395 bound_to 11000

$$$$
