AV-unprocessed.smi:1539|AV-procd|sdf|6196|dock5
  -GOLD-   22720 6363D 1   1.00000     0.00000
 Structure written by MMmdl.
 42 43  0  0  0  0  0  0  0  0  2 V2000
  148.0791  131.6068  157.4493 C   0  0  0  0  0  0  0  0  0  0  0  0
  148.4945  133.0794  157.4085 C   0  0  0  0  0  0  0  0  0  0  0  0
  147.6742  133.9241  157.7688 O   0  0  0  0  0  0  0  0  0  0  0  0
  149.7346  133.4071  156.9696 N   0  0  0  0  0  0  0  0  0  0  0  0
  150.1638  134.8090  156.8527 C   0  0  0  0  0  0  0  0  0  0  0  0
  149.7531  135.4135  155.4930 C   0  0  0  0  0  0  0  0  0  0  0  0
  150.3228  134.6468  154.2786 C   0  0  0  0  0  0  0  0  0  0  0  0
  149.8397  133.2531  154.2413 N   0  0  0  0  0  0  0  0  0  0  0  0
  148.6534  132.8539  153.7127 C   0  0  0  0  0  0  0  0  0  0  0  0
  148.1983  131.7174  153.8502 O   0  0  0  0  0  0  0  0  0  0  0  0
  147.9907  133.8073  153.0343 N   0  0  0  0  0  0  0  0  0  0  0  0
  146.6854  133.6357  152.4086 C   0  0  0  0  0  0  0  0  0  0  0  0
  146.8106  133.4358  150.8895 C   0  0  0  0  0  0  0  0  0  0  0  0
  145.5035  133.2401  150.2614 N   0  0  0  0  0  0  0  0  0  0  0  0
  145.1123  132.1883  149.4736 C   0  0  0  0  0  0  0  0  0  0  0  0
  143.8108  132.4305  149.1171 C   0  0  0  0  0  0  0  0  0  0  0  0
  143.4632  133.6189  149.7020 N   0  3  0  0  0  0  0  0  0  0  0  0
  144.4939  134.1090  150.3991 C   0  0  0  0  0  0  0  0  0  0  0  0
  150.7386  132.3033  154.9227 C   0  0  0  0  0  0  0  0  0  0  0  0
  150.7240  132.4356  156.4700 C   0  0  0  0  0  0  0  0  0  0  0  0
  148.2245  131.1311  156.4793 H   0  0  0  0  0  0  0  0  0  0  0  0
  147.0243  131.5127  157.7091 H   0  0  0  0  0  0  0  0  0  0  0  0
  148.6568  131.0654  158.1986 H   0  0  0  0  0  0  0  0  0  0  0  0
  149.7486  135.4085  157.6645 H   0  0  0  0  0  0  0  0  0  0  0  0
  151.2451  134.8873  156.9704 H   0  0  0  0  0  0  0  0  0  0  0  0
  148.6655  135.4601  155.4266 H   0  0  0  0  0  0  0  0  0  0  0  0
  150.0969  136.4473  155.4506 H   0  0  0  0  0  0  0  0  0  0  0  0
  150.0799  135.1713  153.3535 H   0  0  0  0  0  0  0  0  0  0  0  0
  151.4123  134.6648  154.3270 H   0  0  0  0  0  0  0  0  0  0  0  0
  148.4155  134.7210  152.9680 H   0  0  0  0  0  0  0  0  0  0  0  0
  146.1632  132.7933  152.8655 H   0  0  0  0  0  0  0  0  0  0  0  0
  146.0875  134.5224  152.6211 H   0  0  0  0  0  0  0  0  0  0  0  0
  147.2941  134.2947  150.4217 H   0  0  0  0  0  0  0  0  0  0  0  0
  147.4191  132.5600  150.6592 H   0  0  0  0  0  0  0  0  0  0  0  0
  145.7725  131.3671  149.2327 H   0  0  0  0  0  0  0  0  0  0  0  0
  143.1242  131.8612  148.5072 H   0  0  0  0  0  0  0  0  0  0  0  0
  144.5069  135.0256  150.9618 H   0  0  0  0  0  0  0  0  0  0  0  0
  150.5069  131.2713  154.6561 H   0  0  0  0  0  0  0  0  0  0  0  0
  151.7556  132.4488  154.5561 H   0  0  0  0  0  0  0  0  0  0  0  0
  151.7162  132.7414  156.8036 H   0  0  0  0  0  0  0  0  0  0  0  0
  150.5960  131.4526  156.9224 H   0  0  0  0  0  0  0  0  0  0  0  0
  142.5578  134.0644  149.6202 H   0  0  0  0  0  0  0  0  0  0  0  0
  1  2  1  0  0  0  0
  1 21  1  0  0  0  0
  1 22  1  0  0  0  0
  1 23  1  0  0  0  0
  2  3  2  0  0  0  0
  2  4  1  0  0  0  0
  4 20  1  0  0  0  0
  4  5  1  0  0  0  0
  5  6  1  0  0  0  0
  5 24  1  0  0  0  0
  5 25  1  0  0  0  0
  6  7  1  0  0  0  0
  6 26  1  0  0  0  0
  6 27  1  0  0  0  0
  7  8  1  0  0  0  0
  7 28  1  0  0  0  0
  7 29  1  0  0  0  0
  8  9  1  0  0  0  0
  8 19  1  0  0  0  0
  9 10  2  0  0  0  0
  9 11  1  0  0  0  0
 11 12  1  0  0  0  0
 11 30  1  0  0  0  0
 12 13  1  0  0  0  0
 12 31  1  0  0  0  0
 12 32  1  0  0  0  0
 13 14  1  0  0  0  0
 13 33  1  0  0  0  0
 13 34  1  0  0  0  0
 14 18  1  0  0  0  0
 14 15  1  0  0  0  0
 15 16  2  0  0  0  0
 15 35  1  0  0  0  0
 16 17  1  0  0  0  0
 16 36  1  0  0  0  0
 17 18  2  0  0  0  0
 17 42  1  0  0  0  0
 18 37  1  0  0  0  0
 19 20  1  0  0  0  0
 19 38  1  0  0  0  0
 19 39  1  0  0  0  0
 20 40  1  0  0  0  0
 20 41  1  0  0  0  0
M  CHG  1  17   1
M  END
> <s_m_source_file>
AV-unprocessed.smi

> <i_m_source_file_index>
1539

> <i_lp_mmshare_version>
43012

> <i_f3d_flags>
0

> <s_epik_input>
W0NIM11DKD1PKU4xW0NIMl1bQ0gyXVtDSDJdTihbQ0gyXVtDSDJdMSlDKD1PKVtOSF1bQ0gyXVtDSDJdbjJbY0hdW2NIXW5bY0hdMg==

> <s_epik_cmdline>
J2VwaWtfcHl0aG9uJywgJy1waCcsICc3LjAnLCAnLXRuJywgJzgnLCAnLW1hJywgJzIwMCcsICctbWV0YWxfYmluZGluZycsICctaW1hZScsICc8aW5maWxlLm1hZT4nLCAnLW9tYWUnLCAnPG91dGZpbGUubWFlPic=

> <r_lp_tautomer_probability>
1

> <r_epik_Ionization_Penalty>
0.254079

> <r_epik_Ionization_Penalty_Charging>
0

> <r_epik_Ionization_Penalty_Neutral>
0.254079

> <r_epik_State_Penalty>
0.245493

> <r_epik_Charging_Adjusted_Penalty>
0.245493

> <i_epik_Tot_Q>
1

> <i_epik_Tot_abs_Q>
1

> <r_epik_Metal_State_Penalty>
0.535648

> <b_epik_Metal_Only>
0

> <s_lp_Force_Field>
OPLS_2005

> <r_lp_Energy>
43.2206

> <b_lp_Chiralities_Consistent>
1

> <s_lp_Variant>
AV-unprocessed.smi:1539-1

> <Gold.Version>
5.8.1

> <Gold.Id.Protein>
6NUR|6NUR_protein|mol2

> <Gold.PLP.Fitness>
39.8273

> <Gold.PLP.PLP>
-31.1885

> <Gold.PLP.part.hbond>
-2.0000

> <Gold.PLP.part.metal>
0.0000

> <Gold.PLP.part.buried>
-3.2764

> <Gold.PLP.part.nonpolar>
-25.8209

> <Gold.PLP.part.repulsive>
0.1256

> <Gold.PLP.ligand.clash>
0.0000

> <Gold.PLP.ligand.torsion>
0.1778

> <Gold.PLP.Chemscore.Hbond>
2.9920

> <Gold.PLP.Chemscore.CHOScore>
0.0000

> <Gold.PLP.Chemscore.Metal>
0.0000

> <Gold.Chemscore.Hbonds>
donor molecule, donor type, donor heavy atom, donor atom, acceptor molecule, acceptor atom, score
      L1  H    11    30       P1  7948  0.96
      L1  H    17    42       P1 10186  2.00

> <Gold.PLP.Chemscore.Internal.Correction>
0.0184

> <Gold.Rescore>
     Score         DG    S(hbond)    S(metal)    S(lipo)     H(rot)  DE(clash)    DE(int)     intcor
     13.63     -13.93       1.77        0.00      58.91       1.70       0.14       0.17       ----

> <Gold.Chemscore.Fitness>
13.6267

> <Gold.Chemscore.DG>
-13.9317

> <Gold.Chemscore.ZeroCoef>
-5.4800

> <Gold.Chemscore.Hbond>
1.7727

> <Gold.Chemscore.Metal>
0.0000

> <Gold.Chemscore.Lipo>
58.9074

> <Gold.Chemscore.Internal_Hbond>
0.0000

> <Gold.Chemscore.DEClash>
0.1382

> <Gold.Chemscore.DEInternal>
0.1668

> <Gold.Chemscore.Rot>
1.7036

> <Gold.Chemscore.Internal.Correction>
   9.000000E+99

> <Gold.Chemscore.Hbonds>
donor molecule, donor type, donor heavy atom, donor atom, acceptor molecule, acceptor atom, score
      L1  H    11    30       P1  7948  0.46
      L1  H    17    42       P1 10186  0.98

> <Gold.Chemscore.Hbond.Weighted>
-5.9209

> <Gold.Chemscore.Metal.Weighted>
-0.0000

> <Gold.Chemscore.Lipo.Weighted>
-6.8922

> <Gold.Chemscore.Internal_Hbond.Weighted>
0.0000

> <Gold.Chemscore.DEClash.Weighted>
0.1382

> <Gold.Chemscore.DEInternal.Weighted>
0.1668

> <Gold.Chemscore.Rot.Weighted>
4.3613

> <Gold.Chemscore.Internal.Correction.Weighted>
   9.000000E+99

> <Gold.Protein.RotatedTorsions>
[ 6907 6896 6895 6894 ] final  -93.90 input  -60.11 | X-H torsion
[ 7974 7965 7964 7962 ] final    0.68 input  175.53 | X-H torsion
[ 8008 7997 7996 7995 ] final   23.13 input   59.86 | X-H torsion
[ 10167 10162 10161 10158 ] final  158.20 input  -65.29 | X-H torsion
[ 10718 10713 10712 10709 ] final -116.01 input   66.30 | X-H torsion
[ 10763 10752 10751 10750 ] final -127.64 input  -60.55 | X-H torsion
[ 11005 11000 10999 10996 ] final  179.18 input  -57.11 | X-H torsion

> <Gold.Protein.ActiveResidues>
 VAL166  LYS551  ARG553  GLY616  TRP617  ASP618  TYR619  PRO620  LYS621  CYS622 
 ASP623  PHE694  ASN695  SER759  ASP760  ASP761  ALA762  ILE779  LEU786  VAL792 
 PHE793  MET794  SER795  GLU796  ALA797  LYS798  CYS799  TRP800  GLU811  SER814 

> <Gold.Protein.RotatedAtoms>
  150.6931  134.1895  159.4279 H   0  0  0  0  0  0  0  0  0  0  0  0  # atno 6907 bound_to 6896
  151.9867  134.9998  160.0569 H   0  0  0  0  0  0  0  0  0  0  0  0  # atno 6908 bound_to 6896
  152.1705  133.4606  159.4944 H   0  0  0  0  0  0  0  0  0  0  0  0  # atno 6909 bound_to 6896
  146.2436  140.1102  142.8344 H   0  0  0  0  0  0  0  0  0  0  0  0  # atno 7974 bound_to 7965
  154.9763  140.3096  155.4966 H   0  0  0  0  0  0  0  0  0  0  0  0  # atno 8008 bound_to 7997
  156.2959  140.2274  156.4799 H   0  0  0  0  0  0  0  0  0  0  0  0  # atno 8009 bound_to 7997
  154.7830  140.0444  157.1130 H   0  0  0  0  0  0  0  0  0  0  0  0  # atno 8010 bound_to 7997
  139.4826  144.4847  151.8394 H   0  0  0  0  0  0  0  0  0  0  0  0  # atno 10167 bound_to 10162
  156.0935  130.6112  150.8981 H   0  0  0  0  0  0  0  0  0  0  0  0  # atno 10718 bound_to 10713
  154.8753  135.3955  154.3627 H   0  0  0  0  0  0  0  0  0  0  0  0  # atno 10763 bound_to 10752
  153.4398  135.7026  153.6182 H   0  0  0  0  0  0  0  0  0  0  0  0  # atno 10764 bound_to 10752
  153.4768  135.3778  155.2390 H   0  0  0  0  0  0  0  0  0  0  0  0  # atno 10765 bound_to 10752
  140.4033  134.6757  157.4574 H   0  0  0  0  0  0  0  0  0  0  0  0  # atno 11005 bound_to 11000
  145.0494  140.9006  143.5005 LP  0  0  0  0  0  0  0  0  0  0  0  0  # atno 17320 bound_to 7965
  145.1196  139.2702  143.5595 LP  0  0  0  0  0  0  0  0  0  0  0  0  # atno 17321 bound_to 7965
  140.4326  144.2095  150.5888 LP  0  0  0  0  0  0  0  0  0  0  0  0  # atno 17342 bound_to 10162
  140.4764  143.2394  151.9017 LP  0  0  0  0  0  0  0  0  0  0  0  0  # atno 17343 bound_to 10162
  157.6090  131.0937  150.8829 LP  0  0  0  0  0  0  0  0  0  0  0  0  # atno 17370 bound_to 10713
  156.8972  130.5234  149.5284 LP  0  0  0  0  0  0  0  0  0  0  0  0  # atno 17371 bound_to 10713
  140.0320  134.6392  155.9094 LP  0  0  0  0  0  0  0  0  0  0  0  0  # atno 17394 bound_to 11000
  141.1848  133.6553  156.5173 LP  0  0  0  0  0  0  0  0  0  0  0  0  # atno 17395 bound_to 11000

$$$$
