AV-unprocessed.smi:722|AV-procd|sdf|3504|dock10
  -GOLD-   22720 0503D 1   1.00000     0.00000
 Structure written by MMmdl.
 38 39  0  0  0  0  0  0  0  0  1 V2000
  150.1535  135.1611  156.1108 C   0  0  0  0  0  0  0  0  0  0  0  0
  150.5380  136.3663  156.9064 C   0  0  0  0  0  0  0  0  0  0  0  0
  150.2869  136.4990  158.2110 N   0  0  0  0  0  0  0  0  0  0  0  0
  150.7880  137.7351  158.5558 N   0  0  0  0  0  0  0  0  0  0  0  0
  151.2989  138.2391  157.4303 C   0  0  0  0  0  0  0  0  0  0  0  0
  152.0540  139.8260  157.3335 S   0  0  0  0  0  0  0  0  0  0  0  0
  150.5599  140.8068  157.6360 C   0  0  0  0  0  0  0  0  0  0  0  0
  150.7422  142.2621  157.1865 C   0  0  0  0  0  0  0  0  0  0  0  0
  151.7469  143.0400  158.0538 C   0  0  0  0  0  0  0  0  0  0  0  0
  151.7657  142.6251  159.5295 C   0  0  0  0  0  0  0  0  0  0  0  0
  152.3653  143.8194  160.2823 C   0  0  0  0  0  0  0  0  0  0  0  0
  152.2315  145.0321  159.3490 C   0  0  0  0  0  0  0  0  0  0  0  0
  151.4585  144.5411  158.1217 C   0  0  0  0  0  0  0  0  0  0  0  0
  151.1730  137.4248  156.3622 N   0  0  0  0  0  0  0  0  0  0  0  0
  151.5976  137.6415  154.9849 C   0  0  0  0  0  0  0  0  0  0  0  0
  150.8549  138.8218  154.3536 C   0  0  0  0  0  0  0  0  0  0  0  0
  150.0678  138.5580  153.3076 N   0  0  0  0  0  0  0  0  0  0  0  0
  150.9953  139.9589  154.7989 O   0  0  0  0  0  0  0  0  0  0  0  0
  149.5822  134.4647  156.7252 H   0  0  0  0  0  0  0  0  0  0  0  0
  151.0458  134.6506  155.7480 H   0  0  0  0  0  0  0  0  0  0  0  0
  149.5399  135.4506  155.2576 H   0  0  0  0  0  0  0  0  0  0  0  0
  149.7305  140.3477  157.0981 H   0  0  0  0  0  0  0  0  0  0  0  0
  150.3158  140.7619  158.6978 H   0  0  0  0  0  0  0  0  0  0  0  0
  151.0820  142.2719  156.1502 H   0  0  0  0  0  0  0  0  0  0  0  0
  149.7775  142.7712  157.1964 H   0  0  0  0  0  0  0  0  0  0  0  0
  152.7498  142.9082  157.6439 H   0  0  0  0  0  0  0  0  0  0  0  0
  150.7471  142.4526  159.8800 H   0  0  0  0  0  0  0  0  0  0  0  0
  152.3298  141.7073  159.6982 H   0  0  0  0  0  0  0  0  0  0  0  0
  151.8515  143.9812  161.2306 H   0  0  0  0  0  0  0  0  0  0  0  0
  153.4170  143.6389  160.5084 H   0  0  0  0  0  0  0  0  0  0  0  0
  151.7303  145.8711  159.8325 H   0  0  0  0  0  0  0  0  0  0  0  0
  153.2232  145.3733  159.0496 H   0  0  0  0  0  0  0  0  0  0  0  0
  151.7483  145.0649  157.2102 H   0  0  0  0  0  0  0  0  0  0  0  0
  150.3912  144.7083  158.2741 H   0  0  0  0  0  0  0  0  0  0  0  0
  152.6761  137.8046  154.9660 H   0  0  0  0  0  0  0  0  0  0  0  0
  151.4103  136.7415  154.3992 H   0  0  0  0  0  0  0  0  0  0  0  0
  149.5545  139.3039  152.8601 H   0  0  0  0  0  0  0  0  0  0  0  0
  149.9857  137.6101  152.9693 H   0  0  0  0  0  0  0  0  0  0  0  0
  1  2  1  0  0  0  0
  1 19  1  0  0  0  0
  1 20  1  0  0  0  0
  1 21  1  0  0  0  0
  2 14  1  0  0  0  0
  2  3  2  0  0  0  0
  3  4  1  0  0  0  0
  4  5  2  0  0  0  0
  5  6  1  0  0  0  0
  5 14  1  0  0  0  0
  6  7  1  0  0  0  0
  7  8  1  0  0  0  0
  7 22  1  0  0  0  0
  7 23  1  0  0  0  0
  8  9  1  0  0  0  0
  8 24  1  0  0  0  0
  8 25  1  0  0  0  0
  9 13  1  0  0  0  0
  9 10  1  0  0  0  0
  9 26  1  0  0  0  0
 10 11  1  0  0  0  0
 10 27  1  0  0  0  0
 10 28  1  0  0  0  0
 11 12  1  0  0  0  0
 11 29  1  0  0  0  0
 11 30  1  0  0  0  0
 12 13  1  0  0  0  0
 12 31  1  0  0  0  0
 12 32  1  0  0  0  0
 13 33  1  0  0  0  0
 13 34  1  0  0  0  0
 14 15  1  0  0  0  0
 15 16  1  0  0  0  0
 15 35  1  0  0  0  0
 15 36  1  0  0  0  0
 16 17  1  0  0  0  0
 16 18  2  0  0  0  0
 17 37  1  0  0  0  0
 17 38  1  0  0  0  0
M  END
> <s_m_source_file>
AV-unprocessed.smi

> <i_m_source_file_index>
722

> <i_lp_mmshare_version>
43012

> <i_f3d_flags>
0

> <s_epik_input>
W0NIM11jMW5uYyhuMVtDSDJdQyg9TylbTkgyXSlTW0NIMl1bQ0gyXVtDSF0yW0NIMl1bQ0gyXVtDSDJdW0NIMl0y

> <s_epik_cmdline>
J2VwaWtfcHl0aG9uJywgJy1waCcsICc3LjAnLCAnLXRuJywgJzgnLCAnLW1hJywgJzIwMCcsICctbWV0YWxfYmluZGluZycsICctaW1hZScsICc8aW5maWxlLm1hZT4nLCAnLW9tYWUnLCAnPG91dGZpbGUubWFlPic=

> <r_lp_tautomer_probability>
1

> <r_epik_Ionization_Penalty>
8.38536e-06

> <r_epik_Ionization_Penalty_Charging>
0

> <r_epik_Ionization_Penalty_Neutral>
8.38536e-06

> <r_epik_State_Penalty>
-0

> <r_epik_Charging_Adjusted_Penalty>
0

> <i_epik_Tot_Q>
0

> <i_epik_Tot_abs_Q>
0

> <r_epik_Metal_State_Penalty>
-0

> <b_epik_Metal_Only>
0

> <s_lp_Force_Field>
OPLS_2005

> <r_lp_Energy>
19.4661

> <b_lp_Chiralities_Consistent>
1

> <s_lp_Variant>
AV-unprocessed.smi:722-1

> <Gold.Version>
5.8.1

> <Gold.Id.Protein>
6NUR|6NUR_protein|mol2

> <Gold.PLP.Fitness>
45.5554

> <Gold.PLP.PLP>
-37.2508

> <Gold.PLP.part.hbond>
-4.0000

> <Gold.PLP.part.metal>
0.0000

> <Gold.PLP.part.buried>
-6.2519

> <Gold.PLP.part.nonpolar>
-27.5193

> <Gold.PLP.part.repulsive>
0.1514

> <Gold.PLP.ligand.clash>
0.0000

> <Gold.PLP.ligand.torsion>
0.5102

> <Gold.PLP.Chemscore.Hbond>
3.0996

> <Gold.PLP.Chemscore.CHOScore>
0.0000

> <Gold.PLP.Chemscore.Metal>
0.0000

> <Gold.Chemscore.Hbonds>
donor molecule, donor type, donor heavy atom, donor atom, acceptor molecule, acceptor atom, score
      L1  H    17    37       P1  7957  0.66
      L1  H    17    38       P1  7948  0.99
      P1  H  6896  6907       L1     3  0.38
      P1  H  7989  7998       L1    18  1.00

> <Gold.PLP.Chemscore.Internal.Correction>
0.0262

> <Gold.Rescore>
     Score         DG    S(hbond)    S(metal)    S(lipo)     H(rot)  DE(clash)    DE(int)     intcor
     15.59     -17.68       2.49        0.00      91.33       2.66       0.10       1.99       ----

> <Gold.Chemscore.Fitness>
15.5881

> <Gold.Chemscore.DG>
-17.6804

> <Gold.Chemscore.ZeroCoef>
-5.4800

> <Gold.Chemscore.Hbond>
2.4911

> <Gold.Chemscore.Metal>
0.0000

> <Gold.Chemscore.Lipo>
91.3260

> <Gold.Chemscore.Internal_Hbond>
0.0000

> <Gold.Chemscore.DEClash>
0.1023

> <Gold.Chemscore.DEInternal>
1.9900

> <Gold.Chemscore.Rot>
2.6583

> <Gold.Chemscore.Internal.Correction>
   9.000000E+99

> <Gold.Chemscore.Hbonds>
donor molecule, donor type, donor heavy atom, donor atom, acceptor molecule, acceptor atom, score
      L1  H    17    37       P1  7957  0.64
      L1  H    17    38       P1  7948  0.23
      P1  H  6896  6907       L1     3  0.28
      P1  H  7989  7998       L1    18  0.50

> <Gold.Chemscore.Hbond.Weighted>
-8.3204

> <Gold.Chemscore.Metal.Weighted>
-0.0000

> <Gold.Chemscore.Lipo.Weighted>
-10.6851

> <Gold.Chemscore.Internal_Hbond.Weighted>
0.0000

> <Gold.Chemscore.DEClash.Weighted>
0.1023

> <Gold.Chemscore.DEInternal.Weighted>
1.9900

> <Gold.Chemscore.Rot.Weighted>
6.8052

> <Gold.Chemscore.Internal.Correction.Weighted>
   9.000000E+99

> <Gold.Protein.RotatedTorsions>
[ 6907 6896 6895 6894 ] final  -42.30 input  -60.11 | X-H torsion
[ 7974 7965 7964 7962 ] final   97.59 input  175.53 | X-H torsion
[ 8008 7997 7996 7995 ] final   38.77 input   59.86 | X-H torsion
[ 10167 10162 10161 10158 ] final  -81.41 input  -65.29 | X-H torsion
[ 10718 10713 10712 10709 ] final   15.22 input   66.30 | X-H torsion
[ 10763 10752 10751 10750 ] final  -14.44 input  -60.55 | X-H torsion
[ 11005 11000 10999 10996 ] final -122.24 input  -57.11 | X-H torsion

> <Gold.Protein.ActiveResidues>
 VAL166  LYS551  ARG553  GLY616  TRP617  ASP618  TYR619  PRO620  LYS621  CYS622 
 ASP623  PHE694  ASN695  SER759  ASP760  ASP761  ALA762  ILE779  LEU786  VAL792 
 PHE793  MET794  SER795  GLU796  ALA797  LYS798  CYS799  TRP800  GLU811  SER814 

> <Gold.Protein.RotatedAtoms>
  150.9568  134.8961  159.7705 H   0  0  0  0  0  0  0  0  0  0  0  0  # atno 6907 bound_to 6896
  152.5141  134.3729  159.9334 H   0  0  0  0  0  0  0  0  0  0  0  0  # atno 6908 bound_to 6896
  151.3742  133.3803  159.2738 H   0  0  0  0  0  0  0  0  0  0  0  0  # atno 6909 bound_to 6896
  145.4235  139.2318  143.3183 H   0  0  0  0  0  0  0  0  0  0  0  0  # atno 7974 bound_to 7965
  155.2256  140.3334  155.4310 H   0  0  0  0  0  0  0  0  0  0  0  0  # atno 8008 bound_to 7997
  156.2316  140.1853  156.7275 H   0  0  0  0  0  0  0  0  0  0  0  0  # atno 8009 bound_to 7997
  154.5987  140.0626  156.9324 H   0  0  0  0  0  0  0  0  0  0  0  0  # atno 8010 bound_to 7997
  140.4414  143.2513  151.8620 H   0  0  0  0  0  0  0  0  0  0  0  0  # atno 10167 bound_to 10162
  157.0503  130.6267  149.5766 H   0  0  0  0  0  0  0  0  0  0  0  0  # atno 10718 bound_to 10713
  153.5282  135.7015  153.5696 H   0  0  0  0  0  0  0  0  0  0  0  0  # atno 10763 bound_to 10752
  153.3715  135.3943  155.1792 H   0  0  0  0  0  0  0  0  0  0  0  0  # atno 10764 bound_to 10752
  154.8687  135.3813  154.4777 H   0  0  0  0  0  0  0  0  0  0  0  0  # atno 10765 bound_to 10752
  141.0010  134.0403  157.3538 H   0  0  0  0  0  0  0  0  0  0  0  0  # atno 11005 bound_to 11000
  146.2644  140.4962  142.8840 LP  0  0  0  0  0  0  0  0  0  0  0  0  # atno 17320 bound_to 7965
  144.8230  140.6581  143.6341 LP  0  0  0  0  0  0  0  0  0  0  0  0  # atno 17321 bound_to 7965
  139.4790  144.5224  151.8782 LP  0  0  0  0  0  0  0  0  0  0  0  0  # atno 17342 bound_to 10162
  140.4314  144.2111  150.5888 LP  0  0  0  0  0  0  0  0  0  0  0  0  # atno 17343 bound_to 10162
  156.0010  130.5088  150.7661 LP  0  0  0  0  0  0  0  0  0  0  0  0  # atno 17370 bound_to 10713
  157.5035  131.0920  151.0285 LP  0  0  0  0  0  0  0  0  0  0  0  0  # atno 17371 bound_to 10713
  139.9039  135.0173  156.7395 LP  0  0  0  0  0  0  0  0  0  0  0  0  # atno 17394 bound_to 11000
  140.6889  133.9407  155.7954 LP  0  0  0  0  0  0  0  0  0  0  0  0  # atno 17395 bound_to 11000

$$$$
