#       Name:                AV-unprocessed.smi:2107
#       Creating user name   scv26
#       Creation time:       Fri Mar 27 11:34:03 2020


#       File generated by GOLD software.
#

@<TRIPOS>MOLECULE
AV-unprocessed.smi:2107
    50    51     1
SMALL
NO_CHARGES


@<TRIPOS>ATOM
      1 ****         1.0191   2.1203   2.1218 C.3            1 S1                 0.0000
      2 ****         0.1168   1.7135   3.2961 C.3            1 S1                 0.0000
      3 ****        -0.4754   0.3726   3.1185 N.pl3          1 S1                 0.0000
      4 ****        -1.8939   0.3074   2.7105 C.3            1 S1                 0.0000
      5 ****        -2.1786   1.0606   1.4025 C.3            1 S1                 0.0000
      6 ****         0.5235  -1.0606   3.1559 S.o2           1 S1                 0.0000
      7 ****         1.6719  -0.7103   4.0060 O.2            1 S1                 0.0000
      8 ****        -0.3439  -2.1623   3.6092 O.2            1 S1                 0.0000
      9 ****         0.9378  -1.1148   1.5805 N.pl3          1 S1                -1.0000
     10 ****         0.2163  -1.9351   0.6178 C.3            1 S1                 0.0000
     11 ****         0.9951  -2.0729  -0.6977 C.ar           1 S1                 0.0000
     12 ****         1.9040  -3.1527  -0.8187 C.ar           1 S1                 0.0000
     13 ****         2.6391  -3.3188  -2.0058 C.ar           1 S1                 0.0000
     14 ****         2.4441  -2.3930  -3.0426 C.ar           1 S1                 0.0000
     15 ****         1.5877  -1.3571  -2.9531 N.ar           1 S1                 0.0000
     16 ****         0.8721  -1.1810  -1.8125 C.ar           1 S1                 0.0000
     17 ****         0.0029  -0.0679  -1.8155 N.3            1 S1                 0.0000
     18 ****         0.6840   1.2141  -1.9604 C.3            1 S1                 0.0000
     19 ****        -0.3252   2.3710  -1.8558 C.3            1 S1                 0.0000
     20 ****        -1.3651   2.1896  -2.8123 O.3            1 S1                 0.0000
     21 ****        -2.0804   0.9762  -2.5983 C.3            1 S1                 0.0000
     22 ****        -1.1210  -0.2185  -2.7318 C.3            1 S1                 0.0000
     23 ****         1.3691   3.1451   2.2434 H              1 S1                 0.0000
     24 ****         0.4936   2.0607   1.1702 H              1 S1                 0.0000
     25 ****         1.9003   1.4822   2.0565 H              1 S1                 0.0000
     26 ****         0.6931   1.7249   4.2212 H              1 S1                 0.0000
     27 ****        -0.6753   2.4505   3.4310 H              1 S1                 0.0000
     28 ****        -2.1946  -0.7337   2.5969 H              1 S1                 0.0000
     29 ****        -2.5086   0.7160   3.5126 H              1 S1                 0.0000
     30 ****        -3.2131   0.9129   1.0929 H              1 S1                 0.0000
     31 ****        -1.5415   0.7045   0.5957 H              1 S1                 0.0000
     32 ****        -2.0208   2.1338   1.5059 H              1 S1                 0.0000
     33 ****         0.0352  -2.9395   1.0018 H              1 S1                 0.0000
     34 ****        -0.7734  -1.5345   0.4000 H              1 S1                 0.0000
     35 ****         2.0539  -3.8628  -0.0161 H              1 S1                 0.0000
     36 ****         3.3364  -4.1359  -2.1156 H              1 S1                 0.0000
     37 ****         2.9895  -2.4861  -3.9698 H              1 S1                 0.0000
     38 ****         1.4483   1.3117  -1.1884 H              1 S1                 0.0000
     39 ****         1.1906   1.2593  -2.9251 H              1 S1                 0.0000
     40 ****        -0.7489   2.4355  -0.8537 H              1 S1                 0.0000
     41 ****         0.1735   3.3205  -2.0490 H              1 S1                 0.0000
     42 ****        -2.5561   0.9882  -1.6169 H              1 S1                 0.0000
     43 ****        -2.8787   0.9001  -3.3364 H              1 S1                 0.0000
     44 ****        -0.7557  -0.2844  -3.7575 H              1 S1                 0.0000
     45 ****        -1.6487  -1.1481  -2.5155 H              1 S1                 0.0000
     46 ****         1.7126  -0.5670   1.2649 LP             1 S1                 0.0000
     47 ****         1.4799  -0.7237  -3.7194 LP             1 S1                 0.0000
     48 ****        -0.3914  -0.0518  -0.8966 LP             1 S1                 0.0000
     49 ****        -0.9624   2.1700  -3.7274 LP             1 S1                 0.0000
     50 ****        -2.0030   2.9567  -2.7452 LP             1 S1                 0.0000
@<TRIPOS>BOND
    1    1    2 1     
    2    1   23 1     
    3    1   24 1     
    4    1   25 1     
    5    2    3 1     
    6    2   26 1     
    7    2   27 1     
    8    3    4 1     
    9    3    6 1     
   10    4    5 1     
   11    4   28 1     
   12    4   29 1     
   13    5   30 1     
   14    5   31 1     
   15    5   32 1     
   16    6    7 2     
   17    6    8 2     
   18    6    9 1     
   19    9   10 1     
   20   10   11 1     
   21   10   33 1     
   22   10   34 1     
   23   11   16 ar    
   24   11   12 ar    
   25   12   13 ar    
   26   12   35 1     
   27   13   14 ar    
   28   13   36 1     
   29   14   15 ar    
   30   14   37 1     
   31   15   16 ar    
   32   16   17 1     
   33   17   22 1     
   34   17   18 1     
   35   18   19 1     
   36   18   38 1     
   37   18   39 1     
   38   19   20 1     
   39   19   40 1     
   40   19   41 1     
   41   20   21 1     
   42   21   22 1     
   43   21   42 1     
   44   21   43 1     
   45   22   44 1     
   46   22   45 1     
   47    9   46 1     
   48   15   47 1     
   49   17   48 1     
   50   20   49 1     
   51   20   50 1     
@<TRIPOS>SUBSTRUCTURE
      1 S1             1
@<TRIPOS>SET
LONE_PAIRS      STATIC     ATOMS    <user>   **** ""
7 7 8 46 47 48 49 50
ATOM$BLUE        STATIC     ATOMS    COLORGROUP SYSTEM
7 7 8 46 47 48 49 50
