AV-unprocessed.smi:1037|AV-procd|sdf|4520|dock9
  -GOLD-   22720 2533D 1   1.00000     0.00000
 Structure written by MMmdl.
 29 29  0  0  0  0  0  0  0  0  1 V2000
  145.0447  144.3954  160.3114 N   0  0  0  0  0  0  0  0  0  0  0  0
  146.3230  144.0780  160.5288 C   0  0  0  0  0  0  0  0  0  0  0  0
  146.6962  142.9112  160.6404 O   0  0  0  0  0  0  0  0  0  0  0  0
  147.3163  145.2446  160.6092 C   0  0  0  0  0  0  0  0  0  0  0  0
  148.4671  145.0763  159.7252 N   0  0  0  0  0  0  0  0  0  0  0  0
  149.6829  144.6574  160.1094 C   0  0  0  0  0  0  0  0  0  0  0  0
  149.9687  144.4004  161.2799 O   0  0  0  0  0  0  0  0  0  0  0  0
  150.7357  144.5300  158.9996 C   0  0  0  0  0  0  0  0  0  0  0  0
  151.5560  143.3128  159.1219 N   0  0  0  0  0  0  0  0  0  0  0  0
  152.6100  143.3449  160.0524 C   0  0  0  0  0  0  0  0  0  0  0  0
  153.4127  142.2897  160.2455 C   0  0  0  0  0  0  0  0  0  0  0  0
  153.1727  141.0986  159.4678 C   0  0  0  0  0  0  0  0  0  0  0  0
  152.1648  141.0367  158.5671 C   0  0  0  0  0  0  0  0  0  0  0  0
  151.8950  139.7832  157.7380 C   0  0  0  0  0  0  0  0  0  0  0  0
  150.7040  139.2661  158.0422 F   0  0  0  0  0  0  0  0  0  0  0  0
  151.9038  140.0723  156.4362 F   0  0  0  0  0  0  0  0  0  0  0  0
  152.8146  138.8408  157.9520 F   0  0  0  0  0  0  0  0  0  0  0  0
  151.2845  142.2054  158.3635 C   0  0  0  0  0  0  0  0  0  0  0  0
  150.3533  142.1971  157.5565 O   0  0  0  0  0  0  0  0  0  0  0  0
  144.3505  143.6643  160.2562 H   0  0  0  0  0  0  0  0  0  0  0  0
  144.7745  145.3628  160.2091 H   0  0  0  0  0  0  0  0  0  0  0  0
  146.7981  146.1605  160.3248 H   0  0  0  0  0  0  0  0  0  0  0  0
  147.6517  145.3809  161.6389 H   0  0  0  0  0  0  0  0  0  0  0  0
  148.3181  145.2649  158.7447 H   0  0  0  0  0  0  0  0  0  0  0  0
  150.2467  144.5552  158.0237 H   0  0  0  0  0  0  0  0  0  0  0  0
  151.3631  145.4219  159.0254 H   0  0  0  0  0  0  0  0  0  0  0  0
  152.7170  144.2706  160.5987 H   0  0  0  0  0  0  0  0  0  0  0  0
  154.2152  142.3281  160.9674 H   0  0  0  0  0  0  0  0  0  0  0  0
  153.8191  140.2474  159.6212 H   0  0  0  0  0  0  0  0  0  0  0  0
  1  2  1  0  0  0  0
  1 20  1  0  0  0  0
  1 21  1  0  0  0  0
  2  3  2  0  0  0  0
  2  4  1  0  0  0  0
  4  5  1  0  0  0  0
  4 22  1  0  0  0  0
  4 23  1  0  0  0  0
  5  6  1  0  0  0  0
  5 24  1  0  0  0  0
  6  7  2  0  0  0  0
  6  8  1  0  0  0  0
  8  9  1  0  0  0  0
  8 25  1  0  0  0  0
  8 26  1  0  0  0  0
  9 18  1  0  0  0  0
  9 10  1  0  0  0  0
 10 11  2  0  0  0  0
 10 27  1  0  0  0  0
 11 12  1  0  0  0  0
 11 28  1  0  0  0  0
 12 13  2  0  0  0  0
 12 29  1  0  0  0  0
 13 14  1  0  0  0  0
 13 18  1  0  0  0  0
 14 15  1  0  0  0  0
 14 16  1  0  0  0  0
 14 17  1  0  0  0  0
 18 19  2  0  0  0  0
M  END
> <s_m_source_file>
AV-unprocessed.smi

> <i_m_source_file_index>
1037

> <i_lp_mmshare_version>
43012

> <i_f3d_flags>
0

> <s_epik_input>
W05IMl1DKD1PKVtDSDJdW05IXUMoPU8pW0NIMl1uMVtjSF1bY0hdW2NIXWMoQyhGKShGKUYpYzE9Tw==

> <s_epik_cmdline>
J2VwaWtfcHl0aG9uJywgJy1waCcsICc3LjAnLCAnLXRuJywgJzgnLCAnLW1hJywgJzIwMCcsICctbWV0YWxfYmluZGluZycsICctaW1hZScsICc8aW5maWxlLm1hZT4nLCAnLW9tYWUnLCAnPG91dGZpbGUubWFlPic=

> <r_lp_tautomer_probability>
1

> <r_epik_Ionization_Penalty>
9.73018e-08

> <r_epik_Ionization_Penalty_Charging>
1.58095e-09

> <r_epik_Ionization_Penalty_Neutral>
9.57208e-08

> <r_epik_State_Penalty>
-0

> <r_epik_Charging_Adjusted_Penalty>
1.58095e-09

> <i_epik_Tot_Q>
0

> <i_epik_Tot_abs_Q>
0

> <r_epik_Metal_State_Penalty>
-0

> <b_epik_Metal_Only>
0

> <s_lp_Force_Field>
OPLS_2005

> <r_lp_Energy>
7.91729

> <b_lp_Chiralities_Consistent>
1

> <s_lp_Variant>
AV-unprocessed.smi:1037-1

> <Gold.Version>
5.8.1

> <Gold.Id.Protein>
6NUR|6NUR_protein|mol2

> <Gold.PLP.Fitness>
43.6765

> <Gold.PLP.PLP>
-36.6691

> <Gold.PLP.part.hbond>
-4.0000

> <Gold.PLP.part.metal>
0.0000

> <Gold.PLP.part.buried>
-7.1188

> <Gold.PLP.part.nonpolar>
-27.7748

> <Gold.PLP.part.repulsive>
1.4243

> <Gold.PLP.ligand.clash>
0.2585

> <Gold.PLP.ligand.torsion>
0.7862

> <Gold.PLP.Chemscore.Hbond>
2.8328

> <Gold.PLP.Chemscore.CHOScore>
0.0000

> <Gold.PLP.Chemscore.Metal>
0.0000

> <Gold.Chemscore.Hbonds>
donor molecule, donor type, donor heavy atom, donor atom, acceptor molecule, acceptor atom, score
      L1  H     5    24       P1  8029  1.00
      P1  H  6933  6944       L1     3  0.90
      P1  H  6934  6946       L1     3  0.87

> <Gold.PLP.Chemscore.Internal.Correction>
0.3399

> <Gold.Rescore>
     Score         DG    S(hbond)    S(metal)    S(lipo)     H(rot)  DE(clash)    DE(int)     intcor
     11.30     -14.46       2.74        0.00      58.67       2.74       0.00       3.16       ----

> <Gold.Chemscore.Fitness>
11.2957

> <Gold.Chemscore.DG>
-14.4613

> <Gold.Chemscore.ZeroCoef>
-5.4800

> <Gold.Chemscore.Hbond>
2.7366

> <Gold.Chemscore.Metal>
0.0000

> <Gold.Chemscore.Lipo>
58.6704

> <Gold.Chemscore.Internal_Hbond>
0.0000

> <Gold.Chemscore.DEClash>
0.0009

> <Gold.Chemscore.DEInternal>
3.1646

> <Gold.Chemscore.Rot>
2.7435

> <Gold.Chemscore.Internal.Correction>
   9.000000E+99

> <Gold.Chemscore.Hbonds>
donor molecule, donor type, donor heavy atom, donor atom, acceptor molecule, acceptor atom, score
      L1  H     5    24       P1  8029  1.00
      P1  H  6933  6944       L1     3  0.83
      P1  H  6934  6946       L1     3  0.81

> <Gold.Chemscore.Hbond.Weighted>
-9.1402

> <Gold.Chemscore.Metal.Weighted>
-0.0000

> <Gold.Chemscore.Lipo.Weighted>
-6.8644

> <Gold.Chemscore.Internal_Hbond.Weighted>
0.0000

> <Gold.Chemscore.DEClash.Weighted>
0.0009

> <Gold.Chemscore.DEInternal.Weighted>
3.1646

> <Gold.Chemscore.Rot.Weighted>
7.0234

> <Gold.Chemscore.Internal.Correction.Weighted>
   9.000000E+99

> <Gold.Protein.RotatedTorsions>
[ 6907 6896 6895 6894 ] final   54.38 input  -60.11 | X-H torsion
[ 7974 7965 7964 7962 ] final   18.08 input  175.53 | X-H torsion
[ 8008 7997 7996 7995 ] final  -59.09 input   59.86 | X-H torsion
[ 10167 10162 10161 10158 ] final  118.46 input  -65.29 | X-H torsion
[ 10718 10713 10712 10709 ] final  103.90 input   66.30 | X-H torsion
[ 10763 10752 10751 10750 ] final  100.30 input  -60.55 | X-H torsion
[ 11005 11000 10999 10996 ] final   69.84 input  -57.11 | X-H torsion

> <Gold.Protein.ActiveResidues>
 VAL166  LYS551  ARG553  GLY616  TRP617  ASP618  TYR619  PRO620  LYS621  CYS622 
 ASP623  PHE694  ASN695  SER759  ASP760  ASP761  ALA762  ILE779  LEU786  VAL792 
 PHE793  MET794  SER795  GLU796  ALA797  LYS798  CYS799  TRP800  GLU811  SER814 

> <Gold.Protein.RotatedAtoms>
  152.3433  134.7105  160.0257 H   0  0  0  0  0  0  0  0  0  0  0  0  # atno 6907 bound_to 6896
  151.7483  133.3320  159.3392 H   0  0  0  0  0  0  0  0  0  0  0  0  # atno 6908 bound_to 6896
  150.7493  134.6148  159.6150 H   0  0  0  0  0  0  0  0  0  0  0  0  # atno 6909 bound_to 6896
  146.2197  139.8509  142.8623 H   0  0  0  0  0  0  0  0  0  0  0  0  # atno 7974 bound_to 7965
  154.4337  140.1069  156.6061 H   0  0  0  0  0  0  0  0  0  0  0  0  # atno 8008 bound_to 7997
  155.5860  140.3491  155.4534 H   0  0  0  0  0  0  0  0  0  0  0  0  # atno 8009 bound_to 7997
  156.0283  140.1255  157.0275 H   0  0  0  0  0  0  0  0  0  0  0  0  # atno 8010 bound_to 7997
  139.6110  144.7081  151.2845 H   0  0  0  0  0  0  0  0  0  0  0  0  # atno 10167 bound_to 10162
  157.6757  131.0790  150.5625 H   0  0  0  0  0  0  0  0  0  0  0  0  # atno 10718 bound_to 10713
  153.3122  135.4083  155.1345 H   0  0  0  0  0  0  0  0  0  0  0  0  # atno 10763 bound_to 10752
  154.8579  135.3567  154.5708 H   0  0  0  0  0  0  0  0  0  0  0  0  # atno 10764 bound_to 10752
  153.6138  135.7067  153.5395 H   0  0  0  0  0  0  0  0  0  0  0  0  # atno 10765 bound_to 10752
  139.9631  134.7027  156.0603 H   0  0  0  0  0  0  0  0  0  0  0  0  # atno 11005 bound_to 11000
  145.2803  141.0136  143.3721 LP  0  0  0  0  0  0  0  0  0  0  0  0  # atno 17320 bound_to 7965
  144.9155  139.4475  143.6566 LP  0  0  0  0  0  0  0  0  0  0  0  0  # atno 17321 bound_to 7965
  140.7319  143.6839  150.7978 LP  0  0  0  0  0  0  0  0  0  0  0  0  # atno 17342 bound_to 10162
  140.0434  143.5323  152.2707 LP  0  0  0  0  0  0  0  0  0  0  0  0  # atno 17343 bound_to 10162
  156.5928  130.4334  149.5929 LP  0  0  0  0  0  0  0  0  0  0  0  0  # atno 17370 bound_to 10713
  156.2569  130.6940  151.1696 LP  0  0  0  0  0  0  0  0  0  0  0  0  # atno 17371 bound_to 10713
  141.1309  133.6586  156.3463 LP  0  0  0  0  0  0  0  0  0  0  0  0  # atno 17394 bound_to 11000
  140.5456  134.6077  157.5393 LP  0  0  0  0  0  0  0  0  0  0  0  0  # atno 17395 bound_to 11000

$$$$
