AV-unprocessed.smi:258|AV-procd|sdf|1969|dock5
  -GOLD-   2262021123D 1   1.00000     0.00000
 Structure written by MMmdl.
 57 60  0  0  0  0  0  0  0  0  1 V2000
  149.7656  145.3795  160.9852 O   0  0  0  0  0  0  0  0  0  0  0  0
  151.0216  145.4479  160.3443 C   0  0  0  0  0  0  0  0  0  0  0  0
  152.0529  144.6100  161.1101 C   0  0  0  0  0  0  0  0  0  0  0  0
  151.3937  143.5069  161.7149 O   0  0  0  0  0  0  0  0  0  0  0  0
  151.7930  142.2354  161.2199 C   0  0  2  0  0  0  0  0  0  0  0  0
  153.2516  141.9228  161.6071 C   0  0  0  0  0  0  0  0  0  0  0  0
  153.7084  140.6163  160.9408 C   0  0  0  0  0  0  0  0  0  0  0  0
  153.5155  140.6724  159.4166 C   0  0  0  0  0  0  0  0  0  0  0  0
  152.1406  141.0425  159.0759 N   0  0  0  0  0  0  0  0  0  0  0  0
  151.7283  140.7220  157.8212 C   0  0  0  0  0  0  0  0  0  0  0  0
  152.5425  139.9208  157.0847 N   0  0  0  0  0  0  0  0  0  0  0  0
  152.1968  139.5502  155.8490 C   0  0  0  0  0  0  0  0  0  0  0  0
  151.0969  139.8604  155.1625 N   0  0  0  0  0  0  0  0  0  0  0  0
  150.2758  140.6710  155.8883 C   0  0  0  0  0  0  0  0  0  0  0  0
  150.5078  141.1471  157.2119 C   0  0  0  0  0  0  0  0  0  0  0  0
  149.4448  141.9555  157.6045 N   0  0  0  0  0  0  0  0  0  0  0  0
  148.6338  141.9485  156.5831 C   0  0  0  0  0  0  0  0  0  0  0  0
  149.0581  141.2049  155.5068 N   0  0  0  0  0  0  0  0  0  0  0  0
  148.3619  141.0190  154.2465 C   0  0  0  0  0  0  0  0  0  0  0  0
  148.1594  139.5335  153.8592 C   0  0  2  0  0  0  0  0  0  0  0  0
  147.0019  139.3223  152.8491 C   0  0  0  0  0  0  0  0  0  0  0  0
  146.9998  140.3173  151.8462 O   0  0  0  0  0  0  0  0  0  0  0  0
  148.0209  138.6692  155.1388 C   0  0  1  0  0  0  0  0  0  0  0  0
  146.8544  139.0133  156.0585 C   0  0  0  0  0  0  0  0  0  0  0  0
  146.5982  137.6864  156.7587 C   0  0  0  0  0  0  0  0  0  0  0  0
  146.7658  136.7436  155.7131 O   0  0  0  0  0  0  0  0  0  0  0  0
  147.8617  137.1567  154.9033 C   0  0  0  0  0  0  0  0  0  0  0  0
  151.6447  142.2737  159.6890 C   0  0  0  0  0  0  0  0  0  0  0  0
  149.8572  145.7184  161.8626 H   0  0  0  0  0  0  0  0  0  0  0  0
  150.8982  145.0506  159.3367 H   0  0  0  0  0  0  0  0  0  0  0  0
  151.3452  146.4844  160.2458 H   0  0  0  0  0  0  0  0  0  0  0  0
  152.8646  144.2974  160.4525 H   0  0  0  0  0  0  0  0  0  0  0  0
  152.4936  145.2234  161.8973 H   0  0  0  0  0  0  0  0  0  0  0  0
  151.1320  141.4581  161.6084 H   0  0  0  0  0  0  0  0  0  0  0  0
  153.9000  142.7418  161.2933 H   0  0  0  0  0  0  0  0  0  0  0  0
  153.3585  141.8352  162.6878 H   0  0  0  0  0  0  0  0  0  0  0  0
  154.7548  140.4211  161.1765 H   0  0  0  0  0  0  0  0  0  0  0  0
  153.1376  139.7811  161.3487 H   0  0  0  0  0  0  0  0  0  0  0  0
  154.1909  141.4108  158.9832 H   0  0  0  0  0  0  0  0  0  0  0  0
  153.7910  139.7082  158.9890 H   0  0  0  0  0  0  0  0  0  0  0  0
  152.9021  138.9113  155.3379 H   0  0  0  0  0  0  0  0  0  0  0  0
  147.7016  142.4944  156.5853 H   0  0  0  0  0  0  0  0  0  0  0  0
  147.3979  141.5229  154.3257 H   0  0  0  0  0  0  0  0  0  0  0  0
  148.9179  141.5403  153.4663 H   0  0  0  0  0  0  0  0  0  0  0  0
  149.0784  139.1959  153.3772 H   0  0  0  0  0  0  0  0  0  0  0  0
  147.0866  138.3614  152.3433 H   0  0  0  0  0  0  0  0  0  0  0  0
  146.0368  139.3239  153.3564 H   0  0  0  0  0  0  0  0  0  0  0  0
  147.8937  140.5661  151.6663 H   0  0  0  0  0  0  0  0  0  0  0  0
  148.9353  138.7885  155.7229 H   0  0  0  0  0  0  0  0  0  0  0  0
  147.0843  139.8202  156.7548 H   0  0  0  0  0  0  0  0  0  0  0  0
  145.9666  139.2972  155.4940 H   0  0  0  0  0  0  0  0  0  0  0  0
  147.3386  137.5055  157.5396 H   0  0  0  0  0  0  0  0  0  0  0  0
  145.6038  137.6252  157.2016 H   0  0  0  0  0  0  0  0  0  0  0  0
  147.6708  136.8963  153.8627 H   0  0  0  0  0  0  0  0  0  0  0  0
  148.7635  136.6259  155.2110 H   0  0  0  0  0  0  0  0  0  0  0  0
  150.5933  142.4212  159.4387 H   0  0  0  0  0  0  0  0  0  0  0  0
  152.2001  143.1207  159.2840 H   0  0  0  0  0  0  0  0  0  0  0  0
  1  2  1  0  0  0  0
  1 29  1  0  0  0  0
  2  3  1  0  0  0  0
  2 30  1  0  0  0  0
  2 31  1  0  0  0  0
  3  4  1  0  0  0  0
  3 32  1  0  0  0  0
  3 33  1  0  0  0  0
  4  5  1  0  0  0  0
  5 28  1  0  0  0  0
  5  6  1  0  0  0  0
  5 34  1  0  0  0  0
  6  7  1  0  0  0  0
  6 35  1  0  0  0  0
  6 36  1  0  0  0  0
  7  8  1  0  0  0  0
  7 37  1  0  0  0  0
  7 38  1  0  0  0  0
  8  9  1  0  0  0  0
  8 39  1  0  0  0  0
  8 40  1  0  0  0  0
  9 10  1  0  0  0  0
  9 28  1  0  0  0  0
 10 15  1  0  0  0  0
 10 11  2  0  0  0  0
 11 12  1  0  0  0  0
 12 13  2  0  0  0  0
 12 41  1  0  0  0  0
 13 14  1  0  0  0  0
 14 18  1  0  0  0  0
 14 15  2  0  0  0  0
 15 16  1  0  0  0  0
 16 17  2  0  0  0  0
 17 18  1  0  0  0  0
 17 42  1  0  0  0  0
 18 19  1  0  0  0  0
 19 20  1  0  0  0  0
 19 43  1  0  0  0  0
 19 44  1  0  0  0  0
 20 21  1  0  0  0  0
 20 23  1  0  0  0  0
 20 45  1  0  0  0  0
 21 22  1  0  0  0  0
 21 46  1  0  0  0  0
 21 47  1  0  0  0  0
 22 48  1  0  0  0  0
 23 27  1  0  0  0  0
 23 24  1  0  0  0  0
 23 49  1  0  0  0  0
 24 25  1  0  0  0  0
 24 50  1  0  0  0  0
 24 51  1  0  0  0  0
 25 26  1  0  0  0  0
 25 52  1  0  0  0  0
 25 53  1  0  0  0  0
 26 27  1  0  0  0  0
 27 54  1  0  0  0  0
 27 55  1  0  0  0  0
 28 56  1  0  0  0  0
 28 57  1  0  0  0  0
M  END
> <s_m_source_file>
AV-unprocessed.smi

> <i_m_source_file_index>
258

> <i_lp_mmshare_version>
43012

> <i_f3d_flags>
0

> <s_epik_input>
W09IXVtDSDJdW0NIMl1PW0NAQEhdMVtDSDJdW0NIMl1bQ0gyXU4oW0NIMl0xKWMobltjSF1uMiljKGMyMyluW2NIXW4zW0NIMl1bQ0BIXShbQ0gyXVtPSF0pW0NAQEhdNFtDSDJdW0NIMl1PW0NIMl00

> <s_epik_cmdline>
J2VwaWtfcHl0aG9uJywgJy1waCcsICc3LjAnLCAnLXRuJywgJzgnLCAnLW1hJywgJzIwMCcsICctbWV0YWxfYmluZGluZycsICctaW1hZScsICc8aW5maWxlLm1hZT4nLCAnLW9tYWUnLCAnPG91dGZpbGUubWFlPic=

> <r_lp_tautomer_probability>
1

> <r_epik_Ionization_Penalty>
0.00349036

> <r_epik_Ionization_Penalty_Charging>
0

> <r_epik_Ionization_Penalty_Neutral>
0.00349036

> <r_epik_State_Penalty>
0.00229798

> <r_epik_Charging_Adjusted_Penalty>
0.00229798

> <i_epik_Tot_Q>
0

> <i_epik_Tot_abs_Q>
0

> <r_epik_Metal_State_Penalty>
-0

> <b_epik_Metal_Only>
0

> <s_lp_Force_Field>
OPLS_2005

> <r_lp_Energy>
47.936

> <b_lp_Chiralities_Consistent>
1

> <s_lp_Variant>
AV-unprocessed.smi:258-5

> <Gold.Version>
5.8.1

> <Gold.Id.Protein>
6NUR|6NUR_protein|mol2

> <Gold.PLP.Fitness>
54.0573

> <Gold.PLP.PLP>
-45.7717

> <Gold.PLP.part.hbond>
-5.1586

> <Gold.PLP.part.metal>
0.0000

> <Gold.PLP.part.buried>
-2.5198

> <Gold.PLP.part.nonpolar>
-37.2009

> <Gold.PLP.part.repulsive>
0.3486

> <Gold.PLP.ligand.clash>
0.0000

> <Gold.PLP.ligand.torsion>
1.1989

> <Gold.PLP.Chemscore.Hbond>
3.0000

> <Gold.PLP.Chemscore.CHOScore>
0.3075

> <Gold.PLP.Chemscore.Metal>
0.0000

> <Gold.Chemscore.Hbonds>
donor molecule, donor type, donor heavy atom, donor atom, acceptor molecule, acceptor atom, score
      L1  H    22    48       P1  7957  0.96
      P1  H  7989  7998       L1    13  1.00
      P1  H  7997  8008       L1    11  0.80
      L1  C    17    42       P1  8028  0.18

> <Gold.PLP.Chemscore.Internal.Correction>
0.7609

> <Gold.Rescore>
     Score         DG    S(hbond)    S(metal)    S(lipo)     H(rot)  DE(clash)    DE(int)     intcor
      7.26     -13.07       1.78        0.00     100.11       3.94       3.59       2.22       ----

> <Gold.Chemscore.Fitness>
7.2564

> <Gold.Chemscore.DG>
-13.0702

> <Gold.Chemscore.ZeroCoef>
-5.4800

> <Gold.Chemscore.Hbond>
1.7820

> <Gold.Chemscore.Metal>
0.0000

> <Gold.Chemscore.Lipo>
100.1135

> <Gold.Chemscore.Internal_Hbond>
0.0000

> <Gold.Chemscore.DEClash>
3.5911

> <Gold.Chemscore.DEInternal>
2.2226

> <Gold.Chemscore.Rot>
3.9356

> <Gold.Chemscore.Internal.Correction>
   9.000000E+99

> <Gold.Chemscore.Hbonds>
donor molecule, donor type, donor heavy atom, donor atom, acceptor molecule, acceptor atom, score
      L1  H    22    48       P1  7957  0.92
      P1  H  7989  7998       L1    13  0.40
      P1  H  7997  8008       L1    11  0.12

> <Gold.Chemscore.Hbond.Weighted>
-5.9520

> <Gold.Chemscore.Metal.Weighted>
-0.0000

> <Gold.Chemscore.Lipo.Weighted>
-11.7133

> <Gold.Chemscore.Internal_Hbond.Weighted>
0.0000

> <Gold.Chemscore.DEClash.Weighted>
3.5911

> <Gold.Chemscore.DEInternal.Weighted>
2.2226

> <Gold.Chemscore.Rot.Weighted>
10.0751

> <Gold.Chemscore.Internal.Correction.Weighted>
   9.000000E+99

> <Gold.Protein.RotatedTorsions>
[ 6907 6896 6895 6894 ] final   37.68 input  -60.11 | X-H torsion
[ 7974 7965 7964 7962 ] final  117.62 input  175.53 | X-H torsion
[ 8008 7997 7996 7995 ] final  -65.30 input   59.86 | X-H torsion
[ 10167 10162 10161 10158 ] final    1.65 input  -65.29 | X-H torsion
[ 10718 10713 10712 10709 ] final -150.94 input   66.30 | X-H torsion
[ 10763 10752 10751 10750 ] final  -45.52 input  -60.55 | X-H torsion
[ 11005 11000 10999 10996 ] final  127.09 input  -57.11 | X-H torsion

> <Gold.Protein.ActiveResidues>
 VAL166  LYS551  ARG553  GLY616  TRP617  ASP618  TYR619  PRO620  LYS621  CYS622 
 ASP623  PHE694  ASN695  SER759  ASP760  ASP761  ALA762  ILE779  LEU786  VAL792 
 PHE793  MET794  SER795  GLU796  ALA797  LYS798  CYS799  TRP800  GLU811  SER814 

> <Gold.Protein.RotatedAtoms>
  152.1463  134.9023  160.0550 H   0  0  0  0  0  0  0  0  0  0  0  0  # atno 6907 bound_to 6896
  152.0072  133.3842  159.4213 H   0  0  0  0  0  0  0  0  0  0  0  0  # atno 6908 bound_to 6896
  150.6870  134.3692  159.5028 H   0  0  0  0  0  0  0  0  0  0  0  0  # atno 6909 bound_to 6896
  145.1652  139.3132  143.4496 H   0  0  0  0  0  0  0  0  0  0  0  0  # atno 7974 bound_to 7965
  154.4663  140.0936  156.7029 H   0  0  0  0  0  0  0  0  0  0  0  0  # atno 8008 bound_to 7997
  155.4849  140.3469  155.4327 H   0  0  0  0  0  0  0  0  0  0  0  0  # atno 8009 bound_to 7997
  156.0962  140.1410  156.9517 H   0  0  0  0  0  0  0  0  0  0  0  0  # atno 8010 bound_to 7997
  140.6673  143.7145  150.7852 H   0  0  0  0  0  0  0  0  0  0  0  0  # atno 10167 bound_to 10162
  156.4527  130.8175  151.2406 H   0  0  0  0  0  0  0  0  0  0  0  0  # atno 10718 bound_to 10713
  154.0299  135.6658  153.4780 H   0  0  0  0  0  0  0  0  0  0  0  0  # atno 10763 bound_to 10752
  153.0544  135.5064  154.7942 H   0  0  0  0  0  0  0  0  0  0  0  0  # atno 10764 bound_to 10752
  154.6884  135.3057  154.9479 H   0  0  0  0  0  0  0  0  0  0  0  0  # atno 10765 bound_to 10752
  139.9490  134.9625  156.8804 H   0  0  0  0  0  0  0  0  0  0  0  0  # atno 11005 bound_to 11000
  146.3477  140.1777  142.8589 LP  0  0  0  0  0  0  0  0  0  0  0  0  # atno 17320 bound_to 7965
  145.0290  140.8855  143.5121 LP  0  0  0  0  0  0  0  0  0  0  0  0  # atno 17321 bound_to 7965
  140.0825  143.4955  152.2522 LP  0  0  0  0  0  0  0  0  0  0  0  0  # atno 17342 bound_to 10162
  139.5926  144.7556  151.3363 LP  0  0  0  0  0  0  0  0  0  0  0  0  # atno 17343 bound_to 10162
  157.7502  131.0132  150.3417 LP  0  0  0  0  0  0  0  0  0  0  0  0  # atno 17370 bound_to 10713
  156.3799  130.3878  149.7110 LP  0  0  0  0  0  0  0  0  0  0  0  0  # atno 17371 bound_to 10713
  140.5765  134.0393  155.7449 LP  0  0  0  0  0  0  0  0  0  0  0  0  # atno 17394 bound_to 11000
  141.1148  133.9558  157.2843 LP  0  0  0  0  0  0  0  0  0  0  0  0  # atno 17395 bound_to 11000

$$$$
