AV-unprocessed.smi:663|AV-procd|sdf|3248|dock4
  -GOLD-   22720 0193D 1   1.00000     0.00000
 Structure written by MMmdl.
 30 31  0  0  0  0  0  0  0  0  1 V2000
  149.7080  138.4074  153.2926 N   0  0  0  0  0  0  0  0  0  0  0  0
  150.3149  138.7528  154.4307 C   0  0  0  0  0  0  0  0  0  0  0  0
  150.7428  137.9148  155.2224 O   0  0  0  0  0  0  0  0  0  0  0  0
  150.4509  140.2553  154.7151 C   0  0  0  0  0  0  0  0  0  0  0  0
  149.1468  140.9444  155.1812 C   0  0  1  0  0  0  0  0  0  0  0  0
  149.4614  142.0740  156.0560 N   0  0  0  0  0  0  0  0  0  0  0  0
  150.2407  142.0206  157.1458 C   0  0  0  0  0  0  0  0  0  0  0  0
  150.7803  140.9897  157.5466 O   0  0  0  0  0  0  0  0  0  0  0  0
  150.3458  143.2275  157.7248 N   0  0  0  0  0  0  0  0  0  0  0  0
  151.0794  143.5762  158.8863 C   0  0  0  0  0  0  0  0  0  0  0  0
  151.2879  142.6266  159.8060 N   0  0  0  0  0  0  0  0  0  0  0  0
  152.0177  143.1021  160.8889 N   0  0  0  0  0  0  0  0  0  0  0  0
  152.3312  144.3932  160.7430 C   0  0  0  0  0  0  0  0  0  0  0  0
  151.7672  145.1576  159.2676 S   0  0  0  0  0  0  0  0  0  0  0  0
  148.2996  141.3437  153.9844 C   0  0  0  0  0  0  0  0  0  0  0  0
  146.9187  141.9314  154.1574 C   0  0  0  0  0  0  0  0  0  0  0  0
  147.0828  140.5398  153.5911 C   0  0  0  0  0  0  0  0  0  0  0  0
  149.5922  137.4304  153.0650 H   0  0  0  0  0  0  0  0  0  0  0  0
  149.3637  139.1201  152.6659 H   0  0  0  0  0  0  0  0  0  0  0  0
  151.2316  140.4109  155.4615 H   0  0  0  0  0  0  0  0  0  0  0  0
  150.8066  140.7281  153.7989 H   0  0  0  0  0  0  0  0  0  0  0  0
  148.5739  140.2118  155.7542 H   0  0  0  0  0  0  0  0  0  0  0  0
  149.0613  142.9660  155.8039 H   0  0  0  0  0  0  0  0  0  0  0  0
  149.8464  143.9857  157.2838 H   0  0  0  0  0  0  0  0  0  0  0  0
  152.8989  144.8990  161.5099 H   0  0  0  0  0  0  0  0  0  0  0  0
  148.8825  141.7404  153.1550 H   0  0  0  0  0  0  0  0  0  0  0  0
  146.5234  142.0164  155.1677 H   0  0  0  0  0  0  0  0  0  0  0  0
  146.6214  142.7229  153.4725 H   0  0  0  0  0  0  0  0  0  0  0  0
  146.8942  140.4026  152.5284 H   0  0  0  0  0  0  0  0  0  0  0  0
  146.7986  139.7039  154.2273 H   0  0  0  0  0  0  0  0  0  0  0  0
  1  2  1  0  0  0  0
  1 18  1  0  0  0  0
  1 19  1  0  0  0  0
  2  3  2  0  0  0  0
  2  4  1  0  0  0  0
  4  5  1  0  0  0  0
  4 20  1  0  0  0  0
  4 21  1  0  0  0  0
  5  6  1  0  0  0  0
  5 15  1  0  0  0  0
  5 22  1  0  0  0  0
  6  7  1  0  0  0  0
  6 23  1  0  0  0  0
  7  8  2  0  0  0  0
  7  9  1  0  0  0  0
  9 10  1  0  0  0  0
  9 24  1  0  0  0  0
 10 14  1  0  0  0  0
 10 11  2  0  0  0  0
 11 12  1  0  0  0  0
 12 13  2  0  0  0  0
 13 14  1  0  0  0  0
 13 25  1  0  0  0  0
 15 17  1  0  0  0  0
 15 16  1  0  0  0  0
 15 26  1  0  0  0  0
 16 17  1  0  0  0  0
 16 27  1  0  0  0  0
 16 28  1  0  0  0  0
 17 29  1  0  0  0  0
 17 30  1  0  0  0  0
M  END
> <s_m_source_file>
AV-unprocessed.smi

> <i_m_source_file_index>
663

> <i_lp_mmshare_version>
43012

> <i_f3d_flags>
0

> <s_epik_input>
W05IMl1DKD1PKVtDSDJdW0NAQEhdKFtDSF0xW0NIMl1bQ0gyXTEpW05IXUMoPU8pW05IXWMybm5bY0hdczI=

> <s_epik_cmdline>
J2VwaWtfcHl0aG9uJywgJy1waCcsICc3LjAnLCAnLXRuJywgJzgnLCAnLW1hJywgJzIwMCcsICctbWV0YWxfYmluZGluZycsICctaW1hZScsICc8aW5maWxlLm1hZT4nLCAnLW9tYWUnLCAnPG91dGZpbGUubWFlPic=

> <r_lp_tautomer_probability>
1

> <r_epik_Ionization_Penalty>
0.000388224

> <r_epik_Ionization_Penalty_Charging>
0

> <r_epik_Ionization_Penalty_Neutral>
0.000388224

> <r_epik_State_Penalty>
-0

> <r_epik_Charging_Adjusted_Penalty>
0

> <i_epik_Tot_Q>
0

> <i_epik_Tot_abs_Q>
0

> <r_epik_Metal_State_Penalty>
0.191941

> <b_epik_Metal_Only>
0

> <s_lp_Force_Field>
OPLS_2005

> <r_lp_Energy>
6.566

> <b_lp_Chiralities_Consistent>
1

> <s_lp_Variant>
AV-unprocessed.smi:663-2

> <Gold.Version>
5.8.1

> <Gold.Id.Protein>
6NUR|6NUR_protein|mol2

> <Gold.PLP.Fitness>
46.0164

> <Gold.PLP.PLP>
-35.6817

> <Gold.PLP.part.hbond>
-5.6723

> <Gold.PLP.part.metal>
0.0000

> <Gold.PLP.part.buried>
-1.8875

> <Gold.PLP.part.nonpolar>
-27.4133

> <Gold.PLP.part.repulsive>
0.4532

> <Gold.PLP.ligand.clash>
0.0000

> <Gold.PLP.ligand.torsion>
1.3583

> <Gold.PLP.Chemscore.Hbond>
3.9840

> <Gold.PLP.Chemscore.CHOScore>
0.0000

> <Gold.PLP.Chemscore.Metal>
0.0000

> <Gold.Chemscore.Hbonds>
donor molecule, donor type, donor heavy atom, donor atom, acceptor molecule, acceptor atom, score
      L1  H     1    18       P1  7948  0.91
      L1  H     1    19       P1  7957  0.93
      L1  H     6    23       P1  8028  1.00
      L1  H     9    24       P1  8028  1.00

> <Gold.PLP.Chemscore.Internal.Correction>
1.0994

> <Gold.Rescore>
     Score         DG    S(hbond)    S(metal)    S(lipo)     H(rot)  DE(clash)    DE(int)     intcor
     14.54     -18.47       3.64        0.00      62.40       2.52       0.23       3.69       ----

> <Gold.Chemscore.Fitness>
14.5450

> <Gold.Chemscore.DG>
-18.4671

> <Gold.Chemscore.ZeroCoef>
-5.4800

> <Gold.Chemscore.Hbond>
3.6353

> <Gold.Chemscore.Metal>
0.0000

> <Gold.Chemscore.Lipo>
62.4033

> <Gold.Chemscore.Internal_Hbond>
0.0000

> <Gold.Chemscore.DEClash>
0.2310

> <Gold.Chemscore.DEInternal>
3.6911

> <Gold.Chemscore.Rot>
2.5218

> <Gold.Chemscore.Internal.Correction>
   9.000000E+99

> <Gold.Chemscore.Hbonds>
donor molecule, donor type, donor heavy atom, donor atom, acceptor molecule, acceptor atom, score
      L1  H     1    18       P1  7948  0.67
      L1  H     1    19       P1  7957  0.90
      L1  H     6    23       P1  8028  1.00
      L1  H     9    24       P1  8028  0.64

> <Gold.Chemscore.Hbond.Weighted>
-12.1418

> <Gold.Chemscore.Metal.Weighted>
-0.0000

> <Gold.Chemscore.Lipo.Weighted>
-7.3012

> <Gold.Chemscore.Internal_Hbond.Weighted>
0.0000

> <Gold.Chemscore.DEClash.Weighted>
0.2310

> <Gold.Chemscore.DEInternal.Weighted>
3.6911

> <Gold.Chemscore.Rot.Weighted>
6.4559

> <Gold.Chemscore.Internal.Correction.Weighted>
   9.000000E+99

> <Gold.Protein.RotatedTorsions>
[ 6907 6896 6895 6894 ] final  102.35 input  -60.11 | X-H torsion
[ 7974 7965 7964 7962 ] final  -57.24 input  175.53 | X-H torsion
[ 8008 7997 7996 7995 ] final   96.54 input   59.86 | X-H torsion
[ 10167 10162 10161 10158 ] final -165.80 input  -65.29 | X-H torsion
[ 10718 10713 10712 10709 ] final -102.89 input   66.30 | X-H torsion
[ 10763 10752 10751 10750 ] final   97.94 input  -60.55 | X-H torsion
[ 11005 11000 10999 10996 ] final   48.99 input  -57.11 | X-H torsion

> <Gold.Protein.ActiveResidues>
 VAL166  LYS551  ARG553  GLY616  TRP617  ASP618  TYR619  PRO620  LYS621  CYS622 
 ASP623  PHE694  ASN695  SER759  ASP760  ASP761  ALA762  ILE779  LEU786  VAL792 
 PHE793  MET794  SER795  GLU796  ALA797  LYS798  CYS799  TRP800  GLU811  SER814 

> <Gold.Protein.RotatedAtoms>
  152.5326  133.9989  159.7885 H   0  0  0  0  0  0  0  0  0  0  0  0  # atno 6907 bound_to 6896
  151.0212  133.5867  159.2678 H   0  0  0  0  0  0  0  0  0  0  0  0  # atno 6908 bound_to 6896
  151.2906  135.0748  159.9256 H   0  0  0  0  0  0  0  0  0  0  0  0  # atno 6909 bound_to 6896
  145.8534  140.8336  142.9974 H   0  0  0  0  0  0  0  0  0  0  0  0  # atno 7974 bound_to 7965
  156.0807  140.3271  155.7690 H   0  0  0  0  0  0  0  0  0  0  0  0  # atno 8008 bound_to 7997
  155.5157  140.0581  157.2933 H   0  0  0  0  0  0  0  0  0  0  0  0  # atno 8009 bound_to 7997
  154.4580  140.1952  156.0340 H   0  0  0  0  0  0  0  0  0  0  0  0  # atno 8010 bound_to 7997
  139.6157  144.0724  152.1886 H   0  0  0  0  0  0  0  0  0  0  0  0  # atno 10167 bound_to 10162
  156.0245  130.5441  150.7173 H   0  0  0  0  0  0  0  0  0  0  0  0  # atno 10718 bound_to 10713
  153.2830  135.4165  155.1096 H   0  0  0  0  0  0  0  0  0  0  0  0  # atno 10763 bound_to 10752
  154.8495  135.3500  154.6086 H   0  0  0  0  0  0  0  0  0  0  0  0  # atno 10764 bound_to 10752
  153.6507  135.7053  153.5268 H   0  0  0  0  0  0  0  0  0  0  0  0  # atno 10765 bound_to 10752
  140.1142  134.4914  155.8652 H   0  0  0  0  0  0  0  0  0  0  0  0  # atno 11005 bound_to 11000
  144.6728  140.0987  143.7461 LP  0  0  0  0  0  0  0  0  0  0  0  0  # atno 17320 bound_to 7965
  145.9331  139.2619  143.1313 LP  0  0  0  0  0  0  0  0  0  0  0  0  # atno 17321 bound_to 7965
  140.0353  144.6049  150.7454 LP  0  0  0  0  0  0  0  0  0  0  0  0  # atno 17342 bound_to 10162
  140.7349  143.2735  151.3814 LP  0  0  0  0  0  0  0  0  0  0  0  0  # atno 17343 bound_to 10162
  157.4797  131.0901  151.0550 LP  0  0  0  0  0  0  0  0  0  0  0  0  # atno 17370 bound_to 10713
  157.0986  130.5972  149.5455 LP  0  0  0  0  0  0  0  0  0  0  0  0  # atno 17371 bound_to 10713
  141.2137  133.6738  156.6764 LP  0  0  0  0  0  0  0  0  0  0  0  0  # atno 17394 bound_to 11000
  140.3050  134.8132  157.4129 LP  0  0  0  0  0  0  0  0  0  0  0  0  # atno 17395 bound_to 11000

$$$$
