AV-unprocessed.smi:1829|AV-procd|sdf|7431|dock3
  -GOLD-   22720 9113D 1   1.00000     0.00000
 Structure written by MMmdl.
 46 48  0  0  0  0  0  0  0  0  2 V2000
  148.4705  133.2062  152.6264 C   0  0  0  0  0  0  0  0  0  0  0  0
  149.4665  133.1840  153.7960 C   0  0  0  0  0  0  0  0  0  0  0  0
  149.1988  132.0077  154.7486 C   0  0  0  0  0  0  0  0  0  0  0  0
  149.4878  134.5170  154.5329 C   0  0  0  0  0  0  0  0  0  0  0  0
  150.6558  135.3088  154.5281 C   0  0  0  0  0  0  0  0  0  0  0  0
  150.6772  136.5504  155.1919 C   0  0  0  0  0  0  0  0  0  0  0  0
  149.5301  137.0144  155.8718 C   0  0  0  0  0  0  0  0  0  0  0  0
  149.5210  138.3768  156.5520 C   0  0  1  0  0  0  0  0  0  0  0  0
  149.1812  138.2970  157.9208 O   0  0  0  0  0  0  0  0  0  0  0  0
  150.8741  139.1080  156.4291 C   0  0  0  0  0  0  0  0  0  0  0  0
  150.7506  140.5628  156.6204 N   0  0  0  0  0  0  0  0  0  0  0  0
  150.0147  141.4785  155.9262 C   0  0  0  0  0  0  0  0  0  0  0  0
  149.1074  141.2154  154.7698 C   0  0  0  0  0  0  0  0  0  0  0  0
  149.8196  140.9496  153.5822 O   0  0  0  0  0  0  0  0  0  0  0  0
  150.2517  142.6971  156.4878 N   0  3  0  0  0  0  0  0  0  0  0  0
  151.1483  142.5634  157.5481 C   0  0  0  0  0  0  0  0  0  0  0  0
  151.6883  143.5144  158.4082 C   0  0  0  0  0  0  0  0  0  0  0  0
  152.5873  143.0442  159.3877 C   0  0  0  0  0  0  0  0  0  0  0  0
  152.9149  141.6767  159.4869 C   0  0  0  0  0  0  0  0  0  0  0  0
  152.3557  140.7214  158.6133 C   0  0  0  0  0  0  0  0  0  0  0  0
  151.4709  141.1938  157.6434 C   0  0  0  0  0  0  0  0  0  0  0  0
  148.3656  136.2181  155.8855 C   0  0  0  0  0  0  0  0  0  0  0  0
  148.3429  134.9795  155.2175 C   0  0  0  0  0  0  0  0  0  0  0  0
  148.7038  134.0114  151.9289 H   0  0  0  0  0  0  0  0  0  0  0  0
  147.4466  133.3510  152.9722 H   0  0  0  0  0  0  0  0  0  0  0  0
  148.5012  132.2696  152.0687 H   0  0  0  0  0  0  0  0  0  0  0  0
  150.4580  133.0270  153.3691 H   0  0  0  0  0  0  0  0  0  0  0  0
  149.9426  131.9728  155.5452 H   0  0  0  0  0  0  0  0  0  0  0  0
  149.2428  131.0564  154.2174 H   0  0  0  0  0  0  0  0  0  0  0  0
  148.2151  132.0783  155.2133 H   0  0  0  0  0  0  0  0  0  0  0  0
  151.5403  134.9714  154.0079 H   0  0  0  0  0  0  0  0  0  0  0  0
  151.5754  137.1497  155.1641 H   0  0  0  0  0  0  0  0  0  0  0  0
  148.7450  138.9844  156.0847 H   0  0  0  0  0  0  0  0  0  0  0  0
  149.4665  139.0897  158.3487 H   0  0  0  0  0  0  0  0  0  0  0  0
  151.5616  138.7486  157.1959 H   0  0  0  0  0  0  0  0  0  0  0  0
  151.3565  138.9021  155.4734 H   0  0  0  0  0  0  0  0  0  0  0  0
  148.4679  140.3627  154.9998 H   0  0  0  0  0  0  0  0  0  0  0  0
  148.4522  142.0712  154.6086 H   0  0  0  0  0  0  0  0  0  0  0  0
  149.3017  140.3705  153.0438 H   0  0  0  0  0  0  0  0  0  0  0  0
  151.4390  144.5628  158.3339 H   0  0  0  0  0  0  0  0  0  0  0  0
  153.0346  143.7464  160.0765 H   0  0  0  0  0  0  0  0  0  0  0  0
  153.6098  141.3527  160.2479 H   0  0  0  0  0  0  0  0  0  0  0  0
  152.6194  139.6781  158.6993 H   0  0  0  0  0  0  0  0  0  0  0  0
  147.4775  136.5641  156.3940 H   0  0  0  0  0  0  0  0  0  0  0  0
  147.4387  134.3890  155.2281 H   0  0  0  0  0  0  0  0  0  0  0  0
  149.8261  143.5570  156.1665 H   0  0  0  0  0  0  0  0  0  0  0  0
  1  2  1  0  0  0  0
  1 24  1  0  0  0  0
  1 25  1  0  0  0  0
  1 26  1  0  0  0  0
  2  3  1  0  0  0  0
  2  4  1  0  0  0  0
  2 27  1  0  0  0  0
  3 28  1  0  0  0  0
  3 29  1  0  0  0  0
  3 30  1  0  0  0  0
  4 23  1  0  0  0  0
  4  5  2  0  0  0  0
  5  6  1  0  0  0  0
  5 31  1  0  0  0  0
  6  7  2  0  0  0  0
  6 32  1  0  0  0  0
  7  8  1  0  0  0  0
  7 22  1  0  0  0  0
  8  9  1  0  0  0  0
  8 10  1  0  0  0  0
  8 33  1  0  0  0  0
  9 34  1  0  0  0  0
 10 11  1  0  0  0  0
 10 35  1  0  0  0  0
 10 36  1  0  0  0  0
 11 21  1  0  0  0  0
 11 12  1  0  0  0  0
 12 13  1  0  0  0  0
 12 15  2  0  0  0  0
 13 14  1  0  0  0  0
 13 37  1  0  0  0  0
 13 38  1  0  0  0  0
 14 39  1  0  0  0  0
 15 16  1  0  0  0  0
 15 46  1  0  0  0  0
 16 21  2  0  0  0  0
 16 17  1  0  0  0  0
 17 18  2  0  0  0  0
 17 40  1  0  0  0  0
 18 19  1  0  0  0  0
 18 41  1  0  0  0  0
 19 20  2  0  0  0  0
 19 42  1  0  0  0  0
 20 21  1  0  0  0  0
 20 43  1  0  0  0  0
 22 23  2  0  0  0  0
 22 44  1  0  0  0  0
 23 45  1  0  0  0  0
M  CHG  1  15   1
M  END
> <s_m_source_file>
AV-unprocessed.smi

> <i_m_source_file_index>
1829

> <i_lp_mmshare_version>
43012

> <i_f3d_flags>
0

> <s_epik_input>
W0NIM11bQ0hdKFtDSDNdKWMxW2NIXVtjSF1jKFtjSF1bY0hdMSlbQ0BIXShbT0hdKVtDSDJdbihjKG4yKVtDSDJdW09IXSljKGMyMylbY0hdW2NIXVtjSF1bY0hdMw==

> <s_epik_cmdline>
J2VwaWtfcHl0aG9uJywgJy1waCcsICc3LjAnLCAnLXRuJywgJzgnLCAnLW1hJywgJzIwMCcsICctbWV0YWxfYmluZGluZycsICctaW1hZScsICc8aW5maWxlLm1hZT4nLCAnLW9tYWUnLCAnPG91dGZpbGUubWFlPic=

> <r_epik_Ionization_Penalty>
1.35642

> <r_epik_Ionization_Penalty_Charging>
1.35557

> <r_epik_Ionization_Penalty_Neutral>
0.000856322

> <r_epik_State_Penalty>
1.43401

> <r_epik_Charging_Adjusted_Penalty>
2.78958

> <i_epik_Tot_Q>
1

> <i_epik_Tot_abs_Q>
1

> <r_epik_Metal_State_Penalty>
5.47166

> <b_epik_Metal_Only>
0

> <s_lp_Force_Field>
OPLS_2005

> <r_lp_Energy>
15.3906

> <b_lp_Chiralities_Consistent>
1

> <s_lp_Variant>
AV-unprocessed.smi:1829-4

> <Gold.Version>
5.8.1

> <Gold.Id.Protein>
6NUR|6NUR_protein|mol2

> <Gold.PLP.Fitness>
53.7457

> <Gold.PLP.PLP>
-43.1559

> <Gold.PLP.part.hbond>
-3.5146

> <Gold.PLP.part.metal>
0.0000

> <Gold.PLP.part.buried>
-4.1859

> <Gold.PLP.part.nonpolar>
-35.6638

> <Gold.PLP.part.repulsive>
0.0940

> <Gold.PLP.ligand.clash>
0.0000

> <Gold.PLP.ligand.torsion>
0.3777

> <Gold.PLP.Chemscore.Hbond>
3.7520

> <Gold.PLP.Chemscore.CHOScore>
0.0000

> <Gold.PLP.Chemscore.Metal>
0.0000

> <Gold.Chemscore.Hbonds>
donor molecule, donor type, donor heavy atom, donor atom, acceptor molecule, acceptor atom, score
      L1  H    14    39       P1  7957  0.50
      L1  H    15    46       P1  8028  2.00
      P1  H  7989  7998       L1    14  0.32
      P1  H  8011  8017       L1    14  0.75

> <Gold.PLP.Chemscore.Internal.Correction>
0.0893

> <Gold.Rescore>
     Score         DG    S(hbond)    S(metal)    S(lipo)     H(rot)  DE(clash)    DE(int)     intcor
     18.65     -19.18       2.30        0.00     111.60       2.75       0.01       0.52       ----

> <Gold.Chemscore.Fitness>
18.6516

> <Gold.Chemscore.DG>
-19.1793

> <Gold.Chemscore.ZeroCoef>
-5.4800

> <Gold.Chemscore.Hbond>
2.3038

> <Gold.Chemscore.Metal>
0.0000

> <Gold.Chemscore.Lipo>
111.6021

> <Gold.Chemscore.Internal_Hbond>
0.0000

> <Gold.Chemscore.DEClash>
0.0110

> <Gold.Chemscore.DEInternal>
0.5167

> <Gold.Chemscore.Rot>
2.7550

> <Gold.Chemscore.Internal.Correction>
   9.000000E+99

> <Gold.Chemscore.Hbonds>
donor molecule, donor type, donor heavy atom, donor atom, acceptor molecule, acceptor atom, score
      L1  H    14    39       P1  7957  0.50
      L1  H    15    46       P1  8028  0.97
      P1  H  7989  7998       L1    14  0.31
      P1  H  8011  8017       L1    14  0.08

> <Gold.Chemscore.Hbond.Weighted>
-7.6946

> <Gold.Chemscore.Metal.Weighted>
-0.0000

> <Gold.Chemscore.Lipo.Weighted>
-13.0574

> <Gold.Chemscore.Internal_Hbond.Weighted>
0.0000

> <Gold.Chemscore.DEClash.Weighted>
0.0110

> <Gold.Chemscore.DEInternal.Weighted>
0.5167

> <Gold.Chemscore.Rot.Weighted>
7.0527

> <Gold.Chemscore.Internal.Correction.Weighted>
   9.000000E+99

> <Gold.Protein.RotatedTorsions>
[ 6907 6896 6895 6894 ] final   48.96 input  -60.11 | X-H torsion
[ 7974 7965 7964 7962 ] final   33.07 input  175.53 | X-H torsion
[ 8008 7997 7996 7995 ] final    6.53 input   59.86 | X-H torsion
[ 10167 10162 10161 10158 ] final   44.88 input  -65.29 | X-H torsion
[ 10718 10713 10712 10709 ] final   -3.50 input   66.30 | X-H torsion
[ 10763 10752 10751 10750 ] final -140.44 input  -60.55 | X-H torsion
[ 11005 11000 10999 10996 ] final -138.18 input  -57.11 | X-H torsion

> <Gold.Protein.ActiveResidues>
 VAL166  LYS551  ARG553  GLY616  TRP617  ASP618  TYR619  PRO620  LYS621  CYS622 
 ASP623  PHE694  ASN695  SER759  ASP760  ASP761  ALA762  ILE779  LEU786  VAL792 
 PHE793  MET794  SER795  GLU796  ALA797  LYS798  CYS799  TRP800  GLU811  SER814 

> <Gold.Protein.RotatedAtoms>
  152.2853  134.7782  160.0388 H   0  0  0  0  0  0  0  0  0  0  0  0  # atno 6907 bound_to 6896
  151.8347  133.3409  159.3632 H   0  0  0  0  0  0  0  0  0  0  0  0  # atno 6908 bound_to 6896
  150.7207  134.5378  159.5776 H   0  0  0  0  0  0  0  0  0  0  0  0  # atno 6909 bound_to 6896
  146.1445  139.6444  142.9140 H   0  0  0  0  0  0  0  0  0  0  0  0  # atno 7974 bound_to 7965
  154.7422  140.2751  155.6363 H   0  0  0  0  0  0  0  0  0  0  0  0  # atno 8008 bound_to 7997
  156.2876  140.2695  156.2078 H   0  0  0  0  0  0  0  0  0  0  0  0  # atno 8009 bound_to 7997
  155.0244  140.0371  157.2439 H   0  0  0  0  0  0  0  0  0  0  0  0  # atno 8010 bound_to 7997
  140.3298  144.2602  150.6170 H   0  0  0  0  0  0  0  0  0  0  0  0  # atno 10167 bound_to 10162
  156.7751  130.5312  149.5760 H   0  0  0  0  0  0  0  0  0  0  0  0  # atno 10718 bound_to 10713
  154.8578  135.3553  154.5708 H   0  0  0  0  0  0  0  0  0  0  0  0  # atno 10763 bound_to 10752
  153.6320  135.7002  153.5276 H   0  0  0  0  0  0  0  0  0  0  0  0  # atno 10764 bound_to 10752
  153.3041  135.4197  155.1238 H   0  0  0  0  0  0  0  0  0  0  0  0  # atno 10765 bound_to 10752
  140.8640  134.2133  157.4691 H   0  0  0  0  0  0  0  0  0  0  0  0  # atno 11005 bound_to 11000
  145.4970  141.0438  143.2562 LP  0  0  0  0  0  0  0  0  0  0  0  0  # atno 17320 bound_to 7965
  144.7830  139.6485  143.7146 LP  0  0  0  0  0  0  0  0  0  0  0  0  # atno 17321 bound_to 7965
  140.5407  143.2224  151.8089 LP  0  0  0  0  0  0  0  0  0  0  0  0  # atno 17342 bound_to 10162
  139.4858  144.4603  151.9548 LP  0  0  0  0  0  0  0  0  0  0  0  0  # atno 17343 bound_to 10162
  156.1253  130.6139  151.0254 LP  0  0  0  0  0  0  0  0  0  0  0  0  # atno 17370 bound_to 10713
  157.6672  131.0869  150.7699 LP  0  0  0  0  0  0  0  0  0  0  0  0  # atno 17371 bound_to 10713
  139.8708  134.9743  156.4841 LP  0  0  0  0  0  0  0  0  0  0  0  0  # atno 17394 bound_to 11000
  140.8650  133.8031  155.9304 LP  0  0  0  0  0  0  0  0  0  0  0  0  # atno 17395 bound_to 11000

$$$$
