AV-unprocessed.smi:2451|AV-procd|sdf|9672|dock8
  -GOLD-   2272013313D 1   1.00000     0.00000
 Structure written by MMmdl.
 38 39  0  0  0  0  0  0  0  0  1 V2000
  152.4139  143.4356  161.3551 C   0  0  0  0  0  0  0  0  0  0  0  0
  153.1178  143.3257  159.9866 C   0  0  1  0  0  0  0  0  0  0  0  0
  153.9323  142.0213  159.8739 C   0  0  0  0  0  0  0  0  0  0  0  0
  153.0306  140.7869  159.7194 C   0  0  0  0  0  0  0  0  0  0  0  0
  152.0976  140.9354  158.5102 C   0  0  0  0  0  0  0  0  0  0  0  0
  151.2705  142.2336  158.5760 C   0  0  2  0  0  0  0  0  0  0  0  0
  150.4937  142.3558  157.3386 N   0  0  0  0  0  0  0  0  0  0  0  0
  149.2222  141.2295  157.0422 S   0  0  0  0  0  0  0  0  0  0  0  0
  149.2314  140.2523  158.1415 O   0  0  0  0  0  0  0  0  0  0  0  0
  148.0023  142.0005  156.7550 O   0  0  0  0  0  0  0  0  0  0  0  0
  149.7744  140.4043  155.4907 C   0  0  0  0  0  0  0  0  0  0  0  0
  150.9670  139.5380  155.7780 C   0  0  0  0  0  0  0  0  0  0  0  0
  151.1403  138.5929  156.8269 C   0  0  0  0  0  0  0  0  0  0  0  0
  152.3950  138.1014  156.6089 C   0  0  0  0  0  0  0  0  0  0  0  0
  152.9509  138.6860  155.5177 O   0  0  0  0  0  0  0  0  0  0  0  0
  152.0309  139.6009  154.9930 N   0  0  0  0  0  0  0  0  0  0  0  0
  152.1685  143.4822  158.7675 C   0  0  1  0  0  0  0  0  0  0  0  0
  151.3567  144.7914  158.8300 C   0  0  0  0  0  0  0  0  0  0  0  0
  151.6195  142.6988  161.4702 H   0  0  0  0  0  0  0  0  0  0  0  0
  151.9738  144.4216  161.5022 H   0  0  0  0  0  0  0  0  0  0  0  0
  153.1224  143.2825  162.1695 H   0  0  0  0  0  0  0  0  0  0  0  0
  153.8343  144.1474  159.9475 H   0  0  0  0  0  0  0  0  0  0  0  0
  154.5966  142.0862  159.0111 H   0  0  0  0  0  0  0  0  0  0  0  0
  154.5801  141.9039  160.7434 H   0  0  0  0  0  0  0  0  0  0  0  0
  153.6450  139.8937  159.6033 H   0  0  0  0  0  0  0  0  0  0  0  0
  152.4419  140.6356  160.6246 H   0  0  0  0  0  0  0  0  0  0  0  0
  152.6964  140.9270  157.5980 H   0  0  0  0  0  0  0  0  0  0  0  0
  151.4345  140.0714  158.4499 H   0  0  0  0  0  0  0  0  0  0  0  0
  150.5810  142.1630  159.4180 H   0  0  0  0  0  0  0  0  0  0  0  0
  151.1032  142.4510  156.5266 H   0  0  0  0  0  0  0  0  0  0  0  0
  148.9464  139.8091  155.1063 H   0  0  0  0  0  0  0  0  0  0  0  0
  150.0039  141.1731  154.7523 H   0  0  0  0  0  0  0  0  0  0  0  0
  150.4544  138.3229  157.6161 H   0  0  0  0  0  0  0  0  0  0  0  0
  153.0034  137.3674  157.1166 H   0  0  0  0  0  0  0  0  0  0  0  0
  152.8079  143.5563  157.8860 H   0  0  0  0  0  0  0  0  0  0  0  0
  150.5999  144.7588  159.6140 H   0  0  0  0  0  0  0  0  0  0  0  0
  150.8392  144.9842  157.8900 H   0  0  0  0  0  0  0  0  0  0  0  0
  152.0040  145.6471  159.0224 H   0  0  0  0  0  0  0  0  0  0  0  0
  1  2  1  0  0  0  0
  1 19  1  0  0  0  0
  1 20  1  0  0  0  0
  1 21  1  0  0  0  0
  2 17  1  0  0  0  0
  2  3  1  0  0  0  0
  2 22  1  0  0  0  0
  3  4  1  0  0  0  0
  3 23  1  0  0  0  0
  3 24  1  0  0  0  0
  4  5  1  0  0  0  0
  4 25  1  0  0  0  0
  4 26  1  0  0  0  0
  5  6  1  0  0  0  0
  5 27  1  0  0  0  0
  5 28  1  0  0  0  0
  6  7  1  0  0  0  0
  6 17  1  0  0  0  0
  6 29  1  0  0  0  0
  7  8  1  0  0  0  0
  7 30  1  0  0  0  0
  8  9  2  0  0  0  0
  8 10  2  0  0  0  0
  8 11  1  0  0  0  0
 11 12  1  0  0  0  0
 11 31  1  0  0  0  0
 11 32  1  0  0  0  0
 12 16  2  0  0  0  0
 12 13  1  0  0  0  0
 13 14  2  0  0  0  0
 13 33  1  0  0  0  0
 14 15  1  0  0  0  0
 14 34  1  0  0  0  0
 15 16  1  0  0  0  0
 17 18  1  0  0  0  0
 17 35  1  0  0  0  0
 18 36  1  0  0  0  0
 18 37  1  0  0  0  0
 18 38  1  0  0  0  0
M  END
> <s_m_source_file>
AV-unprocessed.smi

> <i_m_source_file_index>
2451

> <i_lp_mmshare_version>
43012

> <i_f3d_flags>
0

> <s_epik_input>
W0NIM11bQ0BASF0xW0NIMl1bQ0gyXVtDSDJdW0NASF0oW0NASF0xW0NIM10pW05IXVMoPU8pKD1PKVtDSDJdYzJbY0hdW2NIXW9uMg==

> <s_epik_cmdline>
J2VwaWtfcHl0aG9uJywgJy1waCcsICc3LjAnLCAnLXRuJywgJzgnLCAnLW1hJywgJzIwMCcsICctbWV0YWxfYmluZGluZycsICctaW1hZScsICc8aW5maWxlLm1hZT4nLCAnLW9tYWUnLCAnPG91dGZpbGUubWFlPic=

> <r_lp_tautomer_probability>
1

> <r_epik_Ionization_Penalty>
8.73668e-05

> <r_epik_Ionization_Penalty_Charging>
0

> <r_epik_Ionization_Penalty_Neutral>
8.73668e-05

> <r_epik_State_Penalty>
-0

> <r_epik_Charging_Adjusted_Penalty>
0

> <i_epik_Tot_Q>
0

> <i_epik_Tot_abs_Q>
0

> <r_epik_Metal_State_Penalty>
0.0716439

> <b_epik_Metal_Only>
0

> <s_lp_Force_Field>
OPLS_2005

> <r_lp_Energy>
8.38809

> <b_lp_Chiralities_Consistent>
1

> <s_lp_Variant>
AV-unprocessed.smi:2451-4

> <Gold.Version>
5.8.1

> <Gold.Id.Protein>
6NUR|6NUR_protein|mol2

> <Gold.PLP.Fitness>
41.7608

> <Gold.PLP.PLP>
-37.2482

> <Gold.PLP.part.hbond>
-2.1155

> <Gold.PLP.part.metal>
0.0000

> <Gold.PLP.part.buried>
-5.3948

> <Gold.PLP.part.nonpolar>
-30.2179

> <Gold.PLP.part.repulsive>
1.0336

> <Gold.PLP.ligand.clash>
0.0000

> <Gold.PLP.ligand.torsion>
0.3681

> <Gold.PLP.Chemscore.Hbond>
1.7040

> <Gold.PLP.Chemscore.CHOScore>
0.0000

> <Gold.PLP.Chemscore.Metal>
0.0000

> <Gold.Chemscore.Hbonds>
donor molecule, donor type, donor heavy atom, donor atom, acceptor molecule, acceptor atom, score
      P1  H  7989  7998       L1    16  0.90
      P1  H  7997  8008       L1    15  0.62

> <Gold.PLP.Chemscore.Internal.Correction>
0.1368

> <Gold.Rescore>
     Score         DG    S(hbond)    S(metal)    S(lipo)     H(rot)  DE(clash)    DE(int)     intcor
     19.35     -19.68       1.76        0.00     107.56       1.66       0.04       0.29       ----

> <Gold.Chemscore.Fitness>
19.3474

> <Gold.Chemscore.DG>
-19.6811

> <Gold.Chemscore.ZeroCoef>
-5.4800

> <Gold.Chemscore.Hbond>
1.7555

> <Gold.Chemscore.Metal>
0.0000

> <Gold.Chemscore.Lipo>
107.5578

> <Gold.Chemscore.Internal_Hbond>
0.0000

> <Gold.Chemscore.DEClash>
0.0414

> <Gold.Chemscore.DEInternal>
0.2924

> <Gold.Chemscore.Rot>
1.6588

> <Gold.Chemscore.Internal.Correction>
   9.000000E+99

> <Gold.Chemscore.Hbonds>
donor molecule, donor type, donor heavy atom, donor atom, acceptor molecule, acceptor atom, score
      P1  H  7989  7998       L1    16  0.60
      P1  H  7997  8008       L1    15  0.07

> <Gold.Chemscore.Hbond.Weighted>
-5.8634

> <Gold.Chemscore.Metal.Weighted>
-0.0000

> <Gold.Chemscore.Lipo.Weighted>
-12.5843

> <Gold.Chemscore.Internal_Hbond.Weighted>
0.0000

> <Gold.Chemscore.DEClash.Weighted>
0.0414

> <Gold.Chemscore.DEInternal.Weighted>
0.2924

> <Gold.Chemscore.Rot.Weighted>
4.2466

> <Gold.Chemscore.Internal.Correction.Weighted>
   9.000000E+99

> <Gold.Protein.RotatedTorsions>
[ 6907 6896 6895 6894 ] final  148.93 input  -60.11 | X-H torsion
[ 7974 7965 7964 7962 ] final   48.23 input  175.53 | X-H torsion
[ 8008 7997 7996 7995 ] final  -27.98 input   59.86 | X-H torsion
[ 10167 10162 10161 10158 ] final -160.38 input  -65.29 | X-H torsion
[ 10718 10713 10712 10709 ] final -174.71 input   66.30 | X-H torsion
[ 10763 10752 10751 10750 ] final -158.84 input  -60.55 | X-H torsion
[ 11005 11000 10999 10996 ] final    3.79 input  -57.11 | X-H torsion

> <Gold.Protein.ActiveResidues>
 VAL166  LYS551  ARG553  GLY616  TRP617  ASP618  TYR619  PRO620  LYS621  CYS622 
 ASP623  PHE694  ASN695  SER759  ASP760  ASP761  ALA762  ILE779  LEU786  VAL792 
 PHE793  MET794  SER795  GLU796  ALA797  LYS798  CYS799  TRP800  GLU811  SER814 

> <Gold.Protein.RotatedAtoms>
  152.1349  133.4429  159.4738 H   0  0  0  0  0  0  0  0  0  0  0  0  # atno 6907 bound_to 6896
  150.6881  134.2376  159.4468 H   0  0  0  0  0  0  0  0  0  0  0  0  # atno 6908 bound_to 6896
  152.0262  134.9794  160.0622 H   0  0  0  0  0  0  0  0  0  0  0  0  # atno 6909 bound_to 6896
  146.0223  139.4666  142.9889 H   0  0  0  0  0  0  0  0  0  0  0  0  # atno 7974 bound_to 7965
  154.4353  140.1858  156.1017 H   0  0  0  0  0  0  0  0  0  0  0  0  # atno 8008 bound_to 7997
  156.0287  140.3333  155.7090 H   0  0  0  0  0  0  0  0  0  0  0  0  # atno 8009 bound_to 7997
  155.5871  140.0627  157.2759 H   0  0  0  0  0  0  0  0  0  0  0  0  # atno 8010 bound_to 7997
  139.6544  144.0026  152.2183 H   0  0  0  0  0  0  0  0  0  0  0  0  # atno 10167 bound_to 10162
  156.7891  130.9511  151.3120 H   0  0  0  0  0  0  0  0  0  0  0  0  # atno 10718 bound_to 10713
  154.7524  135.3096  154.8533 H   0  0  0  0  0  0  0  0  0  0  0  0  # atno 10763 bound_to 10752
  153.9317  135.6784  153.4749 H   0  0  0  0  0  0  0  0  0  0  0  0  # atno 10764 bound_to 10752
  153.1120  135.4862  154.8980 H   0  0  0  0  0  0  0  0  0  0  0  0  # atno 10765 bound_to 10752
  140.5892  133.9940  155.8081 H   0  0  0  0  0  0  0  0  0  0  0  0  # atno 11005 bound_to 11000
  145.7173  141.0087  143.1421 LP  0  0  0  0  0  0  0  0  0  0  0  0  # atno 17320 bound_to 7965
  144.6995  139.8828  143.7448 LP  0  0  0  0  0  0  0  0  0  0  0  0  # atno 17321 bound_to 7965
  139.9748  144.6469  150.7955 LP  0  0  0  0  0  0  0  0  0  0  0  0  # atno 17342 bound_to 10162
  140.7552  143.3042  151.3003 LP  0  0  0  0  0  0  0  0  0  0  0  0  # atno 17343 bound_to 10162
  157.6609  130.8965  149.9828 LP  0  0  0  0  0  0  0  0  0  0  0  0  # atno 17370 bound_to 10713
  156.1170  130.3647  149.9951 LP  0  0  0  0  0  0  0  0  0  0  0  0  # atno 17371 bound_to 10713
  141.0946  133.9864  157.3181 LP  0  0  0  0  0  0  0  0  0  0  0  0  # atno 17394 bound_to 11000
  139.9282  135.0201  156.8307 LP  0  0  0  0  0  0  0  0  0  0  0  0  # atno 17395 bound_to 11000

$$$$
