AV-unprocessed.smi:3189|AV-procd|sdf|12189|dock4
  -GOLD-   2272018 33D 1   1.00000     0.00000
 Structure written by MMmdl.
 30 31  0  0  0  0  0  0  0  0  1 V2000
  147.0581  139.5298  153.1532 C   0  0  0  0  0  0  0  0  0  0  0  0
  148.3361  139.7338  153.9454 C   0  0  0  0  0  0  0  0  0  0  0  0
  149.1646  138.6682  154.0034 N   0  0  0  0  0  0  0  0  0  0  0  0
  150.3184  138.7979  154.6897 C   0  0  0  0  0  0  0  0  0  0  0  0
  150.6976  139.9815  155.3511 C   0  0  0  0  0  0  0  0  0  0  0  0
  149.8245  141.0945  155.3057 C   0  0  0  0  0  0  0  0  0  0  0  0
  150.1173  142.3435  155.9190 N   0  0  0  0  0  0  0  0  0  0  0  0
  151.0055  142.6209  156.8936 C   0  0  0  0  0  0  0  0  0  0  0  0
  151.7078  141.7860  157.4602 O   0  0  0  0  0  0  0  0  0  0  0  0
  151.0192  143.9116  157.2701 N   0  0  0  0  0  0  0  0  0  0  0  0
  151.8439  144.5171  158.2728 C   0  0  2  0  0  0  0  0  0  0  0  0
  152.0895  143.7203  159.5353 C   0  0  0  0  0  0  0  0  0  0  0  0
  151.2224  144.9515  159.5865 C   0  0  2  0  0  0  0  0  0  0  0  0
  149.7325  144.8419  159.8450 C   0  0  0  0  0  0  0  0  0  0  0  0
  148.6209  140.9691  154.5732 C   0  0  0  0  0  0  0  0  0  0  0  0
  147.5153  142.2974  154.4537 Cl  0  0  0  0  0  0  0  0  0  0  0  0
  146.1882  139.6781  153.7936 H   0  0  0  0  0  0  0  0  0  0  0  0
  147.0012  138.5241  152.7346 H   0  0  0  0  0  0  0  0  0  0  0  0
  147.0052  140.2414  152.3286 H   0  0  0  0  0  0  0  0  0  0  0  0
  150.9643  137.9326  154.7066 H   0  0  0  0  0  0  0  0  0  0  0  0
  151.6463  140.0160  155.8638 H   0  0  0  0  0  0  0  0  0  0  0  0
  149.5303  143.1119  155.6287 H   0  0  0  0  0  0  0  0  0  0  0  0
  150.3055  144.5049  156.8719 H   0  0  0  0  0  0  0  0  0  0  0  0
  152.7007  145.0927  157.9251 H   0  0  0  0  0  0  0  0  0  0  0  0
  151.6005  142.7521  159.6293 H   0  0  0  0  0  0  0  0  0  0  0  0
  153.0778  143.7850  159.9859 H   0  0  0  0  0  0  0  0  0  0  0  0
  151.6712  145.8324  160.0413 H   0  0  0  0  0  0  0  0  0  0  0  0
  149.3323  143.9058  159.4541 H   0  0  0  0  0  0  0  0  0  0  0  0
  149.2093  145.6708  159.3680 H   0  0  0  0  0  0  0  0  0  0  0  0
  149.5365  144.8777  160.9167 H   0  0  0  0  0  0  0  0  0  0  0  0
  1  2  1  0  0  0  0
  1 17  1  0  0  0  0
  1 18  1  0  0  0  0
  1 19  1  0  0  0  0
  2 15  1  0  0  0  0
  2  3  2  0  0  0  0
  3  4  1  0  0  0  0
  4  5  2  0  0  0  0
  4 20  1  0  0  0  0
  5  6  1  0  0  0  0
  5 21  1  0  0  0  0
  6  7  1  0  0  0  0
  6 15  2  0  0  0  0
  7  8  1  0  0  0  0
  7 22  1  0  0  0  0
  8  9  2  0  0  0  0
  8 10  1  0  0  0  0
 10 11  1  0  0  0  0
 10 23  1  0  0  0  0
 11 13  1  0  0  0  0
 11 12  1  0  0  0  0
 11 24  1  0  0  0  0
 12 13  1  0  0  0  0
 12 25  1  0  0  0  0
 12 26  1  0  0  0  0
 13 14  1  0  0  0  0
 13 27  1  0  0  0  0
 14 28  1  0  0  0  0
 14 29  1  0  0  0  0
 14 30  1  0  0  0  0
 15 16  1  0  0  0  0
M  END
> <s_m_source_file>
AV-unprocessed.smi

> <i_m_source_file_index>
3189

> <i_lp_mmshare_version>
43012

> <i_f3d_flags>
0

> <s_epik_input>
W0NIM11jMW5bY0hdW2NIXWMoYzFDbClbTkhdQyg9TylbTkhdW0NAQEhdMltDSDJdW0NASF0yW0NIM10=

> <s_epik_cmdline>
J2VwaWtfcHl0aG9uJywgJy1waCcsICc3LjAnLCAnLXRuJywgJzgnLCAnLW1hJywgJzIwMCcsICctbWV0YWxfYmluZGluZycsICctaW1hZScsICc8aW5maWxlLm1hZT4nLCAnLW9tYWUnLCAnPG91dGZpbGUubWFlPic=

> <r_epik_Ionization_Penalty>
0.00994309

> <r_epik_Ionization_Penalty_Charging>
0

> <r_epik_Ionization_Penalty_Neutral>
0.00994309

> <r_epik_State_Penalty>
0.00754503

> <r_epik_Charging_Adjusted_Penalty>
0.00754503

> <i_epik_Tot_Q>
0

> <i_epik_Tot_abs_Q>
0

> <r_epik_Metal_State_Penalty>
0.00742071

> <b_epik_Metal_Only>
0

> <s_lp_Force_Field>
OPLS_2005

> <r_lp_Energy>
34.6575

> <b_lp_Chiralities_Consistent>
1

> <s_lp_Variant>
AV-unprocessed.smi:3189-3

> <Gold.Version>
5.8.1

> <Gold.Id.Protein>
6NUR|6NUR_protein|mol2

> <Gold.PLP.Fitness>
42.0447

> <Gold.PLP.PLP>
-36.5661

> <Gold.PLP.part.hbond>
-2.0000

> <Gold.PLP.part.metal>
0.0000

> <Gold.PLP.part.buried>
-0.6631

> <Gold.PLP.part.nonpolar>
-34.0323

> <Gold.PLP.part.repulsive>
0.4148

> <Gold.PLP.ligand.clash>
0.0000

> <Gold.PLP.ligand.torsion>
0.2801

> <Gold.PLP.Chemscore.Hbond>
2.0000

> <Gold.PLP.Chemscore.CHOScore>
0.0000

> <Gold.PLP.Chemscore.Metal>
0.0000

> <Gold.Chemscore.Hbonds>
donor molecule, donor type, donor heavy atom, donor atom, acceptor molecule, acceptor atom, score
      L1  H     7    22       P1  8028  1.00
      L1  H    10    23       P1  8028  1.00

> <Gold.PLP.Chemscore.Internal.Correction>
0.0388

> <Gold.Rescore>
     Score         DG    S(hbond)    S(metal)    S(lipo)     H(rot)  DE(clash)    DE(int)     intcor
     16.59     -19.52       1.86        0.00      88.84       1.00       0.25       2.69       ----

> <Gold.Chemscore.Fitness>
16.5917

> <Gold.Chemscore.DG>
-19.5243

> <Gold.Chemscore.ZeroCoef>
-5.4800

> <Gold.Chemscore.Hbond>
1.8594

> <Gold.Chemscore.Metal>
0.0000

> <Gold.Chemscore.Lipo>
88.8368

> <Gold.Chemscore.Internal_Hbond>
0.0000

> <Gold.Chemscore.DEClash>
0.2465

> <Gold.Chemscore.DEInternal>
2.6861

> <Gold.Chemscore.Rot>
1.0000

> <Gold.Chemscore.Internal.Correction>
   9.000000E+99

> <Gold.Chemscore.Hbonds>
donor molecule, donor type, donor heavy atom, donor atom, acceptor molecule, acceptor atom, score
      L1  H     7    22       P1  8028  0.99
      L1  H    10    23       P1  8028  0.81

> <Gold.Chemscore.Hbond.Weighted>
-6.2104

> <Gold.Chemscore.Metal.Weighted>
-0.0000

> <Gold.Chemscore.Lipo.Weighted>
-10.3939

> <Gold.Chemscore.Internal_Hbond.Weighted>
0.0000

> <Gold.Chemscore.DEClash.Weighted>
0.2465

> <Gold.Chemscore.DEInternal.Weighted>
2.6861

> <Gold.Chemscore.Rot.Weighted>
2.5600

> <Gold.Chemscore.Internal.Correction.Weighted>
   9.000000E+99

> <Gold.Protein.RotatedTorsions>
[ 6907 6896 6895 6894 ] final -164.86 input  -60.11 | X-H torsion
[ 7974 7965 7964 7962 ] final  -23.92 input  175.53 | X-H torsion
[ 8008 7997 7996 7995 ] final -171.34 input   59.86 | X-H torsion
[ 10167 10162 10161 10158 ] final   29.89 input  -65.29 | X-H torsion
[ 10718 10713 10712 10709 ] final   12.09 input   66.30 | X-H torsion
[ 10763 10752 10751 10750 ] final -179.55 input  -60.55 | X-H torsion
[ 11005 11000 10999 10996 ] final   96.07 input  -57.11 | X-H torsion

> <Gold.Protein.ActiveResidues>
 VAL166  LYS551  ARG553  GLY616  TRP617  ASP618  TYR619  PRO620  LYS621  CYS622 
 ASP623  PHE694  ASN695  SER759  ASP760  ASP761  ALA762  ILE779  LEU786  VAL792 
 PHE793  MET794  SER795  GLU796  ALA797  LYS798  CYS799  TRP800  GLU811  SER814 

> <Gold.Protein.RotatedAtoms>
  151.4186  133.3705  159.2752 H   0  0  0  0  0  0  0  0  0  0  0  0  # atno 6907 bound_to 6896
  150.9310  134.8726  159.7562 H   0  0  0  0  0  0  0  0  0  0  0  0  # atno 6908 bound_to 6896
  152.5028  134.4130  159.9507 H   0  0  0  0  0  0  0  0  0  0  0  0  # atno 6909 bound_to 6896
  146.1587  140.4681  142.8580 H   0  0  0  0  0  0  0  0  0  0  0  0  # atno 7974 bound_to 7965
  155.9302  140.1090  157.1138 H   0  0  0  0  0  0  0  0  0  0  0  0  # atno 8008 bound_to 7997
  154.4069  140.1239  156.4858 H   0  0  0  0  0  0  0  0  0  0  0  0  # atno 8009 bound_to 7997
  155.7089  140.3471  155.4967 H   0  0  0  0  0  0  0  0  0  0  0  0  # atno 8010 bound_to 7997
  140.4726  144.0739  150.6241 H   0  0  0  0  0  0  0  0  0  0  0  0  # atno 10167 bound_to 10162
  157.0051  130.6095  149.5701 H   0  0  0  0  0  0  0  0  0  0  0  0  # atno 10718 bound_to 10713
  154.5336  135.2801  155.1158 H   0  0  0  0  0  0  0  0  0  0  0  0  # atno 10763 bound_to 10752
  154.2669  135.6311  153.5299 H   0  0  0  0  0  0  0  0  0  0  0  0  # atno 10764 bound_to 10752
  152.9962  135.5619  154.5856 H   0  0  0  0  0  0  0  0  0  0  0  0  # atno 10765 bound_to 10752
  139.8784  134.8932  156.4104 H   0  0  0  0  0  0  0  0  0  0  0  0  # atno 11005 bound_to 11000
  144.7997  140.6190  143.6486 LP  0  0  0  0  0  0  0  0  0  0  0  0  # atno 17320 bound_to 7965
  145.4644  139.1509  143.3848 LP  0  0  0  0  0  0  0  0  0  0  0  0  # atno 17321 bound_to 7965
  140.3958  143.2729  152.0006 LP  0  0  0  0  0  0  0  0  0  0  0  0  # atno 17342 bound_to 10162
  139.4821  144.6039  151.7556 LP  0  0  0  0  0  0  0  0  0  0  0  0  # atno 17343 bound_to 10162
  156.0156  130.5250  150.8125 LP  0  0  0  0  0  0  0  0  0  0  0  0  # atno 17370 bound_to 10713
  157.5362  131.0939  150.9890 LP  0  0  0  0  0  0  0  0  0  0  0  0  # atno 17371 bound_to 10713
  140.9204  133.7649  155.9900 LP  0  0  0  0  0  0  0  0  0  0  0  0  # atno 17394 bound_to 11000
  140.8446  134.3026  157.5300 LP  0  0  0  0  0  0  0  0  0  0  0  0  # atno 17395 bound_to 11000

$$$$
