#       Name:                AV-unprocessed.smi:290
#       Creating user name   scv26
#       Creation time:       Thu Mar 26 22:08:18 2020


#       File generated by GOLD software.
#

@<TRIPOS>MOLECULE
AV-unprocessed.smi:290
    69    72     1
SMALL
NO_CHARGES


@<TRIPOS>ATOM
      1 ****        -6.3930  -3.5039   1.1269 C.3            1 S1                 0.0000
      2 ****        -5.6584  -3.6396  -0.2159 C.3            1 S1                 0.0000
      3 ****        -5.5364  -5.0291  -0.5073 O.3            1 S1                 0.0000
      4 ****        -4.3748  -5.2269  -1.2931 C.3            1 S1                 0.0000
      5 ****        -3.3731  -4.2957  -0.6282 C.3            1 S1                 0.0000
      6 ****        -4.2140  -3.0666  -0.2893 C.3            1 S1                 0.0000
      7 ****        -4.1535  -2.1859  -1.3989 O.3            1 S1                 0.0000
      8 ****        -3.7113  -2.3009   0.9631 C.3            1 S1                 0.0000
      9 ****        -2.3385  -1.8347   0.8415 N.pl3          1 S1                 0.0000
     10 ****        -1.1999  -2.5207   1.1986 C.2            1 S1                 0.0000
     11 ****        -0.0790  -1.8899   0.9792 N.2            1 S1                 0.0000
     12 ****        -0.4731  -0.6697   0.4418 C.ar           1 S1                 0.0000
     13 ****         0.2248   0.4812  -0.0252 C.ar           1 S1                 0.0000
     14 ****         1.5804   0.5823  -0.0059 N.3            1 S1                 0.0000
     15 ****         2.2610   0.1828   1.2237 C.3            1 S1                 0.0000
     16 ****         3.4570   1.1265   1.3872 C.3            1 S1                 0.0000
     17 ****         3.6955   1.6268  -0.0414 C.3            1 S1                 0.0000
     18 ****         4.4905   2.8816  -0.1676 N.4            1 S1                 1.0000
     19 ****         5.9447   2.6359  -0.0205 C.3            1 S1                 0.0000
     20 ****         4.0180   4.0305   0.6525 C.3            1 S1                 0.0000
     21 ****         4.2515   5.3707  -0.0618 C.3            1 S1                 0.0000
     22 ****         3.4050   5.4706  -1.1880 O.3            1 S1                 0.0000
     23 ****         2.2771   1.7106  -0.6226 C.3            1 S1                 0.0000
     24 ****         2.2577   1.6511  -2.1607 C.3            1 S1                 0.0000
     25 ****        -0.5240   1.5096  -0.5055 N.ar           1 S1                 0.0000
     26 ****        -1.8574   1.4257  -0.5270 C.ar           1 S1                 0.0000
     27 ****        -2.6361   0.4201  -0.1251 N.ar           1 S1                 0.0000
     28 ****        -1.8933  -0.6189   0.3526 C.ar           1 S1                 0.0000
     29 ****         4.2192   0.8367  -0.5839 H              1 S1                 0.0000
     30 ****         1.7897   2.6287  -0.2969 H              1 S1                 0.0000
     31 ****        -6.5333  -2.4584   1.4014 H              1 S1                 0.0000
     32 ****        -5.8516  -4.0005   1.9322 H              1 S1                 0.0000
     33 ****        -7.3813  -3.9606   1.0701 H              1 S1                 0.0000
     34 ****        -6.2823  -3.1966  -0.9949 H              1 S1                 0.0000
     35 ****        -4.0536  -6.2685  -1.2860 H              1 S1                 0.0000
     36 ****        -4.5678  -4.9281  -2.3246 H              1 S1                 0.0000
     37 ****        -3.0126  -4.7684   0.2863 H              1 S1                 0.0000
     38 ****        -2.5057  -4.0800  -1.2540 H              1 S1                 0.0000
     39 ****        -4.6905  -1.4307  -1.2131 H              1 S1                 0.0000
     40 ****        -4.3476  -1.4382   1.1650 H              1 S1                 0.0000
     41 ****        -3.7644  -2.9375   1.8466 H              1 S1                 0.0000
     42 ****        -1.2261  -3.5138   1.6230 H              1 S1                 0.0000
     43 ****         1.6066   0.2264   2.0957 H              1 S1                 0.0000
     44 ****         2.6033  -0.8464   1.1105 H              1 S1                 0.0000
     45 ****         3.1750   1.9375   2.0583 H              1 S1                 0.0000
     46 ****         4.3274   0.6279   1.8145 H              1 S1                 0.0000
     47 ****         6.1829   2.2863   0.9847 H              1 S1                 0.0000
     48 ****         6.5204   3.5418  -0.2087 H              1 S1                 0.0000
     49 ****         6.2841   1.8826  -0.7320 H              1 S1                 0.0000
     50 ****         2.9573   3.9510   0.8867 H              1 S1                 0.0000
     51 ****         4.5328   4.0239   1.6145 H              1 S1                 0.0000
     52 ****         4.0243   6.1977   0.6116 H              1 S1                 0.0000
     53 ****         5.2893   5.4895  -0.3722 H              1 S1                 0.0000
     54 ****         2.5073   5.4995  -0.8923 H              1 S1                 0.0000
     55 ****         2.8173   2.4831  -2.5886 H              1 S1                 0.0000
     56 ****         1.2439   1.7060  -2.5563 H              1 S1                 0.0000
     57 ****         2.7045   0.7264  -2.5274 H              1 S1                 0.0000
     58 ****        -2.3745   2.2868  -0.9240 H              1 S1                 0.0000
     59 ****         4.3596   3.1699  -1.1273 H              1 S1                 0.0000
     60 ****        -6.3417  -5.3390  -1.0128 LP             1 S1                 0.0000
     61 ****        -5.4584  -5.5462   0.3450 LP             1 S1                 0.0000
     62 ****        -4.4952  -2.6496  -2.2164 LP             1 S1                 0.0000
     63 ****        -3.2078  -1.8981  -1.5497 LP             1 S1                 0.0000
     64 ****         0.8512  -2.2108   1.1570 LP             1 S1                 0.0000
     65 ****         1.6736  -0.1368  -0.6945 LP             1 S1                 0.0000
     66 ****         3.5384   4.6761  -1.7805 LP             1 S1                 0.0000
     67 ****         3.6186   6.3050  -1.6962 LP             1 S1                 0.0000
     68 ****        -0.0733   2.3351  -0.8453 LP             1 S1                 0.0000
     69 ****        -3.6352   0.4272  -0.1685 LP             1 S1                 0.0000
@<TRIPOS>BOND
    1    1    2 1     
    2    1   31 1     
    3    1   32 1     
    4    1   33 1     
    5    2    6 1     
    6    2    3 1     
    7    2   34 1     
    8    3    4 1     
    9    4    5 1     
   10    4   35 1     
   11    4   36 1     
   12    5    6 1     
   13    5   37 1     
   14    5   38 1     
   15    6    7 1     
   16    6    8 1     
   17    7   39 1     
   18    8    9 1     
   19    8   40 1     
   20    8   41 1     
   21    9   28 1     
   22    9   10 1     
   23   10   11 2     
   24   10   42 1     
   25   11   12 1     
   26   12   28 ar    
   27   12   13 ar    
   28   13   14 1     
   29   13   25 ar    
   30   14   23 1     
   31   14   15 1     
   32   15   16 1     
   33   15   43 1     
   34   15   44 1     
   35   16   17 1     
   36   16   45 1     
   37   16   46 1     
   38   17   29 1     
   39   17   18 1     
   40   17   23 1     
   41   18   19 1     
   42   18   20 1     
   43   18   59 1     
   44   19   47 1     
   45   19   48 1     
   46   19   49 1     
   47   20   21 1     
   48   20   50 1     
   49   20   51 1     
   50   21   22 1     
   51   21   52 1     
   52   21   53 1     
   53   22   54 1     
   54   23   30 1     
   55   23   24 1     
   56   24   55 1     
   57   24   56 1     
   58   24   57 1     
   59   25   26 ar    
   60   26   27 ar    
   61   26   58 1     
   62   27   28 ar    
   63    3   60 1     
   64    3   61 1     
   65    7   62 1     
   66    7   63 1     
   67   11   64 1     
   68   14   65 1     
   69   22   66 1     
   70   22   67 1     
   71   25   68 1     
   72   27   69 1     
@<TRIPOS>SUBSTRUCTURE
      1 S1             1
@<TRIPOS>SET
LONE_PAIRS      STATIC     ATOMS    <user>   **** ""
10 60 61 62 63 64 65 66 67 68 69
DONOR_HYDROGENS      STATIC     ATOMS    <user>   **** ""
3 39 59 54
ATOM$BLUE        STATIC     ATOMS    COLORGROUP SYSTEM
10 60 61 62 63 64 65 66 67 68 69
ATOM$RED        STATIC     ATOMS    COLORGROUP SYSTEM
3 39 59 54
