#       Name:                AV-unprocessed.smi:1117
#       Creating user name   scv26
#       Creation time:       Fri Mar 27 03:36:40 2020


#       File generated by GOLD software.
#

@<TRIPOS>MOLECULE
AV-unprocessed.smi:1117
    45    46     1
SMALL
NO_CHARGES


@<TRIPOS>ATOM
      1 ****        -2.6140  -1.9723   0.4580 C.3            1 S1                 0.0000
      2 ****        -2.1301  -1.7335   1.8989 C.3            1 S1                 0.0000
      3 ****        -2.9118  -0.5453   2.4983 C.3            1 S1                 0.0000
      4 ****        -2.3652  -3.0132   2.7278 C.3            1 S1                 0.0000
      5 ****        -0.6978  -1.4255   1.8203 N.am           1 S1                 0.0000
      6 ****         0.1521  -1.1217   2.8188 C.2            1 S1                 0.0000
      7 ****        -0.1677  -1.0777   4.0062 O.2            1 S1                 0.0000
      8 ****         1.5966  -0.8245   2.4108 C.3            1 S1                 0.0000
      9 ****         1.6587   0.4216   1.5748 C.2            1 S1                 0.0000
     10 ****         1.6890   1.7182   2.0284 C.2            1 S1                 0.0000
     11 ****         1.7353   2.8688   0.7206 S.3            1 S1                 0.0000
     12 ****         1.7339   1.5185  -0.4172 C.2            1 S1                 0.0000
     13 ****         1.7320   1.6320  -1.8400 N.am           1 S1                 0.0000
     14 ****         0.9315   0.6433  -2.5863 C.3            1 S1                 0.0000
     15 ****         0.3633   1.2304  -3.8802 C.3            1 S1                 0.0000
     16 ****         1.4908   1.8932  -4.6666 C.3            1 S1                 0.0000
     17 ****         2.3107   2.7220  -3.7908 N.am           1 S1                 0.0000
     18 ****         2.5196   2.5513  -2.4691 C.2            1 S1                 0.0000
     19 ****         3.3558   3.2441  -1.8904 O.2            1 S1                 0.0000
     20 ****         1.6843   0.3227   0.1793 N.2            1 S1                 0.0000
     21 ****        -3.6785  -2.2075   0.4307 H              1 S1                 0.0000
     22 ****        -2.0833  -2.8035  -0.0082 H              1 S1                 0.0000
     23 ****        -2.4567  -1.0914  -0.1660 H              1 S1                 0.0000
     24 ****        -2.7215   0.3751   1.9452 H              1 S1                 0.0000
     25 ****        -2.6486  -0.3641   3.5403 H              1 S1                 0.0000
     26 ****        -3.9864  -0.7287   2.4694 H              1 S1                 0.0000
     27 ****        -3.4175  -3.2994   2.7173 H              1 S1                 0.0000
     28 ****        -2.0807  -2.8831   3.7720 H              1 S1                 0.0000
     29 ****        -1.7931  -3.8533   2.3325 H              1 S1                 0.0000
     30 ****        -0.3067  -1.4290   0.8891 H              1 S1                 0.0000
     31 ****         2.2110  -0.7145   3.3054 H              1 S1                 0.0000
     32 ****         1.9958  -1.6817   1.8671 H              1 S1                 0.0000
     33 ****         1.6762   2.0648   3.0511 H              1 S1                 0.0000
     34 ****         1.5660  -0.2149  -2.8125 H              1 S1                 0.0000
     35 ****         0.1052   0.2729  -1.9773 H              1 S1                 0.0000
     36 ****        -0.1252   0.4596  -4.4772 H              1 S1                 0.0000
     37 ****        -0.3986   1.9726  -3.6374 H              1 S1                 0.0000
     38 ****         2.1317   1.1348  -5.1176 H              1 S1                 0.0000
     39 ****         1.0898   2.5006  -5.4783 H              1 S1                 0.0000
     40 ****         2.8559   3.4395  -4.2466 H              1 S1                 0.0000
     41 ****        -1.1097  -1.2748   4.2779 LP             1 S1                 0.0000
     42 ****         0.5143  -0.8449   4.6994 LP             1 S1                 0.0000
     43 ****         3.4871   3.1493  -0.9036 LP             1 S1                 0.0000
     44 ****         3.9040   3.9018  -2.4069 LP             1 S1                 0.0000
     45 ****         1.6673  -0.5455  -0.3167 LP             1 S1                 0.0000
@<TRIPOS>BOND
    1    1    2 1     
    2    1   21 1     
    3    1   22 1     
    4    1   23 1     
    5    2    3 1     
    6    2    4 1     
    7    2    5 1     
    8    3   24 1     
    9    3   25 1     
   10    3   26 1     
   11    4   27 1     
   12    4   28 1     
   13    4   29 1     
   14    5    6 am    
   15    5   30 1     
   16    6    7 2     
   17    6    8 1     
   18    8    9 1     
   19    8   31 1     
   20    8   32 1     
   21    9   20 1     
   22    9   10 2     
   23   10   11 1     
   24   10   33 1     
   25   11   12 1     
   26   12   13 1     
   27   12   20 2     
   28   13   18 am    
   29   13   14 1     
   30   14   15 1     
   31   14   34 1     
   32   14   35 1     
   33   15   16 1     
   34   15   36 1     
   35   15   37 1     
   36   16   17 1     
   37   16   38 1     
   38   16   39 1     
   39   17   18 am    
   40   17   40 1     
   41   18   19 2     
   42    7   41 1     
   43    7   42 1     
   44   19   43 1     
   45   19   44 1     
   46   20   45 1     
@<TRIPOS>SUBSTRUCTURE
      1 S1             1
@<TRIPOS>SET
LONE_PAIRS      STATIC     ATOMS    <user>   **** ""
5 41 42 43 44 45
DONOR_HYDROGENS      STATIC     ATOMS    <user>   **** ""
2 30 40
ATOM$BLUE        STATIC     ATOMS    COLORGROUP SYSTEM
5 41 42 43 44 45
ATOM$RED        STATIC     ATOMS    COLORGROUP SYSTEM
2 30 40
