AV-unprocessed.smi:2896|AV-procd|sdf|11137|dock3
  -GOLD-   2272016 13D 1   1.00000     0.00000
 Structure written by MMmdl.
 50 51  0  0  0  0  0  0  0  0  2 V2000
  146.5872  138.7899  151.3454 C   0  0  0  0  0  0  0  0  0  0  0  0
  146.2186  137.8628  152.5208 C   0  0  1  0  0  0  0  0  0  0  0  0
  145.5995  138.6536  153.6939 C   0  0  0  0  0  0  0  0  0  0  0  0
  146.3241  139.8897  153.9677 N   0  0  0  0  0  0  0  0  0  0  0  0
  146.0864  140.7159  155.0015 C   0  0  0  0  0  0  0  0  0  0  0  0
  145.1720  140.5187  155.8034 O   0  0  0  0  0  0  0  0  0  0  0  0
  147.0218  141.9409  155.1573 C   0  0  0  0  0  0  0  0  0  0  0  0
  146.8590  142.8138  153.8907 C   0  0  0  0  0  0  0  0  0  0  0  0
  146.5897  142.8029  156.3691 C   0  0  0  0  0  0  0  0  0  0  0  0
  148.4669  141.4464  155.3787 C   0  0  0  0  0  0  0  0  0  0  0  0
  149.1040  141.6360  156.6291 C   0  0  0  0  0  0  0  0  0  0  0  0
  150.4159  141.1649  156.8203 C   0  0  0  0  0  0  0  0  0  0  0  0
  151.0562  140.5180  155.7475 C   0  0  0  0  0  0  0  0  0  0  0  0
  150.4717  140.3272  154.5471 N   0  0  0  0  0  0  0  0  0  0  0  0
  149.2126  140.7827  154.3725 C   0  0  0  0  0  0  0  0  0  0  0  0
  145.2620  136.7377  152.0694 C   0  0  0  0  0  0  0  0  0  0  0  0
  145.9328  135.4174  151.9516 N   0  3  0  0  0  0  0  0  0  0  0  0
  146.0294  134.6807  153.2366 C   0  0  0  0  0  0  0  0  0  0  0  0
  146.7722  133.3488  153.0375 C   0  0  0  0  0  0  0  0  0  0  0  0
  146.1086  132.5748  152.0462 O   0  0  0  0  0  0  0  0  0  0  0  0
  146.0861  133.2321  150.7855 C   0  0  0  0  0  0  0  0  0  0  0  0
  145.3197  134.5599  150.9096 C   0  0  0  0  0  0  0  0  0  0  0  0
  145.7043  139.2858  150.9412 H   0  0  0  0  0  0  0  0  0  0  0  0
  147.0582  138.2363  150.5331 H   0  0  0  0  0  0  0  0  0  0  0  0
  147.2905  139.5648  151.6491 H   0  0  0  0  0  0  0  0  0  0  0  0
  147.1382  137.4099  152.8901 H   0  0  0  0  0  0  0  0  0  0  0  0
  144.5638  138.9098  153.4679 H   0  0  0  0  0  0  0  0  0  0  0  0
  145.5715  138.0411  154.5970 H   0  0  0  0  0  0  0  0  0  0  0  0
  147.0877  140.1198  153.3477 H   0  0  0  0  0  0  0  0  0  0  0  0
  147.1209  142.2714  152.9811 H   0  0  0  0  0  0  0  0  0  0  0  0
  147.4838  143.7064  153.9386 H   0  0  0  0  0  0  0  0  0  0  0  0
  145.8288  143.1529  153.7718 H   0  0  0  0  0  0  0  0  0  0  0  0
  146.5604  142.2317  157.2974 H   0  0  0  0  0  0  0  0  0  0  0  0
  145.5967  143.2320  156.2263 H   0  0  0  0  0  0  0  0  0  0  0  0
  147.2787  143.6345  156.5208 H   0  0  0  0  0  0  0  0  0  0  0  0
  148.5919  142.1262  157.4439 H   0  0  0  0  0  0  0  0  0  0  0  0
  150.9191  141.2954  157.7669 H   0  0  0  0  0  0  0  0  0  0  0  0
  152.0629  140.1428  155.8570 H   0  0  0  0  0  0  0  0  0  0  0  0
  148.8047  140.5947  153.3916 H   0  0  0  0  0  0  0  0  0  0  0  0
  144.4190  136.6482  152.7566 H   0  0  0  0  0  0  0  0  0  0  0  0
  144.8362  137.0179  151.1045 H   0  0  0  0  0  0  0  0  0  0  0  0
  146.5566  135.2745  153.9824 H   0  0  0  0  0  0  0  0  0  0  0  0
  145.0286  134.4924  153.6282 H   0  0  0  0  0  0  0  0  0  0  0  0
  147.8103  133.5205  152.7486 H   0  0  0  0  0  0  0  0  0  0  0  0
  146.7904  132.7863  153.9711 H   0  0  0  0  0  0  0  0  0  0  0  0
  147.1042  133.4008  150.4308 H   0  0  0  0  0  0  0  0  0  0  0  0
  145.5987  132.5831  150.0576 H   0  0  0  0  0  0  0  0  0  0  0  0
  144.2751  134.3680  151.1601 H   0  0  0  0  0  0  0  0  0  0  0  0
  145.3302  135.0778  149.9499 H   0  0  0  0  0  0  0  0  0  0  0  0
  146.8770  135.6017  151.6436 H   0  0  0  0  0  0  0  0  0  0  0  0
  1  2  1  0  0  0  0
  1 23  1  0  0  0  0
  1 24  1  0  0  0  0
  1 25  1  0  0  0  0
  2  3  1  0  0  0  0
  2 16  1  0  0  0  0
  2 26  1  0  0  0  0
  3  4  1  0  0  0  0
  3 27  1  0  0  0  0
  3 28  1  0  0  0  0
  4  5  1  0  0  0  0
  4 29  1  0  0  0  0
  5  6  2  0  0  0  0
  5  7  1  0  0  0  0
  7  8  1  0  0  0  0
  7  9  1  0  0  0  0
  7 10  1  0  0  0  0
  8 30  1  0  0  0  0
  8 31  1  0  0  0  0
  8 32  1  0  0  0  0
  9 33  1  0  0  0  0
  9 34  1  0  0  0  0
  9 35  1  0  0  0  0
 10 15  1  0  0  0  0
 10 11  2  0  0  0  0
 11 12  1  0  0  0  0
 11 36  1  0  0  0  0
 12 13  2  0  0  0  0
 12 37  1  0  0  0  0
 13 14  1  0  0  0  0
 13 38  1  0  0  0  0
 14 15  2  0  0  0  0
 15 39  1  0  0  0  0
 16 17  1  0  0  0  0
 16 40  1  0  0  0  0
 16 41  1  0  0  0  0
 17 22  1  0  0  0  0
 17 18  1  0  0  0  0
 17 50  1  0  0  0  0
 18 19  1  0  0  0  0
 18 42  1  0  0  0  0
 18 43  1  0  0  0  0
 19 20  1  0  0  0  0
 19 44  1  0  0  0  0
 19 45  1  0  0  0  0
 20 21  1  0  0  0  0
 21 22  1  0  0  0  0
 21 46  1  0  0  0  0
 21 47  1  0  0  0  0
 22 48  1  0  0  0  0
 22 49  1  0  0  0  0
M  CHG  1  17   1
M  END
> <s_m_source_file>
AV-unprocessed.smi

> <i_m_source_file_index>
2896

> <i_lp_mmshare_version>
43012

> <i_f3d_flags>
0

> <s_epik_input>
W0NIMl0xW0NIMl1PW0NIMl1bQ0gyXU4xW0NIMl1bQ0BIXShbQ0gzXSlbQ0gyXVtOSF1DKD1PKUMoW0NIM10pKFtDSDNdKWMyW2NIXVtjSF1bY0hdbltjSF0y

> <s_epik_cmdline>
J2VwaWtfcHl0aG9uJywgJy1waCcsICc3LjAnLCAnLXRuJywgJzgnLCAnLW1hJywgJzIwMCcsICctbWV0YWxfYmluZGluZycsICctaW1hZScsICc8aW5maWxlLm1hZT4nLCAnLW9tYWUnLCAnPG91dGZpbGUubWFlPic=

> <r_epik_Ionization_Penalty>
0.378644

> <r_epik_Ionization_Penalty_Charging>
0.372108

> <r_epik_Ionization_Penalty_Neutral>
0.0065361

> <r_epik_State_Penalty>
0.380038

> <r_epik_Charging_Adjusted_Penalty>
0.752147

> <i_epik_Tot_Q>
1

> <i_epik_Tot_abs_Q>
1

> <r_epik_Metal_State_Penalty>
0.375202

> <b_epik_Metal_Only>
0

> <s_lp_Force_Field>
OPLS_2005

> <r_lp_Energy>
23.8301

> <b_lp_Chiralities_Consistent>
1

> <s_lp_Variant>
AV-unprocessed.smi:2896-2

> <Gold.Version>
5.8.1

> <Gold.Id.Protein>
6NUR|6NUR_protein|mol2

> <Gold.PLP.Fitness>
46.1120

> <Gold.PLP.PLP>
-36.2477

> <Gold.PLP.part.hbond>
-2.6550

> <Gold.PLP.part.metal>
0.0000

> <Gold.PLP.part.buried>
-0.3309

> <Gold.PLP.part.nonpolar>
-33.5479

> <Gold.PLP.part.repulsive>
0.3451

> <Gold.PLP.ligand.clash>
0.0000

> <Gold.PLP.ligand.torsion>
1.3197

> <Gold.PLP.Chemscore.Hbond>
2.9920

> <Gold.PLP.Chemscore.CHOScore>
0.9942

> <Gold.PLP.Chemscore.Metal>
0.0000

> <Gold.Chemscore.Hbonds>
donor molecule, donor type, donor heavy atom, donor atom, acceptor molecule, acceptor atom, score
      L1  H    17    50       P1  7948  1.43
      P1  H  7989  7998       L1    14  1.00
      L1  C    15    39       P1  7957  1.00

> <Gold.PLP.Chemscore.Internal.Correction>
0.5450

> <Gold.Rescore>
     Score         DG    S(hbond)    S(metal)    S(lipo)     H(rot)  DE(clash)    DE(int)     intcor
     15.15     -17.07       1.78        0.00      87.07       1.78       0.33       1.59       ----

> <Gold.Chemscore.Fitness>
15.1501

> <Gold.Chemscore.DG>
-17.0742

> <Gold.Chemscore.ZeroCoef>
-5.4800

> <Gold.Chemscore.Hbond>
1.7834

> <Gold.Chemscore.Metal>
0.0000

> <Gold.Chemscore.Lipo>
87.0680

> <Gold.Chemscore.Internal_Hbond>
0.0000

> <Gold.Chemscore.DEClash>
0.3298

> <Gold.Chemscore.DEInternal>
1.5943

> <Gold.Chemscore.Rot>
1.7771

> <Gold.Chemscore.Internal.Correction>
   9.000000E+99

> <Gold.Chemscore.Hbonds>
donor molecule, donor type, donor heavy atom, donor atom, acceptor molecule, acceptor atom, score
      L1  H    17    50       P1  7948  0.70
      P1  H  7989  7998       L1    14  0.37

> <Gold.Chemscore.Hbond.Weighted>
-5.9566

> <Gold.Chemscore.Metal.Weighted>
-0.0000

> <Gold.Chemscore.Lipo.Weighted>
-10.1870

> <Gold.Chemscore.Internal_Hbond.Weighted>
0.0000

> <Gold.Chemscore.DEClash.Weighted>
0.3298

> <Gold.Chemscore.DEInternal.Weighted>
1.5943

> <Gold.Chemscore.Rot.Weighted>
4.5494

> <Gold.Chemscore.Internal.Correction.Weighted>
   9.000000E+99

> <Gold.Protein.RotatedTorsions>
[ 6907 6896 6895 6894 ] final  -83.95 input  -60.11 | X-H torsion
[ 7974 7965 7964 7962 ] final  -12.52 input  175.53 | X-H torsion
[ 8008 7997 7996 7995 ] final  -50.22 input   59.86 | X-H torsion
[ 10167 10162 10161 10158 ] final  133.15 input  -65.29 | X-H torsion
[ 10718 10713 10712 10709 ] final  -39.89 input   66.30 | X-H torsion
[ 10763 10752 10751 10750 ] final  -33.08 input  -60.55 | X-H torsion
[ 11005 11000 10999 10996 ] final -155.19 input  -57.11 | X-H torsion

> <Gold.Protein.ActiveResidues>
 VAL166  LYS551  ARG553  GLY616  TRP617  ASP618  TYR619  PRO620  LYS621  CYS622 
 ASP623  PHE694  ASN695  SER759  ASP760  ASP761  ALA762  ILE779  LEU786  VAL792 
 PHE793  MET794  SER795  GLU796  ALA797  LYS798  CYS799  TRP800  GLU811  SER814 

> <Gold.Protein.RotatedAtoms>
  150.6880  134.3433  159.4877 H   0  0  0  0  0  0  0  0  0  0  0  0  # atno 6907 bound_to 6896
  152.1283  134.9151  160.0569 H   0  0  0  0  0  0  0  0  0  0  0  0  # atno 6908 bound_to 6896
  152.0330  133.3911  159.4342 H   0  0  0  0  0  0  0  0  0  0  0  0  # atno 6909 bound_to 6896
  146.2149  140.3069  142.8379 H   0  0  0  0  0  0  0  0  0  0  0  0  # atno 7974 bound_to 7965
  154.4058  140.1277  156.4630 H   0  0  0  0  0  0  0  0  0  0  0  0  # atno 8008 bound_to 7997
  155.7254  140.3492  155.5015 H   0  0  0  0  0  0  0  0  0  0  0  0  # atno 8009 bound_to 7997
  155.9176  140.1047  157.1222 H   0  0  0  0  0  0  0  0  0  0  0  0  # atno 8010 bound_to 7997
  139.5309  144.6629  151.4954 H   0  0  0  0  0  0  0  0  0  0  0  0  # atno 10167 bound_to 10162
  156.2874  130.4224  149.8273 H   0  0  0  0  0  0  0  0  0  0  0  0  # atno 10718 bound_to 10713
  153.8243  135.6871  153.4823 H   0  0  0  0  0  0  0  0  0  0  0  0  # atno 10763 bound_to 10752
  153.1550  135.4603  154.9689 H   0  0  0  0  0  0  0  0  0  0  0  0  # atno 10764 bound_to 10752
  154.7914  135.3303  154.7712 H   0  0  0  0  0  0  0  0  0  0  0  0  # atno 10765 bound_to 10752
  140.6892  134.4060  157.5220 H   0  0  0  0  0  0  0  0  0  0  0  0  # atno 11005 bound_to 11000
  144.9016  140.7649  143.5863 LP  0  0  0  0  0  0  0  0  0  0  0  0  # atno 17320 bound_to 7965
  145.2996  139.1855  143.4697 LP  0  0  0  0  0  0  0  0  0  0  0  0  # atno 17321 bound_to 7965
  140.6486  143.8743  150.6763 LP  0  0  0  0  0  0  0  0  0  0  0  0  # atno 17342 bound_to 10162
  140.2100  143.3891  152.1725 LP  0  0  0  0  0  0  0  0  0  0  0  0  # atno 17343 bound_to 10162
  156.5699  130.8420  151.3353 LP  0  0  0  0  0  0  0  0  0  0  0  0  # atno 17370 bound_to 10713
  157.7332  130.9727  150.1968 LP  0  0  0  0  0  0  0  0  0  0  0  0  # atno 17371 bound_to 10713
  139.8928  134.8745  156.2251 LP  0  0  0  0  0  0  0  0  0  0  0  0  # atno 17394 bound_to 11000
  141.0255  133.7017  156.1341 LP  0  0  0  0  0  0  0  0  0  0  0  0  # atno 17395 bound_to 11000

$$$$
