AV-unprocessed.smi:1254|AV-procd|sdf|5273|dock5
  -GOLD-   22720 4393D 1   1.00000     0.00000
 Structure written by MMmdl.
 45 46  0  0  0  0  0  0  0  0  1 V2000
  146.8304  133.9949  162.5533 C   0  0  0  0  0  0  0  0  0  0  0  0
  147.3730  135.0772  161.6844 C   0  0  0  0  0  0  0  0  0  0  0  0
  147.9978  135.0684  160.4694 C   0  0  0  0  0  0  0  0  0  0  0  0
  148.2440  136.4514  160.2267 C   0  0  0  0  0  0  0  0  0  0  0  0
  148.8734  137.0058  159.0823 N   0  0  0  0  0  0  0  0  0  0  0  0
  150.1790  137.2533  158.8852 C   0  0  0  0  0  0  0  0  0  0  0  0
  151.0737  137.0563  159.7074 O   0  0  0  0  0  0  0  0  0  0  0  0
  150.3968  137.7545  157.6607 N   0  0  0  0  0  0  0  0  0  0  0  0
  151.6990  138.1482  157.1325 C   0  0  0  0  0  0  0  0  0  0  0  0
  151.7937  139.6709  156.9404 C   0  0  2  0  0  0  0  0  0  0  0  0
  151.7858  140.4183  158.2884 C   0  0  0  0  0  0  0  0  0  0  0  0
  151.8191  141.8673  158.1180 N   0  0  0  0  0  0  0  0  0  0  0  0
  151.8244  142.5442  159.4160 C   0  0  0  0  0  0  0  0  0  0  0  0
  152.5511  143.9091  159.4555 C   0  0  0  0  0  0  0  0  0  0  0  0
  152.0710  144.7550  160.6453 C   0  0  0  0  0  0  0  0  0  0  0  0
  152.3622  144.6946  158.1463 C   0  0  0  0  0  0  0  0  0  0  0  0
  150.6993  142.2711  157.2718 C   0  0  0  0  0  0  0  0  0  0  0  0
  150.6903  141.5166  155.9319 C   0  0  0  0  0  0  0  0  0  0  0  0
  150.6762  140.1145  156.1743 O   0  0  0  0  0  0  0  0  0  0  0  0
  147.8074  137.2245  161.2041 N   0  0  0  0  0  0  0  0  0  0  0  0
  147.2483  136.3511  162.1442 O   0  0  0  0  0  0  0  0  0  0  0  0
  146.8300  133.0389  162.0295 H   0  0  0  0  0  0  0  0  0  0  0  0
  145.8058  134.2156  162.8529 H   0  0  0  0  0  0  0  0  0  0  0  0
  147.4321  133.8867  163.4557 H   0  0  0  0  0  0  0  0  0  0  0  0
  148.2308  134.2040  159.8663 H   0  0  0  0  0  0  0  0  0  0  0  0
  148.2539  137.2352  158.3193 H   0  0  0  0  0  0  0  0  0  0  0  0
  149.6024  137.8857  157.0519 H   0  0  0  0  0  0  0  0  0  0  0  0
  152.5087  137.7895  157.7704 H   0  0  0  0  0  0  0  0  0  0  0  0
  151.8247  137.6505  156.1707 H   0  0  0  0  0  0  0  0  0  0  0  0
  152.7139  139.9062  156.4021 H   0  0  0  0  0  0  0  0  0  0  0  0
  150.8962  140.1347  158.8533 H   0  0  0  0  0  0  0  0  0  0  0  0
  152.6443  140.0990  158.8803 H   0  0  0  0  0  0  0  0  0  0  0  0
  150.8035  142.6511  159.7865 H   0  0  0  0  0  0  0  0  0  0  0  0
  152.3155  141.8826  160.1309 H   0  0  0  0  0  0  0  0  0  0  0  0
  153.6185  143.7375  159.6025 H   0  0  0  0  0  0  0  0  0  0  0  0
  151.0038  144.9682  160.5758 H   0  0  0  0  0  0  0  0  0  0  0  0
  152.5985  145.7083  160.6897 H   0  0  0  0  0  0  0  0  0  0  0  0
  152.2482  144.2403  161.5903 H   0  0  0  0  0  0  0  0  0  0  0  0
  151.3107  144.9254  157.9723 H   0  0  0  0  0  0  0  0  0  0  0  0
  152.7221  144.1369  157.2826 H   0  0  0  0  0  0  0  0  0  0  0  0
  152.9074  145.6385  158.1736 H   0  0  0  0  0  0  0  0  0  0  0  0
  149.7575  142.0931  157.7931 H   0  0  0  0  0  0  0  0  0  0  0  0
  150.7495  143.3396  157.0657 H   0  0  0  0  0  0  0  0  0  0  0  0
  149.8089  141.7869  155.3502 H   0  0  0  0  0  0  0  0  0  0  0  0
  151.5634  141.7809  155.3332 H   0  0  0  0  0  0  0  0  0  0  0  0
  1  2  1  0  0  0  0
  1 22  1  0  0  0  0
  1 23  1  0  0  0  0
  1 24  1  0  0  0  0
  2 21  1  0  0  0  0
  2  3  2  0  0  0  0
  3  4  1  0  0  0  0
  3 25  1  0  0  0  0
  4  5  1  0  0  0  0
  4 20  2  0  0  0  0
  5  6  1  0  0  0  0
  5 26  1  0  0  0  0
  6  7  2  0  0  0  0
  6  8  1  0  0  0  0
  8  9  1  0  0  0  0
  8 27  1  0  0  0  0
  9 10  1  0  0  0  0
  9 28  1  0  0  0  0
  9 29  1  0  0  0  0
 10 19  1  0  0  0  0
 10 11  1  0  0  0  0
 10 30  1  0  0  0  0
 11 12  1  0  0  0  0
 11 31  1  0  0  0  0
 11 32  1  0  0  0  0
 12 13  1  0  0  0  0
 12 17  1  0  0  0  0
 13 14  1  0  0  0  0
 13 33  1  0  0  0  0
 13 34  1  0  0  0  0
 14 15  1  0  0  0  0
 14 16  1  0  0  0  0
 14 35  1  0  0  0  0
 15 36  1  0  0  0  0
 15 37  1  0  0  0  0
 15 38  1  0  0  0  0
 16 39  1  0  0  0  0
 16 40  1  0  0  0  0
 16 41  1  0  0  0  0
 17 18  1  0  0  0  0
 17 42  1  0  0  0  0
 17 43  1  0  0  0  0
 18 19  1  0  0  0  0
 18 44  1  0  0  0  0
 18 45  1  0  0  0  0
 20 21  1  0  0  0  0
M  END
> <s_m_source_file>
AV-unprocessed.smi

> <i_m_source_file_index>
1254

> <i_lp_mmshare_version>
43012

> <i_f3d_flags>
0

> <s_epik_input>
W0NIM11jMVtjSF1jKG5vMSlbTkhdQyg9TylbTkhdW0NIMl1bQ0BASF0yW0NIMl1OKFtDSDJdW0NIMl1PMilbQ0gyXVtDSF0oW0NIM10pW0NIM10=

> <s_epik_cmdline>
J2VwaWtfcHl0aG9uJywgJy1waCcsICc3LjAnLCAnLXRuJywgJzgnLCAnLW1hJywgJzIwMCcsICctbWV0YWxfYmluZGluZycsICctaW1hZScsICc8aW5maWxlLm1hZT4nLCAnLW9tYWUnLCAnPG91dGZpbGUubWFlPic=

> <r_epik_Ionization_Penalty>
1.11086

> <r_epik_Ionization_Penalty_Charging>
0

> <r_epik_Ionization_Penalty_Neutral>
1.11086

> <r_epik_State_Penalty>
1.16881

> <r_epik_Charging_Adjusted_Penalty>
1.16881

> <i_epik_Tot_Q>
0

> <i_epik_Tot_abs_Q>
0

> <r_epik_Metal_State_Penalty>
1.1835

> <b_epik_Metal_Only>
0

> <s_lp_Force_Field>
OPLS_2005

> <r_lp_Energy>
24.7903

> <b_lp_Chiralities_Consistent>
1

> <s_lp_Variant>
AV-unprocessed.smi:1254-5

> <Gold.Version>
5.8.1

> <Gold.Id.Protein>
6NUR|6NUR_protein|mol2

> <Gold.PLP.Fitness>
47.8517

> <Gold.PLP.PLP>
-42.2260

> <Gold.PLP.part.hbond>
-3.0000

> <Gold.PLP.part.metal>
0.0000

> <Gold.PLP.part.buried>
-6.3454

> <Gold.PLP.part.nonpolar>
-33.1173

> <Gold.PLP.part.repulsive>
0.2368

> <Gold.PLP.ligand.clash>
0.0000

> <Gold.PLP.ligand.torsion>
1.4020

> <Gold.PLP.Chemscore.Hbond>
2.7760

> <Gold.PLP.Chemscore.CHOScore>
0.0000

> <Gold.PLP.Chemscore.Metal>
0.0000

> <Gold.Chemscore.Hbonds>
donor molecule, donor type, donor heavy atom, donor atom, acceptor molecule, acceptor atom, score
      P1  H  6896  6907       L1     7  1.00
      P1  H  6931  6943       L1    20  0.96
      P1  H  6934  6947       L1    20  0.78

> <Gold.PLP.Chemscore.Internal.Correction>
0.1017

> <Gold.Rescore>
     Score         DG    S(hbond)    S(metal)    S(lipo)     H(rot)  DE(clash)    DE(int)     intcor
     20.28     -21.66       2.62        0.00     100.39       1.69       0.06       1.32       ----

> <Gold.Chemscore.Fitness>
20.2844

> <Gold.Chemscore.DG>
-21.6604

> <Gold.Chemscore.ZeroCoef>
-5.4800

> <Gold.Chemscore.Hbond>
2.6231

> <Gold.Chemscore.Metal>
0.0000

> <Gold.Chemscore.Lipo>
100.3905

> <Gold.Chemscore.Internal_Hbond>
0.0000

> <Gold.Chemscore.DEClash>
0.0580

> <Gold.Chemscore.DEInternal>
1.3180

> <Gold.Chemscore.Rot>
1.6900

> <Gold.Chemscore.Internal.Correction>
   9.000000E+99

> <Gold.Chemscore.Hbonds>
donor molecule, donor type, donor heavy atom, donor atom, acceptor molecule, acceptor atom, score
      P1  H  6896  6907       L1     7  0.44
      P1  H  6931  6943       L1    20  0.67
      P1  H  6934  6947       L1    20  0.77

> <Gold.Chemscore.Hbond.Weighted>
-8.7612

> <Gold.Chemscore.Metal.Weighted>
-0.0000

> <Gold.Chemscore.Lipo.Weighted>
-11.7457

> <Gold.Chemscore.Internal_Hbond.Weighted>
0.0000

> <Gold.Chemscore.DEClash.Weighted>
0.0580

> <Gold.Chemscore.DEInternal.Weighted>
1.3180

> <Gold.Chemscore.Rot.Weighted>
4.3265

> <Gold.Chemscore.Internal.Correction.Weighted>
   9.000000E+99

> <Gold.Protein.RotatedTorsions>
[ 6907 6896 6895 6894 ] final  -25.87 input  -60.11 | X-H torsion
[ 7974 7965 7964 7962 ] final  144.18 input  175.53 | X-H torsion
[ 8008 7997 7996 7995 ] final  -57.88 input   59.86 | X-H torsion
[ 10167 10162 10161 10158 ] final   80.85 input  -65.29 | X-H torsion
[ 10718 10713 10712 10709 ] final  -29.90 input   66.30 | X-H torsion
[ 10763 10752 10751 10750 ] final  166.78 input  -60.55 | X-H torsion
[ 11005 11000 10999 10996 ] final  148.88 input  -57.11 | X-H torsion

> <Gold.Protein.ActiveResidues>
 VAL166  LYS551  ARG553  GLY616  TRP617  ASP618  TYR619  PRO620  LYS621  CYS622 
 ASP623  PHE694  ASN695  SER759  ASP760  ASP761  ALA762  ILE779  LEU786  VAL792 
 PHE793  MET794  SER795  GLU796  ALA797  LYS798  CYS799  TRP800  GLU811  SER814 

> <Gold.Protein.RotatedAtoms>
  151.1690  135.0309  159.8743 H   0  0  0  0  0  0  0  0  0  0  0  0  # atno 6907 bound_to 6896
  152.5449  134.1192  159.8402 H   0  0  0  0  0  0  0  0  0  0  0  0  # atno 6908 bound_to 6896
  151.1296  133.5000  159.2632 H   0  0  0  0  0  0  0  0  0  0  0  0  # atno 6909 bound_to 6896
  144.8857  139.5632  143.5822 H   0  0  0  0  0  0  0  0  0  0  0  0  # atno 7974 bound_to 7965
  154.4286  140.1097  156.5868 H   0  0  0  0  0  0  0  0  0  0  0  0  # atno 8008 bound_to 7997
  155.6054  140.3493  155.4587 H   0  0  0  0  0  0  0  0  0  0  0  0  # atno 8009 bound_to 7997
  156.0141  140.1225  157.0414 H   0  0  0  0  0  0  0  0  0  0  0  0  # atno 8010 bound_to 7997
  139.9454  144.6062  150.8211 H   0  0  0  0  0  0  0  0  0  0  0  0  # atno 10167 bound_to 10162
  156.4066  130.4400  149.7283 H   0  0  0  0  0  0  0  0  0  0  0  0  # atno 10718 bound_to 10713
  154.3441  135.2753  155.2407 H   0  0  0  0  0  0  0  0  0  0  0  0  # atno 10763 bound_to 10752
  154.4665  135.5894  153.6295 H   0  0  0  0  0  0  0  0  0  0  0  0  # atno 10764 bound_to 10752
  152.9855  135.6077  154.3645 H   0  0  0  0  0  0  0  0  0  0  0  0  # atno 10765 bound_to 10752
  140.0998  134.8990  157.1778 H   0  0  0  0  0  0  0  0  0  0  0  0  # atno 11005 bound_to 11000
  146.3023  139.7466  142.9082 LP  0  0  0  0  0  0  0  0  0  0  0  0  # atno 17320 bound_to 7965
  145.3873  141.0367  143.3144 LP  0  0  0  0  0  0  0  0  0  0  0  0  # atno 17321 bound_to 7965
  140.7598  143.3138  151.2781 LP  0  0  0  0  0  0  0  0  0  0  0  0  # atno 17342 bound_to 10162
  139.6671  144.0086  152.2729 LP  0  0  0  0  0  0  0  0  0  0  0  0  # atno 17343 bound_to 10162
  156.4278  130.7800  151.2819 LP  0  0  0  0  0  0  0  0  0  0  0  0  # atno 17370 bound_to 10713
  157.7506  131.0163  150.3539 LP  0  0  0  0  0  0  0  0  0  0  0  0  # atno 17371 bound_to 10713
  140.3236  134.2888  155.7241 LP  0  0  0  0  0  0  0  0  0  0  0  0  # atno 17394 bound_to 11000
  141.2102  133.7726  156.9946 LP  0  0  0  0  0  0  0  0  0  0  0  0  # atno 17395 bound_to 11000

$$$$
