AV-unprocessed.smi:2055|AV-procd|sdf|8337|dock4
  -GOLD-   2272011 03D 1   1.00000     0.00000
 Structure written by MMmdl.
 44 45  0  0  0  0  0  0  0  0  2 V2000
  148.2625  133.2980  153.7619 C   0  0  0  0  0  0  0  0  0  0  0  0
  149.1356  134.0012  154.8126 C   0  0  1  0  0  0  0  0  0  0  0  0
  150.4039  133.1881  155.1259 C   0  0  0  0  0  0  0  0  0  0  0  0
  150.0565  131.8971  155.5819 O   0  0  0  0  0  0  0  0  0  0  0  0
  149.5179  135.3200  154.3150 N   0  0  0  0  0  0  0  0  0  0  0  0
  150.4160  136.1313  154.8892 C   0  0  0  0  0  0  0  0  0  0  0  0
  150.9956  135.8871  155.9474 O   0  0  0  0  0  0  0  0  0  0  0  0
  150.6330  137.2311  154.1546 N   0  0  0  0  0  0  0  0  0  0  0  0
  151.6089  138.2680  154.4787 C   0  0  0  0  0  0  0  0  0  0  0  0
  151.0110  139.5912  154.9462 C   0  0  0  0  0  0  0  0  0  0  0  0
  149.8283  140.0664  154.3426 C   0  0  0  0  0  0  0  0  0  0  0  0
  149.2773  141.2860  154.7771 C   0  0  0  0  0  0  0  0  0  0  0  0
  149.8825  141.9848  155.7607 N   0  3  0  0  0  0  0  0  0  0  0  0
  151.0219  141.5875  156.3783 C   0  0  0  0  0  0  0  0  0  0  0  0
  151.5435  142.4051  157.4060 N   0  0  0  0  0  0  0  0  0  0  0  0
  151.4178  143.8539  157.2673 C   0  0  0  0  0  0  0  0  0  0  0  0
  152.3093  144.5755  158.2915 C   0  0  0  0  0  0  0  0  0  0  0  0
  152.0096  144.1092  159.6018 O   0  0  0  0  0  0  0  0  0  0  0  0
  152.2816  142.7192  159.7396 C   0  0  0  0  0  0  0  0  0  0  0  0
  151.3907  141.9170  158.7761 C   0  0  0  0  0  0  0  0  0  0  0  0
  151.6149  140.3677  155.9644 C   0  0  0  0  0  0  0  0  0  0  0  0
  147.9489  132.3128  154.1085 H   0  0  0  0  0  0  0  0  0  0  0  0
  148.8003  133.1645  152.8225 H   0  0  0  0  0  0  0  0  0  0  0  0
  147.3594  133.8721  153.5512 H   0  0  0  0  0  0  0  0  0  0  0  0
  148.5462  134.0951  155.7272 H   0  0  0  0  0  0  0  0  0  0  0  0
  151.0024  133.0610  154.2231 H   0  0  0  0  0  0  0  0  0  0  0  0
  151.0357  133.6908  155.8590 H   0  0  0  0  0  0  0  0  0  0  0  0
  150.5859  131.2641  155.1212 H   0  0  0  0  0  0  0  0  0  0  0  0
  149.0976  135.6139  153.4455 H   0  0  0  0  0  0  0  0  0  0  0  0
  150.1062  137.3484  153.3013 H   0  0  0  0  0  0  0  0  0  0  0  0
  152.2568  137.8881  155.2689 H   0  0  0  0  0  0  0  0  0  0  0  0
  152.2483  138.4423  153.6114 H   0  0  0  0  0  0  0  0  0  0  0  0
  149.3445  139.5018  153.5586 H   0  0  0  0  0  0  0  0  0  0  0  0
  148.3737  141.7194  154.3735 H   0  0  0  0  0  0  0  0  0  0  0  0
  151.7150  144.1679  156.2662 H   0  0  0  0  0  0  0  0  0  0  0  0
  150.3750  144.1406  157.4085 H   0  0  0  0  0  0  0  0  0  0  0  0
  153.3660  144.4156  158.0689 H   0  0  0  0  0  0  0  0  0  0  0  0
  152.1355  145.6507  158.2479 H   0  0  0  0  0  0  0  0  0  0  0  0
  153.3376  142.5228  159.5478 H   0  0  0  0  0  0  0  0  0  0  0  0
  152.0850  142.4193  160.7690 H   0  0  0  0  0  0  0  0  0  0  0  0
  150.3441  142.0118  159.0678 H   0  0  0  0  0  0  0  0  0  0  0  0
  151.6520  140.8622  158.8574 H   0  0  0  0  0  0  0  0  0  0  0  0
  152.5303  140.0187  156.4164 H   0  0  0  0  0  0  0  0  0  0  0  0
  149.4531  142.8605  156.0597 H   0  0  0  0  0  0  0  0  0  0  0  0
  1  2  1  0  0  0  0
  1 22  1  0  0  0  0
  1 23  1  0  0  0  0
  1 24  1  0  0  0  0
  2  3  1  0  0  0  0
  2  5  1  0  0  0  0
  2 25  1  0  0  0  0
  3  4  1  0  0  0  0
  3 26  1  0  0  0  0
  3 27  1  0  0  0  0
  4 28  1  0  0  0  0
  5  6  1  0  0  0  0
  5 29  1  0  0  0  0
  6  7  2  0  0  0  0
  6  8  1  0  0  0  0
  8  9  1  0  0  0  0
  8 30  1  0  0  0  0
  9 10  1  0  0  0  0
  9 31  1  0  0  0  0
  9 32  1  0  0  0  0
 10 21  1  0  0  0  0
 10 11  2  0  0  0  0
 11 12  1  0  0  0  0
 11 33  1  0  0  0  0
 12 13  2  0  0  0  0
 12 34  1  0  0  0  0
 13 14  1  0  0  0  0
 13 44  1  0  0  0  0
 14 15  1  0  0  0  0
 14 21  2  0  0  0  0
 15 20  1  0  0  0  0
 15 16  1  0  0  0  0
 16 17  1  0  0  0  0
 16 35  1  0  0  0  0
 16 36  1  0  0  0  0
 17 18  1  0  0  0  0
 17 37  1  0  0  0  0
 17 38  1  0  0  0  0
 18 19  1  0  0  0  0
 19 20  1  0  0  0  0
 19 39  1  0  0  0  0
 19 40  1  0  0  0  0
 20 41  1  0  0  0  0
 20 42  1  0  0  0  0
 21 43  1  0  0  0  0
M  CHG  1  13   1
M  END
> <s_m_source_file>
AV-unprocessed.smi

> <i_m_source_file_index>
2055

> <i_lp_mmshare_version>
43012

> <i_f3d_flags>
0

> <s_epik_input>
W09IXVtDSDJdW0NAQEhdKFtDSDNdKVtOSF1DKD1PKVtOSF1bQ0gyXWMxW2NIXVtjSF1uYyhbY0hdMSlOMltDSDJdW0NIMl1PW0NIMl1bQ0gyXTI=

> <s_epik_cmdline>
J2VwaWtfcHl0aG9uJywgJy1waCcsICc3LjAnLCAnLXRuJywgJzgnLCAnLW1hJywgJzIwMCcsICctbWV0YWxfYmluZGluZycsICctaW1hZScsICc8aW5maWxlLm1hZT4nLCAnLW9tYWUnLCAnPG91dGZpbGUubWFlPic=

> <r_lp_tautomer_probability>
0.999994

> <r_epik_Ionization_Penalty>
2.3082

> <r_epik_Ionization_Penalty_Charging>
2.30816

> <r_epik_Ionization_Penalty_Neutral>
3.71771e-05

> <r_epik_State_Penalty>
2.45942

> <r_epik_Charging_Adjusted_Penalty>
4.76758

> <i_epik_Tot_Q>
1

> <i_epik_Tot_abs_Q>
1

> <r_epik_Metal_State_Penalty>
2.47143

> <b_epik_Metal_Only>
0

> <s_lp_Force_Field>
OPLS_2005

> <r_lp_Energy>
18.1512

> <b_lp_Chiralities_Consistent>
1

> <s_lp_Variant>
AV-unprocessed.smi:2055-4

> <Gold.Version>
5.8.1

> <Gold.Id.Protein>
6NUR|6NUR_protein|mol2

> <Gold.PLP.Fitness>
53.3952

> <Gold.PLP.PLP>
-43.7664

> <Gold.PLP.part.hbond>
-3.9802

> <Gold.PLP.part.metal>
0.0000

> <Gold.PLP.part.buried>
-1.7427

> <Gold.PLP.part.nonpolar>
-38.0891

> <Gold.PLP.part.repulsive>
0.3512

> <Gold.PLP.ligand.clash>
0.0000

> <Gold.PLP.ligand.torsion>
0.9757

> <Gold.PLP.Chemscore.Hbond>
3.6990

> <Gold.PLP.Chemscore.CHOScore>
0.0000

> <Gold.PLP.Chemscore.Metal>
0.0000

> <Gold.Chemscore.Hbonds>
donor molecule, donor type, donor heavy atom, donor atom, acceptor molecule, acceptor atom, score
      L1  H     5    29       P1  7948  1.00
      L1  H     8    30       P1  7948  0.64
      L1  H    13    44       P1  8028  1.98

> <Gold.PLP.Chemscore.Internal.Correction>
0.4832

> <Gold.Rescore>
     Score         DG    S(hbond)    S(metal)    S(lipo)     H(rot)  DE(clash)    DE(int)     intcor
     15.73     -16.74       2.09        0.00      97.12       2.76       0.13       0.88       ----

> <Gold.Chemscore.Fitness>
15.7257

> <Gold.Chemscore.DG>
-16.7417

> <Gold.Chemscore.ZeroCoef>
-5.4800

> <Gold.Chemscore.Hbond>
2.0880

> <Gold.Chemscore.Metal>
0.0000

> <Gold.Chemscore.Lipo>
97.1178

> <Gold.Chemscore.Internal_Hbond>
0.0000

> <Gold.Chemscore.DEClash>
0.1326

> <Gold.Chemscore.DEInternal>
0.8834

> <Gold.Chemscore.Rot>
2.7636

> <Gold.Chemscore.Internal.Correction>
   9.000000E+99

> <Gold.Chemscore.Hbonds>
donor molecule, donor type, donor heavy atom, donor atom, acceptor molecule, acceptor atom, score
      L1  H     5    29       P1  7948  0.65
      L1  H     8    30       P1  7948  0.14
      L1  H    13    44       P1  8028  0.92

> <Gold.Chemscore.Hbond.Weighted>
-6.9739

> <Gold.Chemscore.Metal.Weighted>
-0.0000

> <Gold.Chemscore.Lipo.Weighted>
-11.3628

> <Gold.Chemscore.Internal_Hbond.Weighted>
0.0000

> <Gold.Chemscore.DEClash.Weighted>
0.1326

> <Gold.Chemscore.DEInternal.Weighted>
0.8834

> <Gold.Chemscore.Rot.Weighted>
7.0749

> <Gold.Chemscore.Internal.Correction.Weighted>
   9.000000E+99

> <Gold.Protein.RotatedTorsions>
[ 6907 6896 6895 6894 ] final  148.53 input  -60.11 | X-H torsion
[ 7974 7965 7964 7962 ] final -101.63 input  175.53 | X-H torsion
[ 8008 7997 7996 7995 ] final -118.70 input   59.86 | X-H torsion
[ 10167 10162 10161 10158 ] final   47.35 input  -65.29 | X-H torsion
[ 10718 10713 10712 10709 ] final -130.30 input   66.30 | X-H torsion
[ 10763 10752 10751 10750 ] final  125.37 input  -60.55 | X-H torsion
[ 11005 11000 10999 10996 ] final  110.53 input  -57.11 | X-H torsion

> <Gold.Protein.ActiveResidues>
 VAL166  LYS551  ARG553  GLY616  TRP617  ASP618  TYR619  PRO620  LYS621  CYS622 
 ASP623  PHE694  ASN695  SER759  ASP760  ASP761  ALA762  ILE779  LEU786  VAL792 
 PHE793  MET794  SER795  GLU796  ALA797  LYS798  CYS799  TRP800  GLU811  SER814 

> <Gold.Protein.RotatedAtoms>
  152.1402  133.4459  159.4762 H   0  0  0  0  0  0  0  0  0  0  0  0  # atno 6907 bound_to 6896
  150.6885  134.2314  159.4445 H   0  0  0  0  0  0  0  0  0  0  0  0  # atno 6908 bound_to 6896
  152.0204  134.9825  160.0621 H   0  0  0  0  0  0  0  0  0  0  0  0  # atno 6909 bound_to 6896
  145.2791  140.9321  143.2942 H   0  0  0  0  0  0  0  0  0  0  0  0  # atno 7974 bound_to 7965
  155.1039  140.0396  157.2704 H   0  0  0  0  0  0  0  0  0  0  0  0  # atno 8008 bound_to 7997
  154.6737  140.2618  155.6955 H   0  0  0  0  0  0  0  0  0  0  0  0  # atno 8009 bound_to 7997
  156.2668  140.2792  156.1256 H   0  0  0  0  0  0  0  0  0  0  0  0  # atno 8010 bound_to 7997
  140.3045  144.2894  150.6212 H   0  0  0  0  0  0  0  0  0  0  0  0  # atno 10167 bound_to 10162
  156.2131  130.6931  151.0672 H   0  0  0  0  0  0  0  0  0  0  0  0  # atno 10718 bound_to 10713
  153.6763  135.3322  155.3166 H   0  0  0  0  0  0  0  0  0  0  0  0  # atno 10763 bound_to 10752
  154.8477  135.4398  154.1653 H   0  0  0  0  0  0  0  0  0  0  0  0  # atno 10764 bound_to 10752
  153.2657  135.6995  153.7609 H   0  0  0  0  0  0  0  0  0  0  0  0  # atno 10765 bound_to 10752
  139.8884  134.9486  156.6294 H   0  0  0  0  0  0  0  0  0  0  0  0  # atno 11005 bound_to 11000
  144.9269  139.4345  143.6514 LP  0  0  0  0  0  0  0  0  0  0  0  0  # atno 17320 bound_to 7965
  146.3222  139.8159  142.8936 LP  0  0  0  0  0  0  0  0  0  0  0  0  # atno 17321 bound_to 7965
  140.5622  143.2190  151.7746 LP  0  0  0  0  0  0  0  0  0  0  0  0  # atno 17342 bound_to 10162
  139.4907  144.4333  151.9848 LP  0  0  0  0  0  0  0  0  0  0  0  0  # atno 17343 bound_to 10162
  157.7049  131.0760  150.6700 LP  0  0  0  0  0  0  0  0  0  0  0  0  # atno 17370 bound_to 10713
  156.6760  130.4553  149.5642 LP  0  0  0  0  0  0  0  0  0  0  0  0  # atno 17371 bound_to 10713
  140.7678  133.8763  155.8468 LP  0  0  0  0  0  0  0  0  0  0  0  0  # atno 17394 bound_to 11000
  140.9867  134.1333  157.4445 LP  0  0  0  0  0  0  0  0  0  0  0  0  # atno 17395 bound_to 11000

$$$$
