AV-unprocessed.smi:1232|AV-procd|sdf|5170|dock1
  -GOLD-   22720 4243D 1   1.00000     0.00000
 Structure written by MMmdl.
 53 54  0  0  0  0  0  0  0  0  1 V2000
  147.9880  134.8208  158.9103 C   0  0  0  0  0  0  0  0  0  0  0  0
  149.0317  134.6469  157.8125 C   0  0  0  0  0  0  0  0  0  0  0  0
  150.1599  134.2505  158.0991 O   0  0  0  0  0  0  0  0  0  0  0  0
  148.6312  134.9565  156.5661 N   0  0  0  0  0  0  0  0  0  0  0  0
  149.3837  134.8629  155.3069 C   0  0  1  0  0  0  0  0  0  0  0  0
  150.5635  135.8521  155.2901 C   0  0  0  0  0  0  0  0  0  0  0  0
  151.4425  135.7904  156.1502 O   0  0  0  0  0  0  0  0  0  0  0  0
  150.5828  136.7484  154.2906 N   0  0  0  0  0  0  0  0  0  0  0  0
  151.6190  137.7566  154.0921 C   0  0  0  0  0  0  0  0  0  0  0  0
  151.5610  138.9223  155.0698 C   0  0  0  0  0  0  0  0  0  0  0  0
  150.4790  139.8270  155.0964 C   0  0  0  0  0  0  0  0  0  0  0  0
  150.4952  140.8858  156.0240 C   0  0  0  0  0  0  0  0  0  0  0  0
  151.5951  141.0170  156.9051 C   0  0  0  0  0  0  0  0  0  0  0  0
  151.6319  142.0684  157.8476 N   0  0  0  0  0  0  0  0  0  0  0  0
  151.6189  143.4408  157.3445 C   0  0  0  0  0  0  0  0  0  0  0  0
  151.3689  144.4309  158.4938 C   0  0  0  0  0  0  0  0  0  0  0  0
  152.3343  144.2275  159.5201 O   0  0  0  0  0  0  0  0  0  0  0  0
  152.2555  142.9190  160.0787 C   0  0  2  0  0  0  0  0  0  0  0  0
  153.2625  142.8266  161.2301 C   0  0  0  0  0  0  0  0  0  0  0  0
  152.5376  141.8774  158.9781 C   0  0  0  0  0  0  0  0  0  0  0  0
  152.6397  140.1532  156.8654 N   0  0  0  0  0  0  0  0  0  0  0  0
  152.6188  139.1394  155.9748 C   0  0  0  0  0  0  0  0  0  0  0  0
  149.7239  133.4042  154.8667 C   0  0  0  0  0  0  0  0  0  0  0  0
  150.9183  132.8097  155.6390 C   0  0  0  0  0  0  0  0  0  0  0  0
  149.9999  133.3031  153.3538 C   0  0  0  0  0  0  0  0  0  0  0  0
  147.4773  135.7791  158.8096 H   0  0  0  0  0  0  0  0  0  0  0  0
  148.4537  134.7860  159.8958 H   0  0  0  0  0  0  0  0  0  0  0  0
  147.2453  134.0245  158.8540 H   0  0  0  0  0  0  0  0  0  0  0  0
  147.6813  135.2849  156.4733 H   0  0  0  0  0  0  0  0  0  0  0  0
  148.6759  135.2370  154.5650 H   0  0  0  0  0  0  0  0  0  0  0  0
  149.8299  136.7271  153.6181 H   0  0  0  0  0  0  0  0  0  0  0  0
  152.6018  137.2839  154.1375 H   0  0  0  0  0  0  0  0  0  0  0  0
  151.5159  138.1542  153.0823 H   0  0  0  0  0  0  0  0  0  0  0  0
  149.6473  139.7211  154.4159 H   0  0  0  0  0  0  0  0  0  0  0  0
  149.6754  141.5881  156.0374 H   0  0  0  0  0  0  0  0  0  0  0  0
  152.5747  143.6589  156.8656 H   0  0  0  0  0  0  0  0  0  0  0  0
  150.8401  143.5608  156.5903 H   0  0  0  0  0  0  0  0  0  0  0  0
  151.4482  145.4552  158.1299 H   0  0  0  0  0  0  0  0  0  0  0  0
  150.3618  144.3134  158.8971 H   0  0  0  0  0  0  0  0  0  0  0  0
  151.2533  142.7628  160.4823 H   0  0  0  0  0  0  0  0  0  0  0  0
  153.2326  141.8432  161.6996 H   0  0  0  0  0  0  0  0  0  0  0  0
  153.0444  143.5684  161.9987 H   0  0  0  0  0  0  0  0  0  0  0  0
  154.2801  142.9995  160.8790 H   0  0  0  0  0  0  0  0  0  0  0  0
  152.4442  140.8798  159.4046 H   0  0  0  0  0  0  0  0  0  0  0  0
  153.5647  141.9741  158.6232 H   0  0  0  0  0  0  0  0  0  0  0  0
  153.4747  138.4808  155.9878 H   0  0  0  0  0  0  0  0  0  0  0  0
  148.8729  132.7606  155.0880 H   0  0  0  0  0  0  0  0  0  0  0  0
  151.8126  133.4216  155.5182 H   0  0  0  0  0  0  0  0  0  0  0  0
  151.1542  131.8064  155.2834 H   0  0  0  0  0  0  0  0  0  0  0  0
  150.7117  132.7241  156.7060 H   0  0  0  0  0  0  0  0  0  0  0  0
  150.8443  133.9289  153.0638 H   0  0  0  0  0  0  0  0  0  0  0  0
  149.1399  133.6091  152.7591 H   0  0  0  0  0  0  0  0  0  0  0  0
  150.2347  132.2782  153.0660 H   0  0  0  0  0  0  0  0  0  0  0  0
  1  2  1  0  0  0  0
  1 26  1  0  0  0  0
  1 27  1  0  0  0  0
  1 28  1  0  0  0  0
  2  3  2  0  0  0  0
  2  4  1  0  0  0  0
  4  5  1  0  0  0  0
  4 29  1  0  0  0  0
  5  6  1  0  0  0  0
  5 23  1  0  0  0  0
  5 30  1  0  0  0  0
  6  7  2  0  0  0  0
  6  8  1  0  0  0  0
  8  9  1  0  0  0  0
  8 31  1  0  0  0  0
  9 10  1  0  0  0  0
  9 32  1  0  0  0  0
  9 33  1  0  0  0  0
 10 22  1  0  0  0  0
 10 11  2  0  0  0  0
 11 12  1  0  0  0  0
 11 34  1  0  0  0  0
 12 13  2  0  0  0  0
 12 35  1  0  0  0  0
 13 14  1  0  0  0  0
 13 21  1  0  0  0  0
 14 20  1  0  0  0  0
 14 15  1  0  0  0  0
 15 16  1  0  0  0  0
 15 36  1  0  0  0  0
 15 37  1  0  0  0  0
 16 17  1  0  0  0  0
 16 38  1  0  0  0  0
 16 39  1  0  0  0  0
 17 18  1  0  0  0  0
 18 19  1  0  0  0  0
 18 20  1  0  0  0  0
 18 40  1  0  0  0  0
 19 41  1  0  0  0  0
 19 42  1  0  0  0  0
 19 43  1  0  0  0  0
 20 44  1  0  0  0  0
 20 45  1  0  0  0  0
 21 22  2  0  0  0  0
 22 46  1  0  0  0  0
 23 24  1  0  0  0  0
 23 25  1  0  0  0  0
 23 47  1  0  0  0  0
 24 48  1  0  0  0  0
 24 49  1  0  0  0  0
 24 50  1  0  0  0  0
 25 51  1  0  0  0  0
 25 52  1  0  0  0  0
 25 53  1  0  0  0  0
M  END
> <s_m_source_file>
AV-unprocessed.smi

> <i_m_source_file_index>
1232

> <i_lp_mmshare_version>
43012

> <i_f3d_flags>
0

> <s_epik_input>
W0NIM11DKD1PKVtOSF1bQ0BASF0oW0NIXShbQ0gzXSlbQ0gzXSlDKD1PKVtOSF1bQ0gyXWMxW2NIXVtjSF1jKG5bY0hdMSlOMltDSDJdW0NIMl1PW0NAQEhdKFtDSDNdKVtDSDJdMg==

> <s_epik_cmdline>
J2VwaWtfcHl0aG9uJywgJy1waCcsICc3LjAnLCAnLXRuJywgJzgnLCAnLW1hJywgJzIwMCcsICctbWV0YWxfYmluZGluZycsICctaW1hZScsICc8aW5maWxlLm1hZT4nLCAnLW9tYWUnLCAnPG91dGZpbGUubWFlPic=

> <r_lp_tautomer_probability>
1

> <r_epik_Ionization_Penalty>
0.00557618

> <r_epik_Ionization_Penalty_Charging>
0

> <r_epik_Ionization_Penalty_Neutral>
0.00557618

> <r_epik_State_Penalty>
0.00408363

> <r_epik_Charging_Adjusted_Penalty>
0.00408363

> <i_epik_Tot_Q>
0

> <i_epik_Tot_abs_Q>
0

> <r_epik_Metal_State_Penalty>
-0

> <b_epik_Metal_Only>
0

> <s_lp_Force_Field>
OPLS_2005

> <r_lp_Energy>
20.9167

> <b_lp_Chiralities_Consistent>
1

> <s_lp_Variant>
AV-unprocessed.smi:1232-4

> <Gold.Version>
5.8.1

> <Gold.Id.Protein>
6NUR|6NUR_protein|mol2

> <Gold.PLP.Fitness>
50.7187

> <Gold.PLP.PLP>
-44.8359

> <Gold.PLP.part.hbond>
-3.6891

> <Gold.PLP.part.metal>
0.0000

> <Gold.PLP.part.buried>
-5.5498

> <Gold.PLP.part.nonpolar>
-35.6217

> <Gold.PLP.part.repulsive>
0.1105

> <Gold.PLP.ligand.clash>
0.0000

> <Gold.PLP.ligand.torsion>
0.8355

> <Gold.PLP.Chemscore.Hbond>
2.2319

> <Gold.PLP.Chemscore.CHOScore>
0.0000

> <Gold.PLP.Chemscore.Metal>
0.0000

> <Gold.Chemscore.Hbonds>
donor molecule, donor type, donor heavy atom, donor atom, acceptor molecule, acceptor atom, score
      L1  H     8    31       P1  7948  1.00
      P1  H  6896  6907       L1     3  0.51
      P1  H  7997  8010       L1    21  0.29
      P1  H 10752 10764       L1     7  0.29

> <Gold.PLP.Chemscore.Internal.Correction>
0.8582

> <Gold.Rescore>
     Score         DG    S(hbond)    S(metal)    S(lipo)     H(rot)  DE(clash)    DE(int)     intcor
     15.59     -19.20       1.83        0.00     111.76       2.13       0.09       3.52       ----

> <Gold.Chemscore.Fitness>
15.5860

> <Gold.Chemscore.DG>
-19.1969

> <Gold.Chemscore.ZeroCoef>
-5.4800

> <Gold.Chemscore.Hbond>
1.8257

> <Gold.Chemscore.Metal>
0.0000

> <Gold.Chemscore.Lipo>
111.7642

> <Gold.Chemscore.Internal_Hbond>
0.0000

> <Gold.Chemscore.DEClash>
0.0882

> <Gold.Chemscore.DEInternal>
3.5228

> <Gold.Chemscore.Rot>
2.1317

> <Gold.Chemscore.Internal.Correction>
   9.000000E+99

> <Gold.Chemscore.Hbonds>
donor molecule, donor type, donor heavy atom, donor atom, acceptor molecule, acceptor atom, score
      L1  H     8    31       P1  7948  0.37
      P1  H  6896  6907       L1     3  0.50
      P1  H  7997  8010       L1    21  0.02
      P1  H 10752 10764       L1     7  0.25

> <Gold.Chemscore.Hbond.Weighted>
-6.0977

> <Gold.Chemscore.Metal.Weighted>
-0.0000

> <Gold.Chemscore.Lipo.Weighted>
-13.0764

> <Gold.Chemscore.Internal_Hbond.Weighted>
0.0000

> <Gold.Chemscore.DEClash.Weighted>
0.0882

> <Gold.Chemscore.DEInternal.Weighted>
3.5228

> <Gold.Chemscore.Rot.Weighted>
5.4572

> <Gold.Chemscore.Internal.Correction.Weighted>
   9.000000E+99

> <Gold.Protein.RotatedTorsions>
[ 6907 6896 6895 6894 ] final -115.47 input  -60.11 | X-H torsion
[ 7974 7965 7964 7962 ] final   78.11 input  175.53 | X-H torsion
[ 8008 7997 7996 7995 ] final   30.35 input   59.86 | X-H torsion
[ 10167 10162 10161 10158 ] final  144.15 input  -65.29 | X-H torsion
[ 10718 10713 10712 10709 ] final  114.28 input   66.30 | X-H torsion
[ 10763 10752 10751 10750 ] final   -2.06 input  -60.55 | X-H torsion
[ 11005 11000 10999 10996 ] final -171.69 input  -57.11 | X-H torsion

> <Gold.Protein.ActiveResidues>
 VAL166  LYS551  ARG553  GLY616  TRP617  ASP618  TYR619  PRO620  LYS621  CYS622 
 ASP623  PHE694  ASN695  SER759  ASP760  ASP761  ALA762  ILE779  LEU786  VAL792 
 PHE793  MET794  SER795  GLU796  ALA797  LYS798  CYS799  TRP800  GLU811  SER814 

> <Gold.Protein.RotatedAtoms>
  150.7981  133.8653  159.3243 H   0  0  0  0  0  0  0  0  0  0  0  0  # atno 6907 bound_to 6896
  151.6473  135.1004  160.0163 H   0  0  0  0  0  0  0  0  0  0  0  0  # atno 6908 bound_to 6896
  152.4065  133.6857  159.6396 H   0  0  0  0  0  0  0  0  0  0  0  0  # atno 6909 bound_to 6896
  145.6814  139.2525  143.1812 H   0  0  0  0  0  0  0  0  0  0  0  0  # atno 7974 bound_to 7965
  155.0890  140.3218  155.4579 H   0  0  0  0  0  0  0  0  0  0  0  0  # atno 8008 bound_to 7997
  156.2747  140.2081  156.5964 H   0  0  0  0  0  0  0  0  0  0  0  0  # atno 8009 bound_to 7997
  154.6918  140.0515  157.0358 H   0  0  0  0  0  0  0  0  0  0  0  0  # atno 8010 bound_to 7997
  139.4953  144.5991  151.6518 H   0  0  0  0  0  0  0  0  0  0  0  0  # atno 10167 bound_to 10162
  157.6290  131.0996  150.7163 H   0  0  0  0  0  0  0  0  0  0  0  0  # atno 10718 bound_to 10713
  153.3530  135.6986  153.6773 H   0  0  0  0  0  0  0  0  0  0  0  0  # atno 10763 bound_to 10752
  153.5492  135.3557  155.2752 H   0  0  0  0  0  0  0  0  0  0  0  0  # atno 10764 bound_to 10752
  154.8656  135.4222  154.2770 H   0  0  0  0  0  0  0  0  0  0  0  0  # atno 10765 bound_to 10752
  140.5054  134.5853  157.5001 H   0  0  0  0  0  0  0  0  0  0  0  0  # atno 11005 bound_to 11000
  146.0961  140.7599  142.9572 LP  0  0  0  0  0  0  0  0  0  0  0  0  # atno 17320 bound_to 7965
  144.7025  140.3713  143.7145 LP  0  0  0  0  0  0  0  0  0  0  0  0  # atno 17321 bound_to 7965
  140.5637  144.0226  150.6182 LP  0  0  0  0  0  0  0  0  0  0  0  0  # atno 17342 bound_to 10162
  140.3320  143.3071  152.0677 LP  0  0  0  0  0  0  0  0  0  0  0  0  # atno 17343 bound_to 10162
  156.7506  130.4767  149.5457 LP  0  0  0  0  0  0  0  0  0  0  0  0  # atno 17370 bound_to 10713
  156.1481  130.6291  151.0558 LP  0  0  0  0  0  0  0  0  0  0  0  0  # atno 17371 bound_to 10713
  139.9689  134.7326  156.0081 LP  0  0  0  0  0  0  0  0  0  0  0  0  # atno 17394 bound_to 11000
  141.1413  133.6564  156.3739 LP  0  0  0  0  0  0  0  0  0  0  0  0  # atno 17395 bound_to 11000

$$$$
