AV-unprocessed.smi:1434|AV-procd|sdf|5850|dock3
  -GOLD-   22720 5513D 1   1.00000     0.00000
 Structure written by MMmdl.
 44 45  0  0  0  0  0  0  0  0  1 V2000
  144.7484  141.9181  159.5797 C   0  0  0  0  0  0  0  0  0  0  0  0
  146.0975  142.0991  158.3457 S   0  0  0  0  0  0  0  0  0  0  0  0
  145.8394  143.2893  157.5216 O   0  0  0  0  0  0  0  0  0  0  0  0
  147.3885  141.9443  159.0333 O   0  0  0  0  0  0  0  0  0  0  0  0
  145.8748  140.7164  157.3402 N   0  0  0  0  0  0  0  0  0  0  0  0
  146.7972  140.5320  156.2210 C   0  0  1  0  0  0  0  0  0  0  0  0
  146.0422  140.5950  154.8765 C   0  0  0  0  0  0  0  0  0  0  0  0
  147.0118  140.5630  153.6769 C   0  0  0  0  0  0  0  0  0  0  0  0
  148.1571  141.5782  153.8579 C   0  0  0  0  0  0  0  0  0  0  0  0
  148.8206  141.3136  155.1450 N   0  0  0  0  0  0  0  0  0  0  0  0
  149.9981  140.6657  155.3252 C   0  0  0  0  0  0  0  0  0  0  0  0
  150.5615  140.0353  154.4294 O   0  0  0  0  0  0  0  0  0  0  0  0
  150.5551  140.8437  156.5366 N   0  0  0  0  0  0  0  0  0  0  0  0
  151.9181  140.4649  156.9049 C   0  0  0  0  0  0  0  0  0  0  0  0
  152.2519  140.8350  158.3660 C   0  0  0  0  0  0  0  0  0  0  0  0
  152.1203  142.3185  158.6757 C   0  0  0  0  0  0  0  0  0  0  0  0
  152.5428  142.8357  159.9197 C   0  0  0  0  0  0  0  0  0  0  0  0
  152.3575  144.2080  160.1749 C   0  0  0  0  0  0  0  0  0  0  0  0
  151.7594  145.0070  159.1823 C   0  0  0  0  0  0  0  0  0  0  0  0
  151.3814  144.3975  157.9695 C   0  0  0  0  0  0  0  0  0  0  0  0
  151.5598  143.0836  157.7122 N   0  0  0  0  0  0  0  0  0  0  0  0
  147.9201  141.5850  156.2704 C   0  0  0  0  0  0  0  0  0  0  0  0
  144.7918  142.7469  160.2859 H   0  0  0  0  0  0  0  0  0  0  0  0
  144.8690  140.9776  160.1167 H   0  0  0  0  0  0  0  0  0  0  0  0
  143.7848  141.9264  159.0709 H   0  0  0  0  0  0  0  0  0  0  0  0
  144.9054  140.6350  157.0348 H   0  0  0  0  0  0  0  0  0  0  0  0
  147.2578  139.5480  156.3156 H   0  0  0  0  0  0  0  0  0  0  0  0
  145.3283  139.7737  154.8020 H   0  0  0  0  0  0  0  0  0  0  0  0
  145.4591  141.5160  154.8329 H   0  0  0  0  0  0  0  0  0  0  0  0
  147.4294  139.5611  153.5746 H   0  0  0  0  0  0  0  0  0  0  0  0
  146.4699  140.7665  152.7531 H   0  0  0  0  0  0  0  0  0  0  0  0
  148.8374  141.5452  153.0065 H   0  0  0  0  0  0  0  0  0  0  0  0
  147.7549  142.5923  153.8642 H   0  0  0  0  0  0  0  0  0  0  0  0
  150.0326  141.3745  157.2181 H   0  0  0  0  0  0  0  0  0  0  0  0
  152.0279  139.3897  156.7645 H   0  0  0  0  0  0  0  0  0  0  0  0
  152.6405  140.9309  156.2329 H   0  0  0  0  0  0  0  0  0  0  0  0
  151.5962  140.2780  159.0364 H   0  0  0  0  0  0  0  0  0  0  0  0
  153.2665  140.5133  158.6039 H   0  0  0  0  0  0  0  0  0  0  0  0
  152.9862  142.1952  160.6676 H   0  0  0  0  0  0  0  0  0  0  0  0
  152.6581  144.6376  161.1192 H   0  0  0  0  0  0  0  0  0  0  0  0
  151.5929  146.0613  159.3474 H   0  0  0  0  0  0  0  0  0  0  0  0
  150.9224  144.9806  157.1851 H   0  0  0  0  0  0  0  0  0  0  0  0
  147.5095  142.5922  156.1832 H   0  0  0  0  0  0  0  0  0  0  0  0
  148.4289  141.5528  157.2353 H   0  0  0  0  0  0  0  0  0  0  0  0
  1  2  1  0  0  0  0
  1 23  1  0  0  0  0
  1 24  1  0  0  0  0
  1 25  1  0  0  0  0
  2  3  2  0  0  0  0
  2  4  2  0  0  0  0
  2  5  1  0  0  0  0
  5  6  1  0  0  0  0
  5 26  1  0  0  0  0
  6 22  1  0  0  0  0
  6  7  1  0  0  0  0
  6 27  1  0  0  0  0
  7  8  1  0  0  0  0
  7 28  1  0  0  0  0
  7 29  1  0  0  0  0
  8  9  1  0  0  0  0
  8 30  1  0  0  0  0
  8 31  1  0  0  0  0
  9 10  1  0  0  0  0
  9 32  1  0  0  0  0
  9 33  1  0  0  0  0
 10 11  1  0  0  0  0
 10 22  1  0  0  0  0
 11 12  2  0  0  0  0
 11 13  1  0  0  0  0
 13 14  1  0  0  0  0
 13 34  1  0  0  0  0
 14 15  1  0  0  0  0
 14 35  1  0  0  0  0
 14 36  1  0  0  0  0
 15 16  1  0  0  0  0
 15 37  1  0  0  0  0
 15 38  1  0  0  0  0
 16 21  1  0  0  0  0
 16 17  2  0  0  0  0
 17 18  1  0  0  0  0
 17 39  1  0  0  0  0
 18 19  2  0  0  0  0
 18 40  1  0  0  0  0
 19 20  1  0  0  0  0
 19 41  1  0  0  0  0
 20 21  2  0  0  0  0
 20 42  1  0  0  0  0
 22 43  1  0  0  0  0
 22 44  1  0  0  0  0
M  END
> <s_m_source_file>
AV-unprocessed.smi

> <i_m_source_file_index>
1434

> <i_lp_mmshare_version>
43012

> <i_f3d_flags>
0

> <s_epik_input>
W0NIM11TKD1PKSg9TylbTkhdW0NAQEhdMVtDSDJdW0NIMl1bQ0gyXU4oW0NIMl0xKUMoPU8pW05IXVtDSDJdW0NIMl1jMltjSF1bY0hdW2NIXVtjSF1uMg==

> <s_epik_cmdline>
J2VwaWtfcHl0aG9uJywgJy1waCcsICc3LjAnLCAnLXRuJywgJzgnLCAnLW1hJywgJzIwMCcsICctbWV0YWxfYmluZGluZycsICctaW1hZScsICc8aW5maWxlLm1hZT4nLCAnLW9tYWUnLCAnPG91dGZpbGUubWFlPic=

> <r_epik_Ionization_Penalty>
0.0449488

> <r_epik_Ionization_Penalty_Charging>
0

> <r_epik_Ionization_Penalty_Neutral>
0.0449488

> <r_epik_State_Penalty>
0.0380669

> <r_epik_Charging_Adjusted_Penalty>
0.0380669

> <i_epik_Tot_Q>
0

> <i_epik_Tot_abs_Q>
0

> <r_epik_Metal_State_Penalty>
0.0441384

> <b_epik_Metal_Only>
0

> <s_lp_Force_Field>
OPLS_2005

> <r_lp_Energy>
20.2695

> <b_lp_Chiralities_Consistent>
1

> <s_lp_Variant>
AV-unprocessed.smi:1434-2

> <Gold.Version>
5.8.1

> <Gold.Id.Protein>
6NUR|6NUR_protein|mol2

> <Gold.PLP.Fitness>
43.5081

> <Gold.PLP.PLP>
-38.0957

> <Gold.PLP.part.hbond>
-2.3550

> <Gold.PLP.part.metal>
0.0000

> <Gold.PLP.part.buried>
-5.2985

> <Gold.PLP.part.nonpolar>
-31.6464

> <Gold.PLP.part.repulsive>
0.4601

> <Gold.PLP.ligand.clash>
0.0000

> <Gold.PLP.ligand.torsion>
1.0313

> <Gold.PLP.Chemscore.Hbond>
1.4352

> <Gold.PLP.Chemscore.CHOScore>
1.0000

> <Gold.PLP.Chemscore.Metal>
0.0000

> <Gold.Chemscore.Hbonds>
donor molecule, donor type, donor heavy atom, donor atom, acceptor molecule, acceptor atom, score
      P1  H  6934  6946       L1     4  0.46
      P1  H  7989  7998       L1    12  1.00
      L1  C    20    42       P1  8028  1.00

> <Gold.PLP.Chemscore.Internal.Correction>
0.1693

> <Gold.Rescore>
     Score         DG    S(hbond)    S(metal)    S(lipo)     H(rot)  DE(clash)    DE(int)     intcor
     11.23     -16.22       1.37        0.00      97.18       2.03       0.05       4.94       ----

> <Gold.Chemscore.Fitness>
11.2260

> <Gold.Chemscore.DG>
-16.2199

> <Gold.Chemscore.ZeroCoef>
-5.4800

> <Gold.Chemscore.Hbond>
1.3704

> <Gold.Chemscore.Metal>
0.0000

> <Gold.Chemscore.Lipo>
97.1785

> <Gold.Chemscore.Internal_Hbond>
0.0000

> <Gold.Chemscore.DEClash>
0.0526

> <Gold.Chemscore.DEInternal>
4.9413

> <Gold.Chemscore.Rot>
2.0340

> <Gold.Chemscore.Internal.Correction>
   9.000000E+99

> <Gold.Chemscore.Hbonds>
donor molecule, donor type, donor heavy atom, donor atom, acceptor molecule, acceptor atom, score
      P1  H  6934  6946       L1     4  0.20
      P1  H  7989  7998       L1    12  0.94

> <Gold.Chemscore.Hbond.Weighted>
-4.5771

> <Gold.Chemscore.Metal.Weighted>
-0.0000

> <Gold.Chemscore.Lipo.Weighted>
-11.3699

> <Gold.Chemscore.Internal_Hbond.Weighted>
0.0000

> <Gold.Chemscore.DEClash.Weighted>
0.0526

> <Gold.Chemscore.DEInternal.Weighted>
4.9413

> <Gold.Chemscore.Rot.Weighted>
5.2071

> <Gold.Chemscore.Internal.Correction.Weighted>
   9.000000E+99

> <Gold.Protein.RotatedTorsions>
[ 6907 6896 6895 6894 ] final   63.98 input  -60.11 | X-H torsion
[ 7974 7965 7964 7962 ] final   37.77 input  175.53 | X-H torsion
[ 8008 7997 7996 7995 ] final  -63.82 input   59.86 | X-H torsion
[ 10167 10162 10161 10158 ] final  -47.74 input  -65.29 | X-H torsion
[ 10718 10713 10712 10709 ] final -179.40 input   66.30 | X-H torsion
[ 10763 10752 10751 10750 ] final   60.63 input  -60.55 | X-H torsion
[ 11005 11000 10999 10996 ] final   19.75 input  -57.11 | X-H torsion

> <Gold.Protein.ActiveResidues>
 VAL166  LYS551  ARG553  GLY616  TRP617  ASP618  TYR619  PRO620  LYS621  CYS622 
 ASP623  PHE694  ASN695  SER759  ASP760  ASP761  ALA762  ILE779  LEU786  VAL792 
 PHE793  MET794  SER795  GLU796  ALA797  LYS798  CYS799  TRP800  GLU811  SER814 

> <Gold.Protein.RotatedAtoms>
  152.4296  134.5803  159.9945 H   0  0  0  0  0  0  0  0  0  0  0  0  # atno 6907 bound_to 6896
  151.5930  133.3359  159.3039 H   0  0  0  0  0  0  0  0  0  0  0  0  # atno 6908 bound_to 6896
  150.8188  134.7420  159.6819 H   0  0  0  0  0  0  0  0  0  0  0  0  # atno 6909 bound_to 6896
  146.1112  139.5853  142.9351 H   0  0  0  0  0  0  0  0  0  0  0  0  # atno 7974 bound_to 7965
  154.4576  140.0967  156.6801 H   0  0  0  0  0  0  0  0  0  0  0  0  # atno 8008 bound_to 7997
  155.5091  140.3476  155.4367 H   0  0  0  0  0  0  0  0  0  0  0  0  # atno 8009 bound_to 7997
  156.0808  140.1372  156.9703 H   0  0  0  0  0  0  0  0  0  0  0  0  # atno 8010 bound_to 7997
  140.6762  143.2771  151.3970 H   0  0  0  0  0  0  0  0  0  0  0  0  # atno 10167 bound_to 10162
  156.8586  130.9744  151.3085 H   0  0  0  0  0  0  0  0  0  0  0  0  # atno 10718 bound_to 10713
  152.9927  135.5529  154.5905 H   0  0  0  0  0  0  0  0  0  0  0  0  # atno 10763 bound_to 10752
  154.5267  135.2811  155.1217 H   0  0  0  0  0  0  0  0  0  0  0  0  # atno 10764 bound_to 10752
  154.2549  135.6392  153.5306 H   0  0  0  0  0  0  0  0  0  0  0  0  # atno 10765 bound_to 10752
  140.4102  134.1626  155.7667 H   0  0  0  0  0  0  0  0  0  0  0  0  # atno 11005 bound_to 11000
  145.5659  141.0399  143.2200 LP  0  0  0  0  0  0  0  0  0  0  0  0  # atno 17320 bound_to 7965
  144.7513  139.7186  143.7272 LP  0  0  0  0  0  0  0  0  0  0  0  0  # atno 17321 bound_to 7965
  139.6055  144.1205  152.2245 LP  0  0  0  0  0  0  0  0  0  0  0  0  # atno 17342 bound_to 10162
  140.0603  144.5862  150.7268 LP  0  0  0  0  0  0  0  0  0  0  0  0  # atno 17343 bound_to 10162
  157.6263  130.8694  149.9195 LP  0  0  0  0  0  0  0  0  0  0  0  0  # atno 17370 bound_to 10713
  156.0789  130.3675  150.0621 LP  0  0  0  0  0  0  0  0  0  0  0  0  # atno 17371 bound_to 10713
  141.1824  133.8386  157.1211 LP  0  0  0  0  0  0  0  0  0  0  0  0  # atno 17394 bound_to 11000
  140.0273  134.9918  157.0711 LP  0  0  0  0  0  0  0  0  0  0  0  0  # atno 17395 bound_to 11000

$$$$
