AV-unprocessed.smi:2591|AV-procd|sdf|10157|dock1
  -GOLD-   2272014173D 1   1.00000     0.00000
 Structure written by MMmdl.
 34 35  0  0  0  0  0  0  0  0  1 V2000
  151.4569  145.6088  160.1433 C   0  0  0  0  0  0  0  0  0  0  0  0
  152.3044  144.4306  160.2459 N   0  0  0  0  0  0  0  0  0  0  0  0
  152.2072  143.8090  161.5594 C   0  0  0  0  0  0  0  0  0  0  0  0
  153.1014  142.5621  161.6622 C   0  0  0  0  0  0  0  0  0  0  0  0
  152.7606  141.6424  160.6290 O   0  0  0  0  0  0  0  0  0  0  0  0
  152.8845  142.1961  159.3178 C   0  0  1  0  0  0  0  0  0  0  0  0
  152.5253  141.1162  158.2869 C   0  0  0  0  0  0  0  0  0  0  0  0
  153.0976  140.0254  158.3096 O   0  0  0  0  0  0  0  0  0  0  0  0
  151.5570  141.4468  157.4109 N   0  0  0  0  0  0  0  0  0  0  0  0
  151.0097  140.6614  156.3621 C   0  0  0  0  0  0  0  0  0  0  0  0
  149.7214  141.0511  155.9327 C   0  0  0  0  0  0  0  0  0  0  0  0
  149.0798  140.3318  154.9012 C   0  0  0  0  0  0  0  0  0  0  0  0
  147.6946  140.7309  154.4162 C   0  0  0  0  0  0  0  0  0  0  0  0
  147.6916  141.9876  153.9709 F   0  0  0  0  0  0  0  0  0  0  0  0
  147.2925  139.9351  153.4245 F   0  0  0  0  0  0  0  0  0  0  0  0
  146.8302  140.6304  155.4250 F   0  0  0  0  0  0  0  0  0  0  0  0
  149.7638  139.2448  154.3199 C   0  0  0  0  0  0  0  0  0  0  0  0
  151.0452  138.9258  154.8040 C   0  0  0  0  0  0  0  0  0  0  0  0
  151.6515  139.6099  155.7958 N   0  0  0  0  0  0  0  0  0  0  0  0
  151.9865  143.4505  159.2153 C   0  0  0  0  0  0  0  0  0  0  0  0
  151.7273  146.3465  160.8994 H   0  0  0  0  0  0  0  0  0  0  0  0
  150.4056  145.3513  160.2792 H   0  0  0  0  0  0  0  0  0  0  0  0
  151.5677  146.0793  159.1658 H   0  0  0  0  0  0  0  0  0  0  0  0
  152.4923  144.5254  162.3306 H   0  0  0  0  0  0  0  0  0  0  0  0
  151.1721  143.5281  161.7606 H   0  0  0  0  0  0  0  0  0  0  0  0
  154.1548  142.8346  161.5827 H   0  0  0  0  0  0  0  0  0  0  0  0
  152.9676  142.0779  162.6294 H   0  0  0  0  0  0  0  0  0  0  0  0
  153.9257  142.4777  159.1499 H   0  0  0  0  0  0  0  0  0  0  0  0
  151.1692  142.3737  157.5098 H   0  0  0  0  0  0  0  0  0  0  0  0
  149.2279  141.8953  156.3924 H   0  0  0  0  0  0  0  0  0  0  0  0
  149.3222  138.6676  153.5208 H   0  0  0  0  0  0  0  0  0  0  0  0
  151.5994  138.1002  154.3827 H   0  0  0  0  0  0  0  0  0  0  0  0
  150.9380  143.1578  159.2976 H   0  0  0  0  0  0  0  0  0  0  0  0
  152.1061  143.9080  158.2322 H   0  0  0  0  0  0  0  0  0  0  0  0
  1  2  1  0  0  0  0
  1 21  1  0  0  0  0
  1 22  1  0  0  0  0
  1 23  1  0  0  0  0
  2 20  1  0  0  0  0
  2  3  1  0  0  0  0
  3  4  1  0  0  0  0
  3 24  1  0  0  0  0
  3 25  1  0  0  0  0
  4  5  1  0  0  0  0
  4 26  1  0  0  0  0
  4 27  1  0  0  0  0
  5  6  1  0  0  0  0
  6  7  1  0  0  0  0
  6 20  1  0  0  0  0
  6 28  1  0  0  0  0
  7  8  2  0  0  0  0
  7  9  1  0  0  0  0
  9 10  1  0  0  0  0
  9 29  1  0  0  0  0
 10 19  1  0  0  0  0
 10 11  2  0  0  0  0
 11 12  1  0  0  0  0
 11 30  1  0  0  0  0
 12 13  1  0  0  0  0
 12 17  2  0  0  0  0
 13 14  1  0  0  0  0
 13 15  1  0  0  0  0
 13 16  1  0  0  0  0
 17 18  1  0  0  0  0
 17 31  1  0  0  0  0
 18 19  2  0  0  0  0
 18 32  1  0  0  0  0
 20 33  1  0  0  0  0
 20 34  1  0  0  0  0
M  END
> <s_m_source_file>
AV-unprocessed.smi

> <i_m_source_file_index>
2591

> <i_lp_mmshare_version>
43012

> <i_f3d_flags>
0

> <s_epik_input>
W0NIM11OMVtDSDJdW0NIMl1PW0NASF0oW0NIMl0xKUMoPU8pW05IXWMyW2NIXWMoQyhGKShGKUYpW2NIXVtjSF1uMg==

> <s_epik_cmdline>
J2VwaWtfcHl0aG9uJywgJy1waCcsICc3LjAnLCAnLXRuJywgJzgnLCAnLW1hJywgJzIwMCcsICctbWV0YWxfYmluZGluZycsICctaW1hZScsICc8aW5maWxlLm1hZT4nLCAnLW9tYWUnLCAnPG91dGZpbGUubWFlPic=

> <r_epik_Ionization_Penalty>
0.526245

> <r_epik_Ionization_Penalty_Charging>
0

> <r_epik_Ionization_Penalty_Neutral>
0.526245

> <r_epik_State_Penalty>
0.534659

> <r_epik_Charging_Adjusted_Penalty>
0.534659

> <i_epik_Tot_Q>
0

> <i_epik_Tot_abs_Q>
0

> <r_epik_Metal_State_Penalty>
0.534657

> <b_epik_Metal_Only>
0

> <s_lp_Force_Field>
OPLS_2005

> <r_lp_Energy>
21.9247

> <b_lp_Chiralities_Consistent>
1

> <s_lp_Variant>
AV-unprocessed.smi:2591-5

> <Gold.Version>
5.8.1

> <Gold.Id.Protein>
6NUR|6NUR_protein|mol2

> <Gold.PLP.Fitness>
44.7371

> <Gold.PLP.PLP>
-42.8445

> <Gold.PLP.part.hbond>
-1.0000

> <Gold.PLP.part.metal>
0.0000

> <Gold.PLP.part.buried>
-5.3295

> <Gold.PLP.part.nonpolar>
-35.8701

> <Gold.PLP.part.repulsive>
0.1405

> <Gold.PLP.ligand.clash>
1.8771

> <Gold.PLP.ligand.torsion>
0.1582

> <Gold.PLP.Chemscore.Hbond>
1.0000

> <Gold.PLP.Chemscore.CHOScore>
0.0000

> <Gold.PLP.Chemscore.Metal>
0.0000

> <Gold.Chemscore.Hbonds>
donor molecule, donor type, donor heavy atom, donor atom, acceptor molecule, acceptor atom, score
      P1  H  7997  8008       L1     8  1.00

> <Gold.PLP.Chemscore.Internal.Correction>
1.0861

> <Gold.Rescore>
     Score         DG    S(hbond)    S(metal)    S(lipo)     H(rot)  DE(clash)    DE(int)     intcor
     15.13     -16.50       0.90        0.00      90.40       1.00       0.04       1.33       ----

> <Gold.Chemscore.Fitness>
15.1339

> <Gold.Chemscore.DG>
-16.5027

> <Gold.Chemscore.ZeroCoef>
-5.4800

> <Gold.Chemscore.Hbond>
0.9000

> <Gold.Chemscore.Metal>
0.0000

> <Gold.Chemscore.Lipo>
90.3981

> <Gold.Chemscore.Internal_Hbond>
0.0000

> <Gold.Chemscore.DEClash>
0.0402

> <Gold.Chemscore.DEInternal>
1.3285

> <Gold.Chemscore.Rot>
1.0000

> <Gold.Chemscore.Internal.Correction>
   9.000000E+99

> <Gold.Chemscore.Hbonds>
donor molecule, donor type, donor heavy atom, donor atom, acceptor molecule, acceptor atom, score
      P1  H  7997  8008       L1     8  0.62

> <Gold.Chemscore.Hbond.Weighted>
-3.0061

> <Gold.Chemscore.Metal.Weighted>
-0.0000

> <Gold.Chemscore.Lipo.Weighted>
-10.5766

> <Gold.Chemscore.Internal_Hbond.Weighted>
0.0000

> <Gold.Chemscore.DEClash.Weighted>
0.0402

> <Gold.Chemscore.DEInternal.Weighted>
1.3285

> <Gold.Chemscore.Rot.Weighted>
2.5600

> <Gold.Chemscore.Internal.Correction.Weighted>
   9.000000E+99

> <Gold.Protein.RotatedTorsions>
[ 6907 6896 6895 6894 ] final  153.26 input  -60.11 | X-H torsion
[ 7974 7965 7964 7962 ] final  112.87 input  175.53 | X-H torsion
[ 8008 7997 7996 7995 ] final  -81.65 input   59.86 | X-H torsion
[ 10167 10162 10161 10158 ] final  -84.91 input  -65.29 | X-H torsion
[ 10718 10713 10712 10709 ] final -155.31 input   66.30 | X-H torsion
[ 10763 10752 10751 10750 ] final  -62.34 input  -60.55 | X-H torsion
[ 11005 11000 10999 10996 ] final  -26.88 input  -57.11 | X-H torsion

> <Gold.Protein.ActiveResidues>
 VAL166  LYS551  ARG553  GLY616  TRP617  ASP618  TYR619  PRO620  LYS621  CYS622 
 ASP623  PHE694  ASN695  SER759  ASP760  ASP761  ALA762  ILE779  LEU786  VAL792 
 PHE793  MET794  SER795  GLU796  ALA797  LYS798  CYS799  TRP800  GLU811  SER814 

> <Gold.Protein.RotatedAtoms>
  152.0752  133.4126  159.4476 H   0  0  0  0  0  0  0  0  0  0  0  0  # atno 6907 bound_to 6896
  150.6863  134.3045  159.4729 H   0  0  0  0  0  0  0  0  0  0  0  0  # atno 6908 bound_to 6896
  152.0881  134.9425  160.0623 H   0  0  0  0  0  0  0  0  0  0  0  0  # atno 6909 bound_to 6896
  145.2241  139.2848  143.4202 H   0  0  0  0  0  0  0  0  0  0  0  0  # atno 7974 bound_to 7965
  154.6005  140.0645  156.9361 H   0  0  0  0  0  0  0  0  0  0  0  0  # atno 8008 bound_to 7997
  155.2141  140.3325  155.4306 H   0  0  0  0  0  0  0  0  0  0  0  0  # atno 8009 bound_to 7997
  156.2315  140.1843  156.7214 H   0  0  0  0  0  0  0  0  0  0  0  0  # atno 8010 bound_to 7997
  140.4088  143.2631  151.9045 H   0  0  0  0  0  0  0  0  0  0  0  0  # atno 10167 bound_to 10162
  156.5111  130.8435  151.2647 H   0  0  0  0  0  0  0  0  0  0  0  0  # atno 10718 bound_to 10713
  154.2983  135.6239  153.5414 H   0  0  0  0  0  0  0  0  0  0  0  0  # atno 10763 bound_to 10752
  152.9843  135.5672  154.5312 H   0  0  0  0  0  0  0  0  0  0  0  0  # atno 10764 bound_to 10752
  154.4938  135.2868  155.1452 H   0  0  0  0  0  0  0  0  0  0  0  0  # atno 10765 bound_to 10752
  140.9069  133.7487  156.0618 H   0  0  0  0  0  0  0  0  0  0  0  0  # atno 11005 bound_to 11000
  146.3369  140.2556  142.8600 LP  0  0  0  0  0  0  0  0  0  0  0  0  # atno 17320 bound_to 7965
  144.9737  140.8393  143.5439 LP  0  0  0  0  0  0  0  0  0  0  0  0  # atno 17321 bound_to 7965
  139.4783  144.5558  151.8315 LP  0  0  0  0  0  0  0  0  0  0  0  0  # atno 17342 bound_to 10162
  140.4661  144.1654  150.5912 LP  0  0  0  0  0  0  0  0  0  0  0  0  # atno 17343 bound_to 10162
  157.7450  130.9949  150.2725 LP  0  0  0  0  0  0  0  0  0  0  0  0  # atno 17370 bound_to 10713
  156.3239  130.3790  149.7550 LP  0  0  0  0  0  0  0  0  0  0  0  0  # atno 17371 bound_to 10713
  140.8160  134.3345  157.5397 LP  0  0  0  0  0  0  0  0  0  0  0  0  # atno 17394 bound_to 11000
  139.8751  134.9281  156.3443 LP  0  0  0  0  0  0  0  0  0  0  0  0  # atno 17395 bound_to 11000

$$$$
