AV-unprocessed.smi:1255|AV-procd|sdf|5282|dock1
  -GOLD-   22720 4403D 1   1.00000     0.00000
 Structure written by MMmdl.
 40 41  0  0  0  0  0  0  0  0  1 V2000
  149.4069  139.4005  149.9669 C   0  0  0  0  0  0  0  0  0  0  0  0
  148.3046  139.7445  150.9826 C   0  0  1  0  0  0  0  0  0  0  0  0
  147.7261  138.4912  151.4654 N   0  0  0  0  0  0  0  0  0  0  0  0
  146.5577  138.3837  152.1151 C   0  0  0  0  0  0  0  0  0  0  0  0
  146.2868  137.1270  152.4678 N   0  0  0  0  0  0  0  0  0  0  0  0
  145.8109  139.3272  152.3671 O   0  0  0  0  0  0  0  0  0  0  0  0
  148.9491  140.5253  152.1404 C   0  0  0  0  0  0  0  0  0  0  0  0
  148.7015  141.7230  152.2877 O   0  0  0  0  0  0  0  0  0  0  0  0
  149.7673  139.8111  152.9349 N   0  0  0  0  0  0  0  0  0  0  0  0
  150.4987  140.2423  154.0748 C   0  0  0  0  0  0  0  0  0  0  0  0
  151.2710  139.3904  154.8976 C   0  0  0  0  0  0  0  0  0  0  0  0
  151.9675  139.9434  155.9894 C   0  0  0  0  0  0  0  0  0  0  0  0
  151.8834  141.3346  156.2340 C   0  0  0  0  0  0  0  0  0  0  0  0
  152.5724  141.9094  157.3249 N   0  0  0  0  0  0  0  0  0  0  0  0
  153.5863  142.9234  157.0397 C   0  0  0  0  0  0  0  0  0  0  0  0
  154.4258  143.2107  158.2957 C   0  0  0  0  0  0  0  0  0  0  0  0
  153.5682  143.5823  159.3693 O   0  0  0  0  0  0  0  0  0  0  0  0
  152.6607  142.5384  159.7062 C   0  0  0  0  0  0  0  0  0  0  0  0
  151.7604  142.2171  158.5003 C   0  0  0  0  0  0  0  0  0  0  0  0
  151.1584  142.1505  155.4298 N   0  0  0  0  0  0  0  0  0  0  0  0
  150.4918  141.6166  154.3850 C   0  0  0  0  0  0  0  0  0  0  0  0
  149.8739  140.3023  149.5685 H   0  0  0  0  0  0  0  0  0  0  0  0
  148.9971  138.8482  149.1207 H   0  0  0  0  0  0  0  0  0  0  0  0
  150.1930  138.7869  150.4102 H   0  0  0  0  0  0  0  0  0  0  0  0
  147.5348  140.3480  150.4970 H   0  0  0  0  0  0  0  0  0  0  0  0
  148.2681  137.6532  151.3146 H   0  0  0  0  0  0  0  0  0  0  0  0
  145.4319  136.9088  152.9581 H   0  0  0  0  0  0  0  0  0  0  0  0
  146.9406  136.3938  152.2344 H   0  0  0  0  0  0  0  0  0  0  0  0
  149.9369  138.8580  152.6475 H   0  0  0  0  0  0  0  0  0  0  0  0
  151.3595  138.3325  154.7062 H   0  0  0  0  0  0  0  0  0  0  0  0
  152.5703  139.2983  156.6105 H   0  0  0  0  0  0  0  0  0  0  0  0
  154.2435  142.5868  156.2369 H   0  0  0  0  0  0  0  0  0  0  0  0
  153.0970  143.8375  156.7008 H   0  0  0  0  0  0  0  0  0  0  0  0
  155.0202  142.3389  158.5748 H   0  0  0  0  0  0  0  0  0  0  0  0
  155.1257  144.0236  158.1019 H   0  0  0  0  0  0  0  0  0  0  0  0
  153.2113  141.6524  160.0263 H   0  0  0  0  0  0  0  0  0  0  0  0
  152.0529  142.8575  160.5529 H   0  0  0  0  0  0  0  0  0  0  0  0
  151.1231  143.0724  158.2725 H   0  0  0  0  0  0  0  0  0  0  0  0
  151.1003  141.3923  158.7642 H   0  0  0  0  0  0  0  0  0  0  0  0
  149.9310  142.3128  153.7785 H   0  0  0  0  0  0  0  0  0  0  0  0
  1  2  1  0  0  0  0
  1 22  1  0  0  0  0
  1 23  1  0  0  0  0
  1 24  1  0  0  0  0
  2  3  1  0  0  0  0
  2  7  1  0  0  0  0
  2 25  1  0  0  0  0
  3  4  1  0  0  0  0
  3 26  1  0  0  0  0
  4  5  1  0  0  0  0
  4  6  2  0  0  0  0
  5 27  1  0  0  0  0
  5 28  1  0  0  0  0
  7  8  2  0  0  0  0
  7  9  1  0  0  0  0
  9 10  1  0  0  0  0
  9 29  1  0  0  0  0
 10 21  1  0  0  0  0
 10 11  2  0  0  0  0
 11 12  1  0  0  0  0
 11 30  1  0  0  0  0
 12 13  2  0  0  0  0
 12 31  1  0  0  0  0
 13 14  1  0  0  0  0
 13 20  1  0  0  0  0
 14 19  1  0  0  0  0
 14 15  1  0  0  0  0
 15 16  1  0  0  0  0
 15 32  1  0  0  0  0
 15 33  1  0  0  0  0
 16 17  1  0  0  0  0
 16 34  1  0  0  0  0
 16 35  1  0  0  0  0
 17 18  1  0  0  0  0
 18 19  1  0  0  0  0
 18 36  1  0  0  0  0
 18 37  1  0  0  0  0
 19 38  1  0  0  0  0
 19 39  1  0  0  0  0
 20 21  2  0  0  0  0
 21 40  1  0  0  0  0
M  END
> <s_m_source_file>
AV-unprocessed.smi

> <i_m_source_file_index>
1255

> <i_lp_mmshare_version>
43012

> <i_f3d_flags>
0

> <s_epik_input>
W05IMl1DKD1PKVtOSF1bQ0BASF0oW0NIM10pQyg9TylbTkhdYzFbY0hdW2NIXWMobltjSF0xKU4yW0NIMl1bQ0gyXU9bQ0gyXVtDSDJdMg==

> <s_epik_cmdline>
J2VwaWtfcHl0aG9uJywgJy1waCcsICc3LjAnLCAnLXRuJywgJzgnLCAnLW1hJywgJzIwMCcsICctbWV0YWxfYmluZGluZycsICctaW1hZScsICc8aW5maWxlLm1hZT4nLCAnLW9tYWUnLCAnPG91dGZpbGUubWFlPic=

> <r_lp_tautomer_probability>
1

> <r_epik_Ionization_Penalty>
0.00069351

> <r_epik_Ionization_Penalty_Charging>
0

> <r_epik_Ionization_Penalty_Neutral>
0.00069351

> <r_epik_State_Penalty>
0.000408291

> <r_epik_Charging_Adjusted_Penalty>
0.000408291

> <i_epik_Tot_Q>
0

> <i_epik_Tot_abs_Q>
0

> <r_epik_Metal_State_Penalty>
-0

> <b_epik_Metal_Only>
0

> <s_lp_Force_Field>
OPLS_2005

> <r_lp_Energy>
18.2011

> <b_lp_Chiralities_Consistent>
1

> <s_lp_Variant>
AV-unprocessed.smi:1255-2

> <Gold.Version>
5.8.1

> <Gold.Id.Protein>
6NUR|6NUR_protein|mol2

> <Gold.PLP.Fitness>
40.0393

> <Gold.PLP.PLP>
-35.5976

> <Gold.PLP.part.hbond>
-2.6396

> <Gold.PLP.part.metal>
0.0000

> <Gold.PLP.part.buried>
0.5135

> <Gold.PLP.part.nonpolar>
-33.5506

> <Gold.PLP.part.repulsive>
0.9272

> <Gold.PLP.ligand.clash>
0.0000

> <Gold.PLP.ligand.torsion>
0.6919

> <Gold.PLP.Chemscore.Hbond>
1.8160

> <Gold.PLP.Chemscore.CHOScore>
0.0000

> <Gold.PLP.Chemscore.Metal>
0.0000

> <Gold.Chemscore.Hbonds>
donor molecule, donor type, donor heavy atom, donor atom, acceptor molecule, acceptor atom, score
      L1  H     3    26       P1  7948  1.00
      L1  H     5    28       P1  7948  0.75
      P1  H  8011  8017       L1     8  0.24

> <Gold.PLP.Chemscore.Internal.Correction>
0.3776

> <Gold.Rescore>
     Score         DG    S(hbond)    S(metal)    S(lipo)     H(rot)  DE(clash)    DE(int)     intcor
     13.27     -17.36       1.90        0.00      89.08       1.91       1.75       2.34       ----

> <Gold.Chemscore.Fitness>
13.2687

> <Gold.Chemscore.DG>
-17.3573

> <Gold.Chemscore.ZeroCoef>
-5.4800

> <Gold.Chemscore.Hbond>
1.8970

> <Gold.Chemscore.Metal>
0.0000

> <Gold.Chemscore.Lipo>
89.0809

> <Gold.Chemscore.Internal_Hbond>
0.0000

> <Gold.Chemscore.DEClash>
1.7492

> <Gold.Chemscore.DEInternal>
2.3394

> <Gold.Chemscore.Rot>
1.9067

> <Gold.Chemscore.Internal.Correction>
   9.000000E+99

> <Gold.Chemscore.Hbonds>
donor molecule, donor type, donor heavy atom, donor atom, acceptor molecule, acceptor atom, score
      L1  H     3    26       P1  7948  0.95
      L1  H     5    28       P1  7948  0.70
      P1  H  8011  8017       L1     8  0.20

> <Gold.Chemscore.Hbond.Weighted>
-6.3359

> <Gold.Chemscore.Metal.Weighted>
-0.0000

> <Gold.Chemscore.Lipo.Weighted>
-10.4225

> <Gold.Chemscore.Internal_Hbond.Weighted>
0.0000

> <Gold.Chemscore.DEClash.Weighted>
1.7492

> <Gold.Chemscore.DEInternal.Weighted>
2.3394

> <Gold.Chemscore.Rot.Weighted>
4.8811

> <Gold.Chemscore.Internal.Correction.Weighted>
   9.000000E+99

> <Gold.Protein.RotatedTorsions>
[ 6907 6896 6895 6894 ] final -139.63 input  -60.11 | X-H torsion
[ 7974 7965 7964 7962 ] final  -31.36 input  175.53 | X-H torsion
[ 8008 7997 7996 7995 ] final  -38.04 input   59.86 | X-H torsion
[ 10167 10162 10161 10158 ] final    5.22 input  -65.29 | X-H torsion
[ 10718 10713 10712 10709 ] final  161.56 input   66.30 | X-H torsion
[ 10763 10752 10751 10750 ] final -105.02 input  -60.55 | X-H torsion
[ 11005 11000 10999 10996 ] final -157.08 input  -57.11 | X-H torsion

> <Gold.Protein.ActiveResidues>
 VAL166  LYS551  ARG553  GLY616  TRP617  ASP618  TYR619  PRO620  LYS621  CYS622 
 ASP623  PHE694  ASN695  SER759  ASP760  ASP761  ALA762  ILE779  LEU786  VAL792 
 PHE793  MET794  SER795  GLU796  ALA797  LYS798  CYS799  TRP800  GLU811  SER814 

> <Gold.Protein.RotatedAtoms>
  151.0503  133.5630  159.2642 H   0  0  0  0  0  0  0  0  0  0  0  0  # atno 6907 bound_to 6896
  151.2644  135.0663  159.9120 H   0  0  0  0  0  0  0  0  0  0  0  0  # atno 6908 bound_to 6896
  152.5380  134.0243  159.8050 H   0  0  0  0  0  0  0  0  0  0  0  0  # atno 6909 bound_to 6896
  146.1073  140.5657  142.8794 H   0  0  0  0  0  0  0  0  0  0  0  0  # atno 7974 bound_to 7965
  154.4043  140.1588  156.2635 H   0  0  0  0  0  0  0  0  0  0  0  0  # atno 8008 bound_to 7997
  155.9015  140.3433  155.6008 H   0  0  0  0  0  0  0  0  0  0  0  0  # atno 8009 bound_to 7997
  155.7442  140.0796  157.2222 H   0  0  0  0  0  0  0  0  0  0  0  0  # atno 8010 bound_to 7997
  140.6494  143.7583  150.7550 H   0  0  0  0  0  0  0  0  0  0  0  0  # atno 10167 bound_to 10162
  157.1348  131.0525  151.2354 H   0  0  0  0  0  0  0  0  0  0  0  0  # atno 10718 bound_to 10713
  154.7918  135.4765  154.0070 H   0  0  0  0  0  0  0  0  0  0  0  0  # atno 10763 bound_to 10752
  153.1642  135.6814  153.8706 H   0  0  0  0  0  0  0  0  0  0  0  0  # atno 10764 bound_to 10752
  153.8309  135.3192  155.3396 H   0  0  0  0  0  0  0  0  0  0  0  0  # atno 10765 bound_to 10752
  140.6685  134.4273  157.5232 H   0  0  0  0  0  0  0  0  0  0  0  0  # atno 11005 bound_to 11000
  144.7482  140.5122  143.6821 LP  0  0  0  0  0  0  0  0  0  0  0  0  # atno 17320 bound_to 7965
  145.5735  139.1484  143.3275 LP  0  0  0  0  0  0  0  0  0  0  0  0  # atno 17321 bound_to 7965
  140.1231  143.4594  152.2301 LP  0  0  0  0  0  0  0  0  0  0  0  0  # atno 17342 bound_to 10162
  139.5707  144.7461  151.3899 LP  0  0  0  0  0  0  0  0  0  0  0  0  # atno 17343 bound_to 10162
  157.4360  130.7517  149.7029 LP  0  0  0  0  0  0  0  0  0  0  0  0  # atno 17370 bound_to 10713
  155.9800  130.4034  150.3552 LP  0  0  0  0  0  0  0  0  0  0  0  0  # atno 17371 bound_to 10713
  139.8989  134.8603  156.1981 LP  0  0  0  0  0  0  0  0  0  0  0  0  # atno 17394 bound_to 11000
  141.0410  133.6937  156.1598 LP  0  0  0  0  0  0  0  0  0  0  0  0  # atno 17395 bound_to 11000

$$$$
