AV-unprocessed.smi:25|AV-procd|sdf|180|dock3
  -GOLD-   2262015443D 1   1.00000     0.00000
 Structure written by MMmdl.
 47 50  0  0  0  0  0  0  0  0  1 V2000
  149.4248  141.0493  156.7710 C   0  0  0  0  0  0  0  0  0  0  0  0
  150.8542  141.6272  156.7697 C   0  0  1  0  0  0  0  0  0  0  0  0
  150.9666  142.8575  157.6980 C   0  0  0  0  0  0  0  0  0  0  0  0
  151.9170  142.3985  158.7599 C   0  0  0  0  0  0  0  0  0  0  0  0
  152.2880  143.1245  159.9050 C   0  0  0  0  0  0  0  0  0  0  0  0
  153.1799  142.5259  160.8168 C   0  0  0  0  0  0  0  0  0  0  0  0
  153.6718  141.2244  160.5755 C   0  0  0  0  0  0  0  0  0  0  0  0
  153.2867  140.5094  159.4202 C   0  0  0  0  0  0  0  0  0  0  0  0
  152.4040  141.1189  158.4959 C   0  0  0  0  0  0  0  0  0  0  0  0
  151.8490  140.6481  157.2666 N   0  0  0  0  0  0  0  0  0  0  0  0
  152.2143  139.5848  156.4978 C   0  0  0  0  0  0  0  0  0  0  0  0
  153.0456  138.7675  156.9009 O   0  0  0  0  0  0  0  0  0  0  0  0
  151.5851  139.3444  155.1118 C   0  0  0  0  0  0  0  0  0  0  0  0
  150.5149  138.3196  155.1094 N   0  0  0  0  0  0  0  0  0  0  0  0
  150.8213  137.0136  155.5686 C   0  0  0  0  0  0  0  0  0  0  0  0
  151.9536  136.7215  155.9564 O   0  0  0  0  0  0  0  0  0  0  0  0
  149.7131  136.0654  155.5593 C   0  0  0  0  0  0  0  0  0  0  0  0
  149.9109  134.8059  155.9839 F   0  0  0  0  0  0  0  0  0  0  0  0
  148.4872  136.4340  155.1351 C   0  0  0  0  0  0  0  0  0  0  0  0
  148.2027  137.7109  154.6876 N   0  0  0  0  0  0  0  0  0  0  0  0
  146.8103  138.0930  154.2370 C   0  0  2  0  0  0  0  0  0  0  0  0
  145.8688  136.8883  154.3473 C   0  0  0  0  0  0  0  0  0  0  0  0
  145.9205  136.3218  152.9450 C   0  0  0  0  0  0  0  0  0  0  0  0
  146.0582  137.5883  152.1078 C   0  0  0  0  0  0  0  0  0  0  0  0
  146.8544  138.4733  152.8914 O   0  0  0  0  0  0  0  0  0  0  0  0
  149.2177  138.6920  154.6812 C   0  0  0  0  0  0  0  0  0  0  0  0
  148.9745  139.8466  154.3234 O   0  0  0  0  0  0  0  0  0  0  0  0
  148.7019  141.8012  156.4533 H   0  0  0  0  0  0  0  0  0  0  0  0
  149.1370  140.7124  157.7674 H   0  0  0  0  0  0  0  0  0  0  0  0
  149.3250  140.2018  156.0933 H   0  0  0  0  0  0  0  0  0  0  0  0
  151.1127  141.9356  155.7550 H   0  0  0  0  0  0  0  0  0  0  0  0
  151.3860  143.7174  157.1745 H   0  0  0  0  0  0  0  0  0  0  0  0
  150.0115  143.1502  158.1361 H   0  0  0  0  0  0  0  0  0  0  0  0
  151.8958  144.1147  160.0849 H   0  0  0  0  0  0  0  0  0  0  0  0
  153.4815  143.0600  161.7057 H   0  0  0  0  0  0  0  0  0  0  0  0
  154.3465  140.7687  161.2851 H   0  0  0  0  0  0  0  0  0  0  0  0
  153.6804  139.5162  159.3037 H   0  0  0  0  0  0  0  0  0  0  0  0
  151.1931  140.2885  154.7326 H   0  0  0  0  0  0  0  0  0  0  0  0
  152.3753  139.0491  154.4218 H   0  0  0  0  0  0  0  0  0  0  0  0
  147.7031  135.6922  155.1578 H   0  0  0  0  0  0  0  0  0  0  0  0
  146.5128  138.9463  154.8485 H   0  0  0  0  0  0  0  0  0  0  0  0
  146.1773  136.1864  155.1231 H   0  0  0  0  0  0  0  0  0  0  0  0
  144.8658  137.2506  154.5760 H   0  0  0  0  0  0  0  0  0  0  0  0
  146.8009  135.6894  152.8247 H   0  0  0  0  0  0  0  0  0  0  0  0
  145.0394  135.7338  152.6867 H   0  0  0  0  0  0  0  0  0  0  0  0
  146.5081  137.4015  151.1328 H   0  0  0  0  0  0  0  0  0  0  0  0
  145.0808  138.0458  151.9498 H   0  0  0  0  0  0  0  0  0  0  0  0
  1  2  1  0  0  0  0
  1 28  1  0  0  0  0
  1 29  1  0  0  0  0
  1 30  1  0  0  0  0
  2 10  1  0  0  0  0
  2  3  1  0  0  0  0
  2 31  1  0  0  0  0
  3  4  1  0  0  0  0
  3 32  1  0  0  0  0
  3 33  1  0  0  0  0
  4  9  2  0  0  0  0
  4  5  1  0  0  0  0
  5  6  2  0  0  0  0
  5 34  1  0  0  0  0
  6  7  1  0  0  0  0
  6 35  1  0  0  0  0
  7  8  2  0  0  0  0
  7 36  1  0  0  0  0
  8  9  1  0  0  0  0
  8 37  1  0  0  0  0
  9 10  1  0  0  0  0
 10 11  1  0  0  0  0
 11 12  2  0  0  0  0
 11 13  1  0  0  0  0
 13 14  1  0  0  0  0
 13 38  1  0  0  0  0
 13 39  1  0  0  0  0
 14 26  1  0  0  0  0
 14 15  1  0  0  0  0
 15 16  2  0  0  0  0
 15 17  1  0  0  0  0
 17 18  1  0  0  0  0
 17 19  2  0  0  0  0
 19 20  1  0  0  0  0
 19 40  1  0  0  0  0
 20 21  1  0  0  0  0
 20 26  1  0  0  0  0
 21 25  1  0  0  0  0
 21 22  1  0  0  0  0
 21 41  1  0  0  0  0
 22 23  1  0  0  0  0
 22 42  1  0  0  0  0
 22 43  1  0  0  0  0
 23 24  1  0  0  0  0
 23 44  1  0  0  0  0
 23 45  1  0  0  0  0
 24 25  1  0  0  0  0
 24 46  1  0  0  0  0
 24 47  1  0  0  0  0
 26 27  2  0  0  0  0
M  END
> <s_m_source_file>
AV-unprocessed.smi

> <i_m_source_file_index>
25

> <i_lp_mmshare_version>
43012

> <i_f3d_flags>
0

> <s_epik_input>
W2NIXTFbY0hdW2NIXVtjSF1jKGMxMilOKFtDQEhdKFtDSDNdKVtDSDJdMilDKD1PKVtDSDJdbjNjKD1PKWMoRilbY0hdbihjMz1PKVtDQEBIXTRbQ0gyXVtDSDJdW0NIMl1PNA==

> <s_epik_cmdline>
J2VwaWtfcHl0aG9uJywgJy1waCcsICc3LjAnLCAnLXRuJywgJzgnLCAnLW1hJywgJzIwMCcsICctbWV0YWxfYmluZGluZycsICctaW1hZScsICc8aW5maWxlLm1hZT4nLCAnLW9tYWUnLCAnPG91dGZpbGUubWFlPic=

> <r_lp_tautomer_probability>
1

> <r_epik_Ionization_Penalty>
1.67943e-06

> <r_epik_Ionization_Penalty_Charging>
3.79603e-09

> <r_epik_Ionization_Penalty_Neutral>
1.67563e-06

> <r_epik_State_Penalty>
-0

> <r_epik_Charging_Adjusted_Penalty>
3.79603e-09

> <i_epik_Tot_Q>
0

> <i_epik_Tot_abs_Q>
0

> <r_epik_Metal_State_Penalty>
-0

> <b_epik_Metal_Only>
0

> <s_epik_Chemistry_Notes>
This compound contains an acetal/aminal-like group ( X-CH(R)-Y where X, Y are N, S, or O) that may be acid/base labile, releasing an aldehyde.

> <s_lp_Force_Field>
OPLS_2005

> <r_lp_Energy>
55.2786

> <b_lp_Chiralities_Consistent>
1

> <s_lp_Variant>
AV-unprocessed.smi:25-2

> <Gold.Version>
5.8.1

> <Gold.Id.Protein>
6NUR|6NUR_protein|mol2

> <Gold.PLP.Fitness>
49.6624

> <Gold.PLP.PLP>
-44.5060

> <Gold.PLP.part.hbond>
-2.0000

> <Gold.PLP.part.metal>
0.0000

> <Gold.PLP.part.buried>
-2.6336

> <Gold.PLP.part.nonpolar>
-40.2000

> <Gold.PLP.part.repulsive>
0.4335

> <Gold.PLP.ligand.clash>
0.0000

> <Gold.PLP.ligand.torsion>
0.2936

> <Gold.PLP.Chemscore.Hbond>
1.9000

> <Gold.PLP.Chemscore.CHOScore>
0.0000

> <Gold.PLP.Chemscore.Metal>
0.0000

> <Gold.Chemscore.Hbonds>
donor molecule, donor type, donor heavy atom, donor atom, acceptor molecule, acceptor atom, score
      P1  H  7997  8010       L1    12  0.70
      P1  H 10752 10763       L1    16  0.98

> <Gold.PLP.Chemscore.Internal.Correction>
0.0437

> <Gold.Rescore>
     Score         DG    S(hbond)    S(metal)    S(lipo)     H(rot)  DE(clash)    DE(int)     intcor
     11.79     -18.74       1.49        0.00     104.82       1.55       0.38       6.57       ----

> <Gold.Chemscore.Fitness>
11.7915

> <Gold.Chemscore.DG>
-18.7404

> <Gold.Chemscore.ZeroCoef>
-5.4800

> <Gold.Chemscore.Hbond>
1.4853

> <Gold.Chemscore.Metal>
0.0000

> <Gold.Chemscore.Lipo>
104.8245

> <Gold.Chemscore.Internal_Hbond>
0.0000

> <Gold.Chemscore.DEClash>
0.3786

> <Gold.Chemscore.DEInternal>
6.5702

> <Gold.Chemscore.Rot>
1.5489

> <Gold.Chemscore.Internal.Correction>
   9.000000E+99

> <Gold.Chemscore.Hbonds>
donor molecule, donor type, donor heavy atom, donor atom, acceptor molecule, acceptor atom, score
      P1  H  7997  8010       L1    12  0.07
      P1  H 10752 10763       L1    16  0.80

> <Gold.Chemscore.Hbond.Weighted>
-4.9610

> <Gold.Chemscore.Metal.Weighted>
-0.0000

> <Gold.Chemscore.Lipo.Weighted>
-12.2645

> <Gold.Chemscore.Internal_Hbond.Weighted>
0.0000

> <Gold.Chemscore.DEClash.Weighted>
0.3786

> <Gold.Chemscore.DEInternal.Weighted>
6.5702

> <Gold.Chemscore.Rot.Weighted>
3.9651

> <Gold.Chemscore.Internal.Correction.Weighted>
   9.000000E+99

> <Gold.Protein.RotatedTorsions>
[ 6907 6896 6895 6894 ] final   95.07 input  -60.11 | X-H torsion
[ 7974 7965 7964 7962 ] final  -54.35 input  175.53 | X-H torsion
[ 8008 7997 7996 7995 ] final   44.24 input   59.86 | X-H torsion
[ 10167 10162 10161 10158 ] final -175.47 input  -65.29 | X-H torsion
[ 10718 10713 10712 10709 ] final   27.37 input   66.30 | X-H torsion
[ 10763 10752 10751 10750 ] final   64.38 input  -60.55 | X-H torsion
[ 11005 11000 10999 10996 ] final   85.02 input  -57.11 | X-H torsion

> <Gold.Protein.ActiveResidues>
 VAL166  LYS551  ARG553  GLY616  TRP617  ASP618  TYR619  PRO620  LYS621  CYS622 
 ASP623  PHE694  ASN695  SER759  ASP760  ASP761  ALA762  ILE779  LEU786  VAL792 
 PHE793  MET794  SER795  GLU796  ALA797  LYS798  CYS799  TRP800  GLU811  SER814 

> <Gold.Protein.RotatedAtoms>
  152.5446  134.1096  159.8352 H   0  0  0  0  0  0  0  0  0  0  0  0  # atno 6907 bound_to 6896
  151.1164  133.5128  159.2611 H   0  0  0  0  0  0  0  0  0  0  0  0  # atno 6908 bound_to 6896
  151.1827  135.0378  159.8854 H   0  0  0  0  0  0  0  0  0  0  0  0  # atno 6909 bound_to 6896
  145.8865  140.8104  142.9813 H   0  0  0  0  0  0  0  0  0  0  0  0  # atno 7974 bound_to 7965
  155.3161  140.3394  155.4242 H   0  0  0  0  0  0  0  0  0  0  0  0  # atno 8008 bound_to 7997
  156.1932  140.1705  156.8088 H   0  0  0  0  0  0  0  0  0  0  0  0  # atno 8009 bound_to 7997
  154.5467  140.0714  156.8584 H   0  0  0  0  0  0  0  0  0  0  0  0  # atno 8010 bound_to 7997
  139.5579  144.1943  152.1190 H   0  0  0  0  0  0  0  0  0  0  0  0  # atno 10167 bound_to 10162
  157.2193  130.6971  149.6263 H   0  0  0  0  0  0  0  0  0  0  0  0  # atno 10718 bound_to 10713
  153.0054  135.5395  154.6501 H   0  0  0  0  0  0  0  0  0  0  0  0  # atno 10763 bound_to 10752
  154.5735  135.2843  155.0806 H   0  0  0  0  0  0  0  0  0  0  0  0  # atno 10764 bound_to 10752
  154.1962  135.6492  153.5126 H   0  0  0  0  0  0  0  0  0  0  0  0  # atno 10765 bound_to 10752
  139.8983  134.8257  156.2524 H   0  0  0  0  0  0  0  0  0  0  0  0  # atno 11005 bound_to 11000
  144.6729  140.1464  143.7433 LP  0  0  0  0  0  0  0  0  0  0  0  0  # atno 17320 bound_to 7965
  145.8960  139.2403  143.1521 LP  0  0  0  0  0  0  0  0  0  0  0  0  # atno 17321 bound_to 7965
  140.1450  144.5167  150.6721 LP  0  0  0  0  0  0  0  0  0  0  0  0  # atno 17342 bound_to 10162
  140.6855  143.2348  151.5272 LP  0  0  0  0  0  0  0  0  0  0  0  0  # atno 17343 bound_to 10162
  155.9683  130.4525  150.5776 LP  0  0  0  0  0  0  0  0  0  0  0  0  # atno 17370 bound_to 10713
  157.3592  131.0747  151.1650 LP  0  0  0  0  0  0  0  0  0  0  0  0  # atno 17371 bound_to 10713
  141.0215  133.7039  156.1276 LP  0  0  0  0  0  0  0  0  0  0  0  0  # atno 17394 bound_to 11000
  140.7227  134.4341  157.5573 LP  0  0  0  0  0  0  0  0  0  0  0  0  # atno 17395 bound_to 11000

$$$$
