AV-unprocessed.smi:2884|AV-procd|sdf|11084|dock3
  -GOLD-   2272015553D 1   1.00000     0.00000
 Structure written by MMmdl.
 42 43  0  0  0  0  0  0  0  0  3 V2000
  151.4145  144.3271  157.6404 C   0  0  0  0  0  0  0  0  0  0  0  0
  150.8629  142.8973  157.7077 C   0  0  0  0  0  0  0  0  0  0  0  0
  149.3302  142.8512  157.7074 C   0  0  0  0  0  0  0  0  0  0  0  0
  148.9268  141.5008  157.5050 O   0  0  0  0  0  0  0  0  0  0  0  0
  148.1365  141.1547  156.3605 C   0  0  0  0  0  0  0  0  0  0  0  0
  147.6958  139.7064  156.6908 C   0  0  0  0  0  0  0  0  0  0  0  0
  148.8118  138.8722  157.1208 N   0  0  0  0  0  0  0  0  0  0  0  0
  149.5677  137.9557  156.3997 C   0  0  0  0  0  0  0  0  0  0  0  0
  149.3360  137.6844  155.0220 C   0  0  0  0  0  0  0  0  0  0  0  0
  150.0884  136.7956  154.3810 N   0  3  0  0  0  0  0  0  0  0  0  0
  151.0675  136.1265  154.9476 N   0  5  0  0  0  0  0  0  0  0  0  0
  151.3925  136.2977  156.2637 C   0  0  0  0  0  0  0  0  0  0  0  0
  152.3030  135.6854  156.8182 O   0  0  0  0  0  0  0  0  0  0  0  0
  150.5803  137.2756  157.0110 C   0  0  0  0  0  0  0  0  0  0  0  0
  150.9361  137.5329  158.6875 Cl  0  0  0  0  0  0  0  0  0  0  0  0
  146.9200  142.1037  156.1669 C   0  0  0  0  0  0  0  0  0  0  0  0
  146.1059  141.7647  154.9054 C   0  0  0  0  0  0  0  0  0  0  0  0
  146.9954  141.7788  153.6523 C   0  0  0  0  0  0  0  0  0  0  0  0
  148.2030  140.8407  153.8067 C   0  0  0  0  0  0  0  0  0  0  0  0
  149.0094  141.1673  155.0780 C   0  0  0  0  0  0  0  0  0  0  0  0
  149.8622  136.6507  153.3846 H   0  0  0  0  0  0  0  0  0  0  0  0
  152.5044  144.3224  157.6214 H   0  0  0  0  0  0  0  0  0  0  0  0
  151.1005  144.9138  158.5043 H   0  0  0  0  0  0  0  0  0  0  0  0
  151.0683  144.8408  156.7432 H   0  0  0  0  0  0  0  0  0  0  0  0
  151.2372  142.3332  156.8531 H   0  0  0  0  0  0  0  0  0  0  0  0
  151.2455  142.3966  158.5976 H   0  0  0  0  0  0  0  0  0  0  0  0
  148.9653  143.2483  158.6532 H   0  0  0  0  0  0  0  0  0  0  0  0
  148.9570  143.4922  156.9098 H   0  0  0  0  0  0  0  0  0  0  0  0
  146.9010  139.6985  157.4325 H   0  0  0  0  0  0  0  0  0  0  0  0
  147.2708  139.2447  155.7991 H   0  0  0  0  0  0  0  0  0  0  0  0
  148.9496  138.8652  158.1219 H   0  0  0  0  0  0  0  0  0  0  0  0
  148.5621  138.1738  154.4456 H   0  0  0  0  0  0  0  0  0  0  0  0
  146.2736  142.0930  157.0447 H   0  0  0  0  0  0  0  0  0  0  0  0
  147.2566  143.1333  156.0558 H   0  0  0  0  0  0  0  0  0  0  0  0
  145.6319  140.7897  155.0107 H   0  0  0  0  0  0  0  0  0  0  0  0
  145.2947  142.4838  154.7883 H   0  0  0  0  0  0  0  0  0  0  0  0
  146.4109  141.4928  152.7774 H   0  0  0  0  0  0  0  0  0  0  0  0
  147.3470  142.7949  153.4689 H   0  0  0  0  0  0  0  0  0  0  0  0
  147.8656  139.8045  153.8273 H   0  0  0  0  0  0  0  0  0  0  0  0
  148.8480  140.9281  152.9319 H   0  0  0  0  0  0  0  0  0  0  0  0
  149.4548  142.1506  154.9329 H   0  0  0  0  0  0  0  0  0  0  0  0
  149.8412  140.4695  155.1804 H   0  0  0  0  0  0  0  0  0  0  0  0
  1  2  1  0  0  0  0
  1 22  1  0  0  0  0
  1 23  1  0  0  0  0
  1 24  1  0  0  0  0
  2  3  1  0  0  0  0
  2 25  1  0  0  0  0
  2 26  1  0  0  0  0
  3  4  1  0  0  0  0
  3 27  1  0  0  0  0
  3 28  1  0  0  0  0
  4  5  1  0  0  0  0
  5 20  1  0  0  0  0
  5  6  1  0  0  0  0
  5 16  1  0  0  0  0
  6 29  1  0  0  0  0
  6 30  1  0  0  0  0
  6  7  1  0  0  0  0
  7  8  1  0  0  0  0
  7 31  1  0  0  0  0
  8 14  2  0  0  0  0
  8  9  1  0  0  0  0
  9 32  1  0  0  0  0
  9 10  2  0  0  0  0
 10 11  1  0  0  0  0
 10 21  1  0  0  0  0
 11 12  1  0  0  0  0
 12 13  2  0  0  0  0
 12 14  1  0  0  0  0
 14 15  1  0  0  0  0
 16 17  1  0  0  0  0
 16 33  1  0  0  0  0
 16 34  1  0  0  0  0
 17 18  1  0  0  0  0
 17 35  1  0  0  0  0
 17 36  1  0  0  0  0
 18 19  1  0  0  0  0
 18 37  1  0  0  0  0
 18 38  1  0  0  0  0
 19 20  1  0  0  0  0
 19 39  1  0  0  0  0
 19 40  1  0  0  0  0
 20 41  1  0  0  0  0
 20 42  1  0  0  0  0
M  CHG  1  10   1
M  CHG  1  11  -1
M  END
> <s_m_source_file>
AV-unprocessed.smi

> <i_m_source_file_index>
2884

> <i_lp_mmshare_version>
43012

> <i_f3d_flags>
0

> <s_epik_input>
W0NIMl0xW0NIMl1bQ0gyXVtDSDJdW0NIMl1DMShPW0NIMl1bQ0gyXVtDSDNdKVtDSDJdW05IXWMyW2NIXW5bbkhdYyg9TyljMkNs

> <s_epik_cmdline>
J2VwaWtfcHl0aG9uJywgJy1waCcsICc3LjAnLCAnLXRuJywgJzgnLCAnLW1hJywgJzIwMCcsICctbWV0YWxfYmluZGluZycsICctaW1hZScsICc8aW5maWxlLm1hZT4nLCAnLW9tYWUnLCAnPG91dGZpbGUubWFlPic=

> <r_lp_tautomer_probability>
0.0138196

> <r_epik_Ionization_Penalty>
2.73941

> <r_epik_Ionization_Penalty_Charging>
2.73941

> <r_epik_Ionization_Penalty_Neutral>
1.09968e-06

> <r_epik_State_Penalty>
2.7044

> <r_epik_Charging_Adjusted_Penalty>
5.44381

> <i_epik_Tot_Q>
0

> <i_epik_Tot_abs_Q>
2

> <r_epik_Metal_State_Penalty>
2.9982

> <b_epik_Metal_Only>
0

> <s_lp_Force_Field>
OPLS_2005

> <r_lp_Energy>
38.2513

> <b_lp_Chiralities_Consistent>
1

> <s_lp_Variant>
AV-unprocessed.smi:2884-2

> <Gold.Version>
5.8.1

> <Gold.Id.Protein>
6NUR|6NUR_protein|mol2

> <Gold.PLP.Fitness>
37.3507

> <Gold.PLP.PLP>
-27.0207

> <Gold.PLP.part.hbond>
-3.0203

> <Gold.PLP.part.metal>
0.0000

> <Gold.PLP.part.buried>
-2.7593

> <Gold.PLP.part.nonpolar>
-22.0432

> <Gold.PLP.part.repulsive>
0.3221

> <Gold.PLP.ligand.clash>
0.0000

> <Gold.PLP.ligand.torsion>
0.7535

> <Gold.PLP.Chemscore.Hbond>
3.9402

> <Gold.PLP.Chemscore.CHOScore>
0.0000

> <Gold.PLP.Chemscore.Metal>
0.0000

> <Gold.Chemscore.Hbonds>
donor molecule, donor type, donor heavy atom, donor atom, acceptor molecule, acceptor atom, score
      L1  H    10    21       P1  7948  1.90
      P1  H 10752 10764       L1    11  1.70
      P1  H 10752 10765       L1    13  0.01

> <Gold.PLP.Chemscore.Internal.Correction>
0.0163

> <Gold.Rescore>
     Score         DG    S(hbond)    S(metal)    S(lipo)     H(rot)  DE(clash)    DE(int)     intcor
     12.50     -13.46       1.30        0.00      69.75       1.77       0.03       0.93       ----

> <Gold.Chemscore.Fitness>
12.5020

> <Gold.Chemscore.DG>
-13.4649

> <Gold.Chemscore.ZeroCoef>
-5.4800

> <Gold.Chemscore.Hbond>
1.3010

> <Gold.Chemscore.Metal>
0.0000

> <Gold.Chemscore.Lipo>
69.7542

> <Gold.Chemscore.Internal_Hbond>
0.0000

> <Gold.Chemscore.DEClash>
0.0326

> <Gold.Chemscore.DEInternal>
0.9303

> <Gold.Chemscore.Rot>
1.7663

> <Gold.Chemscore.Internal.Correction>
   9.000000E+99

> <Gold.Chemscore.Hbonds>
donor molecule, donor type, donor heavy atom, donor atom, acceptor molecule, acceptor atom, score
      L1  H    10    21       P1  7948  0.22
      P1  H 10752 10764       L1    11  0.15
      P1  H 10752 10765       L1    13  0.02

> <Gold.Chemscore.Hbond.Weighted>
-4.3453

> <Gold.Chemscore.Metal.Weighted>
-0.0000

> <Gold.Chemscore.Lipo.Weighted>
-8.1612

> <Gold.Chemscore.Internal_Hbond.Weighted>
0.0000

> <Gold.Chemscore.DEClash.Weighted>
0.0326

> <Gold.Chemscore.DEInternal.Weighted>
0.9303

> <Gold.Chemscore.Rot.Weighted>
4.5216

> <Gold.Chemscore.Internal.Correction.Weighted>
   9.000000E+99

> <Gold.Protein.RotatedTorsions>
[ 6907 6896 6895 6894 ] final  -31.02 input  -60.11 | X-H torsion
[ 7974 7965 7964 7962 ] final -164.01 input  175.53 | X-H torsion
[ 8008 7997 7996 7995 ] final   99.02 input   59.86 | X-H torsion
[ 10167 10162 10161 10158 ] final -132.45 input  -65.29 | X-H torsion
[ 10718 10713 10712 10709 ] final   26.36 input   66.30 | X-H torsion
[ 10763 10752 10751 10750 ] final  -81.35 input  -60.55 | X-H torsion
[ 11005 11000 10999 10996 ] final  149.81 input  -57.11 | X-H torsion

> <Gold.Protein.ActiveResidues>
 VAL166  LYS551  ARG553  GLY616  TRP617  ASP618  TYR619  PRO620  LYS621  CYS622 
 ASP623  PHE694  ASN695  SER759  ASP760  ASP761  ALA762  ILE779  LEU786  VAL792 
 PHE793  MET794  SER795  GLU796  ALA797  LYS798  CYS799  TRP800  GLU811  SER814 

> <Gold.Protein.RotatedAtoms>
  151.0977  134.9954  159.8433 H   0  0  0  0  0  0  0  0  0  0  0  0  # atno 6907 bound_to 6896
  152.5434  134.1988  159.8714 H   0  0  0  0  0  0  0  0  0  0  0  0  # atno 6908 bound_to 6896
  151.2029  133.4556  159.2630 H   0  0  0  0  0  0  0  0  0  0  0  0  # atno 6909 bound_to 6896
  144.7309  140.3023  143.6202 H   0  0  0  0  0  0  0  0  0  0  0  0  # atno 7974 bound_to 7965
  156.1063  140.3235  155.8011 H   0  0  0  0  0  0  0  0  0  0  0  0  # atno 8008 bound_to 7997
  155.4750  140.0549  157.2992 H   0  0  0  0  0  0  0  0  0  0  0  0  # atno 8009 bound_to 7997
  154.4730  140.2020  155.9962 H   0  0  0  0  0  0  0  0  0  0  0  0  # atno 8010 bound_to 7997
  139.9085  143.6523  152.2580 H   0  0  0  0  0  0  0  0  0  0  0  0  # atno 10167 bound_to 10162
  157.2057  130.6911  149.6207 H   0  0  0  0  0  0  0  0  0  0  0  0  # atno 10718 bound_to 10713
  154.5625  135.5629  153.7020 H   0  0  0  0  0  0  0  0  0  0  0  0  # atno 10763 bound_to 10752
  153.0022  135.6277  154.2226 H   0  0  0  0  0  0  0  0  0  0  0  0  # atno 10764 bound_to 10752
  154.2164  135.2871  155.2920 H   0  0  0  0  0  0  0  0  0  0  0  0  # atno 10765 bound_to 10752
  140.1077  134.8944  157.1890 H   0  0  0  0  0  0  0  0  0  0  0  0  # atno 11005 bound_to 11000
  145.7748  139.1870  143.2192 LP  0  0  0  0  0  0  0  0  0  0  0  0  # atno 17320 bound_to 7965
  146.0882  140.7686  142.9608 LP  0  0  0  0  0  0  0  0  0  0  0  0  # atno 17321 bound_to 7965
  139.6963  144.7641  151.1350 LP  0  0  0  0  0  0  0  0  0  0  0  0  # atno 17342 bound_to 10162
  140.7691  143.5519  150.9195 LP  0  0  0  0  0  0  0  0  0  0  0  0  # atno 17343 bound_to 10162
  155.9695  130.4568  150.5937 LP  0  0  0  0  0  0  0  0  0  0  0  0  # atno 17370 bound_to 10713
  157.3722  131.0767  151.1548 LP  0  0  0  0  0  0  0  0  0  0  0  0  # atno 17371 bound_to 10713
  140.3133  134.2999  155.7262 LP  0  0  0  0  0  0  0  0  0  0  0  0  # atno 17394 bound_to 11000
  141.2122  133.7664  156.9808 LP  0  0  0  0  0  0  0  0  0  0  0  0  # atno 17395 bound_to 11000

$$$$
