#       Name:                AV-unprocessed.smi:1072
#       Creating user name   scv26
#       Creation time:       Fri Mar 27 03:20:27 2020


#       File generated by GOLD software.
#

@<TRIPOS>MOLECULE
AV-unprocessed.smi:1072
    51    52     1
SMALL
NO_CHARGES


@<TRIPOS>ATOM
      1 ****        -3.7834   5.7766   0.3116 C.3            1 S1                 0.0000
      2 ****        -3.2235   4.3711   0.3531 C.2            1 S1                 0.0000
      3 ****        -2.7061   3.9421  -0.8582 N.pl3          1 S1                 0.0000
      4 ****        -2.1744   2.6660  -0.9195 C.2            1 S1                 0.0000
      5 ****        -1.6327   2.2723  -2.2829 C.3            1 S1                 0.0000
      6 ****        -2.1531   1.8604   0.1727 C.2            1 S1                 0.0000
      7 ****        -1.5704   0.4478   0.1455 C.3            1 S1                 0.0000
      8 ****        -0.0460   0.3538   0.2459 C.2            1 S1                 0.0000
      9 ****         0.5886   1.2253   0.8395 O.2            1 S1                 0.0000
     10 ****         0.5172  -0.7133  -0.3478 N.am           1 S1                 0.0000
     11 ****         1.9413  -1.0692  -0.4344 C.3            1 S1                 0.0000
     12 ****         2.7082   0.0248  -1.2088 C.3            1 S1                 0.0000
     13 ****         2.5670  -1.2755   0.9707 C.3            1 S1                 0.0000
     14 ****         1.9432  -2.4569   1.7351 C.3            1 S1                 0.0000
     15 ****         2.0533  -3.7665   0.9338 C.3            1 S1                 0.0000
     16 ****         1.4245  -4.9439   1.6917 C.3            1 S1                 0.0000
     17 ****         1.4293  -3.5938  -0.4629 C.3            1 S1                 0.0000
     18 ****         2.0458  -2.4004  -1.2175 C.3            1 S1                 0.0000
     19 ****        -2.7113   2.3793   1.4439 C.2            1 S1                 0.0000
     20 ****        -2.7061   1.7046   2.4725 O.2            1 S1                 0.0000
     21 ****        -3.2479   3.6773   1.4503 N.2            1 S1                 0.0000
     22 ****        -2.6986   4.5097  -1.6935 H              1 S1                 0.0000
     23 ****        -4.3289   6.0056   1.2280 H              1 S1                 0.0000
     24 ****        -4.4687   5.8921  -0.5288 H              1 S1                 0.0000
     25 ****        -2.9762   6.5016   0.2043 H              1 S1                 0.0000
     26 ****        -2.1707   1.4077  -2.6717 H              1 S1                 0.0000
     27 ****        -0.5743   2.0195  -2.2148 H              1 S1                 0.0000
     28 ****        -1.7364   3.0827  -3.0055 H              1 S1                 0.0000
     29 ****        -1.8880  -0.0323  -0.7808 H              1 S1                 0.0000
     30 ****        -2.0029  -0.1652   0.9367 H              1 S1                 0.0000
     31 ****        -0.1148  -1.3599  -0.7972 H              1 S1                 0.0000
     32 ****         3.7493  -0.2594  -1.3652 H              1 S1                 0.0000
     33 ****         2.7164   0.9758  -0.6762 H              1 S1                 0.0000
     34 ****         2.2664   0.2000  -2.1904 H              1 S1                 0.0000
     35 ****         3.6367  -1.4602   0.8621 H              1 S1                 0.0000
     36 ****         2.4907  -0.3701   1.5725 H              1 S1                 0.0000
     37 ****         2.4432  -2.5694   2.6976 H              1 S1                 0.0000
     38 ****         0.8973  -2.2427   1.9588 H              1 S1                 0.0000
     39 ****         3.1128  -3.9907   0.8015 H              1 S1                 0.0000
     40 ****         0.3604  -4.7813   1.8656 H              1 S1                 0.0000
     41 ****         1.9023  -5.0861   2.6615 H              1 S1                 0.0000
     42 ****         1.5330  -5.8734   1.1323 H              1 S1                 0.0000
     43 ****         1.5729  -4.5035  -1.0469 H              1 S1                 0.0000
     44 ****         0.3507  -3.4584  -0.3729 H              1 S1                 0.0000
     45 ****         1.5688  -2.3016  -2.1938 H              1 S1                 0.0000
     46 ****         3.0947  -2.6229  -1.4195 H              1 S1                 0.0000
     47 ****         0.1083   1.9966   1.2573 LP             1 S1                 0.0000
     48 ****         1.5845   1.1622   0.9041 LP             1 S1                 0.0000
     49 ****        -2.3189   0.7826   2.4638 LP             1 S1                 0.0000
     50 ****        -3.0890   2.0781   3.3174 LP             1 S1                 0.0000
     51 ****        -3.6420   4.0605   2.2857 LP             1 S1                 0.0000
@<TRIPOS>BOND
    1    1   23 1     
    2    1   24 1     
    3    1   25 1     
    4    1    2 1     
    5    2    3 1     
    6    2   21 2     
    7    3    4 1     
    8    3   22 1     
    9    4    6 2     
   10    4    5 1     
   11    5   26 1     
   12    5   27 1     
   13    5   28 1     
   14    6   19 1     
   15    6    7 1     
   16    7    8 1     
   17    7   29 1     
   18    7   30 1     
   19    8    9 2     
   20    8   10 am    
   21   10   11 1     
   22   10   31 1     
   23   11   18 1     
   24   11   12 1     
   25   11   13 1     
   26   12   32 1     
   27   12   33 1     
   28   12   34 1     
   29   13   14 1     
   30   13   35 1     
   31   13   36 1     
   32   14   15 1     
   33   14   37 1     
   34   14   38 1     
   35   15   16 1     
   36   15   17 1     
   37   15   39 1     
   38   16   40 1     
   39   16   41 1     
   40   16   42 1     
   41   17   18 1     
   42   17   43 1     
   43   17   44 1     
   44   18   45 1     
   45   18   46 1     
   46   19   20 2     
   47   19   21 1     
   48    9   47 1     
   49    9   48 1     
   50   20   49 1     
   51   20   50 1     
   52   21   51 1     
@<TRIPOS>SUBSTRUCTURE
      1 S1             1
@<TRIPOS>SET
LONE_PAIRS      STATIC     ATOMS    <user>   **** ""
5 47 48 49 50 51
DONOR_HYDROGENS      STATIC     ATOMS    <user>   **** ""
2 22 31
ATOM$BLUE        STATIC     ATOMS    COLORGROUP SYSTEM
5 47 48 49 50 51
ATOM$RED        STATIC     ATOMS    COLORGROUP SYSTEM
2 22 31
