AV-unprocessed.smi:1603|AV-procd|sdf|6446|dock7
  -GOLD-   22720 7 93D 1   1.00000     0.00000
 Structure written by MMmdl.
 44 46  0  0  0  0  0  0  0  0  1 V2000
  153.2043  138.5592  159.1019 O   0  0  0  0  0  0  0  0  0  0  0  0
  152.8249  139.7278  159.1885 C   0  0  0  0  0  0  0  0  0  0  0  0
  153.3315  140.6739  160.1943 C   0  0  0  0  0  0  0  0  0  0  0  0
  154.3941  140.1789  161.1718 C   0  0  0  0  0  0  0  0  0  0  0  0
  154.1580  138.9264  161.5654 F   0  0  0  0  0  0  0  0  0  0  0  0
  155.6009  140.2082  160.6050 F   0  0  0  0  0  0  0  0  0  0  0  0
  154.4257  140.9490  162.2601 F   0  0  0  0  0  0  0  0  0  0  0  0
  152.8576  141.9432  160.2321 C   0  0  0  0  0  0  0  0  0  0  0  0
  151.8513  142.3772  159.2840 C   0  0  0  0  0  0  0  0  0  0  0  0
  151.2767  143.7647  159.2771 C   0  0  0  0  0  0  0  0  0  0  0  0
  151.3630  144.6632  158.0643 C   0  0  0  0  0  0  0  0  0  0  0  0
  152.1593  144.9906  159.3062 C   0  0  0  0  0  0  0  0  0  0  0  0
  151.4146  141.5478  158.3972 N   0  0  0  0  0  0  0  0  0  0  0  0
  151.8838  140.2503  158.3474 N   0  0  0  0  0  0  0  0  0  0  0  0
  151.2643  139.4358  157.2941 C   0  0  0  0  0  0  0  0  0  0  0  0
  151.7918  139.8035  155.8882 C   0  0  1  0  0  0  0  0  0  0  0  0
  153.0545  139.1835  155.7330 O   0  0  0  0  0  0  0  0  0  0  0  0
  150.8648  139.2796  154.7684 C   0  0  0  0  0  0  0  0  0  0  0  0
  149.4846  139.7639  154.8221 N   0  0  0  0  0  0  0  0  0  0  0  0
  149.3796  141.2014  154.5813 C   0  0  0  0  0  0  0  0  0  0  0  0
  147.9192  141.6855  154.6130 C   0  0  0  0  0  0  0  0  0  0  0  0
  147.1488  140.9516  153.6665 O   0  0  0  0  0  0  0  0  0  0  0  0
  147.1867  139.5478  153.9001 C   0  0  0  0  0  0  0  0  0  0  0  0
  148.6449  139.0595  153.8587 C   0  0  0  0  0  0  0  0  0  0  0  0
  153.2178  142.6529  160.9619 H   0  0  0  0  0  0  0  0  0  0  0  0
  150.3549  143.8032  159.8544 H   0  0  0  0  0  0  0  0  0  0  0  0
  151.9187  144.3096  157.1976 H   0  0  0  0  0  0  0  0  0  0  0  0
  150.5008  145.2879  157.8406 H   0  0  0  0  0  0  0  0  0  0  0  0
  151.8272  145.8335  159.9090 H   0  0  0  0  0  0  0  0  0  0  0  0
  153.2373  144.8452  159.2620 H   0  0  0  0  0  0  0  0  0  0  0  0
  151.4064  138.3707  157.4894 H   0  0  0  0  0  0  0  0  0  0  0  0
  150.1838  139.5836  157.3385 H   0  0  0  0  0  0  0  0  0  0  0  0
  151.8994  140.8855  155.7981 H   0  0  0  0  0  0  0  0  0  0  0  0
  152.9269  138.2481  155.6894 H   0  0  0  0  0  0  0  0  0  0  0  0
  151.3008  139.4716  153.7864 H   0  0  0  0  0  0  0  0  0  0  0  0
  150.8267  138.1932  154.8554 H   0  0  0  0  0  0  0  0  0  0  0  0
  149.9436  141.7521  155.3338 H   0  0  0  0  0  0  0  0  0  0  0  0
  149.8216  141.4481  153.6146 H   0  0  0  0  0  0  0  0  0  0  0  0
  147.4940  141.5638  155.6106 H   0  0  0  0  0  0  0  0  0  0  0  0
  147.8662  142.7468  154.3695 H   0  0  0  0  0  0  0  0  0  0  0  0
  146.7292  139.3192  154.8640 H   0  0  0  0  0  0  0  0  0  0  0  0
  146.5952  139.0430  153.1360 H   0  0  0  0  0  0  0  0  0  0  0  0
  149.0420  139.1973  152.8517 H   0  0  0  0  0  0  0  0  0  0  0  0
  148.6691  137.9876  154.0593 H   0  0  0  0  0  0  0  0  0  0  0  0
  1  2  2  0  0  0  0
  2 14  1  0  0  0  0
  2  3  1  0  0  0  0
  3  4  1  0  0  0  0
  3  8  2  0  0  0  0
  4  5  1  0  0  0  0
  4  6  1  0  0  0  0
  4  7  1  0  0  0  0
  8  9  1  0  0  0  0
  8 25  1  0  0  0  0
  9 10  1  0  0  0  0
  9 13  2  0  0  0  0
 10 12  1  0  0  0  0
 10 11  1  0  0  0  0
 10 26  1  0  0  0  0
 11 12  1  0  0  0  0
 11 27  1  0  0  0  0
 11 28  1  0  0  0  0
 12 29  1  0  0  0  0
 12 30  1  0  0  0  0
 13 14  1  0  0  0  0
 14 15  1  0  0  0  0
 15 16  1  0  0  0  0
 15 31  1  0  0  0  0
 15 32  1  0  0  0  0
 16 17  1  0  0  0  0
 16 18  1  0  0  0  0
 16 33  1  0  0  0  0
 17 34  1  0  0  0  0
 18 19  1  0  0  0  0
 18 35  1  0  0  0  0
 18 36  1  0  0  0  0
 19 24  1  0  0  0  0
 19 20  1  0  0  0  0
 20 21  1  0  0  0  0
 20 37  1  0  0  0  0
 20 38  1  0  0  0  0
 21 22  1  0  0  0  0
 21 39  1  0  0  0  0
 21 40  1  0  0  0  0
 22 23  1  0  0  0  0
 23 24  1  0  0  0  0
 23 41  1  0  0  0  0
 23 42  1  0  0  0  0
 24 43  1  0  0  0  0
 24 44  1  0  0  0  0
M  END
> <s_m_source_file>
AV-unprocessed.smi

> <i_m_source_file_index>
1603

> <i_lp_mmshare_version>
43012

> <i_f3d_flags>
0

> <s_epik_input>
Tz1jMWMoQyhGKShGKUYpW2NIXWMoW0NIXTJbQ0gyXVtDSDJdMilubjFbQ0gyXVtDQEhdKFtPSF0pW0NIMl1OM1tDSDJdW0NIMl1PW0NIMl1bQ0gyXTM=

> <s_epik_cmdline>
J2VwaWtfcHl0aG9uJywgJy1waCcsICc3LjAnLCAnLXRuJywgJzgnLCAnLW1hJywgJzIwMCcsICctbWV0YWxfYmluZGluZycsICctaW1hZScsICc8aW5maWxlLm1hZT4nLCAnLW9tYWUnLCAnPG91dGZpbGUubWFlPic=

> <r_lp_tautomer_probability>
1

> <r_epik_Ionization_Penalty>
0.450313

> <r_epik_Ionization_Penalty_Charging>
7.22079e-10

> <r_epik_Ionization_Penalty_Neutral>
0.450313

> <r_epik_State_Penalty>
0.45306

> <r_epik_Charging_Adjusted_Penalty>
0.45306

> <i_epik_Tot_Q>
0

> <i_epik_Tot_abs_Q>
0

> <r_epik_Metal_State_Penalty>
0.45306

> <b_epik_Metal_Only>
0

> <s_lp_Force_Field>
OPLS_2005

> <r_lp_Energy>
51.835

> <b_lp_Chiralities_Consistent>
1

> <s_lp_Variant>
AV-unprocessed.smi:1603-4

> <Gold.Version>
5.8.1

> <Gold.Id.Protein>
6NUR|6NUR_protein|mol2

> <Gold.PLP.Fitness>
50.6179

> <Gold.PLP.PLP>
-49.7273

> <Gold.PLP.part.hbond>
-1.0000

> <Gold.PLP.part.metal>
0.0000

> <Gold.PLP.part.buried>
-2.4672

> <Gold.PLP.part.nonpolar>
-45.7323

> <Gold.PLP.part.repulsive>
0.2568

> <Gold.PLP.ligand.clash>
0.0118

> <Gold.PLP.ligand.torsion>
1.3542

> <Gold.PLP.Chemscore.Hbond>
1.0000

> <Gold.PLP.Chemscore.CHOScore>
0.0000

> <Gold.PLP.Chemscore.Metal>
0.0000

> <Gold.Chemscore.Hbonds>
donor molecule, donor type, donor heavy atom, donor atom, acceptor molecule, acceptor atom, score
      P1  H  7997  8010       L1    17  1.00

> <Gold.PLP.Chemscore.Internal.Correction>
0.6106

> <Gold.Rescore>
     Score         DG    S(hbond)    S(metal)    S(lipo)     H(rot)  DE(clash)    DE(int)     intcor
     13.60     -16.60       0.96        0.00     120.67       2.43       0.97       2.03       ----

> <Gold.Chemscore.Fitness>
13.5965

> <Gold.Chemscore.DG>
-16.5951

> <Gold.Chemscore.ZeroCoef>
-5.4800

> <Gold.Chemscore.Hbond>
0.9610

> <Gold.Chemscore.Metal>
0.0000

> <Gold.Chemscore.Lipo>
120.6736

> <Gold.Chemscore.Internal_Hbond>
0.0000

> <Gold.Chemscore.DEClash>
0.9720

> <Gold.Chemscore.DEInternal>
2.0266

> <Gold.Chemscore.Rot>
2.4272

> <Gold.Chemscore.Internal.Correction>
   9.000000E+99

> <Gold.Chemscore.Hbonds>
donor molecule, donor type, donor heavy atom, donor atom, acceptor molecule, acceptor atom, score
      P1  H  7997  8010       L1    17  0.92

> <Gold.Chemscore.Hbond.Weighted>
-3.2098

> <Gold.Chemscore.Metal.Weighted>
-0.0000

> <Gold.Chemscore.Lipo.Weighted>
-14.1188

> <Gold.Chemscore.Internal_Hbond.Weighted>
0.0000

> <Gold.Chemscore.DEClash.Weighted>
0.9720

> <Gold.Chemscore.DEInternal.Weighted>
2.0266

> <Gold.Chemscore.Rot.Weighted>
6.2135

> <Gold.Chemscore.Internal.Correction.Weighted>
   9.000000E+99

> <Gold.Protein.RotatedTorsions>
[ 6907 6896 6895 6894 ] final   38.44 input  -60.11 | X-H torsion
[ 7974 7965 7964 7962 ] final   24.43 input  175.53 | X-H torsion
[ 8008 7997 7996 7995 ] final   96.86 input   59.86 | X-H torsion
[ 10167 10162 10161 10158 ] final  114.53 input  -65.29 | X-H torsion
[ 10718 10713 10712 10709 ] final  126.48 input   66.30 | X-H torsion
[ 10763 10752 10751 10750 ] final  -96.52 input  -60.55 | X-H torsion
[ 11005 11000 10999 10996 ] final -129.86 input  -57.11 | X-H torsion

> <Gold.Protein.ActiveResidues>
 VAL166  LYS551  ARG553  GLY616  TRP617  ASP618  TYR619  PRO620  LYS621  CYS622 
 ASP623  PHE694  ASN695  SER759  ASP760  ASP761  ALA762  ILE779  LEU786  VAL792 
 PHE793  MET794  SER795  GLU796  ALA797  LYS798  CYS799  TRP800  GLU811  SER814 

> <Gold.Protein.RotatedAtoms>
  152.1564  134.8947  160.0544 H   0  0  0  0  0  0  0  0  0  0  0  0  # atno 6907 bound_to 6896
  151.9959  133.3803  159.4171 H   0  0  0  0  0  0  0  0  0  0  0  0  # atno 6908 bound_to 6896
  150.6882  134.3809  159.5077 H   0  0  0  0  0  0  0  0  0  0  0  0  # atno 6909 bound_to 6896
  146.1938  139.7605  142.8812 H   0  0  0  0  0  0  0  0  0  0  0  0  # atno 7974 bound_to 7965
  156.0841  140.3266  155.7731 H   0  0  0  0  0  0  0  0  0  0  0  0  # atno 8008 bound_to 7997
  155.5105  140.0576  157.2941 H   0  0  0  0  0  0  0  0  0  0  0  0  # atno 8009 bound_to 7997
  154.4599  140.1961  156.0291 H   0  0  0  0  0  0  0  0  0  0  0  0  # atno 8010 bound_to 7997
  139.6382  144.7121  151.2292 H   0  0  0  0  0  0  0  0  0  0  0  0  # atno 10167 bound_to 10162
  157.5415  131.1096  150.8851 H   0  0  0  0  0  0  0  0  0  0  0  0  # atno 10718 bound_to 10713
  154.7247  135.5080  153.8867 H   0  0  0  0  0  0  0  0  0  0  0  0  # atno 10763 bound_to 10752
  153.0894  135.6655  153.9893 H   0  0  0  0  0  0  0  0  0  0  0  0  # atno 10764 bound_to 10752
  153.9708  135.3038  155.3407 H   0  0  0  0  0  0  0  0  0  0  0  0  # atno 10765 bound_to 10752
  140.9396  134.1211  157.4163 H   0  0  0  0  0  0  0  0  0  0  0  0  # atno 11005 bound_to 11000
  145.3710  141.0342  143.3231 LP  0  0  0  0  0  0  0  0  0  0  0  0  # atno 17320 bound_to 7965
  144.8538  139.5281  143.6844 LP  0  0  0  0  0  0  0  0  0  0  0  0  # atno 17321 bound_to 7965
  140.7476  143.6359  150.8380 LP  0  0  0  0  0  0  0  0  0  0  0  0  # atno 17342 bound_to 10162
  139.9993  143.5762  152.2881 LP  0  0  0  0  0  0  0  0  0  0  0  0  # atno 17343 bound_to 10162
  156.9402  130.5382  149.5280 LP  0  0  0  0  0  0  0  0  0  0  0  0  # atno 17370 bound_to 10713
  156.0501  130.5571  150.8969 LP  0  0  0  0  0  0  0  0  0  0  0  0  # atno 17371 bound_to 10713
  139.8817  135.0032  156.6173 LP  0  0  0  0  0  0  0  0  0  0  0  0  # atno 17394 bound_to 11000
  140.7753  133.8705  155.8524 LP  0  0  0  0  0  0  0  0  0  0  0  0  # atno 17395 bound_to 11000

$$$$
