AV-unprocessed.smi:21|AV-procd|sdf|134|dock4
  -GOLD-   2262015323D 1   1.00000     0.00000
 Structure written by MMmdl.
 62 65  0  0  0  0  0  0  0  0  2 V2000
  146.9606  130.7630  152.4825 C   0  0  0  0  0  0  0  0  0  0  0  0
  147.7949  131.3658  153.4589 O   0  0  0  0  0  0  0  0  0  0  0  0
  148.2600  132.6569  153.0919 C   0  0  2  0  0  0  0  0  0  0  0  0
  149.5421  132.9933  153.8636 C   0  0  0  0  0  0  0  0  0  0  0  0
  149.2595  134.2983  154.6266 C   0  0  1  0  0  0  0  0  0  0  0  0
  150.4634  135.2656  154.6694 C   0  0  0  0  0  0  0  0  0  0  0  0
  150.7691  135.7282  156.0258 N   0  0  0  0  0  0  0  0  0  0  0  0
  149.9534  135.2317  157.1279 C   0  0  0  0  0  0  0  0  0  0  0  0
  151.6026  136.7945  156.2129 C   0  0  0  0  0  0  0  0  0  0  0  0
  152.0885  137.4303  155.1118 N   0  0  0  0  0  0  0  0  0  0  0  0
  152.9056  138.4799  155.2257 C   0  0  0  0  0  0  0  0  0  0  0  0
  153.3616  139.0620  156.3335 N   0  0  0  0  0  0  0  0  0  0  0  0
  152.8831  138.4406  157.4477 C   0  0  0  0  0  0  0  0  0  0  0  0
  152.0125  137.3111  157.4829 C   0  0  0  0  0  0  0  0  0  0  0  0
  151.7548  136.9761  158.8096 N   0  0  0  0  0  0  0  0  0  0  0  0
  152.4279  137.8471  159.5088 C   0  0  0  0  0  0  0  0  0  0  0  0
  153.1260  138.7716  158.7687 N   0  0  0  0  0  0  0  0  0  0  0  0
  153.9494  139.8549  159.2772 C   0  0  0  0  0  0  0  0  0  0  0  0
  153.1358  140.8977  160.0880 C   0  0  1  0  0  0  0  0  0  0  0  0
  154.0379  141.6710  161.0778 C   0  0  0  0  0  0  0  0  0  0  0  0
  154.7050  140.7913  161.9586 O   0  0  0  0  0  0  0  0  0  0  0  0
  152.2975  141.8564  159.1981 C   0  0  1  0  0  0  0  0  0  0  0  0
  151.1583  141.2275  158.4053 C   0  0  0  0  0  0  0  0  0  0  0  0
  150.2301  142.4146  158.1933 C   0  0  0  0  0  0  0  0  0  0  0  0
  150.2834  143.0816  159.4436 O   0  0  0  0  0  0  0  0  0  0  0  0
  151.6213  143.0299  159.9298 C   0  0  0  0  0  0  0  0  0  0  0  0
  148.0883  134.8931  153.9491 N   0  3  2  0  0  0  0  0  0  0  0  0
  147.3300  135.8708  154.7612 C   0  0  0  0  0  0  0  0  0  0  0  0
  147.2686  133.7620  153.4759 C   0  0  0  0  0  0  0  0  0  0  0  0
  148.4761  132.6970  152.0225 H   0  0  0  0  0  0  0  0  0  0  0  0
  148.9513  134.0381  155.6410 H   0  0  0  0  0  0  0  0  0  0  0  0
  146.6629  129.7708  152.8212 H   0  0  0  0  0  0  0  0  0  0  0  0
  147.4843  130.6487  151.5327 H   0  0  0  0  0  0  0  0  0  0  0  0
  146.0536  131.3444  152.3142 H   0  0  0  0  0  0  0  0  0  0  0  0
  149.8363  132.1971  154.5486 H   0  0  0  0  0  0  0  0  0  0  0  0
  150.3598  133.1220  153.1536 H   0  0  0  0  0  0  0  0  0  0  0  0
  151.3418  134.7726  154.2514 H   0  0  0  0  0  0  0  0  0  0  0  0
  150.2938  136.1268  154.0234 H   0  0  0  0  0  0  0  0  0  0  0  0
  150.5780  134.9658  157.9810 H   0  0  0  0  0  0  0  0  0  0  0  0
  149.4023  134.3369  156.8382 H   0  0  0  0  0  0  0  0  0  0  0  0
  149.2270  135.9825  157.4400 H   0  0  0  0  0  0  0  0  0  0  0  0
  153.2418  138.9158  154.2964 H   0  0  0  0  0  0  0  0  0  0  0  0
  152.4251  137.8442  160.5890 H   0  0  0  0  0  0  0  0  0  0  0  0
  154.7364  139.4186  159.8921 H   0  0  0  0  0  0  0  0  0  0  0  0
  154.4466  140.3132  158.4234 H   0  0  0  0  0  0  0  0  0  0  0  0
  152.4171  140.3393  160.6900 H   0  0  0  0  0  0  0  0  0  0  0  0
  154.8049  142.2370  160.5498 H   0  0  0  0  0  0  0  0  0  0  0  0
  153.4554  142.3888  161.6556 H   0  0  0  0  0  0  0  0  0  0  0  0
  154.1559  140.6483  162.7145 H   0  0  0  0  0  0  0  0  0  0  0  0
  152.9685  142.3141  158.4699 H   0  0  0  0  0  0  0  0  0  0  0  0
  151.4896  140.7776  157.4688 H   0  0  0  0  0  0  0  0  0  0  0  0
  150.6342  140.4657  158.9803 H   0  0  0  0  0  0  0  0  0  0  0  0
  150.6076  143.0728  157.4088 H   0  0  0  0  0  0  0  0  0  0  0  0
  149.2133  142.1163  157.9373 H   0  0  0  0  0  0  0  0  0  0  0  0
  151.6143  142.9258  161.0141 H   0  0  0  0  0  0  0  0  0  0  0  0
  152.1295  143.9670  159.6992 H   0  0  0  0  0  0  0  0  0  0  0  0
  146.9523  135.4155  155.6777 H   0  0  0  0  0  0  0  0  0  0  0  0
  146.4799  136.2532  154.1955 H   0  0  0  0  0  0  0  0  0  0  0  0
  147.9542  136.7208  155.0358 H   0  0  0  0  0  0  0  0  0  0  0  0
  146.6205  134.0497  152.6473 H   0  0  0  0  0  0  0  0  0  0  0  0
  146.6336  133.4171  154.2942 H   0  0  0  0  0  0  0  0  0  0  0  0
  148.4344  135.3679  153.1276 H   0  0  0  0  0  0  0  0  0  0  0  0
  1  2  1  0  0  0  0
  1 32  1  0  0  0  0
  1 33  1  0  0  0  0
  1 34  1  0  0  0  0
  2  3  1  0  0  0  0
  3 30  1  0  0  0  0
  3 29  1  0  0  0  0
  3  4  1  0  0  0  0
  4  5  1  0  0  0  0
  4 35  1  0  0  0  0
  4 36  1  0  0  0  0
  5 31  1  0  0  0  0
  5  6  1  0  0  0  0
  5 27  1  0  0  0  0
  6  7  1  0  0  0  0
  6 37  1  0  0  0  0
  6 38  1  0  0  0  0
  7  8  1  0  0  0  0
  7  9  1  0  0  0  0
  8 39  1  0  0  0  0
  8 40  1  0  0  0  0
  8 41  1  0  0  0  0
  9 14  1  0  0  0  0
  9 10  2  0  0  0  0
 10 11  1  0  0  0  0
 11 12  2  0  0  0  0
 11 42  1  0  0  0  0
 12 13  1  0  0  0  0
 13 17  1  0  0  0  0
 13 14  2  0  0  0  0
 14 15  1  0  0  0  0
 15 16  2  0  0  0  0
 16 17  1  0  0  0  0
 16 43  1  0  0  0  0
 17 18  1  0  0  0  0
 18 19  1  0  0  0  0
 18 44  1  0  0  0  0
 18 45  1  0  0  0  0
 19 20  1  0  0  0  0
 19 22  1  0  0  0  0
 19 46  1  0  0  0  0
 20 21  1  0  0  0  0
 20 47  1  0  0  0  0
 20 48  1  0  0  0  0
 21 49  1  0  0  0  0
 22 26  1  0  0  0  0
 22 23  1  0  0  0  0
 22 50  1  0  0  0  0
 23 24  1  0  0  0  0
 23 51  1  0  0  0  0
 23 52  1  0  0  0  0
 24 25  1  0  0  0  0
 24 53  1  0  0  0  0
 24 54  1  0  0  0  0
 25 26  1  0  0  0  0
 26 55  1  0  0  0  0
 26 56  1  0  0  0  0
 27 28  1  0  0  0  0
 27 29  1  0  0  0  0
 27 62  1  0  0  0  0
 28 57  1  0  0  0  0
 28 58  1  0  0  0  0
 28 59  1  0  0  0  0
 29 60  1  0  0  0  0
 29 61  1  0  0  0  0
M  CHG  1  27   1
M  END
> <s_m_source_file>
AV-unprocessed.smi

> <i_m_source_file_index>
21

> <i_lp_mmshare_version>
43012

> <i_f3d_flags>
0

> <s_epik_input>
W0NIM11PW0NASF0xW0NIMl1bQ0BIXShOKFtDSDNdKVtDSDJdMSlbQ0gyXU4oW0NIM10pYyhuW2NIXW4yKWMoYzIzKW5bY0hdbjNbQ0gyXVtDQEhdKFtDSDJdW09IXSlbQ0BASF00W0NIMl1bQ0gyXU9bQ0gyXTQ=

> <s_epik_cmdline>
J2VwaWtfcHl0aG9uJywgJy1waCcsICc3LjAnLCAnLXRuJywgJzgnLCAnLW1hJywgJzIwMCcsICctbWV0YWxfYmluZGluZycsICctaW1hZScsICc8aW5maWxlLm1hZT4nLCAnLW9tYWUnLCAnPG91dGZpbGUubWFlPic=

> <r_lp_tautomer_probability>
1

> <r_epik_Ionization_Penalty>
0.0157465

> <r_epik_Ionization_Penalty_Charging>
0.015354

> <r_epik_Ionization_Penalty_Neutral>
0.000392529

> <r_epik_State_Penalty>
0.0120612

> <r_epik_Charging_Adjusted_Penalty>
0.0274152

> <i_epik_Tot_Q>
1

> <i_epik_Tot_abs_Q>
1

> <r_epik_Metal_State_Penalty>
0.0121253

> <b_epik_Metal_Only>
0

> <s_lp_Force_Field>
OPLS_2005

> <r_lp_Energy>
60.5183

> <b_lp_Chiralities_Consistent>
1

> <s_lp_Variant>
AV-unprocessed.smi:21-14

> <Gold.Version>
5.8.1

> <Gold.Id.Protein>
6NUR|6NUR_protein|mol2

> <Gold.PLP.Fitness>
57.2937

> <Gold.PLP.PLP>
-46.0690

> <Gold.PLP.part.hbond>
-4.6352

> <Gold.PLP.part.metal>
0.0000

> <Gold.PLP.part.buried>
-6.2398

> <Gold.PLP.part.nonpolar>
-36.2333

> <Gold.PLP.part.repulsive>
0.2344

> <Gold.PLP.ligand.clash>
0.0000

> <Gold.PLP.ligand.torsion>
1.4591

> <Gold.PLP.Chemscore.Hbond>
4.5134

> <Gold.PLP.Chemscore.CHOScore>
0.0000

> <Gold.PLP.Chemscore.Metal>
0.0000

> <Gold.Chemscore.Hbonds>
donor molecule, donor type, donor heavy atom, donor atom, acceptor molecule, acceptor atom, score
      L1  H    27    62       P1  7948  2.00
      P1  H  6896  6907       L1    15  0.64
      P1  H  7997  8010       L1    12  0.76
      P1  H 10752 10765       L1    10  0.41

> <Gold.PLP.Chemscore.Internal.Correction>
0.6027

> <Gold.Rescore>
     Score         DG    S(hbond)    S(metal)    S(lipo)     H(rot)  DE(clash)    DE(int)     intcor
     16.13     -18.90       3.10        0.00      93.52       3.08       0.06       2.71       ----

> <Gold.Chemscore.Fitness>
16.1289

> <Gold.Chemscore.DG>
-18.8962

> <Gold.Chemscore.ZeroCoef>
-5.4800

> <Gold.Chemscore.Hbond>
3.0984

> <Gold.Chemscore.Metal>
0.0000

> <Gold.Chemscore.Lipo>
93.5191

> <Gold.Chemscore.Internal_Hbond>
0.0000

> <Gold.Chemscore.DEClash>
0.0580

> <Gold.Chemscore.DEInternal>
2.7094

> <Gold.Chemscore.Rot>
3.0758

> <Gold.Chemscore.Internal.Correction>
   9.000000E+99

> <Gold.Chemscore.Hbonds>
donor molecule, donor type, donor heavy atom, donor atom, acceptor molecule, acceptor atom, score
      L1  H    27    62       P1  7948  0.95
      P1  H  6896  6907       L1    15  0.46
      P1  H  7997  8010       L1    12  0.73
      P1  H 10752 10765       L1    10  0.03

> <Gold.Chemscore.Hbond.Weighted>
-10.3486

> <Gold.Chemscore.Metal.Weighted>
-0.0000

> <Gold.Chemscore.Lipo.Weighted>
-10.9417

> <Gold.Chemscore.Internal_Hbond.Weighted>
0.0000

> <Gold.Chemscore.DEClash.Weighted>
0.0580

> <Gold.Chemscore.DEInternal.Weighted>
2.7094

> <Gold.Chemscore.Rot.Weighted>
7.8741

> <Gold.Chemscore.Internal.Correction.Weighted>
   9.000000E+99

> <Gold.Protein.RotatedTorsions>
[ 6907 6896 6895 6894 ] final   -5.25 input  -60.11 | X-H torsion
[ 7974 7965 7964 7962 ] final  -69.66 input  175.53 | X-H torsion
[ 8008 7997 7996 7995 ] final   78.76 input   59.86 | X-H torsion
[ 10167 10162 10161 10158 ] final   17.96 input  -65.29 | X-H torsion
[ 10718 10713 10712 10709 ] final  159.61 input   66.30 | X-H torsion
[ 10763 10752 10751 10750 ] final  165.29 input  -60.55 | X-H torsion
[ 11005 11000 10999 10996 ] final  -23.26 input  -57.11 | X-H torsion

> <Gold.Protein.ActiveResidues>
 VAL166  LYS551  ARG553  GLY616  TRP617  ASP618  TYR619  PRO620  LYS621  CYS622 
 ASP623  PHE694  ASN695  SER759  ASP760  ASP761  ALA762  ILE779  LEU786  VAL792 
 PHE793  MET794  SER795  GLU796  ALA797  LYS798  CYS799  TRP800  GLU811  SER814 

> <Gold.Protein.RotatedAtoms>
  151.4845  135.1054  159.9786 H   0  0  0  0  0  0  0  0  0  0  0  0  # atno 6907 bound_to 6896
  152.4766  133.8148  159.7033 H   0  0  0  0  0  0  0  0  0  0  0  0  # atno 6908 bound_to 6896
  150.8808  133.7313  159.2959 H   0  0  0  0  0  0  0  0  0  0  0  0  # atno 6909 bound_to 6896
  145.7009  140.9117  143.0731 H   0  0  0  0  0  0  0  0  0  0  0  0  # atno 7974 bound_to 7965
  155.8602  140.3454  155.5751 H   0  0  0  0  0  0  0  0  0  0  0  0  # atno 8008 bound_to 7997
  155.7942  140.0876  157.2012 H   0  0  0  0  0  0  0  0  0  0  0  0  # atno 8009 bound_to 7997
  154.4011  140.1477  156.3185 H   0  0  0  0  0  0  0  0  0  0  0  0  # atno 8010 bound_to 7997
  140.5688  143.9201  150.6697 H   0  0  0  0  0  0  0  0  0  0  0  0  # atno 10167 bound_to 10162
  157.1618  131.0589  151.2228 H   0  0  0  0  0  0  0  0  0  0  0  0  # atno 10718 bound_to 10713
  154.3218  135.2756  155.2515 H   0  0  0  0  0  0  0  0  0  0  0  0  # atno 10763 bound_to 10752
  154.4865  135.5844  153.6431 H   0  0  0  0  0  0  0  0  0  0  0  0  # atno 10764 bound_to 10752
  152.9876  135.6124  154.3403 H   0  0  0  0  0  0  0  0  0  0  0  0  # atno 10765 bound_to 10752
  140.8735  133.7704  156.0215 H   0  0  0  0  0  0  0  0  0  0  0  0  # atno 11005 bound_to 11000
  144.6969  139.8946  143.7455 LP  0  0  0  0  0  0  0  0  0  0  0  0  # atno 17320 bound_to 7965
  146.0799  139.3786  143.0471 LP  0  0  0  0  0  0  0  0  0  0  0  0  # atno 17321 bound_to 7965
  140.2671  143.3483  152.1271 LP  0  0  0  0  0  0  0  0  0  0  0  0  # atno 17342 bound_to 10162
  139.5106  144.6887  151.5817 LP  0  0  0  0  0  0  0  0  0  0  0  0  # atno 17343 bound_to 10162
  157.4126  130.7393  149.6850 LP  0  0  0  0  0  0  0  0  0  0  0  0  # atno 17370 bound_to 10713
  155.9752  130.4091  150.3862 LP  0  0  0  0  0  0  0  0  0  0  0  0  # atno 17371 bound_to 10713
  140.8545  134.2914  157.5261 LP  0  0  0  0  0  0  0  0  0  0  0  0  # atno 17394 bound_to 11000
  139.8714  134.9485  156.4000 LP  0  0  0  0  0  0  0  0  0  0  0  0  # atno 17395 bound_to 11000

$$$$
