AV-unprocessed.smi:593|AV-procd|sdf|3013|dock7
  -GOLD-   2262023523D 1   1.00000     0.00000
 Structure written by MMmdl.
 40 41  0  0  0  0  0  0  0  0  3 V2000
  145.7090  138.3866  154.5346 O   0  0  0  0  0  0  0  0  0  0  0  0
  146.6969  138.2049  153.8245 C   0  0  0  0  0  0  0  0  0  0  0  0
  147.4655  139.4236  153.2834 C   0  0  0  0  0  0  0  0  0  0  0  0
  148.6164  139.8462  154.1036 N   0  0  0  0  0  0  0  0  0  0  0  0
  149.7415  138.9984  154.1081 C   0  0  0  0  0  0  0  0  0  0  0  0
  150.8537  139.2873  154.8116 C   0  0  0  0  0  0  0  0  0  0  0  0
  152.0020  138.4081  154.7983 N   0  3  0  0  0  0  0  0  0  0  0  0
  151.8673  137.2712  154.3573 O   0  0  0  0  0  0  0  0  0  0  0  0
  153.0745  138.8227  155.2278 O   0  5  0  0  0  0  0  0  0  0  0  0
  150.8643  140.5164  155.5807 C   0  0  0  0  0  0  0  0  0  0  0  0
  149.7934  141.3343  155.5772 C   0  0  0  0  0  0  0  0  0  0  0  0
  148.5860  141.0201  154.8068 C   0  0  0  0  0  0  0  0  0  0  0  0
  147.6105  141.7705  154.7873 O   0  0  0  0  0  0  0  0  0  0  0  0
  147.1385  136.9809  153.4944 N   0  0  0  0  0  0  0  0  0  0  0  0
  146.5080  135.7263  153.8790 C   0  0  0  0  0  0  0  0  0  0  0  0
  146.0871  134.9156  152.6380 C   0  0  0  0  0  0  0  0  0  0  0  0
  145.1153  135.6976  151.7244 C   0  0  0  0  0  0  0  0  0  0  0  0
  144.6911  134.8683  150.5013 C   0  0  0  0  0  0  0  0  0  0  0  0
  144.0798  133.5235  150.9223 C   0  0  0  0  0  0  0  0  0  0  0  0
  145.0437  132.7371  151.8229 C   0  0  0  0  0  0  0  0  0  0  0  0
  145.4635  133.5661  153.0476 C   0  0  0  0  0  0  0  0  0  0  0  0
  147.7888  139.2019  152.2650 H   0  0  0  0  0  0  0  0  0  0  0  0
  146.7581  140.2472  153.1773 H   0  0  0  0  0  0  0  0  0  0  0  0
  149.6364  138.1124  153.4984 H   0  0  0  0  0  0  0  0  0  0  0  0
  151.7313  140.7905  156.1638 H   0  0  0  0  0  0  0  0  0  0  0  0
  149.8236  142.2457  156.1561 H   0  0  0  0  0  0  0  0  0  0  0  0
  147.9598  136.9149  152.9110 H   0  0  0  0  0  0  0  0  0  0  0  0
  147.2139  135.1541  154.4823 H   0  0  0  0  0  0  0  0  0  0  0  0
  145.6374  135.9241  154.5070 H   0  0  0  0  0  0  0  0  0  0  0  0
  146.9883  134.7008  152.0614 H   0  0  0  0  0  0  0  0  0  0  0  0
  144.2298  135.9858  152.2923 H   0  0  0  0  0  0  0  0  0  0  0  0
  145.5740  136.6249  151.3798 H   0  0  0  0  0  0  0  0  0  0  0  0
  143.9735  135.4302  149.9028 H   0  0  0  0  0  0  0  0  0  0  0  0
  145.5568  134.6924  149.8617 H   0  0  0  0  0  0  0  0  0  0  0  0
  143.1430  133.6971  151.4530 H   0  0  0  0  0  0  0  0  0  0  0  0
  143.8311  132.9344  150.0393 H   0  0  0  0  0  0  0  0  0  0  0  0
  144.5739  131.8081  152.1466 H   0  0  0  0  0  0  0  0  0  0  0  0
  145.9288  132.4536  151.2521 H   0  0  0  0  0  0  0  0  0  0  0  0
  146.1727  132.9944  153.6470 H   0  0  0  0  0  0  0  0  0  0  0  0
  144.5938  133.7396  153.6831 H   0  0  0  0  0  0  0  0  0  0  0  0
  1  2  2  0  0  0  0
  2  3  1  0  0  0  0
  2 14  1  0  0  0  0
  3  4  1  0  0  0  0
  3 22  1  0  0  0  0
  3 23  1  0  0  0  0
  4 12  1  0  0  0  0
  4  5  1  0  0  0  0
  5  6  2  0  0  0  0
  5 24  1  0  0  0  0
  6  7  1  0  0  0  0
  6 10  1  0  0  0  0
  7  8  2  0  0  0  0
  7  9  1  0  0  0  0
 10 11  2  0  0  0  0
 10 25  1  0  0  0  0
 11 12  1  0  0  0  0
 11 26  1  0  0  0  0
 12 13  2  0  0  0  0
 14 15  1  0  0  0  0
 14 27  1  0  0  0  0
 15 16  1  0  0  0  0
 15 28  1  0  0  0  0
 15 29  1  0  0  0  0
 16 21  1  0  0  0  0
 16 17  1  0  0  0  0
 16 30  1  0  0  0  0
 17 18  1  0  0  0  0
 17 31  1  0  0  0  0
 17 32  1  0  0  0  0
 18 19  1  0  0  0  0
 18 33  1  0  0  0  0
 18 34  1  0  0  0  0
 19 20  1  0  0  0  0
 19 35  1  0  0  0  0
 19 36  1  0  0  0  0
 20 21  1  0  0  0  0
 20 37  1  0  0  0  0
 20 38  1  0  0  0  0
 21 39  1  0  0  0  0
 21 40  1  0  0  0  0
M  CHG  1   7   1
M  CHG  1   9  -1
M  END
> <s_m_source_file>
AV-unprocessed.smi

> <i_m_source_file_index>
593

> <i_lp_mmshare_version>
43012

> <i_f3d_flags>
0

> <s_epik_input>
W0NIMl0xW0NIMl1bQ0gyXVtDSDJdW0NIMl1bQ0hdMVtDSDJdW05IXUMoPU8pW0NIMl1uMltjSF1jKFtOK10oPU8pW08tXSlbY0hdW2NIXWMyPU8=

> <s_epik_cmdline>
J2VwaWtfcHl0aG9uJywgJy1waCcsICc3LjAnLCAnLXRuJywgJzgnLCAnLW1hJywgJzIwMCcsICctbWV0YWxfYmluZGluZycsICctaW1hZScsICc8aW5maWxlLm1hZT4nLCAnLW9tYWUnLCAnPG91dGZpbGUubWFlPic=

> <r_lp_tautomer_probability>
1

> <r_epik_Ionization_Penalty>
1.98738e-08

> <r_epik_Ionization_Penalty_Charging>
7.60687e-11

> <r_epik_Ionization_Penalty_Neutral>
1.97978e-08

> <r_epik_State_Penalty>
-0

> <r_epik_Charging_Adjusted_Penalty>
7.60687e-11

> <i_epik_Tot_Q>
0

> <i_epik_Tot_abs_Q>
2

> <r_epik_Metal_State_Penalty>
-0

> <b_epik_Metal_Only>
0

> <s_lp_Force_Field>
OPLS_2005

> <r_lp_Energy>
22.1176

> <b_lp_Chiralities_Consistent>
1

> <s_lp_Variant>
AV-unprocessed.smi:593-1

> <Gold.Version>
5.8.1

> <Gold.Id.Protein>
6NUR|6NUR_protein|mol2

> <Gold.PLP.Fitness>
47.1748

> <Gold.PLP.PLP>
-36.3858

> <Gold.PLP.part.hbond>
-3.0000

> <Gold.PLP.part.metal>
0.0000

> <Gold.PLP.part.buried>
-0.3466

> <Gold.PLP.part.nonpolar>
-32.1410

> <Gold.PLP.part.repulsive>
0.3900

> <Gold.PLP.ligand.clash>
0.0000

> <Gold.PLP.ligand.torsion>
0.5435

> <Gold.PLP.Chemscore.Hbond>
2.9913

> <Gold.PLP.Chemscore.CHOScore>
0.9548

> <Gold.PLP.Chemscore.Metal>
0.0000

> <Gold.Chemscore.Hbonds>
donor molecule, donor type, donor heavy atom, donor atom, acceptor molecule, acceptor atom, score
      L1  H    14    27       P1  7948  1.00
      P1  H  7997  8010       L1     9  0.98
      P1  H 10752 10764       L1     8  1.00
      L1  C     5    24       P1  7948  0.95

> <Gold.PLP.Chemscore.Internal.Correction>
0.0378

> <Gold.Rescore>
     Score         DG    S(hbond)    S(metal)    S(lipo)     H(rot)  DE(clash)    DE(int)     intcor
     17.66     -18.24       2.86        0.00      66.38       1.78       0.06       0.53       ----

> <Gold.Chemscore.Fitness>
17.6555

> <Gold.Chemscore.DG>
-18.2435

> <Gold.Chemscore.ZeroCoef>
-5.4800

> <Gold.Chemscore.Hbond>
2.8622

> <Gold.Chemscore.Metal>
0.0000

> <Gold.Chemscore.Lipo>
66.3785

> <Gold.Chemscore.Internal_Hbond>
0.0000

> <Gold.Chemscore.DEClash>
0.0561

> <Gold.Chemscore.DEInternal>
0.5319

> <Gold.Chemscore.Rot>
1.7823

> <Gold.Chemscore.Internal.Correction>
   9.000000E+99

> <Gold.Chemscore.Hbonds>
donor molecule, donor type, donor heavy atom, donor atom, acceptor molecule, acceptor atom, score
      L1  H    14    27       P1  7948  0.97
      P1  H  7997  8010       L1     9  0.90
      P1  H 10752 10764       L1     8  0.94

> <Gold.Chemscore.Hbond.Weighted>
-9.5599

> <Gold.Chemscore.Metal.Weighted>
-0.0000

> <Gold.Chemscore.Lipo.Weighted>
-7.7663

> <Gold.Chemscore.Internal_Hbond.Weighted>
0.0000

> <Gold.Chemscore.DEClash.Weighted>
0.0561

> <Gold.Chemscore.DEInternal.Weighted>
0.5319

> <Gold.Chemscore.Rot.Weighted>
4.5627

> <Gold.Chemscore.Internal.Correction.Weighted>
   9.000000E+99

> <Gold.Protein.RotatedTorsions>
[ 6907 6896 6895 6894 ] final   25.14 input  -60.11 | X-H torsion
[ 7974 7965 7964 7962 ] final   37.22 input  175.53 | X-H torsion
[ 8008 7997 7996 7995 ] final  100.28 input   59.86 | X-H torsion
[ 10167 10162 10161 10158 ] final  -99.37 input  -65.29 | X-H torsion
[ 10718 10713 10712 10709 ] final  130.34 input   66.30 | X-H torsion
[ 10763 10752 10751 10750 ] final  -79.87 input  -60.55 | X-H torsion
[ 11005 11000 10999 10996 ] final   76.91 input  -57.11 | X-H torsion

> <Gold.Protein.ActiveResidues>
 VAL166  LYS551  ARG553  GLY616  TRP617  ASP618  TYR619  PRO620  LYS621  CYS622 
 ASP623  PHE694  ASN695  SER759  ASP760  ASP761  ALA762  ILE779  LEU786  VAL792 
 PHE793  MET794  SER795  GLU796  ALA797  LYS798  CYS799  TRP800  GLU811  SER814 

> <Gold.Protein.RotatedAtoms>
  151.9680  135.0091  160.0551 H   0  0  0  0  0  0  0  0  0  0  0  0  # atno 6907 bound_to 6896
  152.1809  133.4702  159.4966 H   0  0  0  0  0  0  0  0  0  0  0  0  # atno 6908 bound_to 6896
  150.6917  134.1752  159.4270 H   0  0  0  0  0  0  0  0  0  0  0  0  # atno 6909 bound_to 6896
  146.1153  139.5921  142.9325 H   0  0  0  0  0  0  0  0  0  0  0  0  # atno 7974 bound_to 7965
  156.1188  140.3215  155.8178 H   0  0  0  0  0  0  0  0  0  0  0  0  # atno 8008 bound_to 7997
  155.4542  140.0534  157.3015 H   0  0  0  0  0  0  0  0  0  0  0  0  # atno 8009 bound_to 7997
  154.4812  140.2054  155.9773 H   0  0  0  0  0  0  0  0  0  0  0  0  # atno 8010 bound_to 7997
  140.2631  143.3394  152.0606 H   0  0  0  0  0  0  0  0  0  0  0  0  # atno 10167 bound_to 10162
  157.5071  131.1096  150.9345 H   0  0  0  0  0  0  0  0  0  0  0  0  # atno 10718 bound_to 10713
  154.5441  135.5681  153.6864 H   0  0  0  0  0  0  0  0  0  0  0  0  # atno 10763 bound_to 10752
  152.9971  135.6235  154.2463 H   0  0  0  0  0  0  0  0  0  0  0  0  # atno 10764 bound_to 10752
  154.2395  135.2863  155.2839 H   0  0  0  0  0  0  0  0  0  0  0  0  # atno 10765 bound_to 10752
  139.9277  134.7640  156.1455 H   0  0  0  0  0  0  0  0  0  0  0  0  # atno 11005 bound_to 11000
  145.5579  141.0407  143.2242 LP  0  0  0  0  0  0  0  0  0  0  0  0  # atno 17320 bound_to 7965
  144.7548  139.7103  143.7258 LP  0  0  0  0  0  0  0  0  0  0  0  0  # atno 17321 bound_to 7965
  139.5011  144.6706  151.6253 LP  0  0  0  0  0  0  0  0  0  0  0  0  # atno 17342 bound_to 10162
  140.5950  143.9712  150.6348 LP  0  0  0  0  0  0  0  0  0  0  0  0  # atno 17343 bound_to 10162
  156.9998  130.5595  149.5310 LP  0  0  0  0  0  0  0  0  0  0  0  0  # atno 17370 bound_to 10713
  156.0265  130.5359  150.8421 LP  0  0  0  0  0  0  0  0  0  0  0  0  # atno 17371 bound_to 10713
  141.0846  133.6739  156.2409 LP  0  0  0  0  0  0  0  0  0  0  0  0  # atno 17394 bound_to 11000
  140.6289  134.5285  157.5557 LP  0  0  0  0  0  0  0  0  0  0  0  0  # atno 17395 bound_to 11000

$$$$
