AV-unprocessed.smi:109|AV-procd|sdf|1032|dock1
  -GOLD-   2262018 33D 1   1.00000     0.00000
 Structure written by MMmdl.
 58 61  0  0  0  0  0  0  0  0  1 V2000
  156.5794  139.3996  158.6065 O   0  0  0  0  0  0  0  0  0  0  0  0
  155.6625  138.7145  159.4318 C   0  0  0  0  0  0  0  0  0  0  0  0
  154.8734  139.7210  160.2840 C   0  0  0  0  0  0  0  0  0  0  0  0
  153.7507  140.4245  159.4955 C   0  0  1  0  0  0  0  0  0  0  0  0
  152.8192  139.4369  158.9461 N   0  0  0  0  0  0  0  0  0  0  0  0
  152.4818  139.4050  157.6372 C   0  0  0  0  0  0  0  0  0  0  0  0
  153.3356  138.9344  156.6914 N   0  0  0  0  0  0  0  0  0  0  0  0
  152.9665  138.9108  155.4075 C   0  0  0  0  0  0  0  0  0  0  0  0
  151.8121  139.3022  154.8647 N   0  0  0  0  0  0  0  0  0  0  0  0
  150.9504  139.7802  155.8085 C   0  0  0  0  0  0  0  0  0  0  0  0
  151.2104  139.8638  157.2051 C   0  0  0  0  0  0  0  0  0  0  0  0
  150.1075  140.3983  157.8575 N   0  0  0  0  0  0  0  0  0  0  0  0
  149.2471  140.6136  156.8990 C   0  0  0  0  0  0  0  0  0  0  0  0
  149.6727  140.2726  155.6342 N   0  0  0  0  0  0  0  0  0  0  0  0
  148.9129  140.3992  154.3534 C   0  0  2  0  0  0  0  0  0  0  0  0
  148.1580  141.5706  154.4109 O   0  0  0  0  0  0  0  0  0  0  0  0
  146.8621  141.3328  153.8734 C   0  0  2  0  0  0  0  0  0  0  0  0
  145.8684  142.3543  154.4465 C   0  0  0  0  0  0  0  0  0  0  0  0
  146.0001  143.5867  153.7714 O   0  0  0  0  0  0  0  0  0  0  0  0
  146.5827  139.8946  154.3133 C   0  0  1  0  0  0  0  0  0  0  0  0
  145.5579  139.2707  153.5614 O   0  0  0  0  0  0  0  0  0  0  0  0
  147.9444  139.2195  154.1636 C   0  0  1  0  0  0  0  0  0  0  0  0
  148.1143  138.6343  152.8845 O   0  0  0  0  0  0  0  0  0  0  0  0
  153.0058  141.4942  160.3332 C   0  0  0  0  0  0  0  0  0  0  0  0
  152.6149  142.7598  159.5337 C   0  0  0  0  0  0  0  0  0  0  0  0
  151.8443  143.7644  160.4063 C   0  0  0  0  0  0  0  0  0  0  0  0
  152.6408  144.1384  161.6653 C   0  0  0  0  0  0  0  0  0  0  0  0
  153.0206  142.8864  162.4699 C   0  0  0  0  0  0  0  0  0  0  0  0
  153.7961  141.8822  161.6025 C   0  0  0  0  0  0  0  0  0  0  0  0
  149.6798  140.4682  153.5802 H   0  0  0  0  0  0  0  0  0  0  0  0
  146.9058  141.3848  152.7834 H   0  0  0  0  0  0  0  0  0  0  0  0
  146.2892  139.8846  155.3631 H   0  0  0  0  0  0  0  0  0  0  0  0
  148.1000  138.4525  154.9240 H   0  0  0  0  0  0  0  0  0  0  0  0
  157.3634  138.8772  158.5318 H   0  0  0  0  0  0  0  0  0  0  0  0
  154.9894  138.1284  158.8055 H   0  0  0  0  0  0  0  0  0  0  0  0
  156.2125  138.0157  160.0627 H   0  0  0  0  0  0  0  0  0  0  0  0
  154.4614  139.2138  161.1573 H   0  0  0  0  0  0  0  0  0  0  0  0
  155.5681  140.4712  160.6643 H   0  0  0  0  0  0  0  0  0  0  0  0
  154.2527  140.9695  158.6971 H   0  0  0  0  0  0  0  0  0  0  0  0
  152.4436  138.7807  159.6158 H   0  0  0  0  0  0  0  0  0  0  0  0
  153.6999  138.5213  154.7170 H   0  0  0  0  0  0  0  0  0  0  0  0
  148.2697  141.0324  157.0907 H   0  0  0  0  0  0  0  0  0  0  0  0
  144.8456  142.0072  154.2967 H   0  0  0  0  0  0  0  0  0  0  0  0
  146.0109  142.4898  155.5192 H   0  0  0  0  0  0  0  0  0  0  0  0
  145.9177  144.2839  154.4041 H   0  0  0  0  0  0  0  0  0  0  0  0
  145.1167  139.9304  153.0485 H   0  0  0  0  0  0  0  0  0  0  0  0
  148.5300  139.2661  152.3180 H   0  0  0  0  0  0  0  0  0  0  0  0
  152.0781  141.0334  160.6765 H   0  0  0  0  0  0  0  0  0  0  0  0
  153.5070  143.2439  159.1352 H   0  0  0  0  0  0  0  0  0  0  0  0
  151.9985  142.4933  158.6754 H   0  0  0  0  0  0  0  0  0  0  0  0
  151.6199  144.6618  159.8291 H   0  0  0  0  0  0  0  0  0  0  0  0
  150.8841  143.3356  160.6958 H   0  0  0  0  0  0  0  0  0  0  0  0
  153.5445  144.6786  161.3801 H   0  0  0  0  0  0  0  0  0  0  0  0
  152.0564  144.8175  162.2868 H   0  0  0  0  0  0  0  0  0  0  0  0
  153.6191  143.1688  163.3364 H   0  0  0  0  0  0  0  0  0  0  0  0
  152.1179  142.4135  162.8587 H   0  0  0  0  0  0  0  0  0  0  0  0
  154.0190  140.9908  162.1899 H   0  0  0  0  0  0  0  0  0  0  0  0
  154.7580  142.3166  161.3276 H   0  0  0  0  0  0  0  0  0  0  0  0
  1  2  1  0  0  0  0
  1 34  1  0  0  0  0
  2  3  1  0  0  0  0
  2 35  1  0  0  0  0
  2 36  1  0  0  0  0
  3  4  1  0  0  0  0
  3 37  1  0  0  0  0
  3 38  1  0  0  0  0
  4  5  1  0  0  0  0
  4 24  1  0  0  0  0
  4 39  1  0  0  0  0
  5  6  1  0  0  0  0
  5 40  1  0  0  0  0
  6 11  1  0  0  0  0
  6  7  2  0  0  0  0
  7  8  1  0  0  0  0
  8  9  2  0  0  0  0
  8 41  1  0  0  0  0
  9 10  1  0  0  0  0
 10 14  1  0  0  0  0
 10 11  2  0  0  0  0
 11 12  1  0  0  0  0
 12 13  2  0  0  0  0
 13 14  1  0  0  0  0
 13 42  1  0  0  0  0
 14 15  1  0  0  0  0
 15 30  1  0  0  0  0
 15 22  1  0  0  0  0
 15 16  1  0  0  0  0
 16 17  1  0  0  0  0
 17 31  1  0  0  0  0
 17 18  1  0  0  0  0
 17 20  1  0  0  0  0
 18 19  1  0  0  0  0
 18 43  1  0  0  0  0
 18 44  1  0  0  0  0
 19 45  1  0  0  0  0
 20 32  1  0  0  0  0
 20 21  1  0  0  0  0
 20 22  1  0  0  0  0
 21 46  1  0  0  0  0
 22 33  1  0  0  0  0
 22 23  1  0  0  0  0
 23 47  1  0  0  0  0
 24 29  1  0  0  0  0
 24 25  1  0  0  0  0
 24 48  1  0  0  0  0
 25 26  1  0  0  0  0
 25 49  1  0  0  0  0
 25 50  1  0  0  0  0
 26 27  1  0  0  0  0
 26 51  1  0  0  0  0
 26 52  1  0  0  0  0
 27 28  1  0  0  0  0
 27 53  1  0  0  0  0
 27 54  1  0  0  0  0
 28 29  1  0  0  0  0
 28 55  1  0  0  0  0
 28 56  1  0  0  0  0
 29 57  1  0  0  0  0
 29 58  1  0  0  0  0
M  END
> <s_m_source_file>
AV-unprocessed.smi

> <i_m_source_file_index>
109

> <i_lp_mmshare_version>
43012

> <i_f3d_flags>
0

> <s_epik_input>
W0NIMl0xW0NIMl1bQ0gyXVtDSDJdW0NIMl1bQ0hdMVtDQEhdKFtDSDJdW0NIMl1bT0hdKVtOSF1jKG5bY0hdbjIpYyhjMjMpbltjSF1uM1tDQEBIXTRPW0NASF0oW0NIMl1bT0hdKVtDQEBIXShbT0hdKVtDQEhdNFtPSF0=

> <s_epik_cmdline>
J2VwaWtfcHl0aG9uJywgJy1waCcsICc3LjAnLCAnLXRuJywgJzgnLCAnLW1hJywgJzIwMCcsICctbWV0YWxfYmluZGluZycsICctaW1hZScsICc8aW5maWxlLm1hZT4nLCAnLW9tYWUnLCAnPG91dGZpbGUubWFlPic=

> <r_lp_tautomer_probability>
1

> <r_epik_Ionization_Penalty>
0.000793976

> <r_epik_Ionization_Penalty_Charging>
0

> <r_epik_Ionization_Penalty_Neutral>
0.000793976

> <r_epik_State_Penalty>
-0

> <r_epik_Charging_Adjusted_Penalty>
0

> <i_epik_Tot_Q>
0

> <i_epik_Tot_abs_Q>
0

> <r_epik_Metal_State_Penalty>
-0

> <b_epik_Metal_Only>
0

> <s_epik_Chemistry_Notes>
This compound contains an acetal/aminal-like group ( X-CH(R)-Y where X, Y are N, S, or O) that may be acid/base labile, releasing an aldehyde.

> <s_lp_Force_Field>
OPLS_2005

> <r_lp_Energy>
54.9407

> <b_lp_Chiralities_Consistent>
1

> <s_lp_Variant>
AV-unprocessed.smi:109-2

> <Gold.Version>
5.8.1

> <Gold.Id.Protein>
6NUR|6NUR_protein|mol2

> <Gold.PLP.Fitness>
62.3909

> <Gold.PLP.PLP>
-52.9520

> <Gold.PLP.part.hbond>
-5.9593

> <Gold.PLP.part.metal>
0.0000

> <Gold.PLP.part.buried>
-7.0584

> <Gold.PLP.part.nonpolar>
-41.7687

> <Gold.PLP.part.repulsive>
0.2865

> <Gold.PLP.ligand.clash>
0.0000

> <Gold.PLP.ligand.torsion>
2.7281

> <Gold.PLP.Chemscore.Hbond>
4.9120

> <Gold.PLP.Chemscore.CHOScore>
0.0000

> <Gold.PLP.Chemscore.Metal>
0.0000

> <Gold.Chemscore.Hbonds>
donor molecule, donor type, donor heavy atom, donor atom, acceptor molecule, acceptor atom, score
      L1  H    21    46       P1 10175  0.93
      L1  H    23    47       P1  7957  1.00
      P1  H  7989  7998       L1     9  0.85
      P1  H  7997  8008       L1     7  0.95
      P1  H  7997  8010       L1     1  1.00

> <Gold.PLP.Chemscore.Internal.Correction>
0.1592

> <Gold.Rescore>
     Score         DG    S(hbond)    S(metal)    S(lipo)     H(rot)  DE(clash)    DE(int)     intcor
     12.70     -15.17       3.25        0.00     109.58       5.47       0.04       2.43       ----

> <Gold.Chemscore.Fitness>
12.7050

> <Gold.Chemscore.DG>
-15.1700

> <Gold.Chemscore.ZeroCoef>
-5.4800

> <Gold.Chemscore.Hbond>
3.2523

> <Gold.Chemscore.Metal>
0.0000

> <Gold.Chemscore.Lipo>
109.5792

> <Gold.Chemscore.Internal_Hbond>
0.0000

> <Gold.Chemscore.DEClash>
0.0398

> <Gold.Chemscore.DEInternal>
2.4251

> <Gold.Chemscore.Rot>
5.4662

> <Gold.Chemscore.Internal.Correction>
   9.000000E+99

> <Gold.Chemscore.Hbonds>
donor molecule, donor type, donor heavy atom, donor atom, acceptor molecule, acceptor atom, score
      L1  H    21    46       P1 10175  0.89
      L1  H    23    47       P1  7957  1.00
      P1  H  7989  7998       L1     9  0.18
      P1  H  7997  8008       L1     7  0.07
      P1  H  7997  8010       L1     1  0.80

> <Gold.Chemscore.Hbond.Weighted>
-10.8627

> <Gold.Chemscore.Metal.Weighted>
-0.0000

> <Gold.Chemscore.Lipo.Weighted>
-12.8208

> <Gold.Chemscore.Internal_Hbond.Weighted>
0.0000

> <Gold.Chemscore.DEClash.Weighted>
0.0398

> <Gold.Chemscore.DEInternal.Weighted>
2.4251

> <Gold.Chemscore.Rot.Weighted>
13.9935

> <Gold.Chemscore.Internal.Correction.Weighted>
   9.000000E+99

> <Gold.Protein.RotatedTorsions>
[ 6907 6896 6895 6894 ] final   64.83 input  -60.11 | X-H torsion
[ 7974 7965 7964 7962 ] final   20.27 input  175.53 | X-H torsion
[ 8008 7997 7996 7995 ] final  -60.18 input   59.86 | X-H torsion
[ 10167 10162 10161 10158 ] final  149.84 input  -65.29 | X-H torsion
[ 10718 10713 10712 10709 ] final   11.00 input   66.30 | X-H torsion
[ 10763 10752 10751 10750 ] final   -5.57 input  -60.55 | X-H torsion
[ 11005 11000 10999 10996 ] final -164.98 input  -57.11 | X-H torsion

> <Gold.Protein.ActiveResidues>
 VAL166  LYS551  ARG553  GLY616  TRP617  ASP618  TYR619  PRO620  LYS621  CYS622 
 ASP623  PHE694  ASN695  SER759  ASP760  ASP761  ALA762  ILE779  LEU786  VAL792 
 PHE793  MET794  SER795  GLU796  ALA797  LYS798  CYS799  TRP800  GLU811  SER814 

> <Gold.Protein.RotatedAtoms>
  152.4361  134.5683  159.9913 H   0  0  0  0  0  0  0  0  0  0  0  0  # atno 6907 bound_to 6896
  151.5793  133.3374  159.3013 H   0  0  0  0  0  0  0  0  0  0  0  0  # atno 6908 bound_to 6896
  150.8260  134.7526  159.6877 H   0  0  0  0  0  0  0  0  0  0  0  0  # atno 6909 bound_to 6896
  146.2118  139.8194  142.8683 H   0  0  0  0  0  0  0  0  0  0  0  0  # atno 7974 bound_to 7965
  154.4386  140.1045  156.6233 H   0  0  0  0  0  0  0  0  0  0  0  0  # atno 8008 bound_to 7997
  155.5684  140.3489  155.4490 H   0  0  0  0  0  0  0  0  0  0  0  0  # atno 8009 bound_to 7997
  156.0408  140.1281  157.0147 H   0  0  0  0  0  0  0  0  0  0  0  0  # atno 8010 bound_to 7997
  139.4857  144.5570  151.7300 H   0  0  0  0  0  0  0  0  0  0  0  0  # atno 10167 bound_to 10162
  156.9891  130.6035  149.5684 H   0  0  0  0  0  0  0  0  0  0  0  0  # atno 10718 bound_to 10713
  153.4004  135.7005  153.6430 H   0  0  0  0  0  0  0  0  0  0  0  0  # atno 10763 bound_to 10752
  153.4966  135.3661  155.2519 H   0  0  0  0  0  0  0  0  0  0  0  0  # atno 10764 bound_to 10752
  154.8710  135.4102  154.3338 H   0  0  0  0  0  0  0  0  0  0  0  0  # atno 10765 bound_to 10752
  140.5808  134.5143  157.5178 H   0  0  0  0  0  0  0  0  0  0  0  0  # atno 11005 bound_to 11000
  145.3112  141.0220  143.3553 LP  0  0  0  0  0  0  0  0  0  0  0  0  # atno 17320 bound_to 7965
  144.8934  139.4744  143.6667 LP  0  0  0  0  0  0  0  0  0  0  0  0  # atno 17321 bound_to 7965
  140.5133  144.0992  150.6001 LP  0  0  0  0  0  0  0  0  0  0  0  0  # atno 17342 bound_to 10162
  140.3925  143.2745  152.0044 LP  0  0  0  0  0  0  0  0  0  0  0  0  # atno 17343 bound_to 10162
  156.0214  130.5309  150.8286 LP  0  0  0  0  0  0  0  0  0  0  0  0  # atno 17370 bound_to 10713
  157.5471  131.0943  150.9747 LP  0  0  0  0  0  0  0  0  0  0  0  0  # atno 17371 bound_to 10713
  139.9318  134.7949  156.0910 LP  0  0  0  0  0  0  0  0  0  0  0  0  # atno 17394 bound_to 11000
  141.0997  133.6682  156.2726 LP  0  0  0  0  0  0  0  0  0  0  0  0  # atno 17395 bound_to 11000

$$$$
