AV-unprocessed.smi:295|AV-procd|sdf|2257|dock7
  -GOLD-   2262022143D 1   1.00000     0.00000
 Structure written by MMmdl.
 35 36  0  0  0  0  0  0  0  0  1 V2000
  153.0847  142.0935  161.2097 C   0  0  0  0  0  0  0  0  0  0  0  0
  152.1730  142.7659  160.1666 C   0  0  1  0  0  0  0  0  0  0  0  0
  152.5669  144.2436  159.9694 C   0  0  0  0  0  0  0  0  0  0  0  0
  151.6634  144.9433  158.9423 C   0  0  0  0  0  0  0  0  0  0  0  0
  151.6808  144.2028  157.5979 C   0  0  0  0  0  0  0  0  0  0  0  0
  151.2773  142.7319  157.7756 C   0  0  0  0  0  0  0  0  0  0  0  0
  152.1717  142.0183  158.8099 C   0  0  2  0  0  0  0  0  0  0  0  0
  151.7113  140.6452  158.9940 N   0  0  0  0  0  0  0  0  0  0  0  0
  152.4699  139.5423  158.8912 C   0  0  0  0  0  0  0  0  0  0  0  0
  153.6556  139.5626  158.5632 O   0  0  0  0  0  0  0  0  0  0  0  0
  151.7860  138.2078  159.2009 C   0  0  0  0  0  0  0  0  0  0  0  0
  151.7664  137.3312  158.0422 N   0  0  0  0  0  0  0  0  0  0  0  0
  152.3730  137.4471  156.8561 C   0  0  0  0  0  0  0  0  0  0  0  0
  152.1093  136.4546  156.0157 N   0  0  0  0  0  0  0  0  0  0  0  0
  151.2819  135.7173  156.8121 C   0  0  0  0  0  0  0  0  0  0  0  0
  150.6882  134.4756  156.3464 C   0  0  0  0  0  0  0  0  0  0  0  0
  150.2155  133.4866  155.9755 N   0  0  0  0  0  0  0  0  0  0  0  0
  151.0392  136.1872  158.0339 N   0  0  0  0  0  0  0  0  0  0  0  0
  154.1170  142.0483  160.8613 H   0  0  0  0  0  0  0  0  0  0  0  0
  152.7640  141.0753  161.4314 H   0  0  0  0  0  0  0  0  0  0  0  0
  153.0759  142.6452  162.1499 H   0  0  0  0  0  0  0  0  0  0  0  0
  151.1566  142.7484  160.5638 H   0  0  0  0  0  0  0  0  0  0  0  0
  152.5126  144.7745  160.9204 H   0  0  0  0  0  0  0  0  0  0  0  0
  153.6053  144.3069  159.6407 H   0  0  0  0  0  0  0  0  0  0  0  0
  150.6422  144.9880  159.3227 H   0  0  0  0  0  0  0  0  0  0  0  0
  151.9874  145.9752  158.8036 H   0  0  0  0  0  0  0  0  0  0  0  0
  151.0063  144.6911  156.8939 H   0  0  0  0  0  0  0  0  0  0  0  0
  152.6785  144.2586  157.1606 H   0  0  0  0  0  0  0  0  0  0  0  0
  150.2343  142.6800  158.0914 H   0  0  0  0  0  0  0  0  0  0  0  0
  151.3337  142.2199  156.8142 H   0  0  0  0  0  0  0  0  0  0  0  0
  153.1963  142.0070  158.4322 H   0  0  0  0  0  0  0  0  0  0  0  0
  150.7453  140.5276  159.2621 H   0  0  0  0  0  0  0  0  0  0  0  0
  152.3138  137.7088  160.0145 H   0  0  0  0  0  0  0  0  0  0  0  0
  150.7614  138.3766  159.5355 H   0  0  0  0  0  0  0  0  0  0  0  0
  153.0138  138.2783  156.6009 H   0  0  0  0  0  0  0  0  0  0  0  0
  1  2  1  0  0  0  0
  1 19  1  0  0  0  0
  1 20  1  0  0  0  0
  1 21  1  0  0  0  0
  2  7  1  0  0  0  0
  2  3  1  0  0  0  0
  2 22  1  0  0  0  0
  3  4  1  0  0  0  0
  3 23  1  0  0  0  0
  3 24  1  0  0  0  0
  4  5  1  0  0  0  0
  4 25  1  0  0  0  0
  4 26  1  0  0  0  0
  5  6  1  0  0  0  0
  5 27  1  0  0  0  0
  5 28  1  0  0  0  0
  6  7  1  0  0  0  0
  6 29  1  0  0  0  0
  6 30  1  0  0  0  0
  7  8  1  0  0  0  0
  7 31  1  0  0  0  0
  8  9  1  0  0  0  0
  8 32  1  0  0  0  0
  9 10  2  0  0  0  0
  9 11  1  0  0  0  0
 11 12  1  0  0  0  0
 11 33  1  0  0  0  0
 11 34  1  0  0  0  0
 12 18  1  0  0  0  0
 12 13  1  0  0  0  0
 13 14  2  0  0  0  0
 13 35  1  0  0  0  0
 14 15  1  0  0  0  0
 15 16  1  0  0  0  0
 15 18  2  0  0  0  0
 16 17  3  0  0  0  0
M  END
> <s_m_source_file>
AV-unprocessed.smi

> <i_m_source_file_index>
295

> <i_lp_mmshare_version>
43012

> <i_f3d_flags>
0

> <s_epik_input>
W0NIM11bQ0BASF0xW0NIMl1bQ0gyXVtDSDJdW0NIMl1bQ0BIXTFbTkhdQyg9TylbQ0gyXW4yW2NIXW5jKG4yKUMjTg==

> <s_epik_cmdline>
J2VwaWtfcHl0aG9uJywgJy1waCcsICc3LjAnLCAnLXRuJywgJzgnLCAnLW1hJywgJzIwMCcsICctbWV0YWxfYmluZGluZycsICctaW1hZScsICc8aW5maWxlLm1hZT4nLCAnLW9tYWUnLCAnPG91dGZpbGUubWFlPic=

> <r_lp_tautomer_probability>
1

> <r_epik_Ionization_Penalty>
5.31112e-08

> <r_epik_Ionization_Penalty_Charging>
0

> <r_epik_Ionization_Penalty_Neutral>
5.31112e-08

> <r_epik_State_Penalty>
-0

> <r_epik_Charging_Adjusted_Penalty>
0

> <i_epik_Tot_Q>
0

> <i_epik_Tot_abs_Q>
0

> <r_epik_Metal_State_Penalty>
-0

> <b_epik_Metal_Only>
0

> <s_lp_Force_Field>
OPLS_2005

> <r_lp_Energy>
13.6203

> <b_lp_Chiralities_Consistent>
1

> <s_lp_Variant>
AV-unprocessed.smi:295-4

> <Gold.Version>
5.8.1

> <Gold.Id.Protein>
6NUR|6NUR_protein|mol2

> <Gold.PLP.Fitness>
42.4506

> <Gold.PLP.PLP>
-35.4139

> <Gold.PLP.part.hbond>
-3.0000

> <Gold.PLP.part.metal>
0.0000

> <Gold.PLP.part.buried>
-5.6507

> <Gold.PLP.part.nonpolar>
-27.7643

> <Gold.PLP.part.repulsive>
0.1754

> <Gold.PLP.ligand.clash>
0.0000

> <Gold.PLP.ligand.torsion>
0.1609

> <Gold.PLP.Chemscore.Hbond>
2.4508

> <Gold.PLP.Chemscore.CHOScore>
0.0000

> <Gold.PLP.Chemscore.Metal>
0.0000

> <Gold.Chemscore.Hbonds>
donor molecule, donor type, donor heavy atom, donor atom, acceptor molecule, acceptor atom, score
      P1  H  6896  6909       L1    18  0.45
      P1  H  7997  8008       L1    10  1.00
      P1  H 10752 10763       L1    14  1.00

> <Gold.PLP.Chemscore.Internal.Correction>
0.0060

> <Gold.Rescore>
     Score         DG    S(hbond)    S(metal)    S(lipo)     H(rot)  DE(clash)    DE(int)     intcor
     17.98     -19.17       2.54        0.00      87.14       1.95       0.01       1.18       ----

> <Gold.Chemscore.Fitness>
17.9764

> <Gold.Chemscore.DG>
-19.1716

> <Gold.Chemscore.ZeroCoef>
-5.4800

> <Gold.Chemscore.Hbond>
2.5393

> <Gold.Chemscore.Metal>
0.0000

> <Gold.Chemscore.Lipo>
87.1412

> <Gold.Chemscore.Internal_Hbond>
0.0000

> <Gold.Chemscore.DEClash>
0.0110

> <Gold.Chemscore.DEInternal>
1.1841

> <Gold.Chemscore.Rot>
1.9474

> <Gold.Chemscore.Internal.Correction>
   9.000000E+99

> <Gold.Chemscore.Hbonds>
donor molecule, donor type, donor heavy atom, donor atom, acceptor molecule, acceptor atom, score
      P1  H  6896  6909       L1    18  0.43
      P1  H  7997  8008       L1    10  0.95
      P1  H 10752 10763       L1    14  0.90

> <Gold.Chemscore.Hbond.Weighted>
-8.4813

> <Gold.Chemscore.Metal.Weighted>
-0.0000

> <Gold.Chemscore.Lipo.Weighted>
-10.1955

> <Gold.Chemscore.Internal_Hbond.Weighted>
0.0000

> <Gold.Chemscore.DEClash.Weighted>
0.0110

> <Gold.Chemscore.DEInternal.Weighted>
1.1841

> <Gold.Chemscore.Rot.Weighted>
4.9852

> <Gold.Chemscore.Internal.Correction.Weighted>
   9.000000E+99

> <Gold.Protein.RotatedTorsions>
[ 6907 6896 6895 6894 ] final   79.39 input  -60.11 | X-H torsion
[ 7974 7965 7964 7962 ] final -175.49 input  175.53 | X-H torsion
[ 8008 7997 7996 7995 ] final -114.40 input   59.86 | X-H torsion
[ 10167 10162 10161 10158 ] final  120.32 input  -65.29 | X-H torsion
[ 10718 10713 10712 10709 ] final  -36.23 input   66.30 | X-H torsion
[ 10763 10752 10751 10750 ] final   71.65 input  -60.55 | X-H torsion
[ 11005 11000 10999 10996 ] final    5.22 input  -57.11 | X-H torsion

> <Gold.Protein.ActiveResidues>
 VAL166  LYS551  ARG553  GLY616  TRP617  ASP618  TYR619  PRO620  LYS621  CYS622 
 ASP623  PHE694  ASN695  SER759  ASP760  ASP761  ALA762  ILE779  LEU786  VAL792 
 PHE793  MET794  SER795  GLU796  ALA797  LYS798  CYS799  TRP800  GLU811  SER814 

> <Gold.Protein.RotatedAtoms>
  152.5197  134.3518  159.9253 H   0  0  0  0  0  0  0  0  0  0  0  0  # atno 6907 bound_to 6896
  151.3468  133.3934  159.2684 H   0  0  0  0  0  0  0  0  0  0  0  0  # atno 6908 bound_to 6896
  150.9759  134.9141  159.7873 H   0  0  0  0  0  0  0  0  0  0  0  0  # atno 6909 bound_to 6896
  144.7128  140.1312  143.6398 H   0  0  0  0  0  0  0  0  0  0  0  0  # atno 7974 bound_to 7965
  155.0358  140.0392  157.2491 H   0  0  0  0  0  0  0  0  0  0  0  0  # atno 8008 bound_to 7997
  154.7258  140.2721  155.6476 H   0  0  0  0  0  0  0  0  0  0  0  0  # atno 8009 bound_to 7997
  156.2829  140.2694  156.1944 H   0  0  0  0  0  0  0  0  0  0  0  0  # atno 8010 bound_to 7997
  139.5989  144.7050  151.3109 H   0  0  0  0  0  0  0  0  0  0  0  0  # atno 10167 bound_to 10162
  156.3293  130.4277  149.7887 H   0  0  0  0  0  0  0  0  0  0  0  0  # atno 10718 bound_to 10713
  153.0412  135.5129  154.7626 H   0  0  0  0  0  0  0  0  0  0  0  0  # atno 10763 bound_to 10752
  154.6562  135.2932  154.9927 H   0  0  0  0  0  0  0  0  0  0  0  0  # atno 10764 bound_to 10752
  154.0794  135.6666  153.4888 H   0  0  0  0  0  0  0  0  0  0  0  0  # atno 10765 bound_to 10752
  140.5732  134.0083  155.8017 H   0  0  0  0  0  0  0  0  0  0  0  0  # atno 11005 bound_to 11000
  145.9285  139.2591  143.1339 LP  0  0  0  0  0  0  0  0  0  0  0  0  # atno 17320 bound_to 7965
  145.9548  140.8881  143.0241 LP  0  0  0  0  0  0  0  0  0  0  0  0  # atno 17321 bound_to 7965
  140.7234  143.7072  150.7798 LP  0  0  0  0  0  0  0  0  0  0  0  0  # atno 17342 bound_to 10162
  140.0644  143.5123  152.2611 LP  0  0  0  0  0  0  0  0  0  0  0  0  # atno 17343 bound_to 10162
  156.5166  130.8196  151.3188 LP  0  0  0  0  0  0  0  0  0  0  0  0  # atno 17370 bound_to 10713
  157.7427  130.9896  150.2538 LP  0  0  0  0  0  0  0  0  0  0  0  0  # atno 17371 bound_to 10713
  141.1043  133.9718  157.3024 LP  0  0  0  0  0  0  0  0  0  0  0  0  # atno 17394 bound_to 11000
  139.9352  135.0197  156.8532 LP  0  0  0  0  0  0  0  0  0  0  0  0  # atno 17395 bound_to 11000

$$$$
