AV-unprocessed.smi:1095|AV-procd|sdf|4748|dock10
  -GOLD-   22720 3283D 1   1.00000     0.00000
 Structure written by MMmdl.
 50 51  0  0  0  0  0  0  0  0  1 V2000
  153.0919  143.0947  162.7489 C   0  0  0  0  0  0  0  0  0  0  0  0
  152.3597  144.0170  161.7645 C   0  0  0  0  0  0  0  0  0  0  0  0
  152.5268  143.6182  160.2840 C   0  0  2  0  0  0  0  0  0  0  0  0
  151.5250  144.3429  159.3594 C   0  0  0  0  0  0  0  0  0  0  0  0
  151.6815  143.9084  157.8912 C   0  0  0  0  0  0  0  0  0  0  0  0
  151.5610  142.3827  157.7069 C   0  0  2  0  0  0  0  0  0  0  0  0
  150.1019  141.8915  157.8561 C   0  0  0  0  0  0  0  0  0  0  0  0
  149.3672  141.9588  156.5972 N   0  0  0  0  0  0  0  0  0  0  0  0
  149.7043  141.3109  155.4717 C   0  0  0  0  0  0  0  0  0  0  0  0
  150.7086  140.6057  155.3705 O   0  0  0  0  0  0  0  0  0  0  0  0
  148.7585  141.4746  154.2805 C   0  0  0  0  0  0  0  0  0  0  0  0
  147.3423  141.1700  154.7023 C   0  0  0  0  0  0  0  0  0  0  0  0
  146.1808  141.9748  154.5040 C   0  0  0  0  0  0  0  0  0  0  0  0
  146.0723  143.3188  153.8429 C   0  0  0  0  0  0  0  0  0  0  0  0
  145.0887  141.4150  154.9962 N   0  0  0  0  0  0  0  0  0  0  0  0
  145.5069  140.2468  155.5226 N   0  0  0  0  0  0  0  0  0  0  0  0
  144.5425  139.3684  156.1559 C   0  0  0  0  0  0  0  0  0  0  0  0
  146.8682  140.0703  155.3670 C   0  0  0  0  0  0  0  0  0  0  0  0
  147.5792  138.8573  155.8756 C   0  0  0  0  0  0  0  0  0  0  0  0
  152.5574  141.6639  158.6429 C   0  0  0  0  0  0  0  0  0  0  0  0
  152.3969  142.0915  160.1117 C   0  0  0  0  0  0  0  0  0  0  0  0
  152.8752  143.3817  163.7780 H   0  0  0  0  0  0  0  0  0  0  0  0
  154.1729  143.1421  162.6195 H   0  0  0  0  0  0  0  0  0  0  0  0
  152.7815  142.0571  162.6228 H   0  0  0  0  0  0  0  0  0  0  0  0
  151.2990  144.0043  162.0183 H   0  0  0  0  0  0  0  0  0  0  0  0
  152.6912  145.0455  161.9120 H   0  0  0  0  0  0  0  0  0  0  0  0
  153.5353  143.8976  159.9747 H   0  0  0  0  0  0  0  0  0  0  0  0
  150.5051  144.1530  159.6950 H   0  0  0  0  0  0  0  0  0  0  0  0
  151.6678  145.4216  159.4192 H   0  0  0  0  0  0  0  0  0  0  0  0
  150.9473  144.4224  157.2700 H   0  0  0  0  0  0  0  0  0  0  0  0
  152.6585  144.2334  157.5309 H   0  0  0  0  0  0  0  0  0  0  0  0
  151.8628  142.1629  156.6816 H   0  0  0  0  0  0  0  0  0  0  0  0
  150.0738  140.8593  158.2033 H   0  0  0  0  0  0  0  0  0  0  0  0
  149.5834  142.4768  158.6174 H   0  0  0  0  0  0  0  0  0  0  0  0
  148.5268  142.5183  156.5893 H   0  0  0  0  0  0  0  0  0  0  0  0
  148.8380  142.4846  153.8764 H   0  0  0  0  0  0  0  0  0  0  0  0
  149.0926  140.8098  153.4840 H   0  0  0  0  0  0  0  0  0  0  0  0
  145.9528  144.1076  154.5857 H   0  0  0  0  0  0  0  0  0  0  0  0
  145.2150  143.3615  153.1707 H   0  0  0  0  0  0  0  0  0  0  0  0
  146.9615  143.5489  153.2565 H   0  0  0  0  0  0  0  0  0  0  0  0
  144.6699  138.3518  155.7834 H   0  0  0  0  0  0  0  0  0  0  0  0
  143.5244  139.6951  155.9401 H   0  0  0  0  0  0  0  0  0  0  0  0
  144.6956  139.3753  157.2350 H   0  0  0  0  0  0  0  0  0  0  0  0
  148.6522  139.0323  155.9533 H   0  0  0  0  0  0  0  0  0  0  0  0
  147.4229  138.0106  155.2072 H   0  0  0  0  0  0  0  0  0  0  0  0
  147.2206  138.5781  156.8665 H   0  0  0  0  0  0  0  0  0  0  0  0
  152.4580  140.5823  158.5592 H   0  0  0  0  0  0  0  0  0  0  0  0
  153.5738  141.8926  158.3201 H   0  0  0  0  0  0  0  0  0  0  0  0
  153.1515  141.5856  160.7151 H   0  0  0  0  0  0  0  0  0  0  0  0
  151.4316  141.7551  160.4915 H   0  0  0  0  0  0  0  0  0  0  0  0
  1  2  1  0  0  0  0
  1 22  1  0  0  0  0
  1 23  1  0  0  0  0
  1 24  1  0  0  0  0
  2  3  1  0  0  0  0
  2 25  1  0  0  0  0
  2 26  1  0  0  0  0
  3 21  1  0  0  0  0
  3  4  1  0  0  0  0
  3 27  1  0  0  0  0
  4  5  1  0  0  0  0
  4 28  1  0  0  0  0
  4 29  1  0  0  0  0
  5  6  1  0  0  0  0
  5 30  1  0  0  0  0
  5 31  1  0  0  0  0
  6  7  1  0  0  0  0
  6 20  1  0  0  0  0
  6 32  1  0  0  0  0
  7  8  1  0  0  0  0
  7 33  1  0  0  0  0
  7 34  1  0  0  0  0
  8  9  1  0  0  0  0
  8 35  1  0  0  0  0
  9 10  2  0  0  0  0
  9 11  1  0  0  0  0
 11 12  1  0  0  0  0
 11 36  1  0  0  0  0
 11 37  1  0  0  0  0
 12 18  2  0  0  0  0
 12 13  1  0  0  0  0
 13 14  1  0  0  0  0
 13 15  2  0  0  0  0
 14 38  1  0  0  0  0
 14 39  1  0  0  0  0
 14 40  1  0  0  0  0
 15 16  1  0  0  0  0
 16 17  1  0  0  0  0
 16 18  1  0  0  0  0
 17 41  1  0  0  0  0
 17 42  1  0  0  0  0
 17 43  1  0  0  0  0
 18 19  1  0  0  0  0
 19 44  1  0  0  0  0
 19 45  1  0  0  0  0
 19 46  1  0  0  0  0
 20 21  1  0  0  0  0
 20 47  1  0  0  0  0
 20 48  1  0  0  0  0
 21 49  1  0  0  0  0
 21 50  1  0  0  0  0
M  END
> <s_m_source_file>
AV-unprocessed.smi

> <i_m_source_file_index>
1095

> <i_lp_mmshare_version>
43012

> <i_f3d_flags>
0

> <s_epik_input>
W0NIM11bQ0gyXVtDQEBIXTFbQ0gyXVtDSDJdW0NASF0oW0NIMl1bQ0gyXTEpW0NIMl1bTkhdQyg9TylbQ0gyXWMyYyhbQ0gzXSlubihbQ0gzXSljMltDSDNd

> <s_epik_cmdline>
J2VwaWtfcHl0aG9uJywgJy1waCcsICc3LjAnLCAnLXRuJywgJzgnLCAnLW1hJywgJzIwMCcsICctbWV0YWxfYmluZGluZycsICctaW1hZScsICc8aW5maWxlLm1hZT4nLCAnLW9tYWUnLCAnPG91dGZpbGUubWFlPic=

> <r_lp_tautomer_probability>
1

> <r_epik_Ionization_Penalty>
0.00317479

> <r_epik_Ionization_Penalty_Charging>
0

> <r_epik_Ionization_Penalty_Neutral>
0.00317479

> <r_epik_State_Penalty>
0.00223767

> <r_epik_Charging_Adjusted_Penalty>
0.00223767

> <i_epik_Tot_Q>
0

> <i_epik_Tot_abs_Q>
0

> <r_epik_Metal_State_Penalty>
-0

> <b_epik_Metal_Only>
0

> <s_lp_Force_Field>
OPLS_2005

> <r_lp_Energy>
8.21356

> <b_lp_Chiralities_Consistent>
1

> <s_lp_Variant>
AV-unprocessed.smi:1095-2

> <Gold.Version>
5.8.1

> <Gold.Id.Protein>
6NUR|6NUR_protein|mol2

> <Gold.PLP.Fitness>
47.1724

> <Gold.PLP.PLP>
-45.6168

> <Gold.PLP.part.hbond>
-2.0000

> <Gold.PLP.part.metal>
0.0000

> <Gold.PLP.part.buried>
-5.2552

> <Gold.PLP.part.nonpolar>
-38.3557

> <Gold.PLP.part.repulsive>
0.7499

> <Gold.PLP.ligand.clash>
0.0000

> <Gold.PLP.ligand.torsion>
0.6263

> <Gold.PLP.Chemscore.Hbond>
0.9258

> <Gold.PLP.Chemscore.CHOScore>
0.0000

> <Gold.PLP.Chemscore.Metal>
0.0000

> <Gold.Chemscore.Hbonds>
donor molecule, donor type, donor heavy atom, donor atom, acceptor molecule, acceptor atom, score
      L1  H     8    35       P1  8028  0.01
      P1  H  7989  7998       L1    10  0.77

> <Gold.PLP.Chemscore.Internal.Correction>
0.0309

> <Gold.Rescore>
     Score         DG    S(hbond)    S(metal)    S(lipo)     H(rot)  DE(clash)    DE(int)     intcor
     18.54     -19.53       0.92        0.00     125.13       1.43       0.34       0.65       ----

> <Gold.Chemscore.Fitness>
18.5436

> <Gold.Chemscore.DG>
-19.5325

> <Gold.Chemscore.ZeroCoef>
-5.4800

> <Gold.Chemscore.Hbond>
0.9227

> <Gold.Chemscore.Metal>
0.0000

> <Gold.Chemscore.Lipo>
125.1337

> <Gold.Chemscore.Internal_Hbond>
0.0000

> <Gold.Chemscore.DEClash>
0.3404

> <Gold.Chemscore.DEInternal>
0.6484

> <Gold.Chemscore.Rot>
1.4336

> <Gold.Chemscore.Internal.Correction>
   9.000000E+99

> <Gold.Chemscore.Hbonds>
donor molecule, donor type, donor heavy atom, donor atom, acceptor molecule, acceptor atom, score
      L1  H     8    35       P1  8028  0.02
      P1  H  7989  7998       L1    10  0.58

> <Gold.Chemscore.Hbond.Weighted>
-3.0818

> <Gold.Chemscore.Metal.Weighted>
-0.0000

> <Gold.Chemscore.Lipo.Weighted>
-14.6406

> <Gold.Chemscore.Internal_Hbond.Weighted>
0.0000

> <Gold.Chemscore.DEClash.Weighted>
0.3404

> <Gold.Chemscore.DEInternal.Weighted>
0.6484

> <Gold.Chemscore.Rot.Weighted>
3.6700

> <Gold.Chemscore.Internal.Correction.Weighted>
   9.000000E+99

> <Gold.Protein.RotatedTorsions>
[ 6907 6896 6895 6894 ] final   -2.29 input  -60.11 | X-H torsion
[ 7974 7965 7964 7962 ] final   47.69 input  175.53 | X-H torsion
[ 8008 7997 7996 7995 ] final  114.45 input   59.86 | X-H torsion
[ 10167 10162 10161 10158 ] final  -53.26 input  -65.29 | X-H torsion
[ 10718 10713 10712 10709 ] final  137.10 input   66.30 | X-H torsion
[ 10763 10752 10751 10750 ] final   28.11 input  -60.55 | X-H torsion
[ 11005 11000 10999 10996 ] final -114.04 input  -57.11 | X-H torsion

> <Gold.Protein.ActiveResidues>
 VAL166  LYS551  ARG553  GLY616  TRP617  ASP618  TYR619  PRO620  LYS621  CYS622 
 ASP623  PHE694  ASN695  SER759  ASP760  ASP761  ALA762  ILE779  LEU786  VAL792 
 PHE793  MET794  SER795  GLU796  ALA797  LYS798  CYS799  TRP800  GLU811  SER814 

> <Gold.Protein.RotatedAtoms>
  151.5323  135.1068  159.9905 H   0  0  0  0  0  0  0  0  0  0  0  0  # atno 6907 bound_to 6896
  152.4573  133.7745  159.6827 H   0  0  0  0  0  0  0  0  0  0  0  0  # atno 6908 bound_to 6896
  150.8521  133.7705  159.3046 H   0  0  0  0  0  0  0  0  0  0  0  0  # atno 6909 bound_to 6896
  146.0274  139.4723  142.9859 H   0  0  0  0  0  0  0  0  0  0  0  0  # atno 7974 bound_to 7965
  156.2321  140.2959  156.0217 H   0  0  0  0  0  0  0  0  0  0  0  0  # atno 8008 bound_to 7997
  155.2194  140.0415  157.2963 H   0  0  0  0  0  0  0  0  0  0  0  0  # atno 8009 bound_to 7997
  154.6015  140.2428  155.7794 H   0  0  0  0  0  0  0  0  0  0  0  0  # atno 8010 bound_to 7997
  140.6494  143.2556  151.4767 H   0  0  0  0  0  0  0  0  0  0  0  0  # atno 10167 bound_to 10162
  157.4397  131.1056  151.0158 H   0  0  0  0  0  0  0  0  0  0  0  0  # atno 10718 bound_to 10713
  153.0513  135.6521  154.0688 H   0  0  0  0  0  0  0  0  0  0  0  0  # atno 10763 bound_to 10752
  154.0375  135.2906  155.3361 H   0  0  0  0  0  0  0  0  0  0  0  0  # atno 10764 bound_to 10752
  154.6802  135.5322  153.8320 H   0  0  0  0  0  0  0  0  0  0  0  0  # atno 10765 bound_to 10752
  141.0577  133.9586  157.2724 H   0  0  0  0  0  0  0  0  0  0  0  0  # atno 11005 bound_to 11000
  145.7095  141.0111  143.1461 LP  0  0  0  0  0  0  0  0  0  0  0  0  # atno 17320 bound_to 7965
  144.7015  139.8740  143.7442 LP  0  0  0  0  0  0  0  0  0  0  0  0  # atno 17321 bound_to 7965
  139.5707  144.1934  152.1832 LP  0  0  0  0  0  0  0  0  0  0  0  0  # atno 17342 bound_to 10162
  140.1230  144.5356  150.6851 LP  0  0  0  0  0  0  0  0  0  0  0  0  # atno 17343 bound_to 10162
  157.1025  130.5988  149.5463 LP  0  0  0  0  0  0  0  0  0  0  0  0  # atno 17370 bound_to 10713
  155.9944  130.5007  150.7418 LP  0  0  0  0  0  0  0  0  0  0  0  0  # atno 17371 bound_to 10713
  139.9404  135.0191  156.8691 LP  0  0  0  0  0  0  0  0  0  0  0  0  # atno 17394 bound_to 11000
  140.5932  134.0242  155.7507 LP  0  0  0  0  0  0  0  0  0  0  0  0  # atno 17395 bound_to 11000

$$$$
