AV-unprocessed.smi:3186|AV-procd|sdf|12173|dock4
  -GOLD-   2272018 13D 1   1.00000     0.00000
 Structure written by MMmdl.
 37 38  0  0  0  0  0  0  0  0  2 V2000
  148.9704  139.0412  153.8983 C   0  0  0  0  0  0  0  0  0  0  0  0
  150.3450  138.8664  154.5194 C   0  0  0  0  0  0  0  0  0  0  0  0
  151.0532  137.6608  154.3214 C   0  0  0  0  0  0  0  0  0  0  0  0
  152.2784  137.4211  154.8337 N   0  0  0  0  0  0  0  0  0  0  0  0
  152.8539  138.3914  155.5729 C   0  0  0  0  0  0  0  0  0  0  0  0
  152.2386  139.6312  155.8334 C   0  0  0  0  0  0  0  0  0  0  0  0
  150.9576  139.8804  155.2973 C   0  0  0  0  0  0  0  0  0  0  0  0
  150.2795  141.2124  155.5763 C   0  0  0  0  0  0  0  0  0  0  0  0
  149.6857  141.2746  156.9905 C   0  0  0  0  0  0  0  0  0  0  0  0
  149.6738  142.6622  157.4992 N   0  3  0  0  0  0  0  0  0  0  0  0
  150.9020  143.0847  158.2090 C   0  0  2  0  0  0  0  0  0  0  0  0
  151.5267  141.9037  158.9851 C   0  0  0  0  0  0  0  0  0  0  0  0
  152.8362  142.2817  159.6973 C   0  0  0  0  0  0  0  0  0  0  0  0
  152.6428  143.3976  160.7327 C   0  0  0  0  0  0  0  0  0  0  0  0
  152.0550  144.9210  159.9466 S   0  0  0  0  0  0  0  0  0  0  0  0
  150.5675  144.2556  159.1511 C   0  0  0  0  0  0  0  0  0  0  0  0
  148.6268  138.1153  153.4355 H   0  0  0  0  0  0  0  0  0  0  0  0
  148.9975  139.8110  153.1270 H   0  0  0  0  0  0  0  0  0  0  0  0
  148.2360  139.3279  154.6506 H   0  0  0  0  0  0  0  0  0  0  0  0
  150.6254  136.8615  153.7339 H   0  0  0  0  0  0  0  0  0  0  0  0
  153.8340  138.1734  155.9707 H   0  0  0  0  0  0  0  0  0  0  0  0
  152.7444  140.3729  156.4341 H   0  0  0  0  0  0  0  0  0  0  0  0
  151.0118  142.0110  155.4492 H   0  0  0  0  0  0  0  0  0  0  0  0
  149.5063  141.3989  154.8307 H   0  0  0  0  0  0  0  0  0  0  0  0
  148.6734  140.8727  156.9823 H   0  0  0  0  0  0  0  0  0  0  0  0
  150.2717  140.6506  157.6669 H   0  0  0  0  0  0  0  0  0  0  0  0
  149.5558  143.2704  156.7013 H   0  0  0  0  0  0  0  0  0  0  0  0
  151.6145  143.4455  157.4651 H   0  0  0  0  0  0  0  0  0  0  0  0
  150.8125  141.5223  159.7163 H   0  0  0  0  0  0  0  0  0  0  0  0
  151.7371  141.0760  158.3084 H   0  0  0  0  0  0  0  0  0  0  0  0
  153.2414  141.3997  160.1942 H   0  0  0  0  0  0  0  0  0  0  0  0
  153.5823  142.5863  158.9623 H   0  0  0  0  0  0  0  0  0  0  0  0
  151.9269  143.0901  161.4958 H   0  0  0  0  0  0  0  0  0  0  0  0
  153.5835  143.6075  161.2424 H   0  0  0  0  0  0  0  0  0  0  0  0
  150.0904  145.0651  158.5975 H   0  0  0  0  0  0  0  0  0  0  0  0
  149.8650  143.9409  159.9240 H   0  0  0  0  0  0  0  0  0  0  0  0
  148.8836  142.7871  158.1156 H   0  0  0  0  0  0  0  0  0  0  0  0
  1  2  1  0  0  0  0
  1 17  1  0  0  0  0
  1 18  1  0  0  0  0
  1 19  1  0  0  0  0
  2  7  1  0  0  0  0
  2  3  2  0  0  0  0
  3  4  1  0  0  0  0
  3 20  1  0  0  0  0
  4  5  2  0  0  0  0
  5  6  1  0  0  0  0
  5 21  1  0  0  0  0
  6  7  2  0  0  0  0
  6 22  1  0  0  0  0
  7  8  1  0  0  0  0
  8  9  1  0  0  0  0
  8 23  1  0  0  0  0
  8 24  1  0  0  0  0
  9 10  1  0  0  0  0
  9 25  1  0  0  0  0
  9 26  1  0  0  0  0
 10 11  1  0  0  0  0
 10 27  1  0  0  0  0
 10 37  1  0  0  0  0
 11 16  1  0  0  0  0
 11 12  1  0  0  0  0
 11 28  1  0  0  0  0
 12 13  1  0  0  0  0
 12 29  1  0  0  0  0
 12 30  1  0  0  0  0
 13 14  1  0  0  0  0
 13 31  1  0  0  0  0
 13 32  1  0  0  0  0
 14 15  1  0  0  0  0
 14 33  1  0  0  0  0
 14 34  1  0  0  0  0
 15 16  1  0  0  0  0
 16 35  1  0  0  0  0
 16 36  1  0  0  0  0
M  CHG  1  10   1
M  END
> <s_m_source_file>
AV-unprocessed.smi

> <i_m_source_file_index>
3186

> <i_lp_mmshare_version>
43012

> <i_f3d_flags>
0

> <s_epik_input>
W0NIM11jMVtjSF1uW2NIXVtjSF1jMVtDSDJdW0NIMl1bTkhdW0NAQEhdMltDSDJdW0NIMl1bQ0gyXVNbQ0gyXTI=

> <s_epik_cmdline>
J2VwaWtfcHl0aG9uJywgJy1waCcsICc3LjAnLCAnLXRuJywgJzgnLCAnLW1hJywgJzIwMCcsICctbWV0YWxfYmluZGluZycsICctaW1hZScsICc8aW5maWxlLm1hZT4nLCAnLW9tYWUnLCAnPG91dGZpbGUubWFlPic=

> <r_epik_Ionization_Penalty>
0.00563987

> <r_epik_Ionization_Penalty_Charging>
0.00306352

> <r_epik_Ionization_Penalty_Neutral>
0.00257635

> <r_epik_State_Penalty>
0.00506628

> <r_epik_Charging_Adjusted_Penalty>
0.0081298

> <i_epik_Tot_Q>
1

> <i_epik_Tot_abs_Q>
1

> <r_epik_Metal_State_Penalty>
-0

> <b_epik_Metal_Only>
0

> <s_lp_Force_Field>
OPLS_2005

> <r_lp_Energy>
10.8163

> <b_lp_Chiralities_Consistent>
1

> <s_lp_Variant>
AV-unprocessed.smi:3186-1

> <Gold.Version>
5.8.1

> <Gold.Id.Protein>
6NUR|6NUR_protein|mol2

> <Gold.PLP.Fitness>
49.9330

> <Gold.PLP.PLP>
-40.0741

> <Gold.PLP.part.hbond>
-2.0000

> <Gold.PLP.part.metal>
0.0000

> <Gold.PLP.part.buried>
-2.9576

> <Gold.PLP.part.nonpolar>
-35.1181

> <Gold.PLP.part.repulsive>
0.1202

> <Gold.PLP.ligand.clash>
0.0000

> <Gold.PLP.ligand.torsion>
0.8609

> <Gold.PLP.Chemscore.Hbond>
2.7680

> <Gold.PLP.Chemscore.CHOScore>
1.0867

> <Gold.PLP.Chemscore.Metal>
0.0000

> <Gold.Chemscore.Hbonds>
donor molecule, donor type, donor heavy atom, donor atom, acceptor molecule, acceptor atom, score
      L1  H    10    27       P1  8028  2.00
      P1  H 10752 10765       L1     4  0.72
      L1  C     3    20       P1  7948  0.47
      L1  C     3    20       P1  7949  0.63

> <Gold.PLP.Chemscore.Internal.Correction>
0.0166

> <Gold.Rescore>
     Score         DG    S(hbond)    S(metal)    S(lipo)     H(rot)  DE(clash)    DE(int)     intcor
     21.61     -22.30       1.85        0.00     119.58       1.30       0.08       0.61       ----

> <Gold.Chemscore.Fitness>
21.6083

> <Gold.Chemscore.DG>
-22.3030

> <Gold.Chemscore.ZeroCoef>
-5.4800

> <Gold.Chemscore.Hbond>
1.8469

> <Gold.Chemscore.Metal>
0.0000

> <Gold.Chemscore.Lipo>
119.5768

> <Gold.Chemscore.Internal_Hbond>
0.0000

> <Gold.Chemscore.DEClash>
0.0811

> <Gold.Chemscore.DEInternal>
0.6136

> <Gold.Chemscore.Rot>
1.3031

> <Gold.Chemscore.Internal.Correction>
   9.000000E+99

> <Gold.Chemscore.Hbonds>
donor molecule, donor type, donor heavy atom, donor atom, acceptor molecule, acceptor atom, score
      L1  H    10    27       P1  8028  0.99
      P1  H 10752 10765       L1     4  0.63

> <Gold.Chemscore.Hbond.Weighted>
-6.1686

> <Gold.Chemscore.Metal.Weighted>
-0.0000

> <Gold.Chemscore.Lipo.Weighted>
-13.9905

> <Gold.Chemscore.Internal_Hbond.Weighted>
0.0000

> <Gold.Chemscore.DEClash.Weighted>
0.0811

> <Gold.Chemscore.DEInternal.Weighted>
0.6136

> <Gold.Chemscore.Rot.Weighted>
3.3361

> <Gold.Chemscore.Internal.Correction.Weighted>
   9.000000E+99

> <Gold.Protein.RotatedTorsions>
[ 6907 6896 6895 6894 ] final  -81.57 input  -60.11 | X-H torsion
[ 7974 7965 7964 7962 ] final   55.98 input  175.53 | X-H torsion
[ 8008 7997 7996 7995 ] final  -52.30 input   59.86 | X-H torsion
[ 10167 10162 10161 10158 ] final -164.01 input  -65.29 | X-H torsion
[ 10718 10713 10712 10709 ] final -119.36 input   66.30 | X-H torsion
[ 10763 10752 10751 10750 ] final  169.46 input  -60.55 | X-H torsion
[ 11005 11000 10999 10996 ] final -120.34 input  -57.11 | X-H torsion

> <Gold.Protein.ActiveResidues>
 VAL166  LYS551  ARG553  GLY616  TRP617  ASP618  TYR619  PRO620  LYS621  CYS622 
 ASP623  PHE694  ASN695  SER759  ASP760  ASP761  ALA762  ILE779  LEU786  VAL792 
 PHE793  MET794  SER795  GLU796  ALA797  LYS798  CYS799  TRP800  GLU811  SER814 

> <Gold.Protein.RotatedAtoms>
  150.6910  134.3797  159.5028 H   0  0  0  0  0  0  0  0  0  0  0  0  # atno 6907 bound_to 6896
  152.1601  134.8916  160.0551 H   0  0  0  0  0  0  0  0  0  0  0  0  # atno 6908 bound_to 6896
  151.9981  133.3780  159.4208 H   0  0  0  0  0  0  0  0  0  0  0  0  # atno 6909 bound_to 6896
  145.9446  139.3918  143.0343 H   0  0  0  0  0  0  0  0  0  0  0  0  # atno 7974 bound_to 7965
  154.4103  140.1227  156.4969 H   0  0  0  0  0  0  0  0  0  0  0  0  # atno 8008 bound_to 7997
  155.6934  140.3495  155.4883 H   0  0  0  0  0  0  0  0  0  0  0  0  # atno 8009 bound_to 7997
  155.9449  140.1094  157.1015 H   0  0  0  0  0  0  0  0  0  0  0  0  # atno 8010 bound_to 7997
  139.6280  144.0494  152.1992 H   0  0  0  0  0  0  0  0  0  0  0  0  # atno 10167 bound_to 10162
  156.1175  130.6297  150.9407 H   0  0  0  0  0  0  0  0  0  0  0  0  # atno 10718 bound_to 10713
  154.3834  135.2753  155.2198 H   0  0  0  0  0  0  0  0  0  0  0  0  # atno 10763 bound_to 10752
  154.4295  135.5981  153.6063 H   0  0  0  0  0  0  0  0  0  0  0  0  # atno 10764 bound_to 10752
  152.9834  135.5992  154.4080 H   0  0  0  0  0  0  0  0  0  0  0  0  # atno 10765 bound_to 10752
  141.0151  134.0208  157.3361 H   0  0  0  0  0  0  0  0  0  0  0  0  # atno 11005 bound_to 11000
  145.8253  140.9658  143.0877 LP  0  0  0  0  0  0  0  0  0  0  0  0  # atno 17320 bound_to 7965
  144.6785  140.0093  143.7484 LP  0  0  0  0  0  0  0  0  0  0  0  0  # atno 17321 bound_to 7965
  140.0152  144.6194  150.7613 LP  0  0  0  0  0  0  0  0  0  0  0  0  # atno 17342 bound_to 10162
  140.7422  143.2829  151.3546 LP  0  0  0  0  0  0  0  0  0  0  0  0  # atno 17343 bound_to 10162
  157.6359  131.0916  150.8350 LP  0  0  0  0  0  0  0  0  0  0  0  0  # atno 17370 bound_to 10713
  156.8451  130.5061  149.5317 LP  0  0  0  0  0  0  0  0  0  0  0  0  # atno 17371 bound_to 10713
  139.9112  135.0190  156.7699 LP  0  0  0  0  0  0  0  0  0  0  0  0  # atno 17394 bound_to 11000
  140.6669  133.9595  155.7835 LP  0  0  0  0  0  0  0  0  0  0  0  0  # atno 17395 bound_to 11000

$$$$
