AV-unprocessed.smi:1194|AV-procd|sdf|4991|dock10
  -GOLD-   22720 3593D 1   1.00000     0.00000
 Structure written by MMmdl.
 47 48  0  0  0  0  0  0  0  0  1 V2000
  152.9626  143.4675  160.7965 C   0  0  0  0  0  0  0  0  0  0  0  0
  152.9290  142.4958  159.6117 C   0  0  0  0  0  0  0  0  0  0  0  0
  153.0812  141.0268  160.0520 C   0  0  0  0  0  0  0  0  0  0  0  0
  153.0526  140.0162  158.8900 C   0  0  0  0  0  0  0  0  0  0  0  0
  154.0268  139.2791  158.7290 O   0  0  0  0  0  0  0  0  0  0  0  0
  151.9560  139.9531  158.0887 N   0  0  0  0  0  0  0  0  0  0  0  0
  150.7950  140.8608  158.2032 C   0  0  0  0  0  0  0  0  0  0  0  0
  150.7107  141.7528  156.9524 C   0  0  0  0  0  0  0  0  0  0  0  0
  150.6679  140.9055  155.6697 C   0  0  0  0  0  0  0  0  0  0  0  0
  151.8363  139.9041  155.6403 C   0  0  0  0  0  0  0  0  0  0  0  0
  151.8950  139.0380  156.9230 C   0  0  2  0  0  0  0  0  0  0  0  0
  150.7859  137.9679  157.0231 C   0  0  0  0  0  0  0  0  0  0  0  0
  149.9311  138.0388  157.9063 O   0  0  0  0  0  0  0  0  0  0  0  0
  150.7998  136.9842  156.1098 N   0  0  0  0  0  0  0  0  0  0  0  0
  149.8378  135.8939  156.0547 C   0  0  0  0  0  0  0  0  0  0  0  0
  150.5559  134.5405  156.1302 C   0  0  0  0  0  0  0  0  0  0  0  0
  149.8590  133.4793  155.3024 C   0  0  0  0  0  0  0  0  0  0  0  0
  150.1443  132.1117  155.4926 C   0  0  0  0  0  0  0  0  0  0  0  0
  149.4766  131.1624  154.6954 C   0  0  0  0  0  0  0  0  0  0  0  0
  148.5496  131.6230  153.7392 C   0  0  0  0  0  0  0  0  0  0  0  0
  148.2690  132.9302  153.5479 N   0  0  0  0  0  0  0  0  0  0  0  0
  148.9139  133.8341  154.3164 C   0  0  0  0  0  0  0  0  0  0  0  0
  152.8456  144.4969  160.4574 H   0  0  0  0  0  0  0  0  0  0  0  0
  153.9087  143.4000  161.3342 H   0  0  0  0  0  0  0  0  0  0  0  0
  152.1590  143.2565  161.5025 H   0  0  0  0  0  0  0  0  0  0  0  0
  151.9895  142.6269  159.0729 H   0  0  0  0  0  0  0  0  0  0  0  0
  153.7264  142.7604  158.9157 H   0  0  0  0  0  0  0  0  0  0  0  0
  154.0252  140.9171  160.5871 H   0  0  0  0  0  0  0  0  0  0  0  0
  152.2785  140.7821  160.7490 H   0  0  0  0  0  0  0  0  0  0  0  0
  149.8798  140.2759  158.2943 H   0  0  0  0  0  0  0  0  0  0  0  0
  150.8051  141.4935  159.0879 H   0  0  0  0  0  0  0  0  0  0  0  0
  149.8292  142.3921  157.0061 H   0  0  0  0  0  0  0  0  0  0  0  0
  151.5747  142.4180  156.9218 H   0  0  0  0  0  0  0  0  0  0  0  0
  149.7194  140.3696  155.6169 H   0  0  0  0  0  0  0  0  0  0  0  0
  150.7056  141.5511  154.7921 H   0  0  0  0  0  0  0  0  0  0  0  0
  151.7687  139.2781  154.7497 H   0  0  0  0  0  0  0  0  0  0  0  0
  152.7725  140.4552  155.5420 H   0  0  0  0  0  0  0  0  0  0  0  0
  152.8082  138.4483  156.8374 H   0  0  0  0  0  0  0  0  0  0  0  0
  151.5264  136.9943  155.4086 H   0  0  0  0  0  0  0  0  0  0  0  0
  149.1339  135.9939  156.8823 H   0  0  0  0  0  0  0  0  0  0  0  0
  149.2635  135.9615  155.1293 H   0  0  0  0  0  0  0  0  0  0  0  0
  151.5843  134.6425  155.7805 H   0  0  0  0  0  0  0  0  0  0  0  0
  150.6144  134.2034  157.1660 H   0  0  0  0  0  0  0  0  0  0  0  0
  150.8632  131.7948  156.2339 H   0  0  0  0  0  0  0  0  0  0  0  0
  149.6707  130.1066  154.8130 H   0  0  0  0  0  0  0  0  0  0  0  0
  148.0197  130.9224  153.1110 H   0  0  0  0  0  0  0  0  0  0  0  0
  148.6695  134.8708  154.1372 H   0  0  0  0  0  0  0  0  0  0  0  0
  1  2  1  0  0  0  0
  1 23  1  0  0  0  0
  1 24  1  0  0  0  0
  1 25  1  0  0  0  0
  2  3  1  0  0  0  0
  2 26  1  0  0  0  0
  2 27  1  0  0  0  0
  3  4  1  0  0  0  0
  3 28  1  0  0  0  0
  3 29  1  0  0  0  0
  4  5  2  0  0  0  0
  4  6  1  0  0  0  0
  6 11  1  0  0  0  0
  6  7  1  0  0  0  0
  7  8  1  0  0  0  0
  7 30  1  0  0  0  0
  7 31  1  0  0  0  0
  8  9  1  0  0  0  0
  8 32  1  0  0  0  0
  8 33  1  0  0  0  0
  9 10  1  0  0  0  0
  9 34  1  0  0  0  0
  9 35  1  0  0  0  0
 10 11  1  0  0  0  0
 10 36  1  0  0  0  0
 10 37  1  0  0  0  0
 11 12  1  0  0  0  0
 11 38  1  0  0  0  0
 12 13  2  0  0  0  0
 12 14  1  0  0  0  0
 14 15  1  0  0  0  0
 14 39  1  0  0  0  0
 15 16  1  0  0  0  0
 15 40  1  0  0  0  0
 15 41  1  0  0  0  0
 16 17  1  0  0  0  0
 16 42  1  0  0  0  0
 16 43  1  0  0  0  0
 17 22  1  0  0  0  0
 17 18  2  0  0  0  0
 18 19  1  0  0  0  0
 18 44  1  0  0  0  0
 19 20  2  0  0  0  0
 19 45  1  0  0  0  0
 20 21  1  0  0  0  0
 20 46  1  0  0  0  0
 21 22  2  0  0  0  0
 22 47  1  0  0  0  0
M  END
> <s_m_source_file>
AV-unprocessed.smi

> <i_m_source_file_index>
1194

> <i_lp_mmshare_version>
43012

> <i_f3d_flags>
0

> <s_epik_input>
W0NIM11bQ0gyXVtDSDJdQyg9TylOMVtDSDJdW0NIMl1bQ0gyXVtDSDJdW0NASF0xQyg9TylbTkhdW0NIMl1bQ0gyXWMyW2NIXVtjSF1bY0hdbltjSF0y

> <s_epik_cmdline>
J2VwaWtfcHl0aG9uJywgJy1waCcsICc3LjAnLCAnLXRuJywgJzgnLCAnLW1hJywgJzIwMCcsICctbWV0YWxfYmluZGluZycsICctaW1hZScsICc8aW5maWxlLm1hZT4nLCAnLW9tYWUnLCAnPG91dGZpbGUubWFlPic=

> <r_epik_Ionization_Penalty>
0.0130932

> <r_epik_Ionization_Penalty_Charging>
0

> <r_epik_Ionization_Penalty_Neutral>
0.0130932

> <r_epik_State_Penalty>
0.0101714

> <r_epik_Charging_Adjusted_Penalty>
0.0101714

> <i_epik_Tot_Q>
0

> <i_epik_Tot_abs_Q>
0

> <r_epik_Metal_State_Penalty>
0.00995056

> <b_epik_Metal_Only>
0

> <s_lp_Force_Field>
OPLS_2005

> <r_lp_Energy>
25.0478

> <b_lp_Chiralities_Consistent>
1

> <s_lp_Variant>
AV-unprocessed.smi:1194-2

> <Gold.Version>
5.8.1

> <Gold.Id.Protein>
6NUR|6NUR_protein|mol2

> <Gold.PLP.Fitness>
47.9416

> <Gold.PLP.PLP>
-40.8632

> <Gold.PLP.part.hbond>
-1.0000

> <Gold.PLP.part.metal>
0.0000

> <Gold.PLP.part.buried>
-3.1418

> <Gold.PLP.part.nonpolar>
-34.7471

> <Gold.PLP.part.repulsive>
0.2470

> <Gold.PLP.ligand.clash>
0.0000

> <Gold.PLP.ligand.torsion>
0.5705

> <Gold.PLP.Chemscore.Hbond>
1.0000

> <Gold.PLP.Chemscore.CHOScore>
1.7150

> <Gold.PLP.Chemscore.Metal>
0.0000

> <Gold.Chemscore.Hbonds>
donor molecule, donor type, donor heavy atom, donor atom, acceptor molecule, acceptor atom, score
      P1  H  7997  8010       L1     5  1.00
      L1  C    22    47       P1  7948  0.67

> <Gold.PLP.Chemscore.Internal.Correction>
0.0745

> <Gold.Rescore>
     Score         DG    S(hbond)    S(metal)    S(lipo)     H(rot)  DE(clash)    DE(int)     intcor
     14.36     -16.05       0.97        0.00      99.61       1.68       0.04       1.65       ----

> <Gold.Chemscore.Fitness>
14.3551

> <Gold.Chemscore.DG>
-16.0543

> <Gold.Chemscore.ZeroCoef>
-5.4800

> <Gold.Chemscore.Hbond>
0.9661

> <Gold.Chemscore.Metal>
0.0000

> <Gold.Chemscore.Lipo>
99.6083

> <Gold.Chemscore.Internal_Hbond>
0.0000

> <Gold.Chemscore.DEClash>
0.0449

> <Gold.Chemscore.DEInternal>
1.6542

> <Gold.Chemscore.Rot>
1.6823

> <Gold.Chemscore.Internal.Correction>
   9.000000E+99

> <Gold.Chemscore.Hbonds>
donor molecule, donor type, donor heavy atom, donor atom, acceptor molecule, acceptor atom, score
      P1  H  7997  8010       L1     5  0.35

> <Gold.Chemscore.Hbond.Weighted>
-3.2269

> <Gold.Chemscore.Metal.Weighted>
-0.0000

> <Gold.Chemscore.Lipo.Weighted>
-11.6542

> <Gold.Chemscore.Internal_Hbond.Weighted>
0.0000

> <Gold.Chemscore.DEClash.Weighted>
0.0449

> <Gold.Chemscore.DEInternal.Weighted>
1.6542

> <Gold.Chemscore.Rot.Weighted>
4.3068

> <Gold.Chemscore.Internal.Correction.Weighted>
   9.000000E+99

> <Gold.Protein.RotatedTorsions>
[ 6907 6896 6895 6894 ] final  -53.77 input  -60.11 | X-H torsion
[ 7974 7965 7964 7962 ] final   62.27 input  175.53 | X-H torsion
[ 8008 7997 7996 7995 ] final   17.42 input   59.86 | X-H torsion
[ 10167 10162 10161 10158 ] final   33.44 input  -65.29 | X-H torsion
[ 10718 10713 10712 10709 ] final  141.85 input   66.30 | X-H torsion
[ 10763 10752 10751 10750 ] final -132.78 input  -60.55 | X-H torsion
[ 11005 11000 10999 10996 ] final  163.18 input  -57.11 | X-H torsion

> <Gold.Protein.ActiveResidues>
 VAL166  LYS551  ARG553  GLY616  TRP617  ASP618  TYR619  PRO620  LYS621  CYS622 
 ASP623  PHE694  ASN695  SER759  ASP760  ASP761  ALA762  ILE779  LEU786  VAL792 
 PHE793  MET794  SER795  GLU796  ALA797  LYS798  CYS799  TRP800  GLU811  SER814 

> <Gold.Protein.RotatedAtoms>
  150.8397  134.7685  159.6922 H   0  0  0  0  0  0  0  0  0  0  0  0  # atno 6907 bound_to 6896
  152.4487  134.5436  159.9856 H   0  0  0  0  0  0  0  0  0  0  0  0  # atno 6908 bound_to 6896
  151.5579  133.3370  159.3001 H   0  0  0  0  0  0  0  0  0  0  0  0  # atno 6909 bound_to 6896
  145.8753  139.3406  143.0738 H   0  0  0  0  0  0  0  0  0  0  0  0  # atno 7974 bound_to 7965
  154.8912  140.2987  155.5369 H   0  0  0  0  0  0  0  0  0  0  0  0  # atno 8008 bound_to 7997
  156.3021  140.2424  156.3862 H   0  0  0  0  0  0  0  0  0  0  0  0  # atno 8009 bound_to 7997
  154.8616  140.0405  157.1658 H   0  0  0  0  0  0  0  0  0  0  0  0  # atno 8010 bound_to 7997
  140.4407  144.1192  150.6173 H   0  0  0  0  0  0  0  0  0  0  0  0  # atno 10167 bound_to 10162
  157.3873  131.1000  151.0681 H   0  0  0  0  0  0  0  0  0  0  0  0  # atno 10718 bound_to 10713
  154.8740  135.3787  154.4466 H   0  0  0  0  0  0  0  0  0  0  0  0  # atno 10763 bound_to 10752
  153.5146  135.7029  153.5768 H   0  0  0  0  0  0  0  0  0  0  0  0  # atno 10764 bound_to 10752
  153.4042  135.3940  155.1974 H   0  0  0  0  0  0  0  0  0  0  0  0  # atno 10765 bound_to 10752
  140.2332  134.8108  157.3338 H   0  0  0  0  0  0  0  0  0  0  0  0  # atno 11005 bound_to 11000
  145.9088  140.9194  143.0464 LP  0  0  0  0  0  0  0  0  0  0  0  0  # atno 17320 bound_to 7965
  144.6726  140.1132  143.7454 LP  0  0  0  0  0  0  0  0  0  0  0  0  # atno 17321 bound_to 7965
  140.4322  143.2563  151.9581 LP  0  0  0  0  0  0  0  0  0  0  0  0  # atno 17342 bound_to 10162
  139.4789  144.5733  151.8052 LP  0  0  0  0  0  0  0  0  0  0  0  0  # atno 17343 bound_to 10162
  157.1728  130.6275  149.5646 LP  0  0  0  0  0  0  0  0  0  0  0  0  # atno 17370 bound_to 10713
  155.9789  130.4779  150.6687 LP  0  0  0  0  0  0  0  0  0  0  0  0  # atno 17371 bound_to 10713
  140.1729  134.4586  155.7820 LP  0  0  0  0  0  0  0  0  0  0  0  0  # atno 17394 bound_to 11000
  141.2216  133.6949  156.7738 LP  0  0  0  0  0  0  0  0  0  0  0  0  # atno 17395 bound_to 11000

$$$$
