AV-unprocessed.smi:2678|AV-procd|sdf|10368|dock6
  -GOLD-   2272014393D 1   1.00000     0.00000
 Structure written by MMmdl.
 46 47  0  0  0  0  0  0  0  0  1 V2000
  151.7425  142.7671  159.5691 C   0  0  0  0  0  0  0  0  0  0  0  0
  151.6990  143.7032  158.3541 C   0  0  0  0  0  0  0  0  0  0  0  0
  151.1153  145.0777  158.7181 C   0  0  0  0  0  0  0  0  0  0  0  0
  150.9164  143.0809  157.2902 N   0  0  0  0  0  0  0  0  0  0  0  0
  150.9717  141.7868  156.9365 C   0  0  0  0  0  0  0  0  0  0  0  0
  151.7057  140.9660  157.4882 O   0  0  0  0  0  0  0  0  0  0  0  0
  150.0627  141.3557  155.7779 C   0  0  2  0  0  0  0  0  0  0  0  0
  148.5989  141.7734  156.0312 C   0  0  0  0  0  0  0  0  0  0  0  0
  147.6850  141.3280  154.8783 C   0  0  0  0  0  0  0  0  0  0  0  0
  147.7892  139.8139  154.6354 C   0  0  0  0  0  0  0  0  0  0  0  0
  149.2461  139.3858  154.3806 C   0  0  2  0  0  0  0  0  0  0  0  0
  149.3066  137.9337  154.1981 N   0  0  0  0  0  0  0  0  0  0  0  0
  149.4223  136.9777  155.1385 C   0  0  0  0  0  0  0  0  0  0  0  0
  149.5083  137.2663  156.3301 O   0  0  0  0  0  0  0  0  0  0  0  0
  149.4507  135.7232  154.6476 N   0  0  0  0  0  0  0  0  0  0  0  0
  149.6135  134.4955  155.3429 C   0  0  0  0  0  0  0  0  0  0  0  0
  149.5919  133.2198  154.7295 C   0  0  0  0  0  0  0  0  0  0  0  0
  149.7814  132.0779  155.5318 C   0  0  0  0  0  0  0  0  0  0  0  0
  149.9927  132.2528  156.9134 C   0  0  0  0  0  0  0  0  0  0  0  0
  150.0299  133.4636  157.5086 N   0  0  0  0  0  0  0  0  0  0  0  0
  149.8476  134.5536  156.7331 C   0  0  0  0  0  0  0  0  0  0  0  0
  150.1506  139.8326  155.5494 C   0  0  0  0  0  0  0  0  0  0  0  0
  152.3576  143.1878  160.3650 H   0  0  0  0  0  0  0  0  0  0  0  0
  152.1663  141.7979  159.3039 H   0  0  0  0  0  0  0  0  0  0  0  0
  150.7452  142.5957  159.9760 H   0  0  0  0  0  0  0  0  0  0  0  0
  152.7241  143.8417  158.0058 H   0  0  0  0  0  0  0  0  0  0  0  0
  151.6983  145.5532  159.5074 H   0  0  0  0  0  0  0  0  0  0  0  0
  150.0869  144.9920  159.0711 H   0  0  0  0  0  0  0  0  0  0  0  0
  151.1182  145.7502  157.8598 H   0  0  0  0  0  0  0  0  0  0  0  0
  150.2838  143.6817  156.7818 H   0  0  0  0  0  0  0  0  0  0  0  0
  150.4058  141.8554  154.8699 H   0  0  0  0  0  0  0  0  0  0  0  0
  148.2373  141.3364  156.9635 H   0  0  0  0  0  0  0  0  0  0  0  0
  148.5325  142.8555  156.1515 H   0  0  0  0  0  0  0  0  0  0  0  0
  146.6517  141.5982  155.0978 H   0  0  0  0  0  0  0  0  0  0  0  0
  147.9575  141.8634  153.9680 H   0  0  0  0  0  0  0  0  0  0  0  0
  147.3917  139.2810  155.5007 H   0  0  0  0  0  0  0  0  0  0  0  0
  147.1632  139.5356  153.7867 H   0  0  0  0  0  0  0  0  0  0  0  0
  149.5774  139.8772  153.4640 H   0  0  0  0  0  0  0  0  0  0  0  0
  149.2580  137.6137  153.2414 H   0  0  0  0  0  0  0  0  0  0  0  0
  149.4326  135.6484  153.6410 H   0  0  0  0  0  0  0  0  0  0  0  0
  149.4493  133.0937  153.6678 H   0  0  0  0  0  0  0  0  0  0  0  0
  149.7688  131.0897  155.0966 H   0  0  0  0  0  0  0  0  0  0  0  0
  150.1417  131.3982  157.5567 H   0  0  0  0  0  0  0  0  0  0  0  0
  149.8856  135.5057  157.2424 H   0  0  0  0  0  0  0  0  0  0  0  0
  151.1863  139.5525  155.3523 H   0  0  0  0  0  0  0  0  0  0  0  0
  149.8589  139.3012  156.4572 H   0  0  0  0  0  0  0  0  0  0  0  0
  1  2  1  0  0  0  0
  1 23  1  0  0  0  0
  1 24  1  0  0  0  0
  1 25  1  0  0  0  0
  2  3  1  0  0  0  0
  2  4  1  0  0  0  0
  2 26  1  0  0  0  0
  3 27  1  0  0  0  0
  3 28  1  0  0  0  0
  3 29  1  0  0  0  0
  4  5  1  0  0  0  0
  4 30  1  0  0  0  0
  5  6  2  0  0  0  0
  5  7  1  0  0  0  0
  7 22  1  0  0  0  0
  7  8  1  0  0  0  0
  7 31  1  0  0  0  0
  8  9  1  0  0  0  0
  8 32  1  0  0  0  0
  8 33  1  0  0  0  0
  9 10  1  0  0  0  0
  9 34  1  0  0  0  0
  9 35  1  0  0  0  0
 10 11  1  0  0  0  0
 10 36  1  0  0  0  0
 10 37  1  0  0  0  0
 11 12  1  0  0  0  0
 11 22  1  0  0  0  0
 11 38  1  0  0  0  0
 12 13  1  0  0  0  0
 12 39  1  0  0  0  0
 13 14  2  0  0  0  0
 13 15  1  0  0  0  0
 15 16  1  0  0  0  0
 15 40  1  0  0  0  0
 16 21  1  0  0  0  0
 16 17  2  0  0  0  0
 17 18  1  0  0  0  0
 17 41  1  0  0  0  0
 18 19  2  0  0  0  0
 18 42  1  0  0  0  0
 19 20  1  0  0  0  0
 19 43  1  0  0  0  0
 20 21  2  0  0  0  0
 21 44  1  0  0  0  0
 22 45  1  0  0  0  0
 22 46  1  0  0  0  0
M  END
> <s_m_source_file>
AV-unprocessed.smi

> <i_m_source_file_index>
2678

> <i_lp_mmshare_version>
43012

> <i_f3d_flags>
0

> <s_epik_input>
W0NIM11bQ0hdKFtDSDNdKVtOSF1DKD1PKVtDQEBIXTFbQ0gyXVtDSDJdW0NIMl1bQ0BIXShbQ0gyXTEpW05IXUMoPU8pW05IXWMyW2NIXVtjSF1bY0hdbltjSF0y

> <s_epik_cmdline>
J2VwaWtfcHl0aG9uJywgJy1waCcsICc3LjAnLCAnLXRuJywgJzgnLCAnLW1hJywgJzIwMCcsICctbWV0YWxfYmluZGluZycsICctaW1hZScsICc8aW5maWxlLm1hZT4nLCAnLW9tYWUnLCAnPG91dGZpbGUubWFlPic=

> <r_epik_Ionization_Penalty>
0.00482944

> <r_epik_Ionization_Penalty_Charging>
0

> <r_epik_Ionization_Penalty_Neutral>
0.00482944

> <r_epik_State_Penalty>
0.00347168

> <r_epik_Charging_Adjusted_Penalty>
0.00347168

> <i_epik_Tot_Q>
0

> <i_epik_Tot_abs_Q>
0

> <r_epik_Metal_State_Penalty>
-0

> <b_epik_Metal_Only>
0

> <s_lp_Force_Field>
OPLS_2005

> <r_lp_Energy>
22.9796

> <b_lp_Chiralities_Consistent>
1

> <s_lp_Variant>
AV-unprocessed.smi:2678-3

> <Gold.Version>
5.8.1

> <Gold.Id.Protein>
6NUR|6NUR_protein|mol2

> <Gold.PLP.Fitness>
47.5109

> <Gold.PLP.PLP>
-37.0064

> <Gold.PLP.part.hbond>
-3.9804

> <Gold.PLP.part.metal>
0.0000

> <Gold.PLP.part.buried>
-2.7958

> <Gold.PLP.part.nonpolar>
-30.3520

> <Gold.PLP.part.repulsive>
0.0920

> <Gold.PLP.ligand.clash>
0.0000

> <Gold.PLP.ligand.torsion>
0.6488

> <Gold.PLP.Chemscore.Hbond>
3.9280

> <Gold.PLP.Chemscore.CHOScore>
0.0000

> <Gold.PLP.Chemscore.Metal>
0.0000

> <Gold.Chemscore.Hbonds>
donor molecule, donor type, donor heavy atom, donor atom, acceptor molecule, acceptor atom, score
      L1  H     4    30       P1  8028  0.93
      L1  H    12    39       P1  7948  1.00
      L1  H    15    40       P1  7948  1.00
      P1  H  6896  6907       L1    20  1.00

> <Gold.PLP.Chemscore.Internal.Correction>
0.0181

> <Gold.Rescore>
     Score         DG    S(hbond)    S(metal)    S(lipo)     H(rot)  DE(clash)    DE(int)     intcor
     19.86     -23.82       3.60        0.00      86.01       1.46       0.21       3.75       ----

> <Gold.Chemscore.Fitness>
19.8609

> <Gold.Chemscore.DG>
-23.8190

> <Gold.Chemscore.ZeroCoef>
-5.4800

> <Gold.Chemscore.Hbond>
3.5971

> <Gold.Chemscore.Metal>
0.0000

> <Gold.Chemscore.Lipo>
86.0102

> <Gold.Chemscore.Internal_Hbond>
0.0000

> <Gold.Chemscore.DEClash>
0.2124

> <Gold.Chemscore.DEInternal>
3.7458

> <Gold.Chemscore.Rot>
1.4603

> <Gold.Chemscore.Internal.Correction>
   9.000000E+99

> <Gold.Chemscore.Hbonds>
donor molecule, donor type, donor heavy atom, donor atom, acceptor molecule, acceptor atom, score
      L1  H     4    30       P1  8028  0.89
      L1  H    12    39       P1  7948  0.95
      L1  H    15    40       P1  7948  0.34
      P1  H  6896  6907       L1    20  0.87

> <Gold.Chemscore.Hbond.Weighted>
-12.0142

> <Gold.Chemscore.Metal.Weighted>
-0.0000

> <Gold.Chemscore.Lipo.Weighted>
-10.0632

> <Gold.Chemscore.Internal_Hbond.Weighted>
0.0000

> <Gold.Chemscore.DEClash.Weighted>
0.2124

> <Gold.Chemscore.DEInternal.Weighted>
3.7458

> <Gold.Chemscore.Rot.Weighted>
3.7383

> <Gold.Chemscore.Internal.Correction.Weighted>
   9.000000E+99

> <Gold.Protein.RotatedTorsions>
[ 6907 6896 6895 6894 ] final -138.36 input  -60.11 | X-H torsion
[ 7974 7965 7964 7962 ] final  127.83 input  175.53 | X-H torsion
[ 8008 7997 7996 7995 ] final   77.73 input   59.86 | X-H torsion
[ 10167 10162 10161 10158 ] final   73.28 input  -65.29 | X-H torsion
[ 10718 10713 10712 10709 ] final  115.50 input   66.30 | X-H torsion
[ 10763 10752 10751 10750 ] final  -68.00 input  -60.55 | X-H torsion
[ 11005 11000 10999 10996 ] final -145.51 input  -57.11 | X-H torsion

> <Gold.Protein.ActiveResidues>
 VAL166  LYS551  ARG553  GLY616  TRP617  ASP618  TYR619  PRO620  LYS621  CYS622 
 ASP623  PHE694  ASN695  SER759  ASP760  ASP761  ALA762  ILE779  LEU786  VAL792 
 PHE793  MET794  SER795  GLU796  ALA797  LYS798  CYS799  TRP800  GLU811  SER814 

> <Gold.Protein.RotatedAtoms>
  151.0340  133.5765  159.2657 H   0  0  0  0  0  0  0  0  0  0  0  0  # atno 6907 bound_to 6896
  151.2836  135.0720  159.9188 H   0  0  0  0  0  0  0  0  0  0  0  0  # atno 6908 bound_to 6896
  152.5351  134.0051  159.7966 H   0  0  0  0  0  0  0  0  0  0  0  0  # atno 6909 bound_to 6896
  145.0462  139.3921  143.5077 H   0  0  0  0  0  0  0  0  0  0  0  0  # atno 7974 bound_to 7965
  155.8457  140.3460  155.5661 H   0  0  0  0  0  0  0  0  0  0  0  0  # atno 8008 bound_to 7997
  155.8092  140.0896  157.1933 H   0  0  0  0  0  0  0  0  0  0  0  0  # atno 8009 bound_to 7997
  154.4006  140.1451  156.3354 H   0  0  0  0  0  0  0  0  0  0  0  0  # atno 8010 bound_to 7997
  140.0262  144.5502  150.7543 H   0  0  0  0  0  0  0  0  0  0  0  0  # atno 10167 bound_to 10162
  157.6218  131.1013  150.7339 H   0  0  0  0  0  0  0  0  0  0  0  0  # atno 10718 bound_to 10713
  154.3827  135.6070  153.5800 H   0  0  0  0  0  0  0  0  0  0  0  0  # atno 10763 bound_to 10752
  152.9788  135.5865  154.4391 H   0  0  0  0  0  0  0  0  0  0  0  0  # atno 10764 bound_to 10752
  154.4162  135.2845  155.1983 H   0  0  0  0  0  0  0  0  0  0  0  0  # atno 10765 bound_to 10752
  140.7915  134.2963  157.5012 H   0  0  0  0  0  0  0  0  0  0  0  0  # atno 11005 bound_to 11000
  146.3514  140.0089  142.8669 LP  0  0  0  0  0  0  0  0  0  0  0  0  # atno 17320 bound_to 7965
  145.1584  140.9660  143.4391 LP  0  0  0  0  0  0  0  0  0  0  0  0  # atno 17321 bound_to 7965
  140.7322  143.2702  151.3912 LP  0  0  0  0  0  0  0  0  0  0  0  0  # atno 17342 bound_to 10162
  139.6107  144.1105  152.2295 LP  0  0  0  0  0  0  0  0  0  0  0  0  # atno 17343 bound_to 10162
  156.7694  130.4824  149.5421 LP  0  0  0  0  0  0  0  0  0  0  0  0  # atno 17370 bound_to 10713
  156.1368  130.6216  151.0411 LP  0  0  0  0  0  0  0  0  0  0  0  0  # atno 17371 bound_to 10713
  139.8731  134.9377  156.3695 LP  0  0  0  0  0  0  0  0  0  0  0  0  # atno 17394 bound_to 11000
  140.9385  133.7531  156.0115 LP  0  0  0  0  0  0  0  0  0  0  0  0  # atno 17395 bound_to 11000

$$$$
