AV-unprocessed.smi:1626|AV-procd|sdf|6511|dock1
  -GOLD-   22720 7183D 1   1.00000     0.00000
 Structure written by MMmdl.
 49 51  0  0  0  0  0  0  0  0  3 V2000
  152.5306  143.8519  160.0824 C   0  0  0  0  0  0  0  0  0  0  0  0
  152.3006  142.9113  158.9115 C   0  0  0  0  0  0  0  0  0  0  0  0
  151.4919  143.3536  157.8401 C   0  0  0  0  0  0  0  0  0  0  0  0
  151.3016  142.4717  156.7830 C   0  0  0  0  0  0  0  0  0  0  0  0
  150.5739  142.6053  155.5984 N   0  3  0  0  0  0  0  0  0  0  0  0
  150.6899  141.4652  154.8625 C   0  0  0  0  0  0  0  0  0  0  0  0
  151.4744  140.6022  155.5645 N   0  0  0  0  0  0  0  0  0  0  0  0
  151.9178  139.2422  155.2294 C   0  0  0  0  0  0  0  0  0  0  0  0
  150.9458  138.5051  154.2866 C   0  0  1  0  0  0  0  0  0  0  0  0
  151.3931  137.1754  154.1047 O   0  0  0  0  0  0  0  0  0  0  0  0
  149.5153  138.4707  154.8602 C   0  0  0  0  0  0  0  0  0  0  0  0
  148.4751  138.4885  153.7997 N   0  3  2  0  0  0  0  0  0  0  0  0
  148.1890  139.8518  153.2768 C   0  0  0  0  0  0  0  0  0  0  0  0
  147.2140  139.7956  152.0889 C   0  0  0  0  0  0  0  0  0  0  0  0
  145.9125  139.0821  152.4835 C   0  0  1  0  0  0  0  0  0  0  0  0
  145.0757  138.9531  151.3542 O   0  0  0  0  0  0  0  0  0  0  0  0
  146.2328  137.6910  153.0495 C   0  0  0  0  0  0  0  0  0  0  0  0
  147.2306  137.7902  154.2156 C   0  0  0  0  0  0  0  0  0  0  0  0
  151.8828  141.1890  156.7668 C   0  0  0  0  0  0  0  0  0  0  0  0
  152.6818  140.7368  157.8139 C   0  0  0  0  0  0  0  0  0  0  0  0
  152.8875  141.6193  158.8987 C   0  0  0  0  0  0  0  0  0  0  0  0
  153.7561  141.1550  160.0556 C   0  0  0  0  0  0  0  0  0  0  0  0
  152.0345  144.8104  159.9276 H   0  0  0  0  0  0  0  0  0  0  0  0
  153.5951  144.0467  160.2150 H   0  0  0  0  0  0  0  0  0  0  0  0
  152.1399  143.4190  161.0037 H   0  0  0  0  0  0  0  0  0  0  0  0
  151.0428  144.3363  157.8425 H   0  0  0  0  0  0  0  0  0  0  0  0
  150.2390  141.2794  153.8980 H   0  0  0  0  0  0  0  0  0  0  0  0
  152.9028  139.3265  154.7674 H   0  0  0  0  0  0  0  0  0  0  0  0
  152.0587  138.6868  156.1574 H   0  0  0  0  0  0  0  0  0  0  0  0
  150.9557  138.9999  153.3161 H   0  0  0  0  0  0  0  0  0  0  0  0
  151.1566  136.8950  153.2333 H   0  0  0  0  0  0  0  0  0  0  0  0
  149.4108  137.5689  155.4659 H   0  0  0  0  0  0  0  0  0  0  0  0
  149.3526  139.3100  155.5383 H   0  0  0  0  0  0  0  0  0  0  0  0
  147.7707  140.4685  154.0740 H   0  0  0  0  0  0  0  0  0  0  0  0
  149.1097  140.3370  152.9550 H   0  0  0  0  0  0  0  0  0  0  0  0
  146.9981  140.8055  151.7383 H   0  0  0  0  0  0  0  0  0  0  0  0
  147.6881  139.2727  151.2568 H   0  0  0  0  0  0  0  0  0  0  0  0
  145.3835  139.6704  153.2346 H   0  0  0  0  0  0  0  0  0  0  0  0
  144.7864  139.8134  151.0894 H   0  0  0  0  0  0  0  0  0  0  0  0
  145.3176  137.2014  153.3850 H   0  0  0  0  0  0  0  0  0  0  0  0
  146.6536  137.0578  152.2665 H   0  0  0  0  0  0  0  0  0  0  0  0
  147.4703  136.7843  154.5627 H   0  0  0  0  0  0  0  0  0  0  0  0
  146.7782  138.3179  155.0566 H   0  0  0  0  0  0  0  0  0  0  0  0
  153.1307  139.7548  157.8028 H   0  0  0  0  0  0  0  0  0  0  0  0
  154.1058  140.1329  159.9075 H   0  0  0  0  0  0  0  0  0  0  0  0
  153.1970  141.1824  160.9912 H   0  0  0  0  0  0  0  0  0  0  0  0
  154.6327  141.7954  160.1564 H   0  0  0  0  0  0  0  0  0  0  0  0
  148.8520  137.9499  153.0322 H   0  0  0  0  0  0  0  0  0  0  0  0
  150.0401  143.4152  155.3089 H   0  0  0  0  0  0  0  0  0  0  0  0
  1  2  1  0  0  0  0
  1 23  1  0  0  0  0
  1 24  1  0  0  0  0
  1 25  1  0  0  0  0
  2 21  1  0  0  0  0
  2  3  2  0  0  0  0
  3  4  1  0  0  0  0
  3 26  1  0  0  0  0
  4 19  2  0  0  0  0
  4  5  1  0  0  0  0
  5  6  2  0  0  0  0
  5 49  1  0  0  0  0
  6  7  1  0  0  0  0
  6 27  1  0  0  0  0
  7  8  1  0  0  0  0
  7 19  1  0  0  0  0
  8  9  1  0  0  0  0
  8 28  1  0  0  0  0
  8 29  1  0  0  0  0
  9 10  1  0  0  0  0
  9 11  1  0  0  0  0
  9 30  1  0  0  0  0
 10 31  1  0  0  0  0
 11 12  1  0  0  0  0
 11 32  1  0  0  0  0
 11 33  1  0  0  0  0
 12 18  1  0  0  0  0
 12 13  1  0  0  0  0
 12 48  1  0  0  0  0
 13 14  1  0  0  0  0
 13 34  1  0  0  0  0
 13 35  1  0  0  0  0
 14 15  1  0  0  0  0
 14 36  1  0  0  0  0
 14 37  1  0  0  0  0
 15 16  1  0  0  0  0
 15 17  1  0  0  0  0
 15 38  1  0  0  0  0
 16 39  1  0  0  0  0
 17 18  1  0  0  0  0
 17 40  1  0  0  0  0
 17 41  1  0  0  0  0
 18 42  1  0  0  0  0
 18 43  1  0  0  0  0
 19 20  1  0  0  0  0
 20 21  2  0  0  0  0
 20 44  1  0  0  0  0
 21 22  1  0  0  0  0
 22 45  1  0  0  0  0
 22 46  1  0  0  0  0
 22 47  1  0  0  0  0
M  CHG  1   5   1
M  CHG  1  12   1
M  END
> <s_m_source_file>
AV-unprocessed.smi

> <i_m_source_file_index>
1626

> <i_lp_mmshare_version>
43012

> <i_f3d_flags>
0

> <s_epik_input>
W0NIM11jKFtjSF0xKWMoW0NIM10pW2NIXWMoYzEyKW4oW2NIXW4yKVtDSDJdW0NASF0oW09IXSlbQ0gyXU4zW0NIMl1bQ0gyXVtDSF0oW09IXSlbQ0gyXVtDSDJdMw==

> <s_epik_cmdline>
J2VwaWtfcHl0aG9uJywgJy1waCcsICc3LjAnLCAnLXRuJywgJzgnLCAnLW1hJywgJzIwMCcsICctbWV0YWxfYmluZGluZycsICctaW1hZScsICc8aW5maWxlLm1hZT4nLCAnLW9tYWUnLCAnPG91dGZpbGUubWFlPic=

> <r_epik_Ionization_Penalty>
1.19369

> <r_epik_Ionization_Penalty_Charging>
1.19369

> <r_epik_Ionization_Penalty_Neutral>
1.68219e-06

> <r_epik_State_Penalty>
1.27429

> <r_epik_Charging_Adjusted_Penalty>
2.46798

> <i_epik_Tot_Q>
2

> <i_epik_Tot_abs_Q>
2

> <r_epik_Metal_State_Penalty>
5.29157

> <b_epik_Metal_Only>
0

> <s_lp_Force_Field>
OPLS_2005

> <r_lp_Energy>
30.226

> <b_lp_Chiralities_Consistent>
1

> <s_lp_Variant>
AV-unprocessed.smi:1626-6

> <Gold.Version>
5.8.1

> <Gold.Id.Protein>
6NUR|6NUR_protein|mol2

> <Gold.PLP.Fitness>
62.3543

> <Gold.PLP.PLP>
-43.6142

> <Gold.PLP.part.hbond>
-5.9878

> <Gold.PLP.part.metal>
0.0000

> <Gold.PLP.part.buried>
-3.8126

> <Gold.PLP.part.nonpolar>
-34.3523

> <Gold.PLP.part.repulsive>
0.1094

> <Gold.PLP.ligand.clash>
0.0000

> <Gold.PLP.ligand.torsion>
1.0664

> <Gold.PLP.Chemscore.Hbond>
6.9440

> <Gold.PLP.Chemscore.CHOScore>
0.0000

> <Gold.PLP.Chemscore.Metal>
0.0000

> <Gold.Chemscore.Hbonds>
donor molecule, donor type, donor heavy atom, donor atom, acceptor molecule, acceptor atom, score
      L1  H     5    49       P1  8028  2.00
      L1  H    10    31       P1  7949  1.00
      L1  H    12    48       P1  7948  1.85
      L1  H    16    39       P1 10175  0.09
      P1  H 10752 10765       L1    10  0.32

> <Gold.PLP.Chemscore.Internal.Correction>
0.0409

> <Gold.Rescore>
     Score         DG    S(hbond)    S(metal)    S(lipo)     H(rot)  DE(clash)    DE(int)     intcor
     21.88     -23.33       3.61        0.00     109.32       2.74       0.15       1.30       ----

> <Gold.Chemscore.Fitness>
21.8828

> <Gold.Chemscore.DG>
-23.3328

> <Gold.Chemscore.ZeroCoef>
-5.4800

> <Gold.Chemscore.Hbond>
3.6147

> <Gold.Chemscore.Metal>
0.0000

> <Gold.Chemscore.Lipo>
109.3177

> <Gold.Chemscore.Internal_Hbond>
0.0000

> <Gold.Chemscore.DEClash>
0.1504

> <Gold.Chemscore.DEInternal>
1.2996

> <Gold.Chemscore.Rot>
2.7384

> <Gold.Chemscore.Internal.Correction>
   9.000000E+99

> <Gold.Chemscore.Hbonds>
donor molecule, donor type, donor heavy atom, donor atom, acceptor molecule, acceptor atom, score
      L1  H     5    49       P1  8028  0.96
      L1  H    10    31       P1  7949  0.49
      L1  H    12    48       P1  7948  0.86
      L1  H    16    39       P1 10175  0.01
      P1  H 10752 10765       L1    10  0.08

> <Gold.Chemscore.Hbond.Weighted>
-12.0730

> <Gold.Chemscore.Metal.Weighted>
-0.0000

> <Gold.Chemscore.Lipo.Weighted>
-12.7902

> <Gold.Chemscore.Internal_Hbond.Weighted>
0.0000

> <Gold.Chemscore.DEClash.Weighted>
0.1504

> <Gold.Chemscore.DEInternal.Weighted>
1.2996

> <Gold.Chemscore.Rot.Weighted>
7.0103

> <Gold.Chemscore.Internal.Correction.Weighted>
   9.000000E+99

> <Gold.Protein.RotatedTorsions>
[ 6907 6896 6895 6894 ] final   93.45 input  -60.11 | X-H torsion
[ 7974 7965 7964 7962 ] final  -11.78 input  175.53 | X-H torsion
[ 8008 7997 7996 7995 ] final -110.56 input   59.86 | X-H torsion
[ 10167 10162 10161 10158 ] final  132.10 input  -65.29 | X-H torsion
[ 10718 10713 10712 10709 ] final   95.59 input   66.30 | X-H torsion
[ 10763 10752 10751 10750 ] final -176.15 input  -60.55 | X-H torsion
[ 11005 11000 10999 10996 ] final  -39.72 input  -57.11 | X-H torsion

> <Gold.Protein.ActiveResidues>
 VAL166  LYS551  ARG553  GLY616  TRP617  ASP618  TYR619  PRO620  LYS621  CYS622 
 ASP623  PHE694  ASN695  SER759  ASP760  ASP761  ALA762  ILE779  LEU786  VAL792 
 PHE793  MET794  SER795  GLU796  ALA797  LYS798  CYS799  TRP800  GLU811  SER814 

> <Gold.Protein.RotatedAtoms>
  152.5452  134.1346  159.8453 H   0  0  0  0  0  0  0  0  0  0  0  0  # atno 6907 bound_to 6896
  151.1388  133.4978  159.2605 H   0  0  0  0  0  0  0  0  0  0  0  0  # atno 6908 bound_to 6896
  151.1595  135.0276  159.8758 H   0  0  0  0  0  0  0  0  0  0  0  0  # atno 6909 bound_to 6896
  146.2175  140.2961  142.8372 H   0  0  0  0  0  0  0  0  0  0  0  0  # atno 7974 bound_to 7965
  154.9764  140.0397  157.2258 H   0  0  0  0  0  0  0  0  0  0  0  0  # atno 8008 bound_to 7997
  154.7754  140.2809  155.6082 H   0  0  0  0  0  0  0  0  0  0  0  0  # atno 8009 bound_to 7997
  156.2928  140.2602  156.2567 H   0  0  0  0  0  0  0  0  0  0  0  0  # atno 8010 bound_to 7997
  139.5354  144.6677  151.4803 H   0  0  0  0  0  0  0  0  0  0  0  0  # atno 10167 bound_to 10162
  157.6937  131.0550  150.4362 H   0  0  0  0  0  0  0  0  0  0  0  0  # atno 10718 bound_to 10713
  154.5758  135.2832  155.0782 H   0  0  0  0  0  0  0  0  0  0  0  0  # atno 10763 bound_to 10752
  154.2137  135.6403  153.5127 H   0  0  0  0  0  0  0  0  0  0  0  0  # atno 10764 bound_to 10752
  153.0072  135.5498  154.6396 H   0  0  0  0  0  0  0  0  0  0  0  0  # atno 10765 bound_to 10752
  141.0122  133.6902  156.2224 H   0  0  0  0  0  0  0  0  0  0  0  0  # atno 11005 bound_to 11000
  144.9091  140.7736  143.5819 LP  0  0  0  0  0  0  0  0  0  0  0  0  # atno 17320 bound_to 7965
  145.2891  139.1890  143.4750 LP  0  0  0  0  0  0  0  0  0  0  0  0  # atno 17321 bound_to 7965
  140.6558  143.8603  150.6833 LP  0  0  0  0  0  0  0  0  0  0  0  0  # atno 17342 bound_to 10162
  140.1982  143.3981  152.1812 LP  0  0  0  0  0  0  0  0  0  0  0  0  # atno 17343 bound_to 10162
  156.4725  130.4056  149.6510 LP  0  0  0  0  0  0  0  0  0  0  0  0  # atno 17370 bound_to 10713
  156.3585  130.7469  151.2438 LP  0  0  0  0  0  0  0  0  0  0  0  0  # atno 17371 bound_to 10713
  140.6714  134.4864  157.5587 LP  0  0  0  0  0  0  0  0  0  0  0  0  # atno 17394 bound_to 11000
  139.9096  134.8373  156.1576 LP  0  0  0  0  0  0  0  0  0  0  0  0  # atno 17395 bound_to 11000

$$$$
