AV-unprocessed.smi:500|AV-procd|sdf|2738|dock8
  -GOLD-   2262023193D 1   1.00000     0.00000
 Structure written by MMmdl.
 44 46  0  0  0  0  0  0  0  0  2 V2000
  147.8567  141.1149  153.6458 C   0  0  0  0  0  0  0  0  0  0  0  0
  149.1261  141.1085  154.5004 C   0  0  0  0  0  0  0  0  0  0  0  0
  148.8227  141.6616  155.7728 O   0  0  0  0  0  0  0  0  0  0  0  0
  149.6368  141.1626  156.8241 C   0  0  0  0  0  0  0  0  0  0  0  0
  150.9194  141.9972  156.9857 C   0  0  0  0  0  0  0  0  0  0  0  0
  151.6032  141.6987  158.2453 N   0  0  0  0  0  0  0  0  0  0  0  0
  152.1593  140.5323  158.6997 C   0  0  0  0  0  0  0  0  0  0  0  0
  152.1724  139.2268  157.9189 C   0  0  2  0  0  0  0  0  0  0  0  0
  151.3428  138.1501  158.6321 C   0  0  0  0  0  0  0  0  0  0  0  0
  153.5259  138.7130  157.6916 N   0  5  0  0  0  0  0  0  0  0  0  0
  153.8061  137.5507  157.0368 C   0  0  0  0  0  0  0  0  0  0  0  0
  153.0535  136.8005  156.4061 O   0  0  0  0  0  0  0  0  0  0  0  0
  155.2396  137.1850  157.1250 C   0  0  0  0  0  0  0  0  0  0  0  0
  156.2014  137.6035  158.0062 C   0  0  0  0  0  0  0  0  0  0  0  0
  157.4074  136.9415  157.6451 C   0  0  0  0  0  0  0  0  0  0  0  0
  157.0998  136.1641  156.5662 C   0  0  0  0  0  0  0  0  0  0  0  0
  155.7871  136.2995  156.2364 O   0  0  0  0  0  0  0  0  0  0  0  0
  152.6981  140.6042  159.9222 N   0  0  0  0  0  0  0  0  0  0  0  0
  152.5008  141.9202  160.2817 C   0  0  0  0  0  0  0  0  0  0  0  0
  152.8600  142.6122  161.4604 C   0  0  0  0  0  0  0  0  0  0  0  0
  152.5497  143.9796  161.6078 C   0  0  0  0  0  0  0  0  0  0  0  0
  151.8768  144.6720  160.5806 C   0  0  0  0  0  0  0  0  0  0  0  0
  151.5093  143.9994  159.3991 C   0  0  0  0  0  0  0  0  0  0  0  0
  151.8211  142.6331  159.2565 C   0  0  0  0  0  0  0  0  0  0  0  0
  148.0505  140.6994  152.6567 H   0  0  0  0  0  0  0  0  0  0  0  0
  147.4785  142.1290  153.5150 H   0  0  0  0  0  0  0  0  0  0  0  0
  147.0698  140.5204  154.1108 H   0  0  0  0  0  0  0  0  0  0  0  0
  149.4981  140.0884  154.5958 H   0  0  0  0  0  0  0  0  0  0  0  0
  149.9041  141.6968  154.0115 H   0  0  0  0  0  0  0  0  0  0  0  0
  149.0730  141.1074  157.7555 H   0  0  0  0  0  0  0  0  0  0  0  0
  149.9105  140.1380  156.5711 H   0  0  0  0  0  0  0  0  0  0  0  0
  151.5992  141.7816  156.1613 H   0  0  0  0  0  0  0  0  0  0  0  0
  150.7220  143.0663  156.9208 H   0  0  0  0  0  0  0  0  0  0  0  0
  151.6831  139.4086  156.9616 H   0  0  0  0  0  0  0  0  0  0  0  0
  150.3145  138.4835  158.7742 H   0  0  0  0  0  0  0  0  0  0  0  0
  151.7536  137.9154  159.6150 H   0  0  0  0  0  0  0  0  0  0  0  0
  151.3115  137.2261  158.0538 H   0  0  0  0  0  0  0  0  0  0  0  0
  156.0523  138.3030  158.8155 H   0  0  0  0  0  0  0  0  0  0  0  0
  158.3761  137.0236  158.1153 H   0  0  0  0  0  0  0  0  0  0  0  0
  157.6642  135.4873  155.9421 H   0  0  0  0  0  0  0  0  0  0  0  0
  153.3768  142.0883  162.2506 H   0  0  0  0  0  0  0  0  0  0  0  0
  152.8306  144.4991  162.5121 H   0  0  0  0  0  0  0  0  0  0  0  0
  151.6435  145.7199  160.6997 H   0  0  0  0  0  0  0  0  0  0  0  0
  150.9947  144.5291  158.6114 H   0  0  0  0  0  0  0  0  0  0  0  0
  1  2  1  0  0  0  0
  1 25  1  0  0  0  0
  1 26  1  0  0  0  0
  1 27  1  0  0  0  0
  2  3  1  0  0  0  0
  2 28  1  0  0  0  0
  2 29  1  0  0  0  0
  3  4  1  0  0  0  0
  4  5  1  0  0  0  0
  4 30  1  0  0  0  0
  4 31  1  0  0  0  0
  5  6  1  0  0  0  0
  5 32  1  0  0  0  0
  5 33  1  0  0  0  0
  6 24  1  0  0  0  0
  6  7  1  0  0  0  0
  7  8  1  0  0  0  0
  7 18  2  0  0  0  0
  8  9  1  0  0  0  0
  8 10  1  0  0  0  0
  8 34  1  0  0  0  0
  9 35  1  0  0  0  0
  9 36  1  0  0  0  0
  9 37  1  0  0  0  0
 10 11  1  0  0  0  0
 11 12  2  0  0  0  0
 11 13  1  0  0  0  0
 13 17  1  0  0  0  0
 13 14  2  0  0  0  0
 14 15  1  0  0  0  0
 14 38  1  0  0  0  0
 15 16  2  0  0  0  0
 15 39  1  0  0  0  0
 16 17  1  0  0  0  0
 16 40  1  0  0  0  0
 18 19  1  0  0  0  0
 19 24  2  0  0  0  0
 19 20  1  0  0  0  0
 20 21  2  0  0  0  0
 20 41  1  0  0  0  0
 21 22  1  0  0  0  0
 21 42  1  0  0  0  0
 22 23  2  0  0  0  0
 22 43  1  0  0  0  0
 23 24  1  0  0  0  0
 23 44  1  0  0  0  0
M  CHG  1  10  -1
M  END
> <s_m_source_file>
AV-unprocessed.smi

> <i_m_source_file_index>
500

> <i_lp_mmshare_version>
43012

> <i_f3d_flags>
0

> <s_epik_input>
W0NIM11bQ0gyXU9bQ0gyXVtDSDJdbihjKGMxMilbY0hdW2NIXVtjSF1bY0hdMiljKG4xKVtDQEhdKFtDSDNdKVtOSF1DKD1PKWMzW2NIXVtjSF1bY0hdbzM=

> <s_epik_cmdline>
J2VwaWtfcHl0aG9uJywgJy1waCcsICc3LjAnLCAnLXRuJywgJzgnLCAnLW1hJywgJzIwMCcsICctbWV0YWxfYmluZGluZycsICctaW1hZScsICc8aW5maWxlLm1hZT4nLCAnLW9tYWUnLCAnPG91dGZpbGUubWFlPic=

> <r_epik_Ionization_Penalty>
7.31223

> <r_epik_Ionization_Penalty_Charging>
6.43826

> <r_epik_Ionization_Penalty_Neutral>
0.873973

> <r_epik_State_Penalty>
6.5378

> <r_epik_Charging_Adjusted_Penalty>
12.9761

> <i_epik_Tot_Q>
-1

> <i_epik_Tot_abs_Q>
1

> <r_epik_Metal_State_Penalty>
2.55818

> <b_epik_Metal_Only>
1

> <s_lp_Force_Field>
OPLS_2005

> <r_lp_Energy>
15.486

> <b_lp_Chiralities_Consistent>
1

> <s_lp_Variant>
AV-unprocessed.smi:500-5

> <Gold.Version>
5.8.1

> <Gold.Id.Protein>
6NUR|6NUR_protein|mol2

> <Gold.PLP.Fitness>
54.4244

> <Gold.PLP.PLP>
-44.5184

> <Gold.PLP.part.hbond>
-3.0000

> <Gold.PLP.part.metal>
0.0000

> <Gold.PLP.part.buried>
-6.6720

> <Gold.PLP.part.nonpolar>
-35.5633

> <Gold.PLP.part.repulsive>
0.8220

> <Gold.PLP.ligand.clash>
0.0000

> <Gold.PLP.ligand.torsion>
0.6050

> <Gold.PLP.Chemscore.Hbond>
3.6160

> <Gold.PLP.Chemscore.CHOScore>
0.0000

> <Gold.PLP.Chemscore.Metal>
0.0000

> <Gold.Chemscore.Hbonds>
donor molecule, donor type, donor heavy atom, donor atom, acceptor molecule, acceptor atom, score
      P1  H  7997  8009       L1    10  2.00
      P1  H 10752 10763       L1    12  0.61
      P1  H 10752 10764       L1    17  0.99

> <Gold.PLP.Chemscore.Internal.Correction>
0.2680

> <Gold.Rescore>
     Score         DG    S(hbond)    S(metal)    S(lipo)     H(rot)  DE(clash)    DE(int)     intcor
     21.53     -22.32       2.32        0.00     117.96       1.84       0.11       0.68       ----

> <Gold.Chemscore.Fitness>
21.5323

> <Gold.Chemscore.DG>
-22.3205

> <Gold.Chemscore.ZeroCoef>
-5.4800

> <Gold.Chemscore.Hbond>
2.3187

> <Gold.Chemscore.Metal>
0.0000

> <Gold.Chemscore.Lipo>
117.9648

> <Gold.Chemscore.Internal_Hbond>
0.0000

> <Gold.Chemscore.DEClash>
0.1107

> <Gold.Chemscore.DEInternal>
0.6775

> <Gold.Chemscore.Rot>
1.8382

> <Gold.Chemscore.Internal.Correction>
   9.000000E+99

> <Gold.Chemscore.Hbonds>
donor molecule, donor type, donor heavy atom, donor atom, acceptor molecule, acceptor atom, score
      P1  H  7997  8009       L1    10  0.55
      P1  H 10752 10763       L1    12  0.62
      P1  H 10752 10764       L1    17  0.94

> <Gold.Chemscore.Hbond.Weighted>
-7.7444

> <Gold.Chemscore.Metal.Weighted>
-0.0000

> <Gold.Chemscore.Lipo.Weighted>
-13.8019

> <Gold.Chemscore.Internal_Hbond.Weighted>
0.0000

> <Gold.Chemscore.DEClash.Weighted>
0.1107

> <Gold.Chemscore.DEInternal.Weighted>
0.6775

> <Gold.Chemscore.Rot.Weighted>
4.7059

> <Gold.Chemscore.Internal.Correction.Weighted>
   9.000000E+99

> <Gold.Protein.RotatedTorsions>
[ 6907 6896 6895 6894 ] final -102.26 input  -60.11 | X-H torsion
[ 7974 7965 7964 7962 ] final -152.38 input  175.53 | X-H torsion
[ 8008 7997 7996 7995 ] final  147.68 input   59.86 | X-H torsion
[ 10167 10162 10161 10158 ] final  -66.01 input  -65.29 | X-H torsion
[ 10718 10713 10712 10709 ] final -140.21 input   66.30 | X-H torsion
[ 10763 10752 10751 10750 ] final   82.18 input  -60.55 | X-H torsion
[ 11005 11000 10999 10996 ] final   93.89 input  -57.11 | X-H torsion

> <Gold.Protein.ActiveResidues>
 VAL166  LYS551  ARG553  GLY616  TRP617  ASP618  TYR619  PRO620  LYS621  CYS622 
 ASP623  PHE694  ASN695  SER759  ASP760  ASP761  ALA762  ILE779  LEU786  VAL792 
 PHE793  MET794  SER795  GLU796  ALA797  LYS798  CYS799  TRP800  GLU811  SER814 

> <Gold.Protein.RotatedAtoms>
  150.7188  134.0608  159.3830 H   0  0  0  0  0  0  0  0  0  0  0  0  # atno 6907 bound_to 6896
  151.8588  135.0529  160.0476 H   0  0  0  0  0  0  0  0  0  0  0  0  # atno 6908 bound_to 6896
  152.2733  133.5367  159.5489 H   0  0  0  0  0  0  0  0  0  0  0  0  # atno 6909 bound_to 6896
  144.7797  140.4669  143.5848 H   0  0  0  0  0  0  0  0  0  0  0  0  # atno 7974 bound_to 7965
  156.2816  140.2149  156.5577 H   0  0  0  0  0  0  0  0  0  0  0  0  # atno 8008 bound_to 7997
  154.7238  140.0501  157.0687 H   0  0  0  0  0  0  0  0  0  0  0  0  # atno 8009 bound_to 7997
  155.0443  140.3149  155.4717 H   0  0  0  0  0  0  0  0  0  0  0  0  # atno 8010 bound_to 7997
  140.5688  143.2316  151.6581 H   0  0  0  0  0  0  0  0  0  0  0  0  # atno 10167 bound_to 10162
  156.3196  130.7527  151.1622 H   0  0  0  0  0  0  0  0  0  0  0  0  # atno 10718 bound_to 10713
  153.1180  135.4738  154.9148 H   0  0  0  0  0  0  0  0  0  0  0  0  # atno 10763 bound_to 10752
  154.7548  135.3115  154.8493 H   0  0  0  0  0  0  0  0  0  0  0  0  # atno 10764 bound_to 10752
  153.9064  135.6869  153.4806 H   0  0  0  0  0  0  0  0  0  0  0  0  # atno 10765 bound_to 10752
  139.8804  134.8815  156.3784 H   0  0  0  0  0  0  0  0  0  0  0  0  # atno 11005 bound_to 11000
  145.6085  139.1511  143.3089 LP  0  0  0  0  0  0  0  0  0  0  0  0  # atno 17320 bound_to 7965
  146.1998  140.6202  142.9107 LP  0  0  0  0  0  0  0  0  0  0  0  0  # atno 17321 bound_to 7965
  139.5106  144.3536  152.0629 LP  0  0  0  0  0  0  0  0  0  0  0  0  # atno 17342 bound_to 10162
  140.2670  144.4005  150.6164 LP  0  0  0  0  0  0  0  0  0  0  0  0  # atno 17343 bound_to 10162
  157.7409  131.0511  150.5135 LP  0  0  0  0  0  0  0  0  0  0  0  0  # atno 17370 bound_to 10713
  156.5285  130.4179  149.6214 LP  0  0  0  0  0  0  0  0  0  0  0  0  # atno 17371 bound_to 10713
  140.9416  133.7511  156.0153 LP  0  0  0  0  0  0  0  0  0  0  0  0  # atno 17394 bound_to 11000
  140.8213  134.3286  157.5380 LP  0  0  0  0  0  0  0  0  0  0  0  0  # atno 17395 bound_to 11000

$$$$
