AV-unprocessed.smi:910|AV-procd|sdf|4120|dock10
  -GOLD-   22720 2 23D 1   1.00000     0.00000
 Structure written by MMmdl.
 46 47  0  0  0  0  0  0  0  0  1 V2000
  148.5086  131.7233  154.2081 C   0  0  0  0  0  0  0  0  0  0  0  0
  149.4585  132.7392  154.8041 C   0  0  0  0  0  0  0  0  0  0  0  0
  149.2071  134.0834  154.7541 N   0  0  0  0  0  0  0  0  0  0  0  0
  150.2499  134.7435  155.3857 C   0  0  0  0  0  0  0  0  0  0  0  0
  150.3924  136.0221  155.5514 N   0  0  0  0  0  0  0  0  0  0  0  0
  151.5040  136.5044  156.2266 C   0  0  0  0  0  0  0  0  0  0  0  0
  152.4084  135.8651  156.7736 O   0  0  0  0  0  0  0  0  0  0  0  0
  151.5075  137.8456  156.2065 N   0  0  0  0  0  0  0  0  0  0  0  0
  152.5417  138.7015  156.7789 C   0  0  0  0  0  0  0  0  0  0  0  0
  152.4294  138.7777  158.3083 C   0  0  0  0  0  0  0  0  0  0  0  0
  151.5491  139.8390  158.6480 O   0  0  0  0  0  0  0  0  0  0  0  0
  152.1577  141.1234  158.6906 C   0  0  2  0  0  0  0  0  0  0  0  0
  152.8481  141.3263  160.0557 C   0  0  0  0  0  0  0  0  0  0  0  0
  153.3972  142.7528  160.2034 C   0  0  0  0  0  0  0  0  0  0  0  0
  152.2904  143.7947  159.9888 C   0  0  0  0  0  0  0  0  0  0  0  0
  151.6085  143.6023  158.6259 C   0  0  0  0  0  0  0  0  0  0  0  0
  151.0482  142.1749  158.4629 C   0  0  1  0  0  0  0  0  0  0  0  0
  150.3804  142.0071  157.0878 C   0  0  0  0  0  0  0  0  0  0  0  0
  151.1262  133.7699  155.8077 O   0  0  0  0  0  0  0  0  0  0  0  0
  150.6148  132.5629  155.4392 C   0  0  0  0  0  0  0  0  0  0  0  0
  151.3863  131.3111  155.7915 C   0  0  0  0  0  0  0  0  0  0  0  0
  148.1583  131.0371  154.9793 H   0  0  0  0  0  0  0  0  0  0  0  0
  149.0122  131.1443  153.4338 H   0  0  0  0  0  0  0  0  0  0  0  0
  147.6416  132.2122  153.7630 H   0  0  0  0  0  0  0  0  0  0  0  0
  148.3856  134.4814  154.3225 H   0  0  0  0  0  0  0  0  0  0  0  0
  150.7438  138.3107  155.7374 H   0  0  0  0  0  0  0  0  0  0  0  0
  153.5156  138.3001  156.4980 H   0  0  0  0  0  0  0  0  0  0  0  0
  152.4813  139.7006  156.3443 H   0  0  0  0  0  0  0  0  0  0  0  0
  152.0495  137.8325  158.6963 H   0  0  0  0  0  0  0  0  0  0  0  0
  153.4139  138.9378  158.7503 H   0  0  0  0  0  0  0  0  0  0  0  0
  152.8929  141.2221  157.8894 H   0  0  0  0  0  0  0  0  0  0  0  0
  152.1361  141.1273  160.8578 H   0  0  0  0  0  0  0  0  0  0  0  0
  153.6624  140.6135  160.1829 H   0  0  0  0  0  0  0  0  0  0  0  0
  153.8418  142.8799  161.1908 H   0  0  0  0  0  0  0  0  0  0  0  0
  154.1972  142.9136  159.4797 H   0  0  0  0  0  0  0  0  0  0  0  0
  151.5487  143.7120  160.7845 H   0  0  0  0  0  0  0  0  0  0  0  0
  152.7077  144.7997  160.0574 H   0  0  0  0  0  0  0  0  0  0  0  0
  150.8062  144.3325  158.5151 H   0  0  0  0  0  0  0  0  0  0  0  0
  152.3253  143.8100  157.8302 H   0  0  0  0  0  0  0  0  0  0  0  0
  150.2808  142.0286  159.2248 H   0  0  0  0  0  0  0  0  0  0  0  0
  151.1017  142.1289  156.2790 H   0  0  0  0  0  0  0  0  0  0  0  0
  149.5905  142.7445  156.9432 H   0  0  0  0  0  0  0  0  0  0  0  0
  149.9278  141.0206  156.9820 H   0  0  0  0  0  0  0  0  0  0  0  0
  151.0395  130.4632  155.2005 H   0  0  0  0  0  0  0  0  0  0  0  0
  151.2569  131.0744  156.8475 H   0  0  0  0  0  0  0  0  0  0  0  0
  152.4492  131.4552  155.5968 H   0  0  0  0  0  0  0  0  0  0  0  0
  1 22  1  0  0  0  0
  1 23  1  0  0  0  0
  1 24  1  0  0  0  0
  1  2  1  0  0  0  0
  2  3  1  0  0  0  0
  2 20  2  0  0  0  0
  3 25  1  0  0  0  0
  3  4  1  0  0  0  0
  4 19  1  0  0  0  0
  4  5  2  0  0  0  0
  5  6  1  0  0  0  0
  6  8  1  0  0  0  0
  6  7  2  0  0  0  0
  8  9  1  0  0  0  0
  8 26  1  0  0  0  0
  9 10  1  0  0  0  0
  9 27  1  0  0  0  0
  9 28  1  0  0  0  0
 10 11  1  0  0  0  0
 10 29  1  0  0  0  0
 10 30  1  0  0  0  0
 11 12  1  0  0  0  0
 12 17  1  0  0  0  0
 12 13  1  0  0  0  0
 12 31  1  0  0  0  0
 13 14  1  0  0  0  0
 13 32  1  0  0  0  0
 13 33  1  0  0  0  0
 14 15  1  0  0  0  0
 14 34  1  0  0  0  0
 14 35  1  0  0  0  0
 15 16  1  0  0  0  0
 15 36  1  0  0  0  0
 15 37  1  0  0  0  0
 16 17  1  0  0  0  0
 16 38  1  0  0  0  0
 16 39  1  0  0  0  0
 17 18  1  0  0  0  0
 17 40  1  0  0  0  0
 18 41  1  0  0  0  0
 18 42  1  0  0  0  0
 18 43  1  0  0  0  0
 19 20  1  0  0  0  0
 20 21  1  0  0  0  0
 21 44  1  0  0  0  0
 21 45  1  0  0  0  0
 21 46  1  0  0  0  0
M  END
> <s_m_source_file>
AV-unprocessed.smi

> <i_m_source_file_index>
910

> <i_lp_mmshare_version>
43012

> <i_f3d_flags>
0

> <s_epik_input>
W0NIM11jMW5jKG9jMVtDSDNdKVtOSF1DKD1PKVtOSF1bQ0gyXVtDSDJdT1tDQEBIXTJbQ0gyXVtDSDJdW0NIMl1bQ0gyXVtDQEhdMltDSDNd

> <s_epik_cmdline>
J2VwaWtfcHl0aG9uJywgJy1waCcsICc3LjAnLCAnLXRuJywgJzgnLCAnLW1hJywgJzIwMCcsICctbWV0YWxfYmluZGluZycsICctaW1hZScsICc8aW5maWxlLm1hZT4nLCAnLW9tYWUnLCAnPG91dGZpbGUubWFlPic=

> <r_lp_tautomer_probability>
0.107061

> <r_epik_Ionization_Penalty>
0.727192

> <r_epik_Ionization_Penalty_Charging>
0.726719

> <r_epik_Ionization_Penalty_Neutral>
0.000473387

> <r_epik_State_Penalty>
2.53712

> <r_epik_Charging_Adjusted_Penalty>
3.26383

> <i_epik_Tot_Q>
0

> <i_epik_Tot_abs_Q>
0

> <r_epik_Metal_State_Penalty>
3.71015

> <b_epik_Metal_Only>
0

> <s_lp_Force_Field>
OPLS_2005

> <r_lp_Energy>
30.8071

> <b_lp_Chiralities_Consistent>
1

> <s_lp_Variant>
AV-unprocessed.smi:910-5

> <Gold.Version>
5.8.1

> <Gold.Id.Protein>
6NUR|6NUR_protein|mol2

> <Gold.PLP.Fitness>
42.1724

> <Gold.PLP.PLP>
-39.0609

> <Gold.PLP.part.hbond>
-2.0000

> <Gold.PLP.part.metal>
0.0000

> <Gold.PLP.part.buried>
-2.6759

> <Gold.PLP.part.nonpolar>
-33.9022

> <Gold.PLP.part.repulsive>
0.3146

> <Gold.PLP.ligand.clash>
0.0000

> <Gold.PLP.ligand.torsion>
0.6584

> <Gold.PLP.Chemscore.Hbond>
1.4640

> <Gold.PLP.Chemscore.CHOScore>
0.0000

> <Gold.PLP.Chemscore.Metal>
0.0000

> <Gold.Chemscore.Hbonds>
donor molecule, donor type, donor heavy atom, donor atom, acceptor molecule, acceptor atom, score
      P1  H 10752 10765       L1     7  1.00

> <Gold.PLP.Chemscore.Internal.Correction>
0.0362

> <Gold.Rescore>
     Score         DG    S(hbond)    S(metal)    S(lipo)     H(rot)  DE(clash)    DE(int)     intcor
     13.78     -15.78       0.87        0.00      99.42       1.66       0.03       1.97       ----

> <Gold.Chemscore.Fitness>
13.7781

> <Gold.Chemscore.DG>
-15.7772

> <Gold.Chemscore.ZeroCoef>
-5.4800

> <Gold.Chemscore.Hbond>
0.8708

> <Gold.Chemscore.Metal>
0.0000

> <Gold.Chemscore.Lipo>
99.4217

> <Gold.Chemscore.Internal_Hbond>
0.0000

> <Gold.Chemscore.DEClash>
0.0332

> <Gold.Chemscore.DEInternal>
1.9659

> <Gold.Chemscore.Rot>
1.6576

> <Gold.Chemscore.Internal.Correction>
   9.000000E+99

> <Gold.Chemscore.Hbonds>
donor molecule, donor type, donor heavy atom, donor atom, acceptor molecule, acceptor atom, score
      P1  H 10752 10765       L1     7  0.35

> <Gold.Chemscore.Hbond.Weighted>
-2.9084

> <Gold.Chemscore.Metal.Weighted>
-0.0000

> <Gold.Chemscore.Lipo.Weighted>
-11.6323

> <Gold.Chemscore.Internal_Hbond.Weighted>
0.0000

> <Gold.Chemscore.DEClash.Weighted>
0.0332

> <Gold.Chemscore.DEInternal.Weighted>
1.9659

> <Gold.Chemscore.Rot.Weighted>
4.2436

> <Gold.Chemscore.Internal.Correction.Weighted>
   9.000000E+99

> <Gold.Protein.RotatedTorsions>
[ 6907 6896 6895 6894 ] final   71.59 input  -60.11 | X-H torsion
[ 7974 7965 7964 7962 ] final  -37.63 input  175.53 | X-H torsion
[ 8008 7997 7996 7995 ] final  -47.70 input   59.86 | X-H torsion
[ 10167 10162 10161 10158 ] final -108.10 input  -65.29 | X-H torsion
[ 10718 10713 10712 10709 ] final  -32.24 input   66.30 | X-H torsion
[ 10763 10752 10751 10750 ] final -125.58 input  -60.55 | X-H torsion
[ 11005 11000 10999 10996 ] final  -37.22 input  -57.11 | X-H torsion

> <Gold.Protein.ActiveResidues>
 VAL166  LYS551  ARG553  GLY616  TRP617  ASP618  TYR619  PRO620  LYS621  CYS622 
 ASP623  PHE694  ASN695  SER759  ASP760  ASP761  ALA762  ILE779  LEU786  VAL792 
 PHE793  MET794  SER795  GLU796  ALA797  LYS798  CYS799  TRP800  GLU811  SER814 

> <Gold.Protein.RotatedAtoms>
  152.4819  134.4697  159.9631 H   0  0  0  0  0  0  0  0  0  0  0  0  # atno 6907 bound_to 6896
  151.4701  133.3565  159.2830 H   0  0  0  0  0  0  0  0  0  0  0  0  # atno 6908 bound_to 6896
  150.8898  134.8326  159.7346 H   0  0  0  0  0  0  0  0  0  0  0  0  # atno 6909 bound_to 6896
  146.0558  140.6418  142.9020 H   0  0  0  0  0  0  0  0  0  0  0  0  # atno 7974 bound_to 7965
  154.4020  140.1340  156.4218 H   0  0  0  0  0  0  0  0  0  0  0  0  # atno 8008 bound_to 7997
  155.7635  140.3485  155.5190 H   0  0  0  0  0  0  0  0  0  0  0  0  # atno 8009 bound_to 7997
  155.8836  140.0991  157.1458 H   0  0  0  0  0  0  0  0  0  0  0  0  # atno 8010 bound_to 7997
  140.1698  143.4052  152.1363 H   0  0  0  0  0  0  0  0  0  0  0  0  # atno 10167 bound_to 10162
  156.3774  130.4350  149.7496 H   0  0  0  0  0  0  0  0  0  0  0  0  # atno 10718 bound_to 10713
  154.8737  135.4025  154.3291 H   0  0  0  0  0  0  0  0  0  0  0  0  # atno 10763 bound_to 10752
  153.4107  135.7020  153.6366 H   0  0  0  0  0  0  0  0  0  0  0  0  # atno 10764 bound_to 10752
  153.5070  135.3715  155.2538 H   0  0  0  0  0  0  0  0  0  0  0  0  # atno 10765 bound_to 10752
  140.9935  133.6992  156.1892 H   0  0  0  0  0  0  0  0  0  0  0  0  # atno 11005 bound_to 11000
  144.7147  140.4166  143.7053 LP  0  0  0  0  0  0  0  0  0  0  0  0  # atno 17320 bound_to 7965
  145.6647  139.1588  143.2788 LP  0  0  0  0  0  0  0  0  0  0  0  0  # atno 17321 bound_to 7965
  139.5343  144.7193  151.4948 LP  0  0  0  0  0  0  0  0  0  0  0  0  # atno 17342 bound_to 10162
  140.6589  143.8540  150.6866 LP  0  0  0  0  0  0  0  0  0  0  0  0  # atno 17343 bound_to 10162
  156.4600  130.7947  151.2968 LP  0  0  0  0  0  0  0  0  0  0  0  0  # atno 17370 bound_to 10713
  157.7489  131.0069  150.3168 LP  0  0  0  0  0  0  0  0  0  0  0  0  # atno 17371 bound_to 10713
  140.7003  134.4571  157.5586 LP  0  0  0  0  0  0  0  0  0  0  0  0  # atno 17394 bound_to 11000
  139.9003  134.8571  156.1923 LP  0  0  0  0  0  0  0  0  0  0  0  0  # atno 17395 bound_to 11000

$$$$
