#       Name:                AV-unprocessed.smi:1008
#       Creating user name   scv26
#       Creation time:       Fri Mar 27 02:35:40 2020


#       File generated by GOLD software.
#

@<TRIPOS>MOLECULE
AV-unprocessed.smi:1008
    28    28     1
SMALL
NO_CHARGES


@<TRIPOS>ATOM
      1 ****         0.1195   2.1408  -0.3737 C.3            1 S1                 0.0000
      2 ****        -0.4619   0.7380  -0.3493 C.2            1 S1                 0.0000
      3 ****        -1.8446   0.6892  -0.3388 N.pl3          1 S1                 0.0000
      4 ****        -2.4697  -0.5481  -0.3122 C.2            1 S1                 0.0000
      5 ****        -3.8476  -0.4891  -0.3051 N.pl3          1 S1                 0.0000
      6 ****        -1.8334  -1.6803  -0.2944 N.2            1 S1                 0.0000
      7 ****        -0.4298  -1.6951  -0.3014 C.2            1 S1                 0.0000
      8 ****         0.1830  -2.7616  -0.2811 O.2            1 S1                 0.0000
      9 ****         0.2781  -0.3971  -0.3279 C.2            1 S1                 0.0000
     10 ****         1.8040  -0.4005  -0.3469 C.3            1 S1                 0.0000
     11 ****         2.4003  -0.5624   1.0588 C.3            1 S1                 0.0000
     12 ****         3.8092  -0.5430   0.9856 O.3            1 S1                 0.0000
     13 ****        -4.4461  -1.3020  -0.2869 H              1 S1                 0.0000
     14 ****         0.7956   2.2871   0.4692 H              1 S1                 0.0000
     15 ****        -0.6600   2.9013  -0.3135 H              1 S1                 0.0000
     16 ****         0.6764   2.3055  -1.2964 H              1 S1                 0.0000
     17 ****        -4.3624   0.3798  -0.3181 H              1 S1                 0.0000
     18 ****        -2.3498   1.5631  -0.3522 H              1 S1                 0.0000
     19 ****         2.1749   0.5209  -0.7951 H              1 S1                 0.0000
     20 ****         2.1577  -1.1997  -1.0002 H              1 S1                 0.0000
     21 ****         2.0679   0.2435   1.7138 H              1 S1                 0.0000
     22 ****         2.0827  -1.5030   1.5099 H              1 S1                 0.0000
     23 ****         4.1570  -0.6697   1.8553 H              1 S1                 0.0000
     24 ****        -2.3429  -2.5406  -0.2757 LP             1 S1                 0.0000
     25 ****        -0.3189  -3.6263  -0.2595 LP             1 S1                 0.0000
     26 ****         1.1830  -2.7639  -0.2863 LP             1 S1                 0.0000
     27 ****         4.1160   0.3377   0.6247 LP             1 S1                 0.0000
     28 ****         4.1258  -1.2776   0.3855 LP             1 S1                 0.0000
@<TRIPOS>BOND
    1    1   14 1     
    2    1   15 1     
    3    1   16 1     
    4    1    2 1     
    5    2    9 2     
    6    2    3 1     
    7    3   18 1     
    8    3    4 1     
    9    4    5 1     
   10    4    6 2     
   11    5   17 1     
   12    5   13 1     
   13    6    7 1     
   14    7    8 2     
   15    7    9 1     
   16    9   10 1     
   17   10   11 1     
   18   10   19 1     
   19   10   20 1     
   20   11   12 1     
   21   11   21 1     
   22   11   22 1     
   23   12   23 1     
   24    6   24 1     
   25    8   25 1     
   26    8   26 1     
   27   12   27 1     
   28   12   28 1     
@<TRIPOS>SUBSTRUCTURE
      1 S1             1
@<TRIPOS>SET
LONE_PAIRS      STATIC     ATOMS    <user>   **** ""
5 24 25 26 27 28
DONOR_HYDROGENS      STATIC     ATOMS    <user>   **** ""
4 18 17 13 23
ATOM$BLUE        STATIC     ATOMS    COLORGROUP SYSTEM
5 24 25 26 27 28
ATOM$RED        STATIC     ATOMS    COLORGROUP SYSTEM
4 18 17 13 23
