AV-unprocessed.smi:2673|AV-procd|sdf|10356|dock4
  -GOLD-   2272014383D 1   1.00000     0.00000
 Structure written by MMmdl.
 32 33  0  0  0  0  0  0  0  0  1 V2000
  146.5158  137.8808  155.1511 O   0  0  0  0  0  0  0  0  0  0  0  0
  147.1510  137.4323  154.1979 C   0  0  0  0  0  0  0  0  0  0  0  0
  148.2328  138.0143  153.6507 N   0  0  0  0  0  0  0  0  0  0  0  0
  148.8809  139.2157  154.0425 C   0  0  0  0  0  0  0  0  0  0  0  0
  150.1679  139.2803  154.4185 N   0  0  0  0  0  0  0  0  0  0  0  0
  150.5490  140.5750  154.7464 N   0  0  0  0  0  0  0  0  0  0  0  0
  149.5360  141.4346  154.6053 C   0  0  0  0  0  0  0  0  0  0  0  0
  148.0167  140.7463  154.0591 S   0  0  0  0  0  0  0  0  0  0  0  0
  146.8516  136.2894  153.5583 N   0  0  0  0  0  0  0  0  0  0  0  0
  145.7735  135.3208  153.8240 C   0  0  0  0  0  0  0  0  0  0  0  0
  145.9546  134.7009  155.2400 C   0  0  0  0  0  0  0  0  0  0  0  0
  147.1844  134.2032  155.3780 F   0  0  0  0  0  0  0  0  0  0  0  0
  145.7761  135.6321  156.1789 F   0  0  0  0  0  0  0  0  0  0  0  0
  145.0921  133.7103  155.4647 F   0  0  0  0  0  0  0  0  0  0  0  0
  144.3612  135.9572  153.6737 C   0  0  0  0  0  0  0  0  0  0  0  0
  144.0797  136.4735  152.2507 C   0  0  0  0  0  0  0  0  0  0  0  0
  144.2451  135.3530  151.2143 C   0  0  0  0  0  0  0  0  0  0  0  0
  145.6309  134.7008  151.3200 C   0  0  0  0  0  0  0  0  0  0  0  0
  145.9089  134.2046  152.7527 C   0  0  0  0  0  0  0  0  0  0  0  0
  148.6500  137.5352  152.8664 H   0  0  0  0  0  0  0  0  0  0  0  0
  149.6848  142.4815  154.8243 H   0  0  0  0  0  0  0  0  0  0  0  0
  147.4576  136.0412  152.7904 H   0  0  0  0  0  0  0  0  0  0  0  0
  143.6058  135.2109  153.9220 H   0  0  0  0  0  0  0  0  0  0  0  0
  144.2096  136.7621  154.3917 H   0  0  0  0  0  0  0  0  0  0  0  0
  143.0679  136.8762  152.1984 H   0  0  0  0  0  0  0  0  0  0  0  0
  144.7497  137.3003  152.0125 H   0  0  0  0  0  0  0  0  0  0  0  0
  143.4744  134.5970  151.3695 H   0  0  0  0  0  0  0  0  0  0  0  0
  144.0932  135.7479  150.2094 H   0  0  0  0  0  0  0  0  0  0  0  0
  145.6975  133.8657  150.6223 H   0  0  0  0  0  0  0  0  0  0  0  0
  146.3968  135.4142  151.0137 H   0  0  0  0  0  0  0  0  0  0  0  0
  146.9039  133.7599  152.7939 H   0  0  0  0  0  0  0  0  0  0  0  0
  145.2126  133.3949  152.9738 H   0  0  0  0  0  0  0  0  0  0  0  0
  1  2  2  0  0  0  0
  2  3  1  0  0  0  0
  2  9  1  0  0  0  0
  3  4  1  0  0  0  0
  3 20  1  0  0  0  0
  4  8  1  0  0  0  0
  4  5  2  0  0  0  0
  5  6  1  0  0  0  0
  6  7  2  0  0  0  0
  7  8  1  0  0  0  0
  7 21  1  0  0  0  0
  9 10  1  0  0  0  0
  9 22  1  0  0  0  0
 10 19  1  0  0  0  0
 10 11  1  0  0  0  0
 10 15  1  0  0  0  0
 11 12  1  0  0  0  0
 11 13  1  0  0  0  0
 11 14  1  0  0  0  0
 15 16  1  0  0  0  0
 15 23  1  0  0  0  0
 15 24  1  0  0  0  0
 16 17  1  0  0  0  0
 16 25  1  0  0  0  0
 16 26  1  0  0  0  0
 17 18  1  0  0  0  0
 17 27  1  0  0  0  0
 17 28  1  0  0  0  0
 18 19  1  0  0  0  0
 18 29  1  0  0  0  0
 18 30  1  0  0  0  0
 19 31  1  0  0  0  0
 19 32  1  0  0  0  0
M  END
> <s_m_source_file>
AV-unprocessed.smi

> <i_m_source_file_index>
2673

> <i_lp_mmshare_version>
43012

> <i_f3d_flags>
0

> <s_epik_input>
czFbY0hdbm5jMVtOSF1DKD1PKVtOSF1DMihDKEYpKEYpRilbQ0gyXVtDSDJdW0NIMl1bQ0gyXVtDSDJdMg==

> <s_epik_cmdline>
J2VwaWtfcHl0aG9uJywgJy1waCcsICc3LjAnLCAnLXRuJywgJzgnLCAnLW1hJywgJzIwMCcsICctbWV0YWxfYmluZGluZycsICctaW1hZScsICc8aW5maWxlLm1hZT4nLCAnLW9tYWUnLCAnPG91dGZpbGUubWFlPic=

> <r_lp_tautomer_probability>
1

> <r_epik_Ionization_Penalty>
1.40881

> <r_epik_Ionization_Penalty_Charging>
0

> <r_epik_Ionization_Penalty_Neutral>
1.40881

> <r_epik_State_Penalty>
1.51827

> <r_epik_Charging_Adjusted_Penalty>
1.51827

> <i_epik_Tot_Q>
0

> <i_epik_Tot_abs_Q>
0

> <r_epik_Metal_State_Penalty>
1.5692

> <b_epik_Metal_Only>
0

> <s_lp_Force_Field>
OPLS_2005

> <r_lp_Energy>
12.8136

> <b_lp_Chiralities_Consistent>
1

> <s_lp_Variant>
AV-unprocessed.smi:2673-2

> <Gold.Version>
5.8.1

> <Gold.Id.Protein>
6NUR|6NUR_protein|mol2

> <Gold.PLP.Fitness>
30.3813

> <Gold.PLP.PLP>
-19.5646

> <Gold.PLP.part.hbond>
-3.0000

> <Gold.PLP.part.metal>
0.0000

> <Gold.PLP.part.buried>
-0.8932

> <Gold.PLP.part.nonpolar>
-15.1807

> <Gold.PLP.part.repulsive>
0.2941

> <Gold.PLP.ligand.clash>
0.0000

> <Gold.PLP.ligand.torsion>
0.6070

> <Gold.PLP.Chemscore.Hbond>
3.0000

> <Gold.PLP.Chemscore.CHOScore>
1.0000

> <Gold.PLP.Chemscore.Metal>
0.0000

> <Gold.Chemscore.Hbonds>
donor molecule, donor type, donor heavy atom, donor atom, acceptor molecule, acceptor atom, score
      L1  H     3    20       P1  7948  1.00
      L1  H     9    22       P1  7948  1.00
      P1  H  7989  7998       L1     6  0.98
      L1  C     7    21       P1  8028  1.00

> <Gold.PLP.Chemscore.Internal.Correction>
0.0306

> <Gold.Rescore>
     Score         DG    S(hbond)    S(metal)    S(lipo)     H(rot)  DE(clash)    DE(int)     intcor
     11.72     -14.02       2.02        0.00      37.08       1.00       0.02       2.27       ----

> <Gold.Chemscore.Fitness>
11.7227

> <Gold.Chemscore.DG>
-14.0157

> <Gold.Chemscore.ZeroCoef>
-5.4800

> <Gold.Chemscore.Hbond>
2.0231

> <Gold.Chemscore.Metal>
0.0000

> <Gold.Chemscore.Lipo>
37.0815

> <Gold.Chemscore.Internal_Hbond>
0.0000

> <Gold.Chemscore.DEClash>
0.0180

> <Gold.Chemscore.DEInternal>
2.2750

> <Gold.Chemscore.Rot>
1.0000

> <Gold.Chemscore.Internal.Correction>
   9.000000E+99

> <Gold.Chemscore.Hbonds>
donor molecule, donor type, donor heavy atom, donor atom, acceptor molecule, acceptor atom, score
      L1  H     3    20       P1  7948  0.99
      L1  H     9    22       P1  7948  0.97
      P1  H  7989  7998       L1     6  0.14

> <Gold.Chemscore.Hbond.Weighted>
-6.7571

> <Gold.Chemscore.Metal.Weighted>
-0.0000

> <Gold.Chemscore.Lipo.Weighted>
-4.3385

> <Gold.Chemscore.Internal_Hbond.Weighted>
0.0000

> <Gold.Chemscore.DEClash.Weighted>
0.0180

> <Gold.Chemscore.DEInternal.Weighted>
2.2750

> <Gold.Chemscore.Rot.Weighted>
2.5600

> <Gold.Chemscore.Internal.Correction.Weighted>
   9.000000E+99

> <Gold.Protein.RotatedTorsions>
[ 6907 6896 6895 6894 ] final   62.17 input  -60.11 | X-H torsion
[ 7974 7965 7964 7962 ] final  131.66 input  175.53 | X-H torsion
[ 8008 7997 7996 7995 ] final  -99.94 input   59.86 | X-H torsion
[ 10167 10162 10161 10158 ] final  172.24 input  -65.29 | X-H torsion
[ 10718 10713 10712 10709 ] final   75.96 input   66.30 | X-H torsion
[ 10763 10752 10751 10750 ] final  -53.14 input  -60.55 | X-H torsion
[ 11005 11000 10999 10996 ] final -166.78 input  -57.11 | X-H torsion

> <Gold.Protein.ActiveResidues>
 VAL166  LYS551  ARG553  GLY616  TRP617  ASP618  TYR619  PRO620  LYS621  CYS622 
 ASP623  PHE694  ASN695  SER759  ASP760  ASP761  ALA762  ILE779  LEU786  VAL792 
 PHE793  MET794  SER795  GLU796  ALA797  LYS798  CYS799  TRP800  GLU811  SER814 

> <Gold.Protein.RotatedAtoms>
  152.4150  134.6058  160.0012 H   0  0  0  0  0  0  0  0  0  0  0  0  # atno 6907 bound_to 6896
  151.6224  133.3332  159.3099 H   0  0  0  0  0  0  0  0  0  0  0  0  # atno 6908 bound_to 6896
  150.8039  134.7190  159.6692 H   0  0  0  0  0  0  0  0  0  0  0  0  # atno 6909 bound_to 6896
  145.0050  139.4275  143.5273 H   0  0  0  0  0  0  0  0  0  0  0  0  # atno 7974 bound_to 7965
  154.8218  140.0444  157.1416 H   0  0  0  0  0  0  0  0  0  0  0  0  # atno 8008 bound_to 7997
  154.9251  140.3032  155.5176 H   0  0  0  0  0  0  0  0  0  0  0  0  # atno 8009 bound_to 7997
  156.2980  140.2333  156.4305 H   0  0  0  0  0  0  0  0  0  0  0  0  # atno 8010 bound_to 7997
  139.5070  144.3396  152.0031 H   0  0  0  0  0  0  0  0  0  0  0  0  # atno 10167 bound_to 10162
  157.6655  130.9751  150.1428 H   0  0  0  0  0  0  0  0  0  0  0  0  # atno 10718 bound_to 10713
  154.1541  135.6485  153.4970 H   0  0  0  0  0  0  0  0  0  0  0  0  # atno 10763 bound_to 10752
  153.0129  135.5345  154.6778 H   0  0  0  0  0  0  0  0  0  0  0  0  # atno 10764 bound_to 10752
  154.6074  135.2950  155.0441 H   0  0  0  0  0  0  0  0  0  0  0  0  # atno 10765 bound_to 10752
  140.5606  134.5337  157.5142 H   0  0  0  0  0  0  0  0  0  0  0  0  # atno 11005 bound_to 11000
  146.3459  139.9461  142.8735 LP  0  0  0  0  0  0  0  0  0  0  0  0  # atno 17320 bound_to 7965
  145.2101  140.9892  143.4105 LP  0  0  0  0  0  0  0  0  0  0  0  0  # atno 17321 bound_to 7965
  140.2834  144.3834  150.6111 LP  0  0  0  0  0  0  0  0  0  0  0  0  # atno 17342 bound_to 10162
  140.6001  143.2167  151.7089 LP  0  0  0  0  0  0  0  0  0  0  0  0  # atno 17343 bound_to 10162
  156.2247  130.3677  149.8515 LP  0  0  0  0  0  0  0  0  0  0  0  0  # atno 17370 bound_to 10713
  156.6358  130.8684  151.3504 LP  0  0  0  0  0  0  0  0  0  0  0  0  # atno 17371 bound_to 10713
  139.9409  134.7788  156.0680 LP  0  0  0  0  0  0  0  0  0  0  0  0  # atno 17394 bound_to 11000
  141.1117  133.6641  156.2994 LP  0  0  0  0  0  0  0  0  0  0  0  0  # atno 17395 bound_to 11000

$$$$
