AV-unprocessed.smi:2419|AV-procd|sdf|9553|dock9
  -GOLD-   2272013183D 1   1.00000     0.00000
 Structure written by MMmdl.
 27 28  0  0  0  0  0  0  0  0  2 V2000
  150.3424  141.4413  156.5515 O   0  0  0  0  0  0  0  0  0  0  0  0
  151.4422  141.0821  156.9781 C   0  0  0  0  0  0  0  0  0  0  0  0
  151.8929  141.5613  158.1448 N   0  0  0  0  0  0  0  0  0  0  0  0
  151.1775  142.4984  159.0034 C   0  0  0  0  0  0  0  0  0  0  0  0
  152.0384  143.7270  159.3254 C   0  0  0  0  0  0  0  0  0  0  0  0
  153.2256  143.2113  159.8962 O   0  0  0  0  0  0  0  0  0  0  0  0
  152.2985  144.7255  158.1823 C   0  0  0  0  0  0  0  0  0  0  0  0
  152.1147  145.8771  159.1722 C   0  0  0  0  0  0  0  0  0  0  0  0
  151.4025  144.8949  160.1034 C   0  0  0  0  0  0  0  0  0  0  0  0
  152.2918  140.2168  156.3788 N   0  5  0  0  0  0  0  0  0  0  0  0
  151.8138  139.2597  155.5667 C   0  0  0  0  0  0  0  0  0  0  0  0
  150.8783  139.4906  154.6382 N   0  0  0  0  0  0  0  0  0  0  0  0
  150.5248  138.3524  153.9113 C   0  0  0  0  0  0  0  0  0  0  0  0
  151.1991  137.2261  154.3022 C   0  0  0  0  0  0  0  0  0  0  0  0
  152.3065  137.5641  155.6019 S   0  0  0  0  0  0  0  0  0  0  0  0
  152.8004  141.2513  158.4600 H   0  0  0  0  0  0  0  0  0  0  0  0
  150.2308  142.7780  158.5370 H   0  0  0  0  0  0  0  0  0  0  0  0
  150.9177  141.9750  159.9247 H   0  0  0  0  0  0  0  0  0  0  0  0
  153.6991  142.7778  159.2032 H   0  0  0  0  0  0  0  0  0  0  0  0
  153.2941  144.6699  157.7407 H   0  0  0  0  0  0  0  0  0  0  0  0
  151.5242  144.7097  157.4136 H   0  0  0  0  0  0  0  0  0  0  0  0
  153.0598  146.2370  159.5815 H   0  0  0  0  0  0  0  0  0  0  0  0
  151.4907  146.6943  158.8095 H   0  0  0  0  0  0  0  0  0  0  0  0
  150.3168  144.9340  160.0000 H   0  0  0  0  0  0  0  0  0  0  0  0
  151.7046  144.9673  161.1489 H   0  0  0  0  0  0  0  0  0  0  0  0
  149.7805  138.4353  153.1333 H   0  0  0  0  0  0  0  0  0  0  0  0
  151.1128  136.2245  153.9090 H   0  0  0  0  0  0  0  0  0  0  0  0
  1  2  2  0  0  0  0
  2  3  1  0  0  0  0
  2 10  1  0  0  0  0
  3  4  1  0  0  0  0
  3 16  1  0  0  0  0
  4  5  1  0  0  0  0
  4 17  1  0  0  0  0
  4 18  1  0  0  0  0
  5  9  1  0  0  0  0
  5  6  1  0  0  0  0
  5  7  1  0  0  0  0
  6 19  1  0  0  0  0
  7  8  1  0  0  0  0
  7 20  1  0  0  0  0
  7 21  1  0  0  0  0
  8  9  1  0  0  0  0
  8 22  1  0  0  0  0
  8 23  1  0  0  0  0
  9 24  1  0  0  0  0
  9 25  1  0  0  0  0
 10 11  1  0  0  0  0
 11 15  1  0  0  0  0
 11 12  2  0  0  0  0
 12 13  1  0  0  0  0
 13 14  2  0  0  0  0
 13 26  1  0  0  0  0
 14 15  1  0  0  0  0
 14 27  1  0  0  0  0
M  CHG  1  10  -1
M  END
> <s_m_source_file>
AV-unprocessed.smi

> <i_m_source_file_index>
2419

> <i_lp_mmshare_version>
43012

> <i_f3d_flags>
0

> <s_epik_input>
czFbY0hdW2NIXW5jMVtOSF1DKD1PKVtOSF1bQ0gyXUMyKFtPSF0pW0NIMl1bQ0gyXVtDSDJdMg==

> <s_epik_cmdline>
J2VwaWtfcHl0aG9uJywgJy1waCcsICc3LjAnLCAnLXRuJywgJzgnLCAnLW1hJywgJzIwMCcsICctbWV0YWxfYmluZGluZycsICctaW1hZScsICc8aW5maWxlLm1hZT4nLCAnLW9tYWUnLCAnPG91dGZpbGUubWFlPic=

> <r_lp_tautomer_probability>
0.999

> <r_epik_Ionization_Penalty>
8.31551

> <r_epik_Ionization_Penalty_Charging>
6.6872

> <r_epik_Ionization_Penalty_Neutral>
1.62831

> <r_epik_State_Penalty>
6.68737

> <r_epik_Charging_Adjusted_Penalty>
13.3746

> <i_epik_Tot_Q>
-1

> <i_epik_Tot_abs_Q>
1

> <r_epik_Metal_State_Penalty>
2.60943

> <b_epik_Metal_Only>
1

> <s_lp_Force_Field>
OPLS_2005

> <r_lp_Energy>
8.45088

> <b_lp_Chiralities_Consistent>
1

> <s_lp_Variant>
AV-unprocessed.smi:2419-2

> <Gold.Version>
5.8.1

> <Gold.Id.Protein>
6NUR|6NUR_protein|mol2

> <Gold.PLP.Fitness>
43.4399

> <Gold.PLP.PLP>
-29.1977

> <Gold.PLP.part.hbond>
-2.0000

> <Gold.PLP.part.metal>
0.0000

> <Gold.PLP.part.buried>
-1.2250

> <Gold.PLP.part.nonpolar>
-24.7018

> <Gold.PLP.part.repulsive>
0.2343

> <Gold.PLP.ligand.clash>
0.0000

> <Gold.PLP.ligand.torsion>
0.6078

> <Gold.PLP.Chemscore.Hbond>
3.0000

> <Gold.PLP.Chemscore.CHOScore>
2.1232

> <Gold.PLP.Chemscore.Metal>
0.0000

> <Gold.Chemscore.Hbonds>
donor molecule, donor type, donor heavy atom, donor atom, acceptor molecule, acceptor atom, score
      P1  H  7989  7998       L1    12  1.00
      P1  H  7997  8008       L1    10  1.95
      L1  C    13    26       P1  7948  0.59
      L1  C    13    26       P1  7957  1.00
      L1  C    14    27       P1  7949  0.75

> <Gold.PLP.Chemscore.Internal.Correction>
0.0882

> <Gold.Rescore>
     Score         DG    S(hbond)    S(metal)    S(lipo)     H(rot)  DE(clash)    DE(int)     intcor
     13.42     -15.72       1.67        0.00      80.92       1.88       0.26       2.04       ----

> <Gold.Chemscore.Fitness>
13.4168

> <Gold.Chemscore.DG>
-15.7191

> <Gold.Chemscore.ZeroCoef>
-5.4800

> <Gold.Chemscore.Hbond>
1.6692

> <Gold.Chemscore.Metal>
0.0000

> <Gold.Chemscore.Lipo>
80.9241

> <Gold.Chemscore.Internal_Hbond>
0.0000

> <Gold.Chemscore.DEClash>
0.2600

> <Gold.Chemscore.DEInternal>
2.0424

> <Gold.Chemscore.Rot>
1.8767

> <Gold.Chemscore.Internal.Correction>
   9.000000E+99

> <Gold.Chemscore.Hbonds>
donor molecule, donor type, donor heavy atom, donor atom, acceptor molecule, acceptor atom, score
      P1  H  7989  7998       L1    12  0.39
      P1  H  7997  8008       L1    10  0.63

> <Gold.Chemscore.Hbond.Weighted>
-5.5753

> <Gold.Chemscore.Metal.Weighted>
-0.0000

> <Gold.Chemscore.Lipo.Weighted>
-9.4681

> <Gold.Chemscore.Internal_Hbond.Weighted>
0.0000

> <Gold.Chemscore.DEClash.Weighted>
0.2600

> <Gold.Chemscore.DEInternal.Weighted>
2.0424

> <Gold.Chemscore.Rot.Weighted>
4.8043

> <Gold.Chemscore.Internal.Correction.Weighted>
   9.000000E+99

> <Gold.Protein.RotatedTorsions>
[ 6907 6896 6895 6894 ] final  -38.54 input  -60.11 | X-H torsion
[ 7974 7965 7964 7962 ] final  -74.22 input  175.53 | X-H torsion
[ 8008 7997 7996 7995 ] final  -42.80 input   59.86 | X-H torsion
[ 10167 10162 10161 10158 ] final  144.05 input  -65.29 | X-H torsion
[ 10718 10713 10712 10709 ] final  122.35 input   66.30 | X-H torsion
[ 10763 10752 10751 10750 ] final  -74.54 input  -60.55 | X-H torsion
[ 11005 11000 10999 10996 ] final -156.20 input  -57.11 | X-H torsion

> <Gold.Protein.ActiveResidues>
 VAL166  LYS551  ARG553  GLY616  TRP617  ASP618  TYR619  PRO620  LYS621  CYS622 
 ASP623  PHE694  ASN695  SER759  ASP760  ASP761  ALA762  ILE779  LEU786  VAL792 
 PHE793  MET794  SER795  GLU796  ALA797  LYS798  CYS799  TRP800  GLU811  SER814 

> <Gold.Protein.RotatedAtoms>
  151.0012  134.9323  159.7954 H   0  0  0  0  0  0  0  0  0  0  0  0  # atno 6907 bound_to 6896
  152.5278  134.3152  159.9138 H   0  0  0  0  0  0  0  0  0  0  0  0  # atno 6908 bound_to 6896
  151.3157  133.4020  159.2685 H   0  0  0  0  0  0  0  0  0  0  0  0  # atno 6909 bound_to 6896
  145.6419  140.9308  143.1031 H   0  0  0  0  0  0  0  0  0  0  0  0  # atno 7974 bound_to 7965
  154.3998  140.1464  156.3414 H   0  0  0  0  0  0  0  0  0  0  0  0  # atno 8008 bound_to 7997
  155.8353  140.3464  155.5576 H   0  0  0  0  0  0  0  0  0  0  0  0  # atno 8009 bound_to 7997
  155.8145  140.0889  157.1875 H   0  0  0  0  0  0  0  0  0  0  0  0  # atno 8010 bound_to 7997
  139.4955  144.5998  151.6505 H   0  0  0  0  0  0  0  0  0  0  0  0  # atno 10167 bound_to 10162
  157.5749  131.1080  150.8298 H   0  0  0  0  0  0  0  0  0  0  0  0  # atno 10718 bound_to 10713
  154.4745  135.5861  153.6345 H   0  0  0  0  0  0  0  0  0  0  0  0  # atno 10763 bound_to 10752
  152.9839  135.6075  154.3325 H   0  0  0  0  0  0  0  0  0  0  0  0  # atno 10764 bound_to 10752
  154.3210  135.2843  155.2499 H   0  0  0  0  0  0  0  0  0  0  0  0  # atno 10765 bound_to 10752
  140.6782  134.4173  157.5228 H   0  0  0  0  0  0  0  0  0  0  0  0  # atno 11005 bound_to 11000
  144.7154  139.8216  143.7400 LP  0  0  0  0  0  0  0  0  0  0  0  0  # atno 17320 bound_to 7965
  146.1273  139.4302  143.0190 LP  0  0  0  0  0  0  0  0  0  0  0  0  # atno 17321 bound_to 7965
  140.5645  144.0213  150.6186 LP  0  0  0  0  0  0  0  0  0  0  0  0  # atno 17342 bound_to 10162
  140.3310  143.3078  152.0687 LP  0  0  0  0  0  0  0  0  0  0  0  0  # atno 17343 bound_to 10162
  156.8759  130.5162  149.5294 LP  0  0  0  0  0  0  0  0  0  0  0  0  # atno 17370 bound_to 10713
  156.0794  130.5808  150.9534 LP  0  0  0  0  0  0  0  0  0  0  0  0  # atno 17371 bound_to 10713
  139.8960  134.8670  156.2107 LP  0  0  0  0  0  0  0  0  0  0  0  0  # atno 17394 bound_to 11000
  141.0338  133.6974  156.1477 LP  0  0  0  0  0  0  0  0  0  0  0  0  # atno 17395 bound_to 11000

$$$$
