AV-unprocessed.smi:264|AV-procd|sdf|2014|dock4
  -GOLD-   2262021213D 1   1.00000     0.00000
 Structure written by MMmdl.
 52 56  0  0  0  0  0  0  0  0  1 V2000
  146.5611  133.5035  152.6128 C   0  0  0  0  0  0  0  0  0  0  0  0
  146.0119  133.3728  151.1833 C   0  0  1  0  0  0  0  0  0  0  0  0
  145.6762  132.0033  150.9730 O   0  0  0  0  0  0  0  0  0  0  0  0
  144.5979  131.9308  150.0575 C   0  0  0  0  0  0  0  0  0  0  0  0
  143.7147  133.0857  150.5034 C   0  0  0  0  0  0  0  0  0  0  0  0
  144.7237  134.1779  150.8489 C   0  0  2  0  0  0  0  0  0  0  0  0
  144.9755  134.9220  149.6687 O   0  0  0  0  0  0  0  0  0  0  0  0
  144.2244  135.1619  151.9396 C   0  0  0  0  0  0  0  0  0  0  0  0
  145.2540  136.0744  152.4139 N   0  0  0  0  0  0  0  0  0  0  0  0
  145.9255  137.0190  151.6708 C   0  0  0  0  0  0  0  0  0  0  0  0
  146.8054  137.7230  152.3287 N   0  0  0  0  0  0  0  0  0  0  0  0
  146.7338  137.2294  153.6261 C   0  0  0  0  0  0  0  0  0  0  0  0
  147.3990  137.5455  154.8439 C   0  0  0  0  0  0  0  0  0  0  0  0
  148.3535  138.5065  154.9266 N   0  0  0  0  0  0  0  0  0  0  0  0
  148.4098  139.4140  153.7879 C   0  0  0  0  0  0  0  0  0  0  0  0
  149.2474  140.6495  154.1453 C   0  0  0  0  0  0  0  0  0  0  0  0
  150.5345  140.2563  154.6201 O   0  0  0  0  0  0  0  0  0  0  0  0
  150.5234  139.3675  155.7445 C   0  0  2  0  0  0  0  0  0  0  0  0
  150.1183  140.0728  157.0355 C   0  0  0  0  0  0  0  0  0  0  0  0
  151.4011  140.7941  157.4205 C   0  0  0  0  0  0  0  0  0  0  0  0
  152.4226  139.8594  157.1077 O   0  0  0  0  0  0  0  0  0  0  0  0
  151.9891  139.0129  156.0450 C   0  0  0  0  0  0  0  0  0  0  0  0
  149.6762  138.1209  155.4093 C   0  0  0  0  0  0  0  0  0  0  0  0
  147.0408  136.8434  155.9524 N   0  0  0  0  0  0  0  0  0  0  0  0
  146.1034  135.8939  155.8766 C   0  0  0  0  0  0  0  0  0  0  0  0
  145.4053  135.4938  154.8124 N   0  0  0  0  0  0  0  0  0  0  0  0
  145.7565  136.1967  153.6979 C   0  0  0  0  0  0  0  0  0  0  0  0
  146.8513  134.5301  152.8370 H   0  0  0  0  0  0  0  0  0  0  0  0
  147.4464  132.8805  152.7416 H   0  0  0  0  0  0  0  0  0  0  0  0
  145.8291  133.1842  153.3549 H   0  0  0  0  0  0  0  0  0  0  0  0
  146.8115  133.6270  150.4849 H   0  0  0  0  0  0  0  0  0  0  0  0
  144.9633  132.0821  149.0405 H   0  0  0  0  0  0  0  0  0  0  0  0
  144.0910  130.9671  150.1064 H   0  0  0  0  0  0  0  0  0  0  0  0
  142.9811  133.3821  149.7521 H   0  0  0  0  0  0  0  0  0  0  0  0
  143.1698  132.7821  151.3982 H   0  0  0  0  0  0  0  0  0  0  0  0
  145.4644  134.3783  149.0702 H   0  0  0  0  0  0  0  0  0  0  0  0
  143.4016  135.7679  151.5594 H   0  0  0  0  0  0  0  0  0  0  0  0
  143.8332  134.6130  152.7971 H   0  0  0  0  0  0  0  0  0  0  0  0
  145.7417  137.1708  150.6170 H   0  0  0  0  0  0  0  0  0  0  0  0
  148.8601  138.8914  152.9427 H   0  0  0  0  0  0  0  0  0  0  0  0
  147.4152  139.7270  153.4719 H   0  0  0  0  0  0  0  0  0  0  0  0
  149.3784  141.2760  153.2633 H   0  0  0  0  0  0  0  0  0  0  0  0
  148.7315  141.2641  154.8821 H   0  0  0  0  0  0  0  0  0  0  0  0
  149.2648  140.7426  156.9456 H   0  0  0  0  0  0  0  0  0  0  0  0
  149.8753  139.3376  157.8039 H   0  0  0  0  0  0  0  0  0  0  0  0
  151.5353  141.6916  156.8150 H   0  0  0  0  0  0  0  0  0  0  0  0
  151.4274  141.0809  158.4719 H   0  0  0  0  0  0  0  0  0  0  0  0
  152.0821  137.9818  156.3882 H   0  0  0  0  0  0  0  0  0  0  0  0
  152.6292  139.1244  155.1691 H   0  0  0  0  0  0  0  0  0  0  0  0
  149.5876  137.4812  156.2887 H   0  0  0  0  0  0  0  0  0  0  0  0
  150.1753  137.5352  154.6356 H   0  0  0  0  0  0  0  0  0  0  0  0
  145.8814  135.3815  156.8009 H   0  0  0  0  0  0  0  0  0  0  0  0
  1  2  1  0  0  0  0
  1 28  1  0  0  0  0
  1 29  1  0  0  0  0
  1 30  1  0  0  0  0
  2  6  1  0  0  0  0
  2  3  1  0  0  0  0
  2 31  1  0  0  0  0
  3  4  1  0  0  0  0
  4  5  1  0  0  0  0
  4 32  1  0  0  0  0
  4 33  1  0  0  0  0
  5  6  1  0  0  0  0
  5 34  1  0  0  0  0
  5 35  1  0  0  0  0
  6  7  1  0  0  0  0
  6  8  1  0  0  0  0
  7 36  1  0  0  0  0
  8  9  1  0  0  0  0
  8 37  1  0  0  0  0
  8 38  1  0  0  0  0
  9 27  1  0  0  0  0
  9 10  1  0  0  0  0
 10 11  2  0  0  0  0
 10 39  1  0  0  0  0
 11 12  1  0  0  0  0
 12 27  2  0  0  0  0
 12 13  1  0  0  0  0
 13 14  1  0  0  0  0
 13 24  2  0  0  0  0
 14 23  1  0  0  0  0
 14 15  1  0  0  0  0
 15 16  1  0  0  0  0
 15 40  1  0  0  0  0
 15 41  1  0  0  0  0
 16 17  1  0  0  0  0
 16 42  1  0  0  0  0
 16 43  1  0  0  0  0
 17 18  1  0  0  0  0
 18 22  1  0  0  0  0
 18 19  1  0  0  0  0
 18 23  1  0  0  0  0
 19 20  1  0  0  0  0
 19 44  1  0  0  0  0
 19 45  1  0  0  0  0
 20 21  1  0  0  0  0
 20 46  1  0  0  0  0
 20 47  1  0  0  0  0
 21 22  1  0  0  0  0
 22 48  1  0  0  0  0
 22 49  1  0  0  0  0
 23 50  1  0  0  0  0
 23 51  1  0  0  0  0
 24 25  1  0  0  0  0
 25 26  2  0  0  0  0
 25 52  1  0  0  0  0
 26 27  1  0  0  0  0
M  END
> <s_m_source_file>
AV-unprocessed.smi

> <i_m_source_file_index>
264

> <i_lp_mmshare_version>
43012

> <i_f3d_flags>
0

> <s_epik_input>
W0NIMl0xW0NIMl1PW0NAQEhdKFtDSDNdKVtDQEBdMShbT0hdKVtDSDJdbihbY0hdbjIpYyhjMjMpbltjSF1uYzNOKFtDSDJdNClbQ0gyXVtDSDJdT1tDQF00NVtDSDJdW0NIMl1PW0NIMl01

> <s_epik_cmdline>
J2VwaWtfcHl0aG9uJywgJy1waCcsICc3LjAnLCAnLXRuJywgJzgnLCAnLW1hJywgJzIwMCcsICctbWV0YWxfYmluZGluZycsICctaW1hZScsICc8aW5maWxlLm1hZT4nLCAnLW9tYWUnLCAnPG91dGZpbGUubWFlPic=

> <r_lp_tautomer_probability>
1

> <r_epik_Ionization_Penalty>
0.00539389

> <r_epik_Ionization_Penalty_Charging>
0

> <r_epik_Ionization_Penalty_Neutral>
0.00539389

> <r_epik_State_Penalty>
0.00375441

> <r_epik_Charging_Adjusted_Penalty>
0.00375441

> <i_epik_Tot_Q>
0

> <i_epik_Tot_abs_Q>
0

> <r_epik_Metal_State_Penalty>
-0

> <b_epik_Metal_Only>
0

> <s_lp_Force_Field>
OPLS_2005

> <r_lp_Energy>
54.0321

> <b_lp_Chiralities_Consistent>
1

> <s_lp_Variant>
AV-unprocessed.smi:264-8

> <Gold.Version>
5.8.1

> <Gold.Id.Protein>
6NUR|6NUR_protein|mol2

> <Gold.PLP.Fitness>
45.5601

> <Gold.PLP.PLP>
-34.1004

> <Gold.PLP.part.hbond>
-3.0000

> <Gold.PLP.part.metal>
0.0000

> <Gold.PLP.part.buried>
-3.9702

> <Gold.PLP.part.nonpolar>
-28.3178

> <Gold.PLP.part.repulsive>
1.4652

> <Gold.PLP.ligand.clash>
0.0000

> <Gold.PLP.ligand.torsion>
0.2547

> <Gold.PLP.Chemscore.Hbond>
2.8960

> <Gold.PLP.Chemscore.CHOScore>
1.0000

> <Gold.PLP.Chemscore.Metal>
0.0000

> <Gold.Chemscore.Hbonds>
donor molecule, donor type, donor heavy atom, donor atom, acceptor molecule, acceptor atom, score
      L1  H     7    36       P1  7921  0.56
      P1  H  7989  7998       L1    17  1.00
      P1  H  7997  8010       L1    21  1.00
      L1  C    10    39       P1 10171  0.85

> <Gold.PLP.Chemscore.Internal.Correction>
0.2811

> <Gold.Rescore>
     Score         DG    S(hbond)    S(metal)    S(lipo)     H(rot)  DE(clash)    DE(int)     intcor
     14.83     -19.46       2.87        0.00      83.52       2.11       1.68       2.95       ----

> <Gold.Chemscore.Fitness>
14.8335

> <Gold.Chemscore.DG>
-19.4595

> <Gold.Chemscore.ZeroCoef>
-5.4800

> <Gold.Chemscore.Hbond>
2.8743

> <Gold.Chemscore.Metal>
0.0000

> <Gold.Chemscore.Lipo>
83.5172

> <Gold.Chemscore.Internal_Hbond>
0.0000

> <Gold.Chemscore.DEClash>
1.6779

> <Gold.Chemscore.DEInternal>
2.9482

> <Gold.Chemscore.Rot>
2.1063

> <Gold.Chemscore.Internal.Correction>
   9.000000E+99

> <Gold.Chemscore.Hbonds>
donor molecule, donor type, donor heavy atom, donor atom, acceptor molecule, acceptor atom, score
      L1  H     7    36       P1  7921  0.53
      P1  H  7989  7998       L1    17  0.50
      P1  H  7997  8010       L1    21  0.28

> <Gold.Chemscore.Hbond.Weighted>
-9.6002

> <Gold.Chemscore.Metal.Weighted>
-0.0000

> <Gold.Chemscore.Lipo.Weighted>
-9.7715

> <Gold.Chemscore.Internal_Hbond.Weighted>
0.0000

> <Gold.Chemscore.DEClash.Weighted>
1.6779

> <Gold.Chemscore.DEInternal.Weighted>
2.9482

> <Gold.Chemscore.Rot.Weighted>
5.3921

> <Gold.Chemscore.Internal.Correction.Weighted>
   9.000000E+99

> <Gold.Protein.RotatedTorsions>
[ 6907 6896 6895 6894 ] final  -88.59 input  -60.11 | X-H torsion
[ 7974 7965 7964 7962 ] final   74.00 input  175.53 | X-H torsion
[ 8008 7997 7996 7995 ] final   59.22 input   59.86 | X-H torsion
[ 10167 10162 10161 10158 ] final   37.91 input  -65.29 | X-H torsion
[ 10718 10713 10712 10709 ] final -118.00 input   66.30 | X-H torsion
[ 10763 10752 10751 10750 ] final  -30.81 input  -60.55 | X-H torsion
[ 11005 11000 10999 10996 ] final -111.03 input  -57.11 | X-H torsion

> <Gold.Protein.ActiveResidues>
 VAL166  LYS551  ARG553  GLY616  TRP617  ASP618  TYR619  PRO620  LYS621  CYS622 
 ASP623  PHE694  ASN695  SER759  ASP760  ASP761  ALA762  ILE779  LEU786  VAL792 
 PHE793  MET794  SER795  GLU796  ALA797  LYS798  CYS799  TRP800  GLU811  SER814 

> <Gold.Protein.RotatedAtoms>
  150.6869  134.2719  159.4591 H   0  0  0  0  0  0  0  0  0  0  0  0  # atno 6907 bound_to 6896
  152.0640  134.9573  160.0584 H   0  0  0  0  0  0  0  0  0  0  0  0  # atno 6908 bound_to 6896
  152.0989  133.4204  159.4615 H   0  0  0  0  0  0  0  0  0  0  0  0  # atno 6909 bound_to 6896
  145.7337  139.2694  143.1526 H   0  0  0  0  0  0  0  0  0  0  0  0  # atno 7974 bound_to 7965
  155.5627  140.3488  155.4495 H   0  0  0  0  0  0  0  0  0  0  0  0  # atno 8008 bound_to 7997
  156.0502  140.1316  157.0084 H   0  0  0  0  0  0  0  0  0  0  0  0  # atno 8009 bound_to 7997
  154.4431  140.1006  156.6350 H   0  0  0  0  0  0  0  0  0  0  0  0  # atno 8010 bound_to 7997
  140.3987  144.1753  150.6133 H   0  0  0  0  0  0  0  0  0  0  0  0  # atno 10167 bound_to 10162
  156.1074  130.6221  150.9235 H   0  0  0  0  0  0  0  0  0  0  0  0  # atno 10718 bound_to 10713
  153.7871  135.6900  153.4878 H   0  0  0  0  0  0  0  0  0  0  0  0  # atno 10763 bound_to 10752
  153.1774  135.4519  154.9981 H   0  0  0  0  0  0  0  0  0  0  0  0  # atno 10764 bound_to 10752
  154.8059  135.3357  154.7369 H   0  0  0  0  0  0  0  0  0  0  0  0  # atno 10765 bound_to 10752
  141.0758  133.9304  157.2393 H   0  0  0  0  0  0  0  0  0  0  0  0  # atno 11005 bound_to 11000
  146.0513  140.8066  142.9780 LP  0  0  0  0  0  0  0  0  0  0  0  0  # atno 17320 bound_to 7965
  144.6887  140.3057  143.7256 LP  0  0  0  0  0  0  0  0  0  0  0  0  # atno 17321 bound_to 7965
  140.4763  143.2395  151.9019 LP  0  0  0  0  0  0  0  0  0  0  0  0  # atno 17342 bound_to 10162
  139.4785  144.5317  151.8657 LP  0  0  0  0  0  0  0  0  0  0  0  0  # atno 17343 bound_to 10162
  157.6252  131.0926  150.8547 LP  0  0  0  0  0  0  0  0  0  0  0  0  # atno 17370 bound_to 10713
  156.8663  130.5130  149.5300 LP  0  0  0  0  0  0  0  0  0  0  0  0  # atno 17371 bound_to 10713
  139.9570  135.0163  156.9156 LP  0  0  0  0  0  0  0  0  0  0  0  0  # atno 17394 bound_to 11000
  140.5576  134.0566  155.7388 LP  0  0  0  0  0  0  0  0  0  0  0  0  # atno 17395 bound_to 11000

$$$$
