AV-unprocessed.smi:2439|AV-procd|sdf|9606|dock10
  -GOLD-   2272013243D 1   1.00000     0.00000
 Structure written by MMmdl.
 41 43  0  0  0  0  0  0  0  0  2 V2000
  151.5277  131.8421  158.0474 N   0  0  0  0  0  0  0  0  0  0  0  0
  150.9217  132.2138  157.1347 C   0  0  0  0  0  0  0  0  0  0  0  0
  150.1568  132.6823  155.9851 C   0  0  0  0  0  0  0  0  0  0  0  0
  150.0392  131.8445  154.8563 C   0  0  0  0  0  0  0  0  0  0  0  0
  149.3048  132.2925  153.7432 C   0  0  0  0  0  0  0  0  0  0  0  0
  148.7125  133.5666  153.8052 C   0  0  0  0  0  0  0  0  0  0  0  0
  148.8171  134.3779  154.8782 N   0  0  0  0  0  0  0  0  0  0  0  0
  149.5247  133.9545  155.9546 C   0  0  0  0  0  0  0  0  0  0  0  0
  149.6172  134.8225  157.0588 N   0  0  0  0  0  0  0  0  0  0  0  0
  150.5087  135.9764  157.0652 C   0  0  0  0  0  0  0  0  0  0  0  0
  150.5390  136.7053  155.7108 C   0  0  1  0  0  0  0  0  0  0  0  0
  149.2010  137.4072  155.4184 C   0  0  0  0  0  0  0  0  0  0  0  0
  149.2804  138.1768  154.1522 N   0  3  1  0  0  0  0  0  0  0  0  0
  148.0061  138.8402  153.7707 C   0  0  0  0  0  0  0  0  0  0  0  0
  147.7201  140.0886  154.6274 C   0  0  0  0  0  0  0  0  0  0  0  0
  148.9015  141.0675  154.5894 C   0  0  0  0  0  0  0  0  0  0  0  0
  150.2005  140.3559  154.9934 C   0  0  0  0  0  0  0  0  0  0  0  0
  150.4449  139.1044  154.1215 C   0  0  1  0  0  0  0  0  0  0  0  0
  151.7337  138.3530  154.5095 C   0  0  0  0  0  0  0  0  0  0  0  0
  151.5627  137.6938  155.7583 O   0  0  0  0  0  0  0  0  0  0  0  0
  150.5049  130.8694  154.8378 H   0  0  0  0  0  0  0  0  0  0  0  0
  149.1977  131.6741  152.8642 H   0  0  0  0  0  0  0  0  0  0  0  0
  148.1409  133.9456  152.9710 H   0  0  0  0  0  0  0  0  0  0  0  0
  149.1314  134.5881  157.9130 H   0  0  0  0  0  0  0  0  0  0  0  0
  150.2078  136.6611  157.8590 H   0  0  0  0  0  0  0  0  0  0  0  0
  151.5114  135.6358  157.3249 H   0  0  0  0  0  0  0  0  0  0  0  0
  150.7521  135.9928  154.9119 H   0  0  0  0  0  0  0  0  0  0  0  0
  148.4050  136.6656  155.3392 H   0  0  0  0  0  0  0  0  0  0  0  0
  148.9389  138.0633  156.2486 H   0  0  0  0  0  0  0  0  0  0  0  0
  148.0728  139.1302  152.7213 H   0  0  0  0  0  0  0  0  0  0  0  0
  147.1805  138.1311  153.8406 H   0  0  0  0  0  0  0  0  0  0  0  0
  146.8183  140.5847  154.2672 H   0  0  0  0  0  0  0  0  0  0  0  0
  147.5143  139.7989  155.6580 H   0  0  0  0  0  0  0  0  0  0  0  0
  149.0053  141.4783  153.5843 H   0  0  0  0  0  0  0  0  0  0  0  0
  148.7125  141.9119  155.2530 H   0  0  0  0  0  0  0  0  0  0  0  0
  151.0387  141.0463  154.8950 H   0  0  0  0  0  0  0  0  0  0  0  0
  150.1563  140.0825  156.0481 H   0  0  0  0  0  0  0  0  0  0  0  0
  150.5598  139.4419  153.0903 H   0  0  0  0  0  0  0  0  0  0  0  0
  151.9997  137.6241  153.7423 H   0  0  0  0  0  0  0  0  0  0  0  0
  152.5716  139.0464  154.5839 H   0  0  0  0  0  0  0  0  0  0  0  0
  149.4574  137.4868  153.4357 H   0  0  0  0  0  0  0  0  0  0  0  0
  1  2  3  0  0  0  0
  2  3  1  0  0  0  0
  3  8  1  0  0  0  0
  3  4  2  0  0  0  0
  4  5  1  0  0  0  0
  4 21  1  0  0  0  0
  5  6  2  0  0  0  0
  5 22  1  0  0  0  0
  6  7  1  0  0  0  0
  6 23  1  0  0  0  0
  7  8  2  0  0  0  0
  8  9  1  0  0  0  0
  9 10  1  0  0  0  0
  9 24  1  0  0  0  0
 10 11  1  0  0  0  0
 10 25  1  0  0  0  0
 10 26  1  0  0  0  0
 11 20  1  0  0  0  0
 11 12  1  0  0  0  0
 11 27  1  0  0  0  0
 12 13  1  0  0  0  0
 12 28  1  0  0  0  0
 12 29  1  0  0  0  0
 13 18  1  0  0  0  0
 13 14  1  0  0  0  0
 13 41  1  0  0  0  0
 14 15  1  0  0  0  0
 14 30  1  0  0  0  0
 14 31  1  0  0  0  0
 15 16  1  0  0  0  0
 15 32  1  0  0  0  0
 15 33  1  0  0  0  0
 16 17  1  0  0  0  0
 16 34  1  0  0  0  0
 16 35  1  0  0  0  0
 17 18  1  0  0  0  0
 17 36  1  0  0  0  0
 17 37  1  0  0  0  0
 18 19  1  0  0  0  0
 18 38  1  0  0  0  0
 19 20  1  0  0  0  0
 19 39  1  0  0  0  0
 19 40  1  0  0  0  0
M  CHG  1  13   1
M  END
> <s_m_source_file>
AV-unprocessed.smi

> <i_m_source_file_index>
2439

> <i_lp_mmshare_version>
43012

> <i_f3d_flags>
0

> <s_epik_input>
TiNDYzFbY0hdW2NIXVtjSF1uYzFbTkhdW0NIMl1bQ0BIXShbQ0gyXTIpT1tDSDJdW0NAQEhdKE4yMylbQ0gyXVtDSDJdW0NIMl1bQ0gyXTM=

> <s_epik_cmdline>
J2VwaWtfcHl0aG9uJywgJy1waCcsICc3LjAnLCAnLXRuJywgJzgnLCAnLW1hJywgJzIwMCcsICctbWV0YWxfYmluZGluZycsICctaW1hZScsICc8aW5maWxlLm1hZT4nLCAnLW9tYWUnLCAnPG91dGZpbGUubWFlPic=

> <r_epik_Ionization_Penalty>
0.0803594

> <r_epik_Ionization_Penalty_Charging>
0.0803403

> <r_epik_Ionization_Penalty_Neutral>
1.90988e-05

> <r_epik_State_Penalty>
0.0711481

> <r_epik_Charging_Adjusted_Penalty>
0.151488

> <i_epik_Tot_Q>
1

> <i_epik_Tot_abs_Q>
1

> <r_epik_Metal_State_Penalty>
0.0711482

> <b_epik_Metal_Only>
0

> <s_lp_Force_Field>
OPLS_2005

> <r_lp_Energy>
29.8986

> <b_lp_Chiralities_Consistent>
1

> <s_lp_Variant>
AV-unprocessed.smi:2439-4

> <Gold.Version>
5.8.1

> <Gold.Id.Protein>
6NUR|6NUR_protein|mol2

> <Gold.PLP.Fitness>
38.9092

> <Gold.PLP.PLP>
-29.5450

> <Gold.PLP.part.hbond>
-2.0000

> <Gold.PLP.part.metal>
0.0000

> <Gold.PLP.part.buried>
-0.8007

> <Gold.PLP.part.nonpolar>
-25.6078

> <Gold.PLP.part.repulsive>
0.2380

> <Gold.PLP.ligand.clash>
0.0000

> <Gold.PLP.ligand.torsion>
0.8879

> <Gold.PLP.Chemscore.Hbond>
3.0000

> <Gold.PLP.Chemscore.CHOScore>
0.7124

> <Gold.PLP.Chemscore.Metal>
0.0000

> <Gold.Chemscore.Hbonds>
donor molecule, donor type, donor heavy atom, donor atom, acceptor molecule, acceptor atom, score
      L1  H    13    41       P1  7948  1.92
      P1  H  6896  6909       L1     1  1.00
      L1  C     6    23       P1  7948  0.56

> <Gold.PLP.Chemscore.Internal.Correction>
0.0028

> <Gold.Rescore>
     Score         DG    S(hbond)    S(metal)    S(lipo)     H(rot)  DE(clash)    DE(int)     intcor
     16.28     -17.28       1.95        0.00      72.81       1.27       0.10       0.89       ----

> <Gold.Chemscore.Fitness>
16.2812

> <Gold.Chemscore.DG>
-17.2783

> <Gold.Chemscore.ZeroCoef>
-5.4800

> <Gold.Chemscore.Hbond>
1.9522

> <Gold.Chemscore.Metal>
0.0000

> <Gold.Chemscore.Lipo>
72.8088

> <Gold.Chemscore.Internal_Hbond>
0.0000

> <Gold.Chemscore.DEClash>
0.1042

> <Gold.Chemscore.DEInternal>
0.8929

> <Gold.Chemscore.Rot>
1.2659

> <Gold.Chemscore.Internal.Correction>
   9.000000E+99

> <Gold.Chemscore.Hbonds>
donor molecule, donor type, donor heavy atom, donor atom, acceptor molecule, acceptor atom, score
      L1  H    13    41       P1  7948  0.85
      P1  H  6896  6909       L1     1  0.55

> <Gold.Chemscore.Hbond.Weighted>
-6.5204

> <Gold.Chemscore.Metal.Weighted>
-0.0000

> <Gold.Chemscore.Lipo.Weighted>
-8.5186

> <Gold.Chemscore.Internal_Hbond.Weighted>
0.0000

> <Gold.Chemscore.DEClash.Weighted>
0.1042

> <Gold.Chemscore.DEInternal.Weighted>
0.8929

> <Gold.Chemscore.Rot.Weighted>
3.2408

> <Gold.Chemscore.Internal.Correction.Weighted>
   9.000000E+99

> <Gold.Protein.RotatedTorsions>
[ 6907 6896 6895 6894 ] final  -54.24 input  -60.11 | X-H torsion
[ 7974 7965 7964 7962 ] final -145.47 input  175.53 | X-H torsion
[ 8008 7997 7996 7995 ] final  147.71 input   59.86 | X-H torsion
[ 10167 10162 10161 10158 ] final   31.68 input  -65.29 | X-H torsion
[ 10718 10713 10712 10709 ] final    9.37 input   66.30 | X-H torsion
[ 10763 10752 10751 10750 ] final  -67.35 input  -60.55 | X-H torsion
[ 11005 11000 10999 10996 ] final    9.45 input  -57.11 | X-H torsion

> <Gold.Protein.ActiveResidues>
 VAL166  LYS551  ARG553  GLY616  TRP617  ASP618  TYR619  PRO620  LYS621  CYS622 
 ASP623  PHE694  ASN695  SER759  ASP760  ASP761  ALA762  ILE779  LEU786  VAL792 
 PHE793  MET794  SER795  GLU796  ALA797  LYS798  CYS799  TRP800  GLU811  SER814 

> <Gold.Protein.RotatedAtoms>
  150.8355  134.7627  159.6889 H   0  0  0  0  0  0  0  0  0  0  0  0  # atno 6907 bound_to 6896
  152.4453  134.5504  159.9875 H   0  0  0  0  0  0  0  0  0  0  0  0  # atno 6908 bound_to 6896
  151.5656  133.3359  159.3015 H   0  0  0  0  0  0  0  0  0  0  0  0  # atno 6909 bound_to 6896
  144.8225  140.5579  143.5569 H   0  0  0  0  0  0  0  0  0  0  0  0  # atno 7974 bound_to 7965
  156.2816  140.2148  156.5581 H   0  0  0  0  0  0  0  0  0  0  0  0  # atno 8008 bound_to 7997
  154.7235  140.0501  157.0684 H   0  0  0  0  0  0  0  0  0  0  0  0  # atno 8009 bound_to 7997
  155.0447  140.3149  155.4715 H   0  0  0  0  0  0  0  0  0  0  0  0  # atno 8010 bound_to 7997
  140.4566  144.0968  150.6203 H   0  0  0  0  0  0  0  0  0  0  0  0  # atno 10167 bound_to 10162
  156.9653  130.5948  149.5665 H   0  0  0  0  0  0  0  0  0  0  0  0  # atno 10718 bound_to 10713
  154.3732  135.6090  153.5751 H   0  0  0  0  0  0  0  0  0  0  0  0  # atno 10763 bound_to 10752
  152.9789  135.5843  154.4498 H   0  0  0  0  0  0  0  0  0  0  0  0  # atno 10764 bound_to 10752
  154.4255  135.2846  155.1925 H   0  0  0  0  0  0  0  0  0  0  0  0  # atno 10765 bound_to 10752
  140.5256  134.0516  155.7858 H   0  0  0  0  0  0  0  0  0  0  0  0  # atno 11005 bound_to 11000
  145.5073  139.1480  143.3624 LP  0  0  0  0  0  0  0  0  0  0  0  0  # atno 17320 bound_to 7965
  146.2530  140.5213  142.8885 LP  0  0  0  0  0  0  0  0  0  0  0  0  # atno 17321 bound_to 7965
  140.4143  143.2642  151.9794 LP  0  0  0  0  0  0  0  0  0  0  0  0  # atno 17342 bound_to 10162
  139.4802  144.5887  151.7808 LP  0  0  0  0  0  0  0  0  0  0  0  0  # atno 17343 bound_to 10162
  156.0305  130.5397  150.8522 LP  0  0  0  0  0  0  0  0  0  0  0  0  # atno 17370 bound_to 10713
  157.5630  131.0946  150.9531 LP  0  0  0  0  0  0  0  0  0  0  0  0  # atno 17371 bound_to 10713
  141.1310  133.9302  157.2536 LP  0  0  0  0  0  0  0  0  0  0  0  0  # atno 17394 bound_to 11000
  139.9582  135.0160  156.9186 LP  0  0  0  0  0  0  0  0  0  0  0  0  # atno 17395 bound_to 11000

$$$$
