AV-unprocessed.smi:1703|AV-procd|sdf|6866|dock2
  -GOLD-   22720 8 63D 1   1.00000     0.00000
 Structure written by MMmdl.
 49 51  0  0  0  0  0  0  0  0  2 V2000
  148.4724  133.3979  153.5946 C   0  0  0  0  0  0  0  0  0  0  0  0
  148.0370  133.7086  155.0379 C   0  0  1  0  0  0  0  0  0  0  0  0
  148.7113  134.9639  155.6249 C   0  0  0  0  0  0  0  0  0  0  0  0
  148.1477  136.1976  155.0240 N   0  3  2  0  0  0  0  0  0  0  0  0
  148.8071  137.4441  155.4891 C   0  0  0  0  0  0  0  0  0  0  0  0
  148.3553  138.6803  154.6876 C   0  0  1  0  0  0  0  0  0  0  0  0
  147.5314  139.4812  155.5138 O   0  0  0  0  0  0  0  0  0  0  0  0
  149.5557  139.5108  154.1912 C   0  0  0  0  0  0  0  0  0  0  0  0
  150.5830  139.6789  155.2109 N   0  0  0  0  0  0  0  0  0  0  0  0
  151.8054  139.0927  155.2738 C   0  0  0  0  0  0  0  0  0  0  0  0
  152.2822  138.1210  154.2379 C   0  0  0  0  0  0  0  0  0  0  0  0
  151.4851  136.9578  154.1739 O   0  0  0  0  0  0  0  0  0  0  0  0
  152.5584  139.4317  156.3205 N   0  0  0  0  0  0  0  0  0  0  0  0
  151.7477  140.3162  157.0049 C   0  0  0  0  0  0  0  0  0  0  0  0
  151.9734  141.0297  158.2038 C   0  0  0  0  0  0  0  0  0  0  0  0
  150.9820  141.8896  158.7204 C   0  0  0  0  0  0  0  0  0  0  0  0
  149.7532  142.0475  158.0476 C   0  0  0  0  0  0  0  0  0  0  0  0
  149.5077  141.3461  156.8517 C   0  0  0  0  0  0  0  0  0  0  0  0
  150.5014  140.4901  156.3390 C   0  0  0  0  0  0  0  0  0  0  0  0
  146.6780  136.2275  155.2003 C   0  0  0  0  0  0  0  0  0  0  0  0
  146.0390  134.9696  154.5842 C   0  0  2  0  0  0  0  0  0  0  0  0
  144.5264  134.9178  154.8261 C   0  0  0  0  0  0  0  0  0  0  0  0
  146.6185  133.8058  155.1692 O   0  0  0  0  0  0  0  0  0  0  0  0
  149.5441  133.2026  153.5486 H   0  0  0  0  0  0  0  0  0  0  0  0
  148.2656  134.2213  152.9115 H   0  0  0  0  0  0  0  0  0  0  0  0
  147.9609  132.5125  153.2165 H   0  0  0  0  0  0  0  0  0  0  0  0
  148.3379  132.8556  155.6471 H   0  0  0  0  0  0  0  0  0  0  0  0
  148.5547  134.9908  156.7047 H   0  0  0  0  0  0  0  0  0  0  0  0
  149.7877  134.9080  155.4669 H   0  0  0  0  0  0  0  0  0  0  0  0
  148.5782  137.6118  156.5430 H   0  0  0  0  0  0  0  0  0  0  0  0
  149.8898  137.3218  155.4295 H   0  0  0  0  0  0  0  0  0  0  0  0
  147.7641  138.3736  153.8260 H   0  0  0  0  0  0  0  0  0  0  0  0
  148.0474  139.8010  156.2383 H   0  0  0  0  0  0  0  0  0  0  0  0
  150.0085  139.0399  153.3175 H   0  0  0  0  0  0  0  0  0  0  0  0
  149.2231  140.4947  153.8603 H   0  0  0  0  0  0  0  0  0  0  0  0
  152.3027  138.6005  153.2597 H   0  0  0  0  0  0  0  0  0  0  0  0
  153.3079  137.8275  154.4643 H   0  0  0  0  0  0  0  0  0  0  0  0
  151.0770  136.9191  153.3226 H   0  0  0  0  0  0  0  0  0  0  0  0
  152.9110  140.9153  158.7272 H   0  0  0  0  0  0  0  0  0  0  0  0
  151.1653  142.4304  159.6373 H   0  0  0  0  0  0  0  0  0  0  0  0
  148.9993  142.7081  158.4501 H   0  0  0  0  0  0  0  0  0  0  0  0
  148.5675  141.4670  156.3350 H   0  0  0  0  0  0  0  0  0  0  0  0
  146.4399  136.2969  156.2632 H   0  0  0  0  0  0  0  0  0  0  0  0
  146.2663  137.1162  154.7203 H   0  0  0  0  0  0  0  0  0  0  0  0
  146.2084  134.9628  153.5074 H   0  0  0  0  0  0  0  0  0  0  0  0
  144.0287  135.7826  154.3870 H   0  0  0  0  0  0  0  0  0  0  0  0
  144.2960  134.9044  155.8917 H   0  0  0  0  0  0  0  0  0  0  0  0
  144.0911  134.0232  154.3800 H   0  0  0  0  0  0  0  0  0  0  0  0
  148.3128  136.1461  154.0284 H   0  0  0  0  0  0  0  0  0  0  0  0
  1  2  1  0  0  0  0
  1 24  1  0  0  0  0
  1 25  1  0  0  0  0
  1 26  1  0  0  0  0
  2 23  1  0  0  0  0
  2  3  1  0  0  0  0
  2 27  1  0  0  0  0
  3  4  1  0  0  0  0
  3 28  1  0  0  0  0
  3 29  1  0  0  0  0
  4  5  1  0  0  0  0
  4 20  1  0  0  0  0
  4 49  1  0  0  0  0
  5  6  1  0  0  0  0
  5 30  1  0  0  0  0
  5 31  1  0  0  0  0
  6  7  1  0  0  0  0
  6  8  1  0  0  0  0
  6 32  1  0  0  0  0
  7 33  1  0  0  0  0
  8  9  1  0  0  0  0
  8 34  1  0  0  0  0
  8 35  1  0  0  0  0
  9 19  1  0  0  0  0
  9 10  1  0  0  0  0
 10 11  1  0  0  0  0
 10 13  2  0  0  0  0
 11 12  1  0  0  0  0
 11 36  1  0  0  0  0
 11 37  1  0  0  0  0
 12 38  1  0  0  0  0
 13 14  1  0  0  0  0
 14 19  2  0  0  0  0
 14 15  1  0  0  0  0
 15 16  2  0  0  0  0
 15 39  1  0  0  0  0
 16 17  1  0  0  0  0
 16 40  1  0  0  0  0
 17 18  2  0  0  0  0
 17 41  1  0  0  0  0
 18 19  1  0  0  0  0
 18 42  1  0  0  0  0
 20 21  1  0  0  0  0
 20 43  1  0  0  0  0
 20 44  1  0  0  0  0
 21 22  1  0  0  0  0
 21 23  1  0  0  0  0
 21 45  1  0  0  0  0
 22 46  1  0  0  0  0
 22 47  1  0  0  0  0
 22 48  1  0  0  0  0
M  CHG  1   4   1
M  END
> <s_m_source_file>
AV-unprocessed.smi

> <i_m_source_file_index>
1703

> <i_lp_mmshare_version>
43012

> <i_f3d_flags>
0

> <s_epik_input>
W0NIM11bQ0BASF0xW0NIMl1OKFtDSDJdW0NASF0oTzEpW0NIM10pW0NIMl1bQ0BIXShbT0hdKVtDSDJdbihjKG4yKVtDSDJdW09IXSljKGMyMylbY0hdW2NIXVtjSF1bY0hdMw==

> <s_epik_cmdline>
J2VwaWtfcHl0aG9uJywgJy1waCcsICc3LjAnLCAnLXRuJywgJzgnLCAnLW1hJywgJzIwMCcsICctbWV0YWxfYmluZGluZycsICctaW1hZScsICc8aW5maWxlLm1hZT4nLCAnLW9tYWUnLCAnPG91dGZpbGUubWFlPic=

> <r_epik_Ionization_Penalty>
0.655661

> <r_epik_Ionization_Penalty_Charging>
0.608065

> <r_epik_Ionization_Penalty_Neutral>
0.0475963

> <r_epik_State_Penalty>
0.695267

> <r_epik_Charging_Adjusted_Penalty>
1.30333

> <i_epik_Tot_Q>
1

> <i_epik_Tot_abs_Q>
1

> <r_epik_Metal_State_Penalty>
0.653591

> <b_epik_Metal_Only>
0

> <s_lp_Force_Field>
OPLS_2005

> <r_lp_Energy>
24.2834

> <b_lp_Chiralities_Consistent>
1

> <s_lp_Variant>
AV-unprocessed.smi:1703-14

> <Gold.Version>
5.8.1

> <Gold.Id.Protein>
6NUR|6NUR_protein|mol2

> <Gold.PLP.Fitness>
46.3912

> <Gold.PLP.PLP>
-33.2703

> <Gold.PLP.part.hbond>
-4.0000

> <Gold.PLP.part.metal>
0.0000

> <Gold.PLP.part.buried>
-1.6978

> <Gold.PLP.part.nonpolar>
-27.0623

> <Gold.PLP.part.repulsive>
0.0360

> <Gold.PLP.ligand.clash>
0.0000

> <Gold.PLP.ligand.torsion>
0.9989

> <Gold.PLP.Chemscore.Hbond>
5.0000

> <Gold.PLP.Chemscore.CHOScore>
0.0000

> <Gold.PLP.Chemscore.Metal>
0.0000

> <Gold.Chemscore.Hbonds>
donor molecule, donor type, donor heavy atom, donor atom, acceptor molecule, acceptor atom, score
      L1  H     4    49       P1  7948  0.88
      L1  H    12    38       P1  7949  0.81
      P1  H  7997  8009       L1    13  1.00
      P1  H 10752 10764       L1    12  0.85

> <Gold.PLP.Chemscore.Internal.Correction>
0.1188

> <Gold.Rescore>
     Score         DG    S(hbond)    S(metal)    S(lipo)     H(rot)  DE(clash)    DE(int)     intcor
     14.98     -18.89       3.54        0.00      78.23       2.96       1.96       1.94       ----

> <Gold.Chemscore.Fitness>
14.9844

> <Gold.Chemscore.DG>
-18.8871

> <Gold.Chemscore.ZeroCoef>
-5.4800

> <Gold.Chemscore.Hbond>
3.5434

> <Gold.Chemscore.Metal>
0.0000

> <Gold.Chemscore.Lipo>
78.2256

> <Gold.Chemscore.Internal_Hbond>
0.0000

> <Gold.Chemscore.DEClash>
1.9628

> <Gold.Chemscore.DEInternal>
1.9399

> <Gold.Chemscore.Rot>
2.9611

> <Gold.Chemscore.Internal.Correction>
   9.000000E+99

> <Gold.Chemscore.Hbonds>
donor molecule, donor type, donor heavy atom, donor atom, acceptor molecule, acceptor atom, score
      L1  H     4    49       P1  7948  0.44
      L1  H    12    38       P1  7949  0.30
      P1  H  7997  8009       L1    13  0.70
      P1  H 10752 10764       L1    12  0.11

> <Gold.Chemscore.Hbond.Weighted>
-11.8351

> <Gold.Chemscore.Metal.Weighted>
-0.0000

> <Gold.Chemscore.Lipo.Weighted>
-9.1524

> <Gold.Chemscore.Internal_Hbond.Weighted>
0.0000

> <Gold.Chemscore.DEClash.Weighted>
1.9628

> <Gold.Chemscore.DEInternal.Weighted>
1.9399

> <Gold.Chemscore.Rot.Weighted>
7.5803

> <Gold.Chemscore.Internal.Correction.Weighted>
   9.000000E+99

> <Gold.Protein.RotatedTorsions>
[ 6907 6896 6895 6894 ] final -121.47 input  -60.11 | X-H torsion
[ 7974 7965 7964 7962 ] final  171.38 input  175.53 | X-H torsion
[ 8008 7997 7996 7995 ] final -158.22 input   59.86 | X-H torsion
[ 10167 10162 10161 10158 ] final  132.29 input  -65.29 | X-H torsion
[ 10718 10713 10712 10709 ] final  -64.17 input   66.30 | X-H torsion
[ 10763 10752 10751 10750 ] final  -74.08 input  -60.55 | X-H torsion
[ 11005 11000 10999 10996 ] final  134.86 input  -57.11 | X-H torsion

> <Gold.Protein.ActiveResidues>
 VAL166  LYS551  ARG553  GLY616  TRP617  ASP618  TYR619  PRO620  LYS621  CYS622 
 ASP623  PHE694  ASN695  SER759  ASP760  ASP761  ALA762  ILE779  LEU786  VAL792 
 PHE793  MET794  SER795  GLU796  ALA797  LYS798  CYS799  TRP800  GLU811  SER814 

> <Gold.Protein.RotatedAtoms>
  150.8486  133.7822  159.3033 H   0  0  0  0  0  0  0  0  0  0  0  0  # atno 6907 bound_to 6896
  151.5501  135.1066  159.9957 H   0  0  0  0  0  0  0  0  0  0  0  0  # atno 6908 bound_to 6896
  152.4534  133.7631  159.6814 H   0  0  0  0  0  0  0  0  0  0  0  0  # atno 6909 bound_to 6896
  144.7296  139.9341  143.6426 H   0  0  0  0  0  0  0  0  0  0  0  0  # atno 7974 bound_to 7965
  155.7442  140.0818  157.2231 H   0  0  0  0  0  0  0  0  0  0  0  0  # atno 8008 bound_to 7997
  154.4018  140.1572  156.2706 H   0  0  0  0  0  0  0  0  0  0  0  0  # atno 8009 bound_to 7997
  155.8991  140.3411  155.6016 H   0  0  0  0  0  0  0  0  0  0  0  0  # atno 8010 bound_to 7997
  139.5346  144.6668  151.4830 H   0  0  0  0  0  0  0  0  0  0  0  0  # atno 10167 bound_to 10162
  156.0745  130.4230  150.1382 H   0  0  0  0  0  0  0  0  0  0  0  0  # atno 10718 bound_to 10713
  154.4682  135.5876  153.6303 H   0  0  0  0  0  0  0  0  0  0  0  0  # atno 10763 bound_to 10752
  152.9831  135.6060  154.3400 H   0  0  0  0  0  0  0  0  0  0  0  0  # atno 10764 bound_to 10752
  154.3279  135.2843  155.2466 H   0  0  0  0  0  0  0  0  0  0  0  0  # atno 10765 bound_to 10752
  139.9942  134.9503  156.9926 H   0  0  0  0  0  0  0  0  0  0  0  0  # atno 11005 bound_to 11000
  146.0835  139.3823  143.0450 LP  0  0  0  0  0  0  0  0  0  0  0  0  # atno 17320 bound_to 7965
  145.7809  140.9856  143.1100 LP  0  0  0  0  0  0  0  0  0  0  0  0  # atno 17321 bound_to 7965
  140.6545  143.8628  150.6820 LP  0  0  0  0  0  0  0  0  0  0  0  0  # atno 17342 bound_to 10162
  140.2003  143.3965  152.1797 LP  0  0  0  0  0  0  0  0  0  0  0  0  # atno 17343 bound_to 10162
  156.9426  130.9749  151.3513 LP  0  0  0  0  0  0  0  0  0  0  0  0  # atno 17370 bound_to 10713
  157.5834  130.8392  149.8555 LP  0  0  0  0  0  0  0  0  0  0  0  0  # atno 17371 bound_to 10713
  140.4850  134.1251  155.7223 LP  0  0  0  0  0  0  0  0  0  0  0  0  # atno 17394 bound_to 11000
  141.1591  133.8827  157.1897 LP  0  0  0  0  0  0  0  0  0  0  0  0  # atno 17395 bound_to 11000

$$$$
