AV-unprocessed.smi:1703|AV-procd|sdf|6870|dock1
  -GOLD-   22720 8 63D 1   1.00000     0.00000
 Structure written by MMmdl.
 49 51  0  0  0  0  0  0  0  0  2 V2000
  145.1300  138.5067  158.9902 C   0  0  0  0  0  0  0  0  0  0  0  0
  146.2189  137.4389  159.1366 C   0  0  1  0  0  0  0  0  0  0  0  0
  147.4599  137.7515  158.2786 C   0  0  0  0  0  0  0  0  0  0  0  0
  148.5280  136.7768  158.4836 N   0  0  0  0  0  0  0  0  0  0  0  0
  149.7237  137.0740  157.6952 C   0  0  0  0  0  0  0  0  0  0  0  0
  150.4960  138.3448  158.1189 C   0  0  1  0  0  0  0  0  0  0  0  0
  151.4702  137.9932  159.0792 O   0  0  0  0  0  0  0  0  0  0  0  0
  151.2469  139.0360  156.9607 C   0  0  0  0  0  0  0  0  0  0  0  0
  150.8859  140.4530  156.7950 N   0  0  0  0  0  0  0  0  0  0  0  0
  150.0429  141.0617  155.9095 C   0  0  0  0  0  0  0  0  0  0  0  0
  149.2349  140.4070  154.8341 C   0  0  0  0  0  0  0  0  0  0  0  0
  149.6546  140.7700  153.5360 O   0  0  0  0  0  0  0  0  0  0  0  0
  150.0728  142.3978  156.1813 N   0  3  0  0  0  0  0  0  0  0  0  0
  150.9443  142.6478  157.2412 C   0  0  0  0  0  0  0  0  0  0  0  0
  151.3031  143.8387  157.8654 C   0  0  0  0  0  0  0  0  0  0  0  0
  152.2302  143.7433  158.9240 C   0  0  0  0  0  0  0  0  0  0  0  0
  152.7630  142.5003  159.3238 C   0  0  0  0  0  0  0  0  0  0  0  0
  152.3915  141.3001  158.6829 C   0  0  0  0  0  0  0  0  0  0  0  0
  151.4729  141.4031  157.6385 C   0  0  0  0  0  0  0  0  0  0  0  0
  148.8460  136.7175  159.9064 C   0  0  0  0  0  0  0  0  0  0  0  0
  147.6076  136.4008  160.7664 C   0  0  1  0  0  0  0  0  0  0  0  0
  147.9234  136.4203  162.2658 C   0  0  0  0  0  0  0  0  0  0  0  0
  146.6022  137.3762  160.5073 O   0  0  0  0  0  0  0  0  0  0  0  0
  144.7919  138.5832  157.9565 H   0  0  0  0  0  0  0  0  0  0  0  0
  145.4949  139.4873  159.2973 H   0  0  0  0  0  0  0  0  0  0  0  0
  144.2635  138.2658  159.6063 H   0  0  0  0  0  0  0  0  0  0  0  0
  145.8045  136.4734  158.8412 H   0  0  0  0  0  0  0  0  0  0  0  0
  147.1623  137.7661  157.2304 H   0  0  0  0  0  0  0  0  0  0  0  0
  147.8241  138.7525  158.5157 H   0  0  0  0  0  0  0  0  0  0  0  0
  150.3921  136.2115  157.6721 H   0  0  0  0  0  0  0  0  0  0  0  0
  149.3974  137.2069  156.6652 H   0  0  0  0  0  0  0  0  0  0  0  0
  149.8094  139.0593  158.5741 H   0  0  0  0  0  0  0  0  0  0  0  0
  152.2254  138.5481  158.9573 H   0  0  0  0  0  0  0  0  0  0  0  0
  152.3261  138.9807  157.1113 H   0  0  0  0  0  0  0  0  0  0  0  0
  151.0473  138.5250  156.0185 H   0  0  0  0  0  0  0  0  0  0  0  0
  149.3084  139.3249  154.9434 H   0  0  0  0  0  0  0  0  0  0  0  0
  148.1841  140.6729  154.9428 H   0  0  0  0  0  0  0  0  0  0  0  0
  149.4662  140.0540  152.9483 H   0  0  0  0  0  0  0  0  0  0  0  0
  150.8976  144.7923  157.5596 H   0  0  0  0  0  0  0  0  0  0  0  0
  152.5396  144.6414  159.4389 H   0  0  0  0  0  0  0  0  0  0  0  0
  153.4718  142.4662  160.1386 H   0  0  0  0  0  0  0  0  0  0  0  0
  152.8062  140.3532  158.9962 H   0  0  0  0  0  0  0  0  0  0  0  0
  149.6087  135.9580  160.0821 H   0  0  0  0  0  0  0  0  0  0  0  0
  149.2755  137.6684  160.2267 H   0  0  0  0  0  0  0  0  0  0  0  0
  147.2205  135.4149  160.5025 H   0  0  0  0  0  0  0  0  0  0  0  0
  148.6840  135.6804  162.5161 H   0  0  0  0  0  0  0  0  0  0  0  0
  147.0339  136.1944  162.8546 H   0  0  0  0  0  0  0  0  0  0  0  0
  148.2905  137.3981  162.5791 H   0  0  0  0  0  0  0  0  0  0  0  0
  149.5301  143.0848  155.6737 H   0  0  0  0  0  0  0  0  0  0  0  0
  1  2  1  0  0  0  0
  1 24  1  0  0  0  0
  1 25  1  0  0  0  0
  1 26  1  0  0  0  0
  2 23  1  0  0  0  0
  2  3  1  0  0  0  0
  2 27  1  0  0  0  0
  3  4  1  0  0  0  0
  3 28  1  0  0  0  0
  3 29  1  0  0  0  0
  4  5  1  0  0  0  0
  4 20  1  0  0  0  0
  5  6  1  0  0  0  0
  5 30  1  0  0  0  0
  5 31  1  0  0  0  0
  6  7  1  0  0  0  0
  6  8  1  0  0  0  0
  6 32  1  0  0  0  0
  7 33  1  0  0  0  0
  8  9  1  0  0  0  0
  8 34  1  0  0  0  0
  8 35  1  0  0  0  0
  9 19  1  0  0  0  0
  9 10  1  0  0  0  0
 10 11  1  0  0  0  0
 10 13  2  0  0  0  0
 11 12  1  0  0  0  0
 11 36  1  0  0  0  0
 11 37  1  0  0  0  0
 12 38  1  0  0  0  0
 13 14  1  0  0  0  0
 13 49  1  0  0  0  0
 14 19  2  0  0  0  0
 14 15  1  0  0  0  0
 15 16  2  0  0  0  0
 15 39  1  0  0  0  0
 16 17  1  0  0  0  0
 16 40  1  0  0  0  0
 17 18  2  0  0  0  0
 17 41  1  0  0  0  0
 18 19  1  0  0  0  0
 18 42  1  0  0  0  0
 20 21  1  0  0  0  0
 20 43  1  0  0  0  0
 20 44  1  0  0  0  0
 21 22  1  0  0  0  0
 21 23  1  0  0  0  0
 21 45  1  0  0  0  0
 22 46  1  0  0  0  0
 22 47  1  0  0  0  0
 22 48  1  0  0  0  0
M  CHG  1  13   1
M  END
> <s_m_source_file>
AV-unprocessed.smi

> <i_m_source_file_index>
1703

> <i_lp_mmshare_version>
43012

> <i_f3d_flags>
0

> <s_epik_input>
W0NIM11bQ0BASF0xW0NIMl1OKFtDSDJdW0NASF0oTzEpW0NIM10pW0NIMl1bQ0BIXShbT0hdKVtDSDJdbihjKG4yKVtDSDJdW09IXSljKGMyMylbY0hdW2NIXVtjSF1bY0hdMw==

> <s_epik_cmdline>
J2VwaWtfcHl0aG9uJywgJy1waCcsICc3LjAnLCAnLXRuJywgJzgnLCAnLW1hJywgJzIwMCcsICctbWV0YWxfYmluZGluZycsICctaW1hZScsICc8aW5maWxlLm1hZT4nLCAnLW9tYWUnLCAnPG91dGZpbGUubWFlPic=

> <r_epik_Ionization_Penalty>
1.7682

> <r_epik_Ionization_Penalty_Charging>
1.55298

> <r_epik_Ionization_Penalty_Neutral>
0.215215

> <r_epik_State_Penalty>
1.83821

> <r_epik_Charging_Adjusted_Penalty>
3.39119

> <i_epik_Tot_Q>
1

> <i_epik_Tot_abs_Q>
1

> <r_epik_Metal_State_Penalty>
5.89206

> <b_epik_Metal_Only>
0

> <s_lp_Force_Field>
OPLS_2005

> <r_lp_Energy>
33.2802

> <b_lp_Chiralities_Consistent>
1

> <s_lp_Variant>
AV-unprocessed.smi:1703-18

> <Gold.Version>
5.8.1

> <Gold.Id.Protein>
6NUR|6NUR_protein|mol2

> <Gold.PLP.Fitness>
54.1929

> <Gold.PLP.PLP>
-41.8683

> <Gold.PLP.part.hbond>
-4.8522

> <Gold.PLP.part.metal>
0.0000

> <Gold.PLP.part.buried>
-5.2513

> <Gold.PLP.part.nonpolar>
-32.1965

> <Gold.PLP.part.repulsive>
0.0911

> <Gold.PLP.ligand.clash>
0.0000

> <Gold.PLP.ligand.torsion>
1.4580

> <Gold.PLP.Chemscore.Hbond>
5.0152

> <Gold.PLP.Chemscore.CHOScore>
0.0000

> <Gold.PLP.Chemscore.Metal>
0.0000

> <Gold.Chemscore.Hbonds>
donor molecule, donor type, donor heavy atom, donor atom, acceptor molecule, acceptor atom, score
      L1  H    12    38       P1  7957  0.54
      L1  H    13    49       P1  8028  1.86
      P1  H  6934  6947       L1    23  1.00
      P1  H  7989  7998       L1    12  0.37
      P1  H  8011  8017       L1    12  0.98

> <Gold.PLP.Chemscore.Internal.Correction>
0.1949

> <Gold.Rescore>
     Score         DG    S(hbond)    S(metal)    S(lipo)     H(rot)  DE(clash)    DE(int)     intcor
     17.58     -19.20       2.91        0.00      98.84       2.96       0.01       1.61       ----

> <Gold.Chemscore.Fitness>
17.5755

> <Gold.Chemscore.DG>
-19.1999

> <Gold.Chemscore.ZeroCoef>
-5.4800

> <Gold.Chemscore.Hbond>
2.9107

> <Gold.Chemscore.Metal>
0.0000

> <Gold.Chemscore.Lipo>
98.8397

> <Gold.Chemscore.Internal_Hbond>
0.0000

> <Gold.Chemscore.DEClash>
0.0115

> <Gold.Chemscore.DEInternal>
1.6129

> <Gold.Chemscore.Rot>
2.9555

> <Gold.Chemscore.Internal.Correction>
   9.000000E+99

> <Gold.Chemscore.Hbonds>
donor molecule, donor type, donor heavy atom, donor atom, acceptor molecule, acceptor atom, score
      L1  H    12    38       P1  7957  0.54
      L1  H    13    49       P1  8028  0.91
      P1  H  6934  6947       L1    23  0.41
      P1  H  7989  7998       L1    12  0.12
      P1  H  8011  8017       L1    12  0.46

> <Gold.Chemscore.Hbond.Weighted>
-9.7217

> <Gold.Chemscore.Metal.Weighted>
-0.0000

> <Gold.Chemscore.Lipo.Weighted>
-11.5642

> <Gold.Chemscore.Internal_Hbond.Weighted>
0.0000

> <Gold.Chemscore.DEClash.Weighted>
0.0115

> <Gold.Chemscore.DEInternal.Weighted>
1.6129

> <Gold.Chemscore.Rot.Weighted>
7.5660

> <Gold.Chemscore.Internal.Correction.Weighted>
   9.000000E+99

> <Gold.Protein.RotatedTorsions>
[ 6907 6896 6895 6894 ] final  125.32 input  -60.11 | X-H torsion
[ 7974 7965 7964 7962 ] final  -96.34 input  175.53 | X-H torsion
[ 8008 7997 7996 7995 ] final  -82.88 input   59.86 | X-H torsion
[ 10167 10162 10161 10158 ] final -110.34 input  -65.29 | X-H torsion
[ 10718 10713 10712 10709 ] final -176.37 input   66.30 | X-H torsion
[ 10763 10752 10751 10750 ] final  -34.10 input  -60.55 | X-H torsion
[ 11005 11000 10999 10996 ] final  128.21 input  -57.11 | X-H torsion

> <Gold.Protein.ActiveResidues>
 VAL166  LYS551  ARG553  GLY616  TRP617  ASP618  TYR619  PRO620  LYS621  CYS622 
 ASP623  PHE694  ASN695  SER759  ASP760  ASP761  ALA762  ILE779  LEU786  VAL792 
 PHE793  MET794  SER795  GLU796  ALA797  LYS798  CYS799  TRP800  GLU811  SER814 

> <Gold.Protein.RotatedAtoms>
  152.4002  133.6807  159.6309 H   0  0  0  0  0  0  0  0  0  0  0  0  # atno 6907 bound_to 6896
  150.7895  133.8804  159.3293 H   0  0  0  0  0  0  0  0  0  0  0  0  # atno 6908 bound_to 6896
  151.6571  135.0996  160.0223 H   0  0  0  0  0  0  0  0  0  0  0  0  # atno 6909 bound_to 6896
  145.3482  140.9472  143.2569 H   0  0  0  0  0  0  0  0  0  0  0  0  # atno 7974 bound_to 7965
  154.6133  140.0627  156.9521 H   0  0  0  0  0  0  0  0  0  0  0  0  # atno 8008 bound_to 7997
  155.1938  140.3309  155.4336 H   0  0  0  0  0  0  0  0  0  0  0  0  # atno 8009 bound_to 7997
  156.2389  140.1876  156.7026 H   0  0  0  0  0  0  0  0  0  0  0  0  # atno 8010 bound_to 7997
  140.1455  143.4243  152.1532 H   0  0  0  0  0  0  0  0  0  0  0  0  # atno 10167 bound_to 10162
  156.8137  130.9595  151.3115 H   0  0  0  0  0  0  0  0  0  0  0  0  # atno 10718 bound_to 10713
  153.8412  135.6857  153.4803 H   0  0  0  0  0  0  0  0  0  0  0  0  # atno 10763 bound_to 10752
  153.1453  135.4640  154.9554 H   0  0  0  0  0  0  0  0  0  0  0  0  # atno 10764 bound_to 10752
  154.7844  135.3280  154.7865 H   0  0  0  0  0  0  0  0  0  0  0  0  # atno 10765 bound_to 10752
  139.9548  134.9615  156.8968 H   0  0  0  0  0  0  0  0  0  0  0  0  # atno 11005 bound_to 11000
  144.8738  139.5000  143.6755 LP  0  0  0  0  0  0  0  0  0  0  0  0  # atno 17320 bound_to 7965
  146.2979  139.7335  142.9113 LP  0  0  0  0  0  0  0  0  0  0  0  0  # atno 17321 bound_to 7965
  139.5451  144.7291  151.4609 LP  0  0  0  0  0  0  0  0  0  0  0  0  # atno 17342 bound_to 10162
  140.6734  143.8242  150.7028 LP  0  0  0  0  0  0  0  0  0  0  0  0  # atno 17343 bound_to 10162
  157.6493  130.8870  149.9600 LP  0  0  0  0  0  0  0  0  0  0  0  0  # atno 17370 bound_to 10713
  156.1029  130.3654  150.0185 LP  0  0  0  0  0  0  0  0  0  0  0  0  # atno 17371 bound_to 10713
  140.5634  134.0513  155.7406 LP  0  0  0  0  0  0  0  0  0  0  0  0  # atno 17394 bound_to 11000
  141.1218  133.9449  157.2715 LP  0  0  0  0  0  0  0  0  0  0  0  0  # atno 17395 bound_to 11000

$$$$
