AV-unprocessed.smi:332|AV-procd|sdf|2357|dock3
  -GOLD-   2262022273D 1   1.00000     0.00000
 Structure written by MMmdl.
 42 44  0  0  0  0  0  0  0  0  1 V2000
  149.8075  141.7022  156.7353 C   0  0  0  0  0  0  0  0  0  0  0  0
  150.4029  141.9084  158.1375 C   0  0  1  0  0  0  0  0  0  0  0  0
  150.8648  140.6227  158.6575 N   0  0  0  0  0  0  0  0  0  0  0  0
  151.8047  139.8413  158.1039 C   0  0  0  0  0  0  0  0  0  0  0  0
  152.3982  140.1306  157.0638 O   0  0  0  0  0  0  0  0  0  0  0  0
  152.1080  138.5368  158.8561 C   0  0  0  0  0  0  0  0  0  0  0  0
  152.9364  138.7234  160.0594 N   0  0  0  0  0  0  0  0  0  0  0  0
  153.2542  140.0492  160.4160 C   0  0  0  0  0  0  0  0  0  0  0  0
  154.0042  140.3349  161.4921 C   0  0  0  0  0  0  0  0  0  0  0  0
  154.4892  139.2387  162.2964 C   0  0  0  0  0  0  0  0  0  0  0  0
  154.1879  137.9670  161.9668 C   0  0  0  0  0  0  0  0  0  0  0  0
  153.3685  137.6498  160.7912 C   0  0  0  0  0  0  0  0  0  0  0  0
  153.0878  136.4909  160.4836 O   0  0  0  0  0  0  0  0  0  0  0  0
  151.5795  142.9127  158.1436 C   0  0  2  0  0  0  0  0  0  0  0  0
  152.4634  142.8622  159.4117 C   0  0  0  0  0  0  0  0  0  0  0  0
  152.5566  144.3416  159.8290 C   0  0  2  0  0  0  0  0  0  0  0  0
  151.2125  144.7780  160.4400 C   0  0  0  0  0  0  0  0  0  0  0  0
  150.2932  144.8592  159.2080 C   0  0  0  0  0  0  0  0  0  0  0  0
  151.2211  144.4177  158.0574 C   0  0  1  0  0  0  0  0  0  0  0  0
  152.5389  145.0578  158.4834 C   0  0  0  0  0  0  0  0  0  0  0  0
  149.3957  142.6300  156.3385 H   0  0  0  0  0  0  0  0  0  0  0  0
  148.9973  140.9727  156.7561 H   0  0  0  0  0  0  0  0  0  0  0  0
  150.5604  141.3434  156.0325 H   0  0  0  0  0  0  0  0  0  0  0  0
  149.6168  142.2890  158.7902 H   0  0  0  0  0  0  0  0  0  0  0  0
  150.4321  140.3015  159.5113 H   0  0  0  0  0  0  0  0  0  0  0  0
  151.1636  138.0551  159.1155 H   0  0  0  0  0  0  0  0  0  0  0  0
  152.5980  137.8466  158.1675 H   0  0  0  0  0  0  0  0  0  0  0  0
  152.8472  140.8111  159.7670 H   0  0  0  0  0  0  0  0  0  0  0  0
  154.2354  141.3576  161.7515 H   0  0  0  0  0  0  0  0  0  0  0  0
  155.0950  139.4390  163.1678 H   0  0  0  0  0  0  0  0  0  0  0  0
  154.5581  137.1597  162.5817 H   0  0  0  0  0  0  0  0  0  0  0  0
  152.2128  142.6830  157.2844 H   0  0  0  0  0  0  0  0  0  0  0  0
  152.0380  142.2468  160.2057 H   0  0  0  0  0  0  0  0  0  0  0  0
  153.4485  142.4585  159.1751 H   0  0  0  0  0  0  0  0  0  0  0  0
  153.4167  144.5645  160.4612 H   0  0  0  0  0  0  0  0  0  0  0  0
  150.8473  144.0713  161.1862 H   0  0  0  0  0  0  0  0  0  0  0  0
  151.2989  145.7546  160.9181 H   0  0  0  0  0  0  0  0  0  0  0  0
  149.3972  144.2478  159.3057 H   0  0  0  0  0  0  0  0  0  0  0  0
  149.9637  145.8876  159.0533 H   0  0  0  0  0  0  0  0  0  0  0  0
  150.8704  144.7270  157.0724 H   0  0  0  0  0  0  0  0  0  0  0  0
  152.4860  146.1444  158.5718 H   0  0  0  0  0  0  0  0  0  0  0  0
  153.3804  144.7925  157.8409 H   0  0  0  0  0  0  0  0  0  0  0  0
  1  2  1  0  0  0  0
  1 21  1  0  0  0  0
  1 22  1  0  0  0  0
  1 23  1  0  0  0  0
  2  3  1  0  0  0  0
  2 14  1  0  0  0  0
  2 24  1  0  0  0  0
  3  4  1  0  0  0  0
  3 25  1  0  0  0  0
  4  5  2  0  0  0  0
  4  6  1  0  0  0  0
  6  7  1  0  0  0  0
  6 26  1  0  0  0  0
  6 27  1  0  0  0  0
  7 12  1  0  0  0  0
  7  8  1  0  0  0  0
  8  9  2  0  0  0  0
  8 28  1  0  0  0  0
  9 10  1  0  0  0  0
  9 29  1  0  0  0  0
 10 11  2  0  0  0  0
 10 30  1  0  0  0  0
 11 12  1  0  0  0  0
 11 31  1  0  0  0  0
 12 13  2  0  0  0  0
 14 19  1  0  0  0  0
 14 15  1  0  0  0  0
 14 32  1  0  0  0  0
 15 16  1  0  0  0  0
 15 33  1  0  0  0  0
 15 34  1  0  0  0  0
 16 20  1  0  0  0  0
 16 17  1  0  0  0  0
 16 35  1  0  0  0  0
 17 18  1  0  0  0  0
 17 36  1  0  0  0  0
 17 37  1  0  0  0  0
 18 19  1  0  0  0  0
 18 38  1  0  0  0  0
 18 39  1  0  0  0  0
 19 20  1  0  0  0  0
 19 40  1  0  0  0  0
 20 41  1  0  0  0  0
 20 42  1  0  0  0  0
M  END
> <s_m_source_file>
AV-unprocessed.smi

> <i_m_source_file_index>
332

> <i_lp_mmshare_version>
43012

> <i_f3d_flags>
0

> <s_epik_input>
W0NIMl0xW0NIMl1bQ0BIXShbQ0gyXTIpW0NAQEhdKFtDSDJdW0NAQEhdMTIpW0NASF0oW0NIM10pW05IXUMoPU8pW0NIMl1uM1tjSF1bY0hdW2NIXVtjSF1jMz1P

> <s_epik_cmdline>
J2VwaWtfcHl0aG9uJywgJy1waCcsICc3LjAnLCAnLXRuJywgJzgnLCAnLW1hJywgJzIwMCcsICctbWV0YWxfYmluZGluZycsICctaW1hZScsICc8aW5maWxlLm1hZT4nLCAnLW9tYWUnLCAnPG91dGZpbGUubWFlPic=

> <r_lp_tautomer_probability>
1

> <r_epik_Ionization_Penalty>
4.05802e-07

> <r_epik_Ionization_Penalty_Charging>
3.84175e-07

> <r_epik_Ionization_Penalty_Neutral>
2.16269e-08

> <r_epik_State_Penalty>
-0

> <r_epik_Charging_Adjusted_Penalty>
3.84175e-07

> <i_epik_Tot_Q>
0

> <i_epik_Tot_abs_Q>
0

> <r_epik_Metal_State_Penalty>
-0

> <b_epik_Metal_Only>
0

> <s_lp_Force_Field>
OPLS_2005

> <r_lp_Energy>
60.6372

> <b_lp_Chiralities_Consistent>
1

> <s_lp_Variant>
AV-unprocessed.smi:332-6

> <Gold.Version>
5.8.1

> <Gold.Id.Protein>
6NUR|6NUR_protein|mol2

> <Gold.PLP.Fitness>
46.6894

> <Gold.PLP.PLP>
-42.2251

> <Gold.PLP.part.hbond>
-2.0000

> <Gold.PLP.part.metal>
0.0000

> <Gold.PLP.part.buried>
-5.9086

> <Gold.PLP.part.nonpolar>
-34.8972

> <Gold.PLP.part.repulsive>
0.1698

> <Gold.PLP.ligand.clash>
0.4775

> <Gold.PLP.ligand.torsion>
0.5375

> <Gold.PLP.Chemscore.Hbond>
2.0000

> <Gold.PLP.Chemscore.CHOScore>
0.0000

> <Gold.PLP.Chemscore.Metal>
0.0000

> <Gold.Chemscore.Hbonds>
donor molecule, donor type, donor heavy atom, donor atom, acceptor molecule, acceptor atom, score
      P1  H  6896  6907       L1    13  1.00
      P1  H  7997  8009       L1     5  0.98

> <Gold.PLP.Chemscore.Internal.Correction>
0.0169

> <Gold.Rescore>
     Score         DG    S(hbond)    S(metal)    S(lipo)     H(rot)  DE(clash)    DE(int)     intcor
     20.64     -23.01       1.99        0.00     126.79       1.54       0.00       2.37       ----

> <Gold.Chemscore.Fitness>
20.6417

> <Gold.Chemscore.DG>
-23.0147

> <Gold.Chemscore.ZeroCoef>
-5.4800

> <Gold.Chemscore.Hbond>
1.9886

> <Gold.Chemscore.Metal>
0.0000

> <Gold.Chemscore.Lipo>
126.7926

> <Gold.Chemscore.Internal_Hbond>
0.0000

> <Gold.Chemscore.DEClash>
0.0036

> <Gold.Chemscore.DEInternal>
2.3694

> <Gold.Chemscore.Rot>
1.5398

> <Gold.Chemscore.Internal.Correction>
   9.000000E+99

> <Gold.Chemscore.Hbonds>
donor molecule, donor type, donor heavy atom, donor atom, acceptor molecule, acceptor atom, score
      P1  H  6896  6907       L1    13  1.00
      P1  H  7997  8009       L1     5  0.88

> <Gold.Chemscore.Hbond.Weighted>
-6.6418

> <Gold.Chemscore.Metal.Weighted>
-0.0000

> <Gold.Chemscore.Lipo.Weighted>
-14.8347

> <Gold.Chemscore.Internal_Hbond.Weighted>
0.0000

> <Gold.Chemscore.DEClash.Weighted>
0.0036

> <Gold.Chemscore.DEInternal.Weighted>
2.3694

> <Gold.Chemscore.Rot.Weighted>
3.9419

> <Gold.Chemscore.Internal.Correction.Weighted>
   9.000000E+99

> <Gold.Protein.RotatedTorsions>
[ 6907 6896 6895 6894 ] final   31.19 input  -60.11 | X-H torsion
[ 7974 7965 7964 7962 ] final  156.79 input  175.53 | X-H torsion
[ 8008 7997 7996 7995 ] final -166.17 input   59.86 | X-H torsion
[ 10167 10162 10161 10158 ] final  129.67 input  -65.29 | X-H torsion
[ 10718 10713 10712 10709 ] final -152.26 input   66.30 | X-H torsion
[ 10763 10752 10751 10750 ] final -126.36 input  -60.55 | X-H torsion
[ 11005 11000 10999 10996 ] final -179.19 input  -57.11 | X-H torsion

> <Gold.Protein.ActiveResidues>
 VAL166  LYS551  ARG553  GLY616  TRP617  ASP618  TYR619  PRO620  LYS621  CYS622 
 ASP623  PHE694  ASN695  SER759  ASP760  ASP761  ALA762  ILE779  LEU786  VAL792 
 PHE793  MET794  SER795  GLU796  ALA797  LYS798  CYS799  TRP800  GLU811  SER814 

> <Gold.Protein.RotatedAtoms>
  152.0568  134.9619  160.0574 H   0  0  0  0  0  0  0  0  0  0  0  0  # atno 6907 bound_to 6896
  152.0998  133.4239  159.4590 H   0  0  0  0  0  0  0  0  0  0  0  0  # atno 6908 bound_to 6896
  150.6839  134.2693  159.4625 H   0  0  0  0  0  0  0  0  0  0  0  0  # atno 6909 bound_to 6896
  144.7942  139.7251  143.6209 H   0  0  0  0  0  0  0  0  0  0  0  0  # atno 7974 bound_to 7965
  155.8601  140.0977  157.1619 H   0  0  0  0  0  0  0  0  0  0  0  0  # atno 8008 bound_to 7997
  154.3990  140.1366  156.4013 H   0  0  0  0  0  0  0  0  0  0  0  0  # atno 8009 bound_to 7997
  155.7866  140.3457  155.5328 H   0  0  0  0  0  0  0  0  0  0  0  0  # atno 8010 bound_to 7997
  139.5466  144.6779  151.4452 H   0  0  0  0  0  0  0  0  0  0  0  0  # atno 10167 bound_to 10162
  156.4701  130.8254  151.2484 H   0  0  0  0  0  0  0  0  0  0  0  0  # atno 10718 bound_to 10713
  154.8745  135.3998  154.3418 H   0  0  0  0  0  0  0  0  0  0  0  0  # atno 10763 bound_to 10752
  153.4216  135.7023  153.6296 H   0  0  0  0  0  0  0  0  0  0  0  0  # atno 10764 bound_to 10752
  153.4955  135.3739  155.2484 H   0  0  0  0  0  0  0  0  0  0  0  0  # atno 10765 bound_to 10752
  140.4214  134.6602  157.4665 H   0  0  0  0  0  0  0  0  0  0  0  0  # atno 11005 bound_to 11000
  146.2204  139.5626  142.9622 LP  0  0  0  0  0  0  0  0  0  0  0  0  # atno 17320 bound_to 7965
  145.5716  141.0393  143.2171 LP  0  0  0  0  0  0  0  0  0  0  0  0  # atno 17321 bound_to 7965
  140.6717  143.8280  150.7007 LP  0  0  0  0  0  0  0  0  0  0  0  0  # atno 17342 bound_to 10162
  140.1706  143.4198  152.2003 LP  0  0  0  0  0  0  0  0  0  0  0  0  # atno 17343 bound_to 10162
  157.7492  131.0079  150.3207 LP  0  0  0  0  0  0  0  0  0  0  0  0  # atno 17370 bound_to 10713
  156.3627  130.3849  149.7239 LP  0  0  0  0  0  0  0  0  0  0  0  0  # atno 17371 bound_to 10713
  140.0198  134.6565  155.9257 LP  0  0  0  0  0  0  0  0  0  0  0  0  # atno 17394 bound_to 11000
  141.1783  133.6543  156.4915 LP  0  0  0  0  0  0  0  0  0  0  0  0  # atno 17395 bound_to 11000

$$$$
