#       Name:                AV-unprocessed.smi:1362
#       Creating user name   scv26
#       Creation time:       Fri Mar 27 05:15:32 2020


#       File generated by GOLD software.
#

@<TRIPOS>MOLECULE
AV-unprocessed.smi:1362
    44    44     1
SMALL
NO_CHARGES


@<TRIPOS>ATOM
      1 ****        -4.7331   4.3990   0.1308 C.3            1 S1                 0.0000
      2 ****        -3.8427   3.1760   0.0804 C.2            1 S1                 0.0000
      3 ****        -3.2712   2.8640  -1.0201 N.2            1 S1                 0.0000
      4 ****        -2.4453   1.7284  -1.0724 C.2            1 S1                 0.0000
      5 ****        -1.8102   1.4301  -2.4194 C.3            1 S1                 0.0000
      6 ****        -2.2413   0.9527   0.0306 C.2            1 S1                 0.0000
      7 ****        -1.3569  -0.2947   0.0240 C.3            1 S1                 0.0000
      8 ****         0.1485  -0.0628   0.1790 C.2            1 S1                 0.0000
      9 ****         0.5908   1.0538   0.4508 O.2            1 S1                 0.0000
     10 ****         0.9274  -1.1400  -0.0043 N.am           1 S1                 0.0000
     11 ****         2.3863  -1.1641   0.0943 C.3            1 S1                 0.0000
     12 ****         2.9823  -0.7599  -1.2681 C.3            1 S1                 0.0000
     13 ****         2.8653  -2.5562   0.5855 C.3            1 S1                 0.0000
     14 ****         2.1948  -2.9708   1.9103 C.3            1 S1                 0.0000
     15 ****         4.3951  -2.6300   0.7411 C.3            1 S1                 0.0000
     16 ****        -2.9125   1.3504   1.2809 C.2            1 S1                 0.0000
     17 ****        -2.7493   0.6944   2.3091 O.2            1 S1                 0.0000
     18 ****        -3.7048   2.4598   1.2483 N.pl3          1 S1                -1.0000
     19 ****        -4.6311   4.9964  -0.7761 H              1 S1                 0.0000
     20 ****        -4.4708   5.0273   0.9827 H              1 S1                 0.0000
     21 ****        -5.7768   4.0999   0.2293 H              1 S1                 0.0000
     22 ****        -2.1883   0.4885  -2.8176 H              1 S1                 0.0000
     23 ****        -0.7264   1.3591  -2.3266 H              1 S1                 0.0000
     24 ****        -2.0322   2.2144  -3.1440 H              1 S1                 0.0000
     25 ****        -1.6793  -0.9962   0.7939 H              1 S1                 0.0000
     26 ****        -1.5186  -0.8235  -0.9155 H              1 S1                 0.0000
     27 ****         0.4740  -2.0146  -0.2248 H              1 S1                 0.0000
     28 ****         2.6983  -0.4249   0.8346 H              1 S1                 0.0000
     29 ****         4.0637  -0.6382  -1.2169 H              1 S1                 0.0000
     30 ****         2.5763   0.1932  -1.6087 H              1 S1                 0.0000
     31 ****         2.7630  -1.5044  -2.0340 H              1 S1                 0.0000
     32 ****         2.5801  -3.2951  -0.1648 H              1 S1                 0.0000
     33 ****         2.4033  -2.2493   2.7008 H              1 S1                 0.0000
     34 ****         2.5565  -3.9429   2.2466 H              1 S1                 0.0000
     35 ****         1.1124  -3.0530   1.8122 H              1 S1                 0.0000
     36 ****         4.7611  -1.8683   1.4303 H              1 S1                 0.0000
     37 ****         4.9070  -2.4961  -0.2112 H              1 S1                 0.0000
     38 ****         4.7030  -3.6015   1.1285 H              1 S1                 0.0000
     39 ****        -3.4109   3.4236  -1.8369 LP             1 S1                 0.0000
     40 ****        -0.0356   1.8235   0.5732 LP             1 S1                 0.0000
     41 ****         1.5765   1.1908   0.5491 LP             1 S1                 0.0000
     42 ****        -2.1590  -0.1127   2.2989 LP             1 S1                 0.0000
     43 ****        -3.2069   0.9684   3.1550 LP             1 S1                 0.0000
     44 ****        -4.1864   2.7537   2.0739 LP             1 S1                 0.0000
@<TRIPOS>BOND
    1    1    2 1     
    2    1   19 1     
    3    1   20 1     
    4    1   21 1     
    5    2   18 1     
    6    2    3 2     
    7    3    4 1     
    8    4    5 1     
    9    4    6 2     
   10    5   22 1     
   11    5   23 1     
   12    5   24 1     
   13    6    7 1     
   14    6   16 1     
   15    7    8 1     
   16    7   25 1     
   17    7   26 1     
   18    8    9 2     
   19    8   10 am    
   20   10   11 1     
   21   10   27 1     
   22   11   12 1     
   23   11   13 1     
   24   11   28 1     
   25   12   29 1     
   26   12   30 1     
   27   12   31 1     
   28   13   14 1     
   29   13   15 1     
   30   13   32 1     
   31   14   33 1     
   32   14   34 1     
   33   14   35 1     
   34   15   36 1     
   35   15   37 1     
   36   15   38 1     
   37   16   17 2     
   38   16   18 1     
   39    3   39 1     
   40    9   40 1     
   41    9   41 1     
   42   17   42 1     
   43   17   43 1     
   44   18   44 1     
@<TRIPOS>SUBSTRUCTURE
      1 S1             1
@<TRIPOS>SET
LONE_PAIRS      STATIC     ATOMS    <user>   **** ""
6 39 40 41 42 43 44
DONOR_HYDROGENS      STATIC     ATOMS    <user>   **** ""
1 27
ATOM$BLUE        STATIC     ATOMS    COLORGROUP SYSTEM
6 39 40 41 42 43 44
ATOM$RED        STATIC     ATOMS    COLORGROUP SYSTEM
1 27
