AV-unprocessed.smi:2496|AV-procd|sdf|9828|dock1
  -GOLD-   2272013453D 1   1.00000     0.00000
 Structure written by MMmdl.
 40 40  0  0  0  0  0  0  0  0  1 V2000
  153.1457  138.6540  154.7613 C   0  0  0  0  0  0  0  0  0  0  0  0
  151.7453  138.2930  155.1723 C   0  0  0  0  0  0  0  0  0  0  0  0
  151.4436  137.0123  155.3264 N   0  0  0  0  0  0  0  0  0  0  0  0
  150.1491  137.0224  155.6834 N   0  0  0  0  0  0  0  0  0  0  0  0
  149.6224  138.2892  155.7617 C   0  0  0  0  0  0  0  0  0  0  0  0
  148.1991  138.5334  156.1370 C   0  0  0  0  0  0  0  0  0  0  0  0
  150.6318  139.1556  155.4364 C   0  0  0  0  0  0  0  0  0  0  0  0
  150.5525  140.6672  155.3689 C   0  0  1  0  0  0  0  0  0  0  0  0
  149.5039  141.1513  154.3500 C   0  0  0  0  0  0  0  0  0  0  0  0
  150.3332  141.2343  156.7801 C   0  0  0  0  0  0  0  0  0  0  0  0
  149.3024  140.9867  157.4070 O   0  0  0  0  0  0  0  0  0  0  0  0
  151.3228  142.0049  157.2611 N   0  0  0  0  0  0  0  0  0  0  0  0
  151.3693  142.6330  158.5811 C   0  0  1  0  0  0  0  0  0  0  0  0
  152.4847  141.9460  159.3878 C   0  0  0  0  0  0  0  0  0  0  0  0
  151.5595  144.1685  158.4505 C   0  0  0  0  0  0  0  0  0  0  0  0
  153.0030  144.5471  158.0731 C   0  0  0  0  0  0  0  0  0  0  0  0
  151.1521  144.9228  159.7313 C   0  0  0  0  0  0  0  0  0  0  0  0
  149.6436  136.1676  155.8679 H   0  0  0  0  0  0  0  0  0  0  0  0
  153.1498  139.4584  154.0269 H   0  0  0  0  0  0  0  0  0  0  0  0
  153.6648  137.8054  154.3143 H   0  0  0  0  0  0  0  0  0  0  0  0
  153.7314  138.9827  155.6195 H   0  0  0  0  0  0  0  0  0  0  0  0
  147.6689  139.0356  155.3278 H   0  0  0  0  0  0  0  0  0  0  0  0
  148.1373  139.1638  157.0242 H   0  0  0  0  0  0  0  0  0  0  0  0
  147.6786  137.5994  156.3512 H   0  0  0  0  0  0  0  0  0  0  0  0
  151.5095  141.0693  155.0333 H   0  0  0  0  0  0  0  0  0  0  0  0
  148.4967  140.8248  154.6079 H   0  0  0  0  0  0  0  0  0  0  0  0
  149.7293  140.7711  153.3532 H   0  0  0  0  0  0  0  0  0  0  0  0
  149.4905  142.2400  154.2868 H   0  0  0  0  0  0  0  0  0  0  0  0
  152.1265  142.1500  156.6676 H   0  0  0  0  0  0  0  0  0  0  0  0
  150.4302  142.4535  159.1075 H   0  0  0  0  0  0  0  0  0  0  0  0
  152.4999  142.2789  160.4250 H   0  0  0  0  0  0  0  0  0  0  0  0
  153.4669  142.1436  158.9566 H   0  0  0  0  0  0  0  0  0  0  0  0
  152.3435  140.8646  159.4052 H   0  0  0  0  0  0  0  0  0  0  0  0
  150.9098  144.5230  157.6489 H   0  0  0  0  0  0  0  0  0  0  0  0
  153.7166  144.1629  158.8026 H   0  0  0  0  0  0  0  0  0  0  0  0
  153.1264  145.6296  158.0297 H   0  0  0  0  0  0  0  0  0  0  0  0
  153.2824  144.1598  157.0941 H   0  0  0  0  0  0  0  0  0  0  0  0
  151.7221  144.5736  160.5928 H   0  0  0  0  0  0  0  0  0  0  0  0
  150.0935  144.7965  159.9588 H   0  0  0  0  0  0  0  0  0  0  0  0
  151.3275  145.9941  159.6299 H   0  0  0  0  0  0  0  0  0  0  0  0
  1  2  1  0  0  0  0
  1 19  1  0  0  0  0
  1 20  1  0  0  0  0
  1 21  1  0  0  0  0
  2  7  1  0  0  0  0
  2  3  2  0  0  0  0
  3  4  1  0  0  0  0
  4 18  1  0  0  0  0
  4  5  1  0  0  0  0
  5  6  1  0  0  0  0
  5  7  2  0  0  0  0
  6 22  1  0  0  0  0
  6 23  1  0  0  0  0
  6 24  1  0  0  0  0
  7  8  1  0  0  0  0
  8  9  1  0  0  0  0
  8 10  1  0  0  0  0
  8 25  1  0  0  0  0
  9 26  1  0  0  0  0
  9 27  1  0  0  0  0
  9 28  1  0  0  0  0
 10 11  2  0  0  0  0
 10 12  1  0  0  0  0
 12 13  1  0  0  0  0
 12 29  1  0  0  0  0
 13 14  1  0  0  0  0
 13 15  1  0  0  0  0
 13 30  1  0  0  0  0
 14 31  1  0  0  0  0
 14 32  1  0  0  0  0
 14 33  1  0  0  0  0
 15 16  1  0  0  0  0
 15 17  1  0  0  0  0
 15 34  1  0  0  0  0
 16 35  1  0  0  0  0
 16 36  1  0  0  0  0
 16 37  1  0  0  0  0
 17 38  1  0  0  0  0
 17 39  1  0  0  0  0
 17 40  1  0  0  0  0
M  END
> <s_m_source_file>
AV-unprocessed.smi

> <i_m_source_file_index>
2496

> <i_lp_mmshare_version>
43012

> <i_f3d_flags>
0

> <s_epik_input>
W0NIM11jMW5bbkhdYyhbQ0gzXSljMVtDQEhdKFtDSDNdKUMoPU8pW05IXVtDQEhdKFtDSDNdKVtDSF0oW0NIM10pW0NIM10=

> <s_epik_cmdline>
J2VwaWtfcHl0aG9uJywgJy1waCcsICc3LjAnLCAnLXRuJywgJzgnLCAnLW1hJywgJzIwMCcsICctbWV0YWxfYmluZGluZycsICctaW1hZScsICc8aW5maWxlLm1hZT4nLCAnLW9tYWUnLCAnPG91dGZpbGUubWFlPic=

> <r_lp_tautomer_probability>
1

> <r_epik_Ionization_Penalty>
0.000456212

> <r_epik_Ionization_Penalty_Charging>
0

> <r_epik_Ionization_Penalty_Neutral>
0.000456212

> <r_epik_State_Penalty>
-0

> <r_epik_Charging_Adjusted_Penalty>
0

> <i_epik_Tot_Q>
0

> <i_epik_Tot_abs_Q>
0

> <r_epik_Metal_State_Penalty>
-0

> <b_epik_Metal_Only>
0

> <s_lp_Force_Field>
OPLS_2005

> <r_lp_Energy>
2.25398

> <b_lp_Chiralities_Consistent>
1

> <s_lp_Variant>
AV-unprocessed.smi:2496-4

> <Gold.Version>
5.8.1

> <Gold.Id.Protein>
6NUR|6NUR_protein|mol2

> <Gold.PLP.Fitness>
36.0989

> <Gold.PLP.PLP>
-33.7139

> <Gold.PLP.part.hbond>
-1.0000

> <Gold.PLP.part.metal>
0.0000

> <Gold.PLP.part.buried>
-2.2436

> <Gold.PLP.part.nonpolar>
-30.5269

> <Gold.PLP.part.repulsive>
0.2227

> <Gold.PLP.ligand.clash>
0.0000

> <Gold.PLP.ligand.torsion>
0.3782

> <Gold.PLP.Chemscore.Hbond>
1.0000

> <Gold.PLP.Chemscore.CHOScore>
0.0000

> <Gold.PLP.Chemscore.Metal>
0.0000

> <Gold.Chemscore.Hbonds>
donor molecule, donor type, donor heavy atom, donor atom, acceptor molecule, acceptor atom, score
      P1  H 10752 10765       L1     3  0.60

> <Gold.PLP.Chemscore.Internal.Correction>
0.1413

> <Gold.Rescore>
     Score         DG    S(hbond)    S(metal)    S(lipo)     H(rot)  DE(clash)    DE(int)     intcor
     15.62     -16.26       0.96        0.00      96.70       1.47       0.13       0.50       ----

> <Gold.Chemscore.Fitness>
15.6205

> <Gold.Chemscore.DG>
-16.2567

> <Gold.Chemscore.ZeroCoef>
-5.4800

> <Gold.Chemscore.Hbond>
0.9628

> <Gold.Chemscore.Metal>
0.0000

> <Gold.Chemscore.Lipo>
96.7049

> <Gold.Chemscore.Internal_Hbond>
0.0000

> <Gold.Chemscore.DEClash>
0.1337

> <Gold.Chemscore.DEInternal>
0.5025

> <Gold.Chemscore.Rot>
1.4662

> <Gold.Chemscore.Internal.Correction>
   9.000000E+99

> <Gold.Chemscore.Hbonds>
donor molecule, donor type, donor heavy atom, donor atom, acceptor molecule, acceptor atom, score
      P1  H 10752 10765       L1     3  0.54

> <Gold.Chemscore.Hbond.Weighted>
-3.2156

> <Gold.Chemscore.Metal.Weighted>
-0.0000

> <Gold.Chemscore.Lipo.Weighted>
-11.3145

> <Gold.Chemscore.Internal_Hbond.Weighted>
0.0000

> <Gold.Chemscore.DEClash.Weighted>
0.1337

> <Gold.Chemscore.DEInternal.Weighted>
0.5025

> <Gold.Chemscore.Rot.Weighted>
3.7534

> <Gold.Chemscore.Internal.Correction.Weighted>
   9.000000E+99

> <Gold.Protein.RotatedTorsions>
[ 6907 6896 6895 6894 ] final -160.06 input  -60.11 | X-H torsion
[ 7974 7965 7964 7962 ] final   52.08 input  175.53 | X-H torsion
[ 8008 7997 7996 7995 ] final -150.23 input   59.86 | X-H torsion
[ 10167 10162 10161 10158 ] final -154.43 input  -65.29 | X-H torsion
[ 10718 10713 10712 10709 ] final  103.32 input   66.30 | X-H torsion
[ 10763 10752 10751 10750 ] final  176.87 input  -60.55 | X-H torsion
[ 11005 11000 10999 10996 ] final   60.56 input  -57.11 | X-H torsion

> <Gold.Protein.ActiveResidues>
 VAL166  LYS551  ARG553  GLY616  TRP617  ASP618  TYR619  PRO620  LYS621  CYS622 
 ASP623  PHE694  ASN695  SER759  ASP760  ASP761  ALA762  ILE779  LEU786  VAL792 
 PHE793  MET794  SER795  GLU796  ALA797  LYS798  CYS799  TRP800  GLU811  SER814 

> <Gold.Protein.RotatedAtoms>
  151.3432  133.3954  159.2672 H   0  0  0  0  0  0  0  0  0  0  0  0  # atno 6907 bound_to 6896
  150.9861  134.9207  159.7883 H   0  0  0  0  0  0  0  0  0  0  0  0  # atno 6908 bound_to 6896
  152.5232  134.3396  159.9265 H   0  0  0  0  0  0  0  0  0  0  0  0  # atno 6909 bound_to 6896
  145.9850  139.4280  143.0109 H   0  0  0  0  0  0  0  0  0  0  0  0  # atno 7974 bound_to 7965
  155.6202  140.0680  157.2680 H   0  0  0  0  0  0  0  0  0  0  0  0  # atno 8008 bound_to 7997
  154.4231  140.1786  156.1412 H   0  0  0  0  0  0  0  0  0  0  0  0  # atno 8009 bound_to 7997
  156.0016  140.3335  155.6854 H   0  0  0  0  0  0  0  0  0  0  0  0  # atno 8010 bound_to 7997
  139.7014  143.9257  152.2430 H   0  0  0  0  0  0  0  0  0  0  0  0  # atno 10167 bound_to 10162
  157.6776  131.0776  150.5537 H   0  0  0  0  0  0  0  0  0  0  0  0  # atno 10718 bound_to 10713
  154.4869  135.2777  155.1527 H   0  0  0  0  0  0  0  0  0  0  0  0  # atno 10763 bound_to 10752
  154.3215  135.6209  153.5513 H   0  0  0  0  0  0  0  0  0  0  0  0  # atno 10764 bound_to 10752
  152.9882  135.5743  154.5282 H   0  0  0  0  0  0  0  0  0  0  0  0  # atno 10765 bound_to 10752
  140.0223  134.6134  155.9622 H   0  0  0  0  0  0  0  0  0  0  0  0  # atno 11005 bound_to 11000
  145.7715  140.9895  143.1147 LP  0  0  0  0  0  0  0  0  0  0  0  0  # atno 17320 bound_to 7965
  144.6872  139.9452  143.7476 LP  0  0  0  0  0  0  0  0  0  0  0  0  # atno 17321 bound_to 7965
  139.9101  144.6862  150.8572 LP  0  0  0  0  0  0  0  0  0  0  0  0  # atno 17342 bound_to 10162
  140.7710  143.3450  151.2130 LP  0  0  0  0  0  0  0  0  0  0  0  0  # atno 17343 bound_to 10162
  156.5841  130.4312  149.5965 LP  0  0  0  0  0  0  0  0  0  0  0  0  # atno 17370 bound_to 10713
  156.2637  130.6977  151.1754 LP  0  0  0  0  0  0  0  0  0  0  0  0  # atno 17371 bound_to 10713
  141.1781  133.6543  156.4910 LP  0  0  0  0  0  0  0  0  0  0  0  0  # atno 17394 bound_to 11000
  140.4366  134.7054  157.4970 LP  0  0  0  0  0  0  0  0  0  0  0  0  # atno 17395 bound_to 11000

$$$$
