AV-unprocessed.smi:187|AV-procd|sdf|1469|dock2
  -GOLD-   2262019283D 1   1.00000     0.00000
 Structure written by MMmdl.
 53 56  0  0  0  0  0  0  0  0  1 V2000
  143.7707  138.0418  156.2809 C   0  0  0  0  0  0  0  0  0  0  0  0
  142.2834  138.4351  156.4020 C   0  0  1  0  0  0  0  0  0  0  0  0
  142.1826  139.8977  156.8852 C   0  0  0  0  0  0  0  0  0  0  0  0
  140.7272  140.3911  156.9404 C   0  0  0  0  0  0  0  0  0  0  0  0
  139.9853  140.1677  155.6063 C   0  0  1  0  0  0  0  0  0  0  0  0
  140.4157  141.1629  154.5113 C   0  0  0  0  0  0  0  0  0  0  0  0
  141.6886  141.1071  154.1111 N   0  0  0  0  0  0  0  0  0  0  0  0
  139.6259  141.9785  154.0387 O   0  0  0  0  0  0  0  0  0  0  0  0
  140.1469  138.6978  155.1649 C   0  0  0  0  0  0  0  0  0  0  0  0
  141.5457  138.2652  155.1406 N   0  0  0  0  0  0  0  0  0  0  0  0
  141.6488  137.0696  154.5153 C   0  0  0  0  0  0  0  0  0  0  0  0
  140.6188  136.1828  154.5550 N   0  0  0  0  0  0  0  0  0  0  0  0
  140.7234  135.0114  153.9198 C   0  0  0  0  0  0  0  0  0  0  0  0
  141.7414  134.5420  153.1941 N   0  0  0  0  0  0  0  0  0  0  0  0
  142.7686  135.4386  153.1427 C   0  0  0  0  0  0  0  0  0  0  0  0
  142.8035  136.7140  153.7709 C   0  0  0  0  0  0  0  0  0  0  0  0
  144.0130  137.3435  153.5086 N   0  0  0  0  0  0  0  0  0  0  0  0
  144.6628  136.4828  152.7732 C   0  0  0  0  0  0  0  0  0  0  0  0
  143.9799  135.3214  152.4847 N   0  0  0  0  0  0  0  0  0  0  0  0
  144.4558  134.1984  151.7317 C   0  0  0  0  0  0  0  0  0  0  0  0
  144.9934  134.3518  150.3066 C   0  0  0  0  0  0  0  0  0  0  0  0
  144.4459  132.9482  149.9591 C   0  0  0  0  0  0  0  0  0  0  0  0
  143.7803  132.8201  148.5786 C   0  0  0  0  0  0  0  0  0  0  0  0
  143.4489  134.0879  148.0493 O   0  0  0  0  0  0  0  0  0  0  0  0
  145.4399  131.7848  150.1509 C   0  0  0  0  0  0  0  0  0  0  0  0
  146.6402  132.0087  149.4393 O   0  0  0  0  0  0  0  0  0  0  0  0
  143.4769  133.1832  151.1391 C   0  0  0  0  0  0  0  0  0  0  0  0
  144.2978  138.2252  157.2173 H   0  0  0  0  0  0  0  0  0  0  0  0
  144.2696  138.6203  155.5024 H   0  0  0  0  0  0  0  0  0  0  0  0
  143.9032  136.9859  156.0461 H   0  0  0  0  0  0  0  0  0  0  0  0
  141.8153  137.7977  157.1537 H   0  0  0  0  0  0  0  0  0  0  0  0
  142.6344  139.9932  157.8730 H   0  0  0  0  0  0  0  0  0  0  0  0
  142.7638  140.5447  156.2275 H   0  0  0  0  0  0  0  0  0  0  0  0
  140.2009  139.8576  157.7330 H   0  0  0  0  0  0  0  0  0  0  0  0
  140.7031  141.4452  157.2200 H   0  0  0  0  0  0  0  0  0  0  0  0
  138.9224  140.3356  155.7876 H   0  0  0  0  0  0  0  0  0  0  0  0
  142.0214  141.7357  153.3946 H   0  0  0  0  0  0  0  0  0  0  0  0
  142.3138  140.4323  154.5272 H   0  0  0  0  0  0  0  0  0  0  0  0
  139.5924  138.0518  155.8475 H   0  0  0  0  0  0  0  0  0  0  0  0
  139.6965  138.5623  154.1797 H   0  0  0  0  0  0  0  0  0  0  0  0
  139.8679  134.3573  154.0026 H   0  0  0  0  0  0  0  0  0  0  0  0
  145.6634  136.6789  152.4163 H   0  0  0  0  0  0  0  0  0  0  0  0
  145.1897  133.7008  152.3679 H   0  0  0  0  0  0  0  0  0  0  0  0
  144.4943  135.1495  149.7531 H   0  0  0  0  0  0  0  0  0  0  0  0
  146.0769  134.4570  150.2459 H   0  0  0  0  0  0  0  0  0  0  0  0
  144.4486  132.3295  147.8704 H   0  0  0  0  0  0  0  0  0  0  0  0
  142.8792  132.2078  148.6218 H   0  0  0  0  0  0  0  0  0  0  0  0
  144.2351  134.4857  147.7074 H   0  0  0  0  0  0  0  0  0  0  0  0
  145.6968  131.6527  151.2020 H   0  0  0  0  0  0  0  0  0  0  0  0
  145.0115  130.8366  149.8252 H   0  0  0  0  0  0  0  0  0  0  0  0
  147.2231  131.2821  149.5981 H   0  0  0  0  0  0  0  0  0  0  0  0
  143.2969  132.3097  151.7666 H   0  0  0  0  0  0  0  0  0  0  0  0
  142.5354  133.6435  150.8327 H   0  0  0  0  0  0  0  0  0  0  0  0
  1  2  1  0  0  0  0
  1 28  1  0  0  0  0
  1 29  1  0  0  0  0
  1 30  1  0  0  0  0
  2 10  1  0  0  0  0
  2  3  1  0  0  0  0
  2 31  1  0  0  0  0
  3  4  1  0  0  0  0
  3 32  1  0  0  0  0
  3 33  1  0  0  0  0
  4  5  1  0  0  0  0
  4 34  1  0  0  0  0
  4 35  1  0  0  0  0
  5  6  1  0  0  0  0
  5  9  1  0  0  0  0
  5 36  1  0  0  0  0
  6  7  1  0  0  0  0
  6  8  2  0  0  0  0
  7 37  1  0  0  0  0
  7 38  1  0  0  0  0
  9 10  1  0  0  0  0
  9 39  1  0  0  0  0
  9 40  1  0  0  0  0
 10 11  1  0  0  0  0
 11 16  1  0  0  0  0
 11 12  2  0  0  0  0
 12 13  1  0  0  0  0
 13 14  2  0  0  0  0
 13 41  1  0  0  0  0
 14 15  1  0  0  0  0
 15 19  1  0  0  0  0
 15 16  2  0  0  0  0
 16 17  1  0  0  0  0
 17 18  2  0  0  0  0
 18 19  1  0  0  0  0
 18 42  1  0  0  0  0
 19 20  1  0  0  0  0
 20 27  1  0  0  0  0
 20 21  1  0  0  0  0
 20 43  1  0  0  0  0
 21 22  1  0  0  0  0
 21 44  1  0  0  0  0
 21 45  1  0  0  0  0
 22 23  1  0  0  0  0
 22 25  1  0  0  0  0
 22 27  1  0  0  0  0
 23 24  1  0  0  0  0
 23 46  1  0  0  0  0
 23 47  1  0  0  0  0
 24 48  1  0  0  0  0
 25 26  1  0  0  0  0
 25 49  1  0  0  0  0
 25 50  1  0  0  0  0
 26 51  1  0  0  0  0
 27 52  1  0  0  0  0
 27 53  1  0  0  0  0
M  END
> <s_m_source_file>
AV-unprocessed.smi

> <i_m_source_file_index>
187

> <i_lp_mmshare_version>
43012

> <i_f3d_flags>
0

> <s_epik_input>
W0NIM11bQ0BASF0xW0NIMl1bQ0gyXVtDQEBIXShDKD1PKVtOSDJdKVtDSDJdTjFjKG5bY0hdbjIpYyhjMjMpbltjSF1uM1tDSF0oW0NIMl00KVtDSDJdQzQoW0NIMl1bT0hdKVtDSDJdW09IXQ==

> <s_epik_cmdline>
J2VwaWtfcHl0aG9uJywgJy1waCcsICc3LjAnLCAnLXRuJywgJzgnLCAnLW1hJywgJzIwMCcsICctbWV0YWxfYmluZGluZycsICctaW1hZScsICc8aW5maWxlLm1hZT4nLCAnLW9tYWUnLCAnPG91dGZpbGUubWFlPic=

> <r_lp_tautomer_probability>
1

> <r_epik_Ionization_Penalty>
0.0017711

> <r_epik_Ionization_Penalty_Charging>
0

> <r_epik_Ionization_Penalty_Neutral>
0.0017711

> <r_epik_State_Penalty>
0.00107211

> <r_epik_Charging_Adjusted_Penalty>
0.00107211

> <i_epik_Tot_Q>
0

> <i_epik_Tot_abs_Q>
0

> <r_epik_Metal_State_Penalty>
-0

> <b_epik_Metal_Only>
0

> <s_lp_Force_Field>
OPLS_2005

> <r_lp_Energy>
37.2201

> <b_lp_Chiralities_Consistent>
1

> <s_lp_Variant>
AV-unprocessed.smi:187-2

> <Gold.Version>
5.8.1

> <Gold.Id.Protein>
6NUR|6NUR_protein|mol2

> <Gold.PLP.Fitness>
43.9341

> <Gold.PLP.PLP>
-34.7788

> <Gold.PLP.part.hbond>
-9.2408

> <Gold.PLP.part.metal>
0.0000

> <Gold.PLP.part.buried>
1.3567

> <Gold.PLP.part.nonpolar>
-27.6625

> <Gold.PLP.part.repulsive>
0.6991

> <Gold.PLP.ligand.clash>
0.0900

> <Gold.PLP.ligand.torsion>
1.7720

> <Gold.PLP.Chemscore.Hbond>
4.0000

> <Gold.PLP.Chemscore.CHOScore>
0.0106

> <Gold.PLP.Chemscore.Metal>
0.0000

> <Gold.Chemscore.Hbonds>
donor molecule, donor type, donor heavy atom, donor atom, acceptor molecule, acceptor atom, score
      L1  H     7    37       P1 10174  0.75
      L1  H    24    48       P1  7921  1.00
      L1  H    26    51       P1 10747  0.86
      P1  H 10192 10197       L1    24  1.00
      L1  C    13    41       P1 11000  0.12

> <Gold.PLP.Chemscore.Internal.Correction>
0.7573

> <Gold.Rescore>
     Score         DG    S(hbond)    S(metal)    S(lipo)     H(rot)  DE(clash)    DE(int)     intcor
      4.78     -12.02       2.81        0.00      63.05       3.99       3.16       4.08       ----

> <Gold.Chemscore.Fitness>
4.7823

> <Gold.Chemscore.DG>
-12.0167

> <Gold.Chemscore.ZeroCoef>
-5.4800

> <Gold.Chemscore.Hbond>
2.8068

> <Gold.Chemscore.Metal>
0.0000

> <Gold.Chemscore.Lipo>
63.0483

> <Gold.Chemscore.Internal_Hbond>
0.0000

> <Gold.Chemscore.DEClash>
3.1582

> <Gold.Chemscore.DEInternal>
4.0762

> <Gold.Chemscore.Rot>
3.9902

> <Gold.Chemscore.Internal.Correction>
   9.000000E+99

> <Gold.Chemscore.Hbonds>
donor molecule, donor type, donor heavy atom, donor atom, acceptor molecule, acceptor atom, score
      L1  H     7    37       P1 10174  0.09
      L1  H    24    48       P1  7921  0.98
      L1  H    26    51       P1 10747  0.85
      P1  H 10192 10197       L1    24  0.33

> <Gold.Chemscore.Hbond.Weighted>
-9.3749

> <Gold.Chemscore.Metal.Weighted>
-0.0000

> <Gold.Chemscore.Lipo.Weighted>
-7.3767

> <Gold.Chemscore.Internal_Hbond.Weighted>
0.0000

> <Gold.Chemscore.DEClash.Weighted>
3.1582

> <Gold.Chemscore.DEInternal.Weighted>
4.0762

> <Gold.Chemscore.Rot.Weighted>
10.2148

> <Gold.Chemscore.Internal.Correction.Weighted>
   9.000000E+99

> <Gold.Protein.RotatedTorsions>
[ 6907 6896 6895 6894 ] final -134.58 input  -60.11 | X-H torsion
[ 7974 7965 7964 7962 ] final  -41.47 input  175.53 | X-H torsion
[ 8008 7997 7996 7995 ] final  -32.42 input   59.86 | X-H torsion
[ 10167 10162 10161 10158 ] final  171.99 input  -65.29 | X-H torsion
[ 10718 10713 10712 10709 ] final    4.21 input   66.30 | X-H torsion
[ 10763 10752 10751 10750 ] final  -78.81 input  -60.55 | X-H torsion
[ 11005 11000 10999 10996 ] final  -87.22 input  -57.11 | X-H torsion

> <Gold.Protein.ActiveResidues>
 VAL166  LYS551  ARG553  GLY616  TRP617  ASP618  TYR619  PRO620  LYS621  CYS622 
 ASP623  PHE694  ASN695  SER759  ASP760  ASP761  ALA762  ILE779  LEU786  VAL792 
 PHE793  MET794  SER795  GLU796  ALA797  LYS798  CYS799  TRP800  GLU811  SER814 

> <Gold.Protein.RotatedAtoms>
  150.9876  133.6182  159.2712 H   0  0  0  0  0  0  0  0  0  0  0  0  # atno 6907 bound_to 6896
  151.3415  135.0863  159.9382 H   0  0  0  0  0  0  0  0  0  0  0  0  # atno 6908 bound_to 6896
  152.5235  133.9486  159.7715 H   0  0  0  0  0  0  0  0  0  0  0  0  # atno 6909 bound_to 6896
  146.0208  140.6852  142.9179 H   0  0  0  0  0  0  0  0  0  0  0  0  # atno 7974 bound_to 7965
  154.4180  140.1738  156.1725 H   0  0  0  0  0  0  0  0  0  0  0  0  # atno 8008 bound_to 7997
  155.9749  140.3382  155.6585 H   0  0  0  0  0  0  0  0  0  0  0  0  # atno 8009 bound_to 7997
  155.6577  140.0697  157.2556 H   0  0  0  0  0  0  0  0  0  0  0  0  # atno 8010 bound_to 7997
  139.5063  144.3424  152.0004 H   0  0  0  0  0  0  0  0  0  0  0  0  # atno 10167 bound_to 10162
  156.8892  130.5681  149.5650 H   0  0  0  0  0  0  0  0  0  0  0  0  # atno 10718 bound_to 10713
  154.5307  135.5717  153.6756 H   0  0  0  0  0  0  0  0  0  0  0  0  # atno 10763 bound_to 10752
  152.9938  135.6204  154.2633 H   0  0  0  0  0  0  0  0  0  0  0  0  # atno 10764 bound_to 10752
  154.2559  135.2857  155.2777 H   0  0  0  0  0  0  0  0  0  0  0  0  # atno 10765 bound_to 10752
  141.1620  133.7498  156.9274 H   0  0  0  0  0  0  0  0  0  0  0  0  # atno 11005 bound_to 11000
  144.6989  140.3562  143.7172 LP  0  0  0  0  0  0  0  0  0  0  0  0  # atno 17320 bound_to 7965
  145.7196  139.1706  143.2492 LP  0  0  0  0  0  0  0  0  0  0  0  0  # atno 17321 bound_to 7965
  140.2862  144.3805  150.6103 LP  0  0  0  0  0  0  0  0  0  0  0  0  # atno 17342 bound_to 10162
  140.5981  143.2167  151.7125 LP  0  0  0  0  0  0  0  0  0  0  0  0  # atno 17343 bound_to 10162
  156.0637  130.5685  150.9246 LP  0  0  0  0  0  0  0  0  0  0  0  0  # atno 17370 bound_to 10713
  157.6094  131.0937  150.8822 LP  0  0  0  0  0  0  0  0  0  0  0  0  # atno 17371 bound_to 10713
  140.1409  134.9294  157.2466 LP  0  0  0  0  0  0  0  0  0  0  0  0  # atno 17394 bound_to 11000
  140.2837  134.3320  155.7335 LP  0  0  0  0  0  0  0  0  0  0  0  0  # atno 17395 bound_to 11000

$$$$
