AV-unprocessed.smi:1386|AV-procd|sdf|5639|dock8
  -GOLD-   22720 5253D 1   1.00000     0.00000
 Structure written by MMmdl.
 35 36  0  0  0  0  0  0  0  0  1 V2000
  149.2576  140.5258  157.4542 C   0  0  0  0  0  0  0  0  0  0  0  0
  150.4946  140.8601  156.6104 C   0  0  1  0  0  0  0  0  0  0  0  0
  150.1234  141.6894  155.3639 C   0  0  0  0  0  0  0  0  0  0  0  0
  149.0028  141.1258  154.6320 N   0  0  0  0  0  0  0  0  0  0  0  0
  147.8859  141.7990  154.1543 C   0  0  0  0  0  0  0  0  0  0  0  0
  147.0915  140.8566  153.5414 C   0  0  0  0  0  0  0  0  0  0  0  0
  147.7009  139.6066  153.6196 N   0  0  0  0  0  0  0  0  0  0  0  0
  148.8302  139.8464  154.2726 C   0  0  0  0  0  0  0  0  0  0  0  0
  151.4585  141.5873  157.4359 N   0  0  0  0  0  0  0  0  0  0  0  0
  151.2167  142.7193  158.1211 C   0  0  0  0  0  0  0  0  0  0  0  0
  150.1466  143.3239  158.0386 O   0  0  0  0  0  0  0  0  0  0  0  0
  152.2449  143.1389  158.9008 N   0  0  0  0  0  0  0  0  0  0  0  0
  153.3271  142.2909  159.4271 C   0  0  0  0  0  0  0  0  0  0  0  0
  152.9459  141.8104  160.8374 C   0  0  0  0  0  0  0  0  0  0  0  0
  152.7706  143.2160  161.9806 S   0  0  0  0  0  0  0  0  0  0  0  0
  151.6793  144.2849  160.9902 C   0  0  0  0  0  0  0  0  0  0  0  0
  152.2195  144.4503  159.5592 C   0  0  0  0  0  0  0  0  0  0  0  0
  148.5280  139.9615  156.8728 H   0  0  0  0  0  0  0  0  0  0  0  0
  148.7666  141.4296  157.8170 H   0  0  0  0  0  0  0  0  0  0  0  0
  149.5257  139.9207  158.3208 H   0  0  0  0  0  0  0  0  0  0  0  0
  150.9216  139.9129  156.2769 H   0  0  0  0  0  0  0  0  0  0  0  0
  149.8577  142.7066  155.6539 H   0  0  0  0  0  0  0  0  0  0  0  0
  150.9784  141.7689  154.6908 H   0  0  0  0  0  0  0  0  0  0  0  0
  147.7477  142.8609  154.2954 H   0  0  0  0  0  0  0  0  0  0  0  0
  146.1365  140.9813  153.0528 H   0  0  0  0  0  0  0  0  0  0  0  0
  149.5444  139.0698  154.5041 H   0  0  0  0  0  0  0  0  0  0  0  0
  152.3688  141.1645  157.5435 H   0  0  0  0  0  0  0  0  0  0  0  0
  153.5490  141.4363  158.7877 H   0  0  0  0  0  0  0  0  0  0  0  0
  154.2582  142.8580  159.4671 H   0  0  0  0  0  0  0  0  0  0  0  0
  152.0080  141.2557  160.8107 H   0  0  0  0  0  0  0  0  0  0  0  0
  153.7062  141.1344  161.2284 H   0  0  0  0  0  0  0  0  0  0  0  0
  150.6781  143.8521  160.9722 H   0  0  0  0  0  0  0  0  0  0  0  0
  151.5990  145.2547  161.4814 H   0  0  0  0  0  0  0  0  0  0  0  0
  153.2212  144.8817  159.5812 H   0  0  0  0  0  0  0  0  0  0  0  0
  151.6089  145.1681  159.0092 H   0  0  0  0  0  0  0  0  0  0  0  0
  1  2  1  0  0  0  0
  1 18  1  0  0  0  0
  1 19  1  0  0  0  0
  1 20  1  0  0  0  0
  2  3  1  0  0  0  0
  2  9  1  0  0  0  0
  2 21  1  0  0  0  0
  3  4  1  0  0  0  0
  3 22  1  0  0  0  0
  3 23  1  0  0  0  0
  4  8  1  0  0  0  0
  4  5  1  0  0  0  0
  5  6  2  0  0  0  0
  5 24  1  0  0  0  0
  6  7  1  0  0  0  0
  6 25  1  0  0  0  0
  7  8  2  0  0  0  0
  8 26  1  0  0  0  0
  9 10  1  0  0  0  0
  9 27  1  0  0  0  0
 10 11  2  0  0  0  0
 10 12  1  0  0  0  0
 12 17  1  0  0  0  0
 12 13  1  0  0  0  0
 13 14  1  0  0  0  0
 13 28  1  0  0  0  0
 13 29  1  0  0  0  0
 14 15  1  0  0  0  0
 14 30  1  0  0  0  0
 14 31  1  0  0  0  0
 15 16  1  0  0  0  0
 16 17  1  0  0  0  0
 16 32  1  0  0  0  0
 16 33  1  0  0  0  0
 17 34  1  0  0  0  0
 17 35  1  0  0  0  0
M  END
> <s_m_source_file>
AV-unprocessed.smi

> <i_m_source_file_index>
1386

> <i_lp_mmshare_version>
43012

> <i_f3d_flags>
0

> <s_epik_input>
W2NIXTFuW2NIXVtjSF1uMVtDSDJdW0NAQEhdKFtDSDNdKVtOSF1DKD1PKU4yW0NIMl1bQ0gyXVNbQ0gyXVtDSDJdMg==

> <s_epik_cmdline>
J2VwaWtfcHl0aG9uJywgJy1waCcsICc3LjAnLCAnLXRuJywgJzgnLCAnLW1hJywgJzIwMCcsICctbWV0YWxfYmluZGluZycsICctaW1hZScsICc8aW5maWxlLm1hZT4nLCAnLW9tYWUnLCAnPG91dGZpbGUubWFlPic=

> <r_lp_tautomer_probability>
1

> <r_epik_Ionization_Penalty>
0.622677

> <r_epik_Ionization_Penalty_Charging>
0.62263

> <r_epik_Ionization_Penalty_Neutral>
4.67019e-05

> <r_epik_State_Penalty>
0.63879

> <r_epik_Charging_Adjusted_Penalty>
1.26142

> <i_epik_Tot_Q>
0

> <i_epik_Tot_abs_Q>
0

> <r_epik_Metal_State_Penalty>
0.307117

> <b_epik_Metal_Only>
0

> <s_lp_Force_Field>
OPLS_2005

> <r_lp_Energy>
24.3831

> <b_lp_Chiralities_Consistent>
1

> <s_lp_Variant>
AV-unprocessed.smi:1386-4

> <Gold.Version>
5.8.1

> <Gold.Id.Protein>
6NUR|6NUR_protein|mol2

> <Gold.PLP.Fitness>
45.7085

> <Gold.PLP.PLP>
-40.4152

> <Gold.PLP.part.hbond>
0.0000

> <Gold.PLP.part.metal>
0.0000

> <Gold.PLP.part.buried>
-4.6046

> <Gold.PLP.part.nonpolar>
-36.9556

> <Gold.PLP.part.repulsive>
0.9569

> <Gold.PLP.ligand.clash>
0.0000

> <Gold.PLP.ligand.torsion>
0.3757

> <Gold.PLP.Chemscore.Hbond>
0.0000

> <Gold.PLP.Chemscore.CHOScore>
1.9952

> <Gold.PLP.Chemscore.Metal>
0.0000

> <Gold.Chemscore.Hbonds>
donor molecule, donor type, donor heavy atom, donor atom, acceptor molecule, acceptor atom, score
      L1  C     5    24       P1  8028  1.00
      L1  C     6    25       P1 10175  0.93

> <Gold.PLP.Chemscore.Internal.Correction>
0.0589

> <Gold.Rescore>
     Score         DG    S(hbond)    S(metal)    S(lipo)     H(rot)  DE(clash)    DE(int)     intcor
     10.56     -11.94       0.00        0.00      90.03       1.59       0.04       1.34       ----

> <Gold.Chemscore.Fitness>
10.5624

> <Gold.Chemscore.DG>
-11.9424

> <Gold.Chemscore.ZeroCoef>
-5.4800

> <Gold.Chemscore.Hbond>
0.0000

> <Gold.Chemscore.Metal>
0.0000

> <Gold.Chemscore.Lipo>
90.0254

> <Gold.Chemscore.Internal_Hbond>
0.0000

> <Gold.Chemscore.DEClash>
0.0409

> <Gold.Chemscore.DEInternal>
1.3391

> <Gold.Chemscore.Rot>
1.5901

> <Gold.Chemscore.Internal.Correction>
   9.000000E+99

> <Gold.Chemscore.Hbond.Weighted>
-0.0000

> <Gold.Chemscore.Metal.Weighted>
-0.0000

> <Gold.Chemscore.Lipo.Weighted>
-10.5330

> <Gold.Chemscore.Internal_Hbond.Weighted>
0.0000

> <Gold.Chemscore.DEClash.Weighted>
0.0409

> <Gold.Chemscore.DEInternal.Weighted>
1.3391

> <Gold.Chemscore.Rot.Weighted>
4.0706

> <Gold.Chemscore.Internal.Correction.Weighted>
   9.000000E+99

> <Gold.Protein.RotatedTorsions>
[ 6907 6896 6895 6894 ] final   90.35 input  -60.11 | X-H torsion
[ 7974 7965 7964 7962 ] final   22.51 input  175.53 | X-H torsion
[ 8008 7997 7996 7995 ] final   51.32 input   59.86 | X-H torsion
[ 10167 10162 10161 10158 ] final -163.83 input  -65.29 | X-H torsion
[ 10718 10713 10712 10709 ] final  -71.31 input   66.30 | X-H torsion
[ 10763 10752 10751 10750 ] final   51.15 input  -60.55 | X-H torsion
[ 11005 11000 10999 10996 ] final -141.21 input  -57.11 | X-H torsion

> <Gold.Protein.ActiveResidues>
 VAL166  LYS551  ARG553  GLY616  TRP617  ASP618  TYR619  PRO620  LYS621  CYS622 
 ASP623  PHE694  ASN695  SER759  ASP760  ASP761  ALA762  ILE779  LEU786  VAL792 
 PHE793  MET794  SER795  GLU796  ALA797  LYS798  CYS799  TRP800  GLU811  SER814 

> <Gold.Protein.RotatedAtoms>
  152.5444  134.1825  159.8640 H   0  0  0  0  0  0  0  0  0  0  0  0  # atno 6907 bound_to 6896
  151.1826  133.4708  159.2601 H   0  0  0  0  0  0  0  0  0  0  0  0  # atno 6908 bound_to 6896
  151.1163  135.0066  159.8573 H   0  0  0  0  0  0  0  0  0  0  0  0  # atno 6909 bound_to 6896
  146.2025  139.7875  142.8750 H   0  0  0  0  0  0  0  0  0  0  0  0  # atno 7974 bound_to 7965
  155.4333  140.3451  155.4282 H   0  0  0  0  0  0  0  0  0  0  0  0  # atno 8008 bound_to 7997
  156.1323  140.1518  156.9077 H   0  0  0  0  0  0  0  0  0  0  0  0  # atno 8009 bound_to 7997
  154.4904  140.0843  156.7562 H   0  0  0  0  0  0  0  0  0  0  0  0  # atno 8010 bound_to 7997
  139.6293  144.0471  152.2002 H   0  0  0  0  0  0  0  0  0  0  0  0  # atno 10167 bound_to 10162
  156.0368  130.4349  150.2425 H   0  0  0  0  0  0  0  0  0  0  0  0  # atno 10718 bound_to 10713
  152.9785  135.5855  154.4369 H   0  0  0  0  0  0  0  0  0  0  0  0  # atno 10763 bound_to 10752
  154.3975  135.2768  155.2119 H   0  0  0  0  0  0  0  0  0  0  0  0  # atno 10764 bound_to 10752
  154.3964  135.6113  153.5926 H   0  0  0  0  0  0  0  0  0  0  0  0  # atno 10765 bound_to 10752
  140.8346  134.2475  157.4840 H   0  0  0  0  0  0  0  0  0  0  0  0  # atno 11005 bound_to 11000
  145.3433  141.0292  143.3380 LP  0  0  0  0  0  0  0  0  0  0  0  0  # atno 17320 bound_to 7965
  144.8716  139.5029  143.6765 LP  0  0  0  0  0  0  0  0  0  0  0  0  # atno 17321 bound_to 7965
  140.0133  144.6208  150.7629 LP  0  0  0  0  0  0  0  0  0  0  0  0  # atno 17342 bound_to 10162
  140.7429  143.2839  151.3519 LP  0  0  0  0  0  0  0  0  0  0  0  0  # atno 17343 bound_to 10162
  157.0524  131.0066  151.3249 LP  0  0  0  0  0  0  0  0  0  0  0  0  # atno 17370 bound_to 10713
  157.5131  130.7951  149.7726 LP  0  0  0  0  0  0  0  0  0  0  0  0  # atno 17371 bound_to 10713
  139.8704  134.9604  156.4363 LP  0  0  0  0  0  0  0  0  0  0  0  0  # atno 17394 bound_to 11000
  140.8961  133.7813  155.9626 LP  0  0  0  0  0  0  0  0  0  0  0  0  # atno 17395 bound_to 11000

$$$$
