AV-unprocessed.smi:2068|AV-procd|sdf|8430|dock7
  -GOLD-   2272011123D 1   1.00000     0.00000
 Structure written by MMmdl.
 32 33  0  0  0  0  0  0  0  0  2 V2000
  147.7742  138.6558  153.0033 N   0  0  0  0  0  0  0  0  0  0  0  0
  147.9404  138.9993  154.2843 C   0  0  0  0  0  0  0  0  0  0  0  0
  147.4871  138.3256  155.2076 O   0  0  0  0  0  0  0  0  0  0  0  0
  148.7100  140.2914  154.5734 C   0  0  0  0  0  0  0  0  0  0  0  0
  149.9151  140.0164  155.4265 C   0  0  0  0  0  0  0  0  0  0  0  0
  151.0328  139.3047  155.0738 C   0  0  0  0  0  0  0  0  0  0  0  0
  152.1933  139.2449  156.3695 S   0  0  0  0  0  0  0  0  0  0  0  0
  151.1063  140.2068  157.3725 C   0  0  0  0  0  0  0  0  0  0  0  0
  151.3600  140.5927  158.6323 N   0  5  0  0  0  0  0  0  0  0  0  0
  152.6443  140.7084  159.0483 C   0  0  0  0  0  0  0  0  0  0  0  0
  153.6244  140.0357  158.7246 O   0  0  0  0  0  0  0  0  0  0  0  0
  152.8294  141.8618  160.0443 C   0  0  0  0  0  0  0  0  0  0  0  0
  151.8471  143.0297  159.8060 C   0  0  1  0  0  0  0  0  0  0  0  0
  151.9055  144.1053  160.8639 C   0  0  0  0  0  0  0  0  0  0  0  0
  152.0721  145.3221  160.3509 C   0  0  0  0  0  0  0  0  0  0  0  0
  152.1596  145.3068  158.8501 C   0  0  0  0  0  0  0  0  0  0  0  0
  152.1233  143.8042  158.4919 C   0  0  0  0  0  0  0  0  0  0  0  0
  149.9695  140.5061  156.7347 N   0  0  0  0  0  0  0  0  0  0  0  0
  147.2922  137.8003  152.7691 H   0  0  0  0  0  0  0  0  0  0  0  0
  148.1521  139.2442  152.2737 H   0  0  0  0  0  0  0  0  0  0  0  0
  148.9982  140.7502  153.6266 H   0  0  0  0  0  0  0  0  0  0  0  0
  148.0481  141.0022  155.0699 H   0  0  0  0  0  0  0  0  0  0  0  0
  151.2460  138.8196  154.1332 H   0  0  0  0  0  0  0  0  0  0  0  0
  152.7400  141.5054  161.0729 H   0  0  0  0  0  0  0  0  0  0  0  0
  153.8525  142.2257  159.9440 H   0  0  0  0  0  0  0  0  0  0  0  0
  150.8249  142.6481  159.7908 H   0  0  0  0  0  0  0  0  0  0  0  0
  151.8059  143.8858  161.9172 H   0  0  0  0  0  0  0  0  0  0  0  0
  152.1294  146.2364  160.9229 H   0  0  0  0  0  0  0  0  0  0  0  0
  151.3115  145.8442  158.4247 H   0  0  0  0  0  0  0  0  0  0  0  0
  153.0808  145.7826  158.5127 H   0  0  0  0  0  0  0  0  0  0  0  0
  153.0826  143.5095  158.0641 H   0  0  0  0  0  0  0  0  0  0  0  0
  151.3619  143.5929  157.7404 H   0  0  0  0  0  0  0  0  0  0  0  0
  1  2  1  0  0  0  0
  1 19  1  0  0  0  0
  1 20  1  0  0  0  0
  2  3  2  0  0  0  0
  2  4  1  0  0  0  0
  4  5  1  0  0  0  0
  4 21  1  0  0  0  0
  4 22  1  0  0  0  0
  5 18  1  0  0  0  0
  5  6  2  0  0  0  0
  6  7  1  0  0  0  0
  6 23  1  0  0  0  0
  7  8  1  0  0  0  0
  8  9  1  0  0  0  0
  8 18  2  0  0  0  0
  9 10  1  0  0  0  0
 10 11  2  0  0  0  0
 10 12  1  0  0  0  0
 12 13  1  0  0  0  0
 12 24  1  0  0  0  0
 12 25  1  0  0  0  0
 13 17  1  0  0  0  0
 13 14  1  0  0  0  0
 13 26  1  0  0  0  0
 14 15  2  0  0  0  0
 14 27  1  0  0  0  0
 15 16  1  0  0  0  0
 15 28  1  0  0  0  0
 16 17  1  0  0  0  0
 16 29  1  0  0  0  0
 16 30  1  0  0  0  0
 17 31  1  0  0  0  0
 17 32  1  0  0  0  0
M  CHG  1   9  -1
M  END
> <s_m_source_file>
AV-unprocessed.smi

> <i_m_source_file_index>
2068

> <i_lp_mmshare_version>
43012

> <i_f3d_flags>
0

> <s_epik_input>
W05IMl1DKD1PKVtDSDJdYzFbY0hdc2MobjEpW05IXUMoPU8pW0NIMl1bQ0BASF0yW0NIXT1bQ0hdW0NIMl1bQ0gyXTI=

> <s_epik_cmdline>
J2VwaWtfcHl0aG9uJywgJy1waCcsICc3LjAnLCAnLXRuJywgJzgnLCAnLW1hJywgJzIwMCcsICctbWV0YWxfYmluZGluZycsICctaW1hZScsICc8aW5maWxlLm1hZT4nLCAnLW9tYWUnLCAnPG91dGZpbGUubWFlPic=

> <r_lp_tautomer_probability>
1

> <r_epik_Ionization_Penalty>
4.99584

> <r_epik_Ionization_Penalty_Charging>
4.63763

> <r_epik_Ionization_Penalty_Neutral>
0.358213

> <r_epik_State_Penalty>
4.63739

> <r_epik_Charging_Adjusted_Penalty>
9.27502

> <i_epik_Tot_Q>
-1

> <i_epik_Tot_abs_Q>
1

> <r_epik_Metal_State_Penalty>
0.891949

> <b_epik_Metal_Only>
1

> <s_lp_Force_Field>
OPLS_2005

> <r_lp_Energy>
14.2455

> <b_lp_Chiralities_Consistent>
1

> <s_lp_Variant>
AV-unprocessed.smi:2068-4

> <Gold.Version>
5.8.1

> <Gold.Id.Protein>
6NUR|6NUR_protein|mol2

> <Gold.PLP.Fitness>
46.8385

> <Gold.PLP.PLP>
-41.3688

> <Gold.PLP.part.hbond>
-2.9786

> <Gold.PLP.part.metal>
0.0000

> <Gold.PLP.part.buried>
-2.8683

> <Gold.PLP.part.nonpolar>
-35.5812

> <Gold.PLP.part.repulsive>
0.1761

> <Gold.PLP.ligand.clash>
0.0589

> <Gold.PLP.ligand.torsion>
0.8271

> <Gold.PLP.Chemscore.Hbond>
2.3520

> <Gold.PLP.Chemscore.CHOScore>
0.0000

> <Gold.PLP.Chemscore.Metal>
0.0000

> <Gold.Chemscore.Hbonds>
donor molecule, donor type, donor heavy atom, donor atom, acceptor molecule, acceptor atom, score
      L1  H     1    20       P1  7957  1.00
      P1  H  7997  8008       L1    11  1.00

> <Gold.PLP.Chemscore.Internal.Correction>
0.1268

> <Gold.Rescore>
     Score         DG    S(hbond)    S(metal)    S(lipo)     H(rot)  DE(clash)    DE(int)     intcor
     16.81     -19.06       2.32        0.00      97.27       2.17       0.20       2.06       ----

> <Gold.Chemscore.Fitness>
16.8086

> <Gold.Chemscore.DG>
-19.0649

> <Gold.Chemscore.ZeroCoef>
-5.4800

> <Gold.Chemscore.Hbond>
2.3194

> <Gold.Chemscore.Metal>
0.0000

> <Gold.Chemscore.Lipo>
97.2702

> <Gold.Chemscore.Internal_Hbond>
0.0000

> <Gold.Chemscore.DEClash>
0.1988

> <Gold.Chemscore.DEInternal>
2.0575

> <Gold.Chemscore.Rot>
2.1650

> <Gold.Chemscore.Internal.Correction>
   9.000000E+99

> <Gold.Chemscore.Hbonds>
donor molecule, donor type, donor heavy atom, donor atom, acceptor molecule, acceptor atom, score
      L1  H     1    19       P1  7948  0.01
      L1  H     1    20       P1  7957  0.96
      P1  H  7997  8008       L1    11  0.95

> <Gold.Chemscore.Hbond.Weighted>
-7.7468

> <Gold.Chemscore.Metal.Weighted>
-0.0000

> <Gold.Chemscore.Lipo.Weighted>
-11.3806

> <Gold.Chemscore.Internal_Hbond.Weighted>
0.0000

> <Gold.Chemscore.DEClash.Weighted>
0.1988

> <Gold.Chemscore.DEInternal.Weighted>
2.0575

> <Gold.Chemscore.Rot.Weighted>
5.5425

> <Gold.Chemscore.Internal.Correction.Weighted>
   9.000000E+99

> <Gold.Protein.RotatedTorsions>
[ 6907 6896 6895 6894 ] final -140.11 input  -60.11 | X-H torsion
[ 7974 7965 7964 7962 ] final  124.36 input  175.53 | X-H torsion
[ 8008 7997 7996 7995 ] final -103.66 input   59.86 | X-H torsion
[ 10167 10162 10161 10158 ] final  134.67 input  -65.29 | X-H torsion
[ 10718 10713 10712 10709 ] final   86.36 input   66.30 | X-H torsion
[ 10763 10752 10751 10750 ] final -119.59 input  -60.55 | X-H torsion
[ 11005 11000 10999 10996 ] final   80.96 input  -57.11 | X-H torsion

> <Gold.Protein.ActiveResidues>
 VAL166  LYS551  ARG553  GLY616  TRP617  ASP618  TYR619  PRO620  LYS621  CYS622 
 ASP623  PHE694  ASN695  SER759  ASP760  ASP761  ALA762  ILE779  LEU786  VAL792 
 PHE793  MET794  SER795  GLU796  ALA797  LYS798  CYS799  TRP800  GLU811  SER814 

> <Gold.Protein.RotatedAtoms>
  151.0565  133.5580  159.2637 H   0  0  0  0  0  0  0  0  0  0  0  0  # atno 6907 bound_to 6896
  151.2571  135.0641  159.9094 H   0  0  0  0  0  0  0  0  0  0  0  0  # atno 6908 bound_to 6896
  152.5390  134.0316  159.8081 H   0  0  0  0  0  0  0  0  0  0  0  0  # atno 6909 bound_to 6896
  145.0852  139.3627  143.4888 H   0  0  0  0  0  0  0  0  0  0  0  0  # atno 7974 bound_to 7965
  154.8741  140.0421  157.1742 H   0  0  0  0  0  0  0  0  0  0  0  0  # atno 8008 bound_to 7997
  154.8708  140.2958  155.5462 H   0  0  0  0  0  0  0  0  0  0  0  0  # atno 8009 bound_to 7997
  156.2999  140.2429  156.3696 H   0  0  0  0  0  0  0  0  0  0  0  0  # atno 8010 bound_to 7997
  139.5247  144.6556  151.5172 H   0  0  0  0  0  0  0  0  0  0  0  0  # atno 10167 bound_to 10162
  157.6927  131.0212  150.2961 H   0  0  0  0  0  0  0  0  0  0  0  0  # atno 10718 bound_to 10713
  154.8621  135.4233  154.2323 H   0  0  0  0  0  0  0  0  0  0  0  0  # atno 10763 bound_to 10752
  153.3305  135.6988  153.6957 H   0  0  0  0  0  0  0  0  0  0  0  0  # atno 10764 bound_to 10752
  153.5976  135.3543  155.2907 H   0  0  0  0  0  0  0  0  0  0  0  0  # atno 10765 bound_to 10752
  139.9115  134.7961  156.1979 H   0  0  0  0  0  0  0  0  0  0  0  0  # atno 11005 bound_to 11000
  146.3531  140.0661  142.8626 LP  0  0  0  0  0  0  0  0  0  0  0  0  # atno 17320 bound_to 7965
  145.1130  140.9417  143.4645 LP  0  0  0  0  0  0  0  0  0  0  0  0  # atno 17321 bound_to 7965
  140.6380  143.8946  150.6665 LP  0  0  0  0  0  0  0  0  0  0  0  0  # atno 17342 bound_to 10162
  140.2271  143.3764  152.1596 LP  0  0  0  0  0  0  0  0  0  0  0  0  # atno 17343 bound_to 10162
  156.3484  130.3827  149.7349 LP  0  0  0  0  0  0  0  0  0  0  0  0  # atno 17370 bound_to 10713
  156.4835  130.8052  151.3065 LP  0  0  0  0  0  0  0  0  0  0  0  0  # atno 17371 bound_to 10713
  141.0543  133.6873  156.1831 LP  0  0  0  0  0  0  0  0  0  0  0  0  # atno 17394 bound_to 11000
  140.6761  134.4816  157.5588 LP  0  0  0  0  0  0  0  0  0  0  0  0  # atno 17395 bound_to 11000

$$$$
