AV-unprocessed.smi:2938|AV-procd|sdf|11260|dock9
  -GOLD-   2272016153D 1   1.00000     0.00000
 Structure written by MMmdl.
 26 27  0  0  0  0  0  0  0  0  2 V2000
  150.4130  140.6338  154.6422 N   0  0  0  0  0  0  0  0  0  0  0  0
  150.9833  139.9537  155.3851 C   0  0  0  0  0  0  0  0  0  0  0  0
  151.7051  139.0956  156.3225 C   0  0  0  0  0  0  0  0  0  0  0  0
  151.9751  137.7334  156.0351 C   0  0  0  0  0  0  0  0  0  0  0  0
  151.5865  137.1232  154.8744 O   0  5  0  0  0  0  0  0  0  0  0  0
  152.6418  136.9388  156.8995 N   0  0  0  0  0  0  0  0  0  0  0  0
  153.0383  137.4948  158.0429 C   0  0  0  0  0  0  0  0  0  0  0  0
  153.7148  136.6801  158.9159 N   0  0  0  0  0  0  0  0  0  0  0  0
  152.8470  138.7568  158.4276 N   0  0  0  0  0  0  0  0  0  0  0  0
  152.1791  139.5721  157.5740 C   0  0  0  0  0  0  0  0  0  0  0  0
  151.9720  140.9037  157.9761 N   0  0  0  0  0  0  0  0  0  0  0  0
  150.5660  141.2805  158.0444 C   0  0  0  0  0  0  0  0  0  0  0  0
  150.4402  142.7826  158.3525 C   0  0  0  0  0  0  0  0  0  0  0  0
  151.1442  143.0854  159.5542 O   0  0  0  0  0  0  0  0  0  0  0  0
  152.5328  142.7815  159.4512 C   0  0  0  0  0  0  0  0  0  0  0  0
  152.7132  141.2790  159.1734 C   0  0  0  0  0  0  0  0  0  0  0  0
  153.8910  135.7143  158.6827 H   0  0  0  0  0  0  0  0  0  0  0  0
  154.0417  137.0446  159.7984 H   0  0  0  0  0  0  0  0  0  0  0  0
  150.0750  141.0490  157.0983 H   0  0  0  0  0  0  0  0  0  0  0  0
  150.0652  140.6996  158.8203 H   0  0  0  0  0  0  0  0  0  0  0  0
  150.8313  143.3826  157.5290 H   0  0  0  0  0  0  0  0  0  0  0  0
  149.3921  143.0552  158.4758 H   0  0  0  0  0  0  0  0  0  0  0  0
  152.9890  143.3807  158.6615 H   0  0  0  0  0  0  0  0  0  0  0  0
  153.0269  143.0540  160.3839 H   0  0  0  0  0  0  0  0  0  0  0  0
  152.3570  140.6993  160.0261 H   0  0  0  0  0  0  0  0  0  0  0  0
  153.7705  141.0459  159.0413 H   0  0  0  0  0  0  0  0  0  0  0  0
  1  2  3  0  0  0  0
  2  3  1  0  0  0  0
  3 10  1  0  0  0  0
  3  4  2  0  0  0  0
  4  5  1  0  0  0  0
  4  6  1  0  0  0  0
  6  7  2  0  0  0  0
  7  8  1  0  0  0  0
  7  9  1  0  0  0  0
  8 17  1  0  0  0  0
  8 18  1  0  0  0  0
  9 10  2  0  0  0  0
 10 11  1  0  0  0  0
 11 16  1  0  0  0  0
 11 12  1  0  0  0  0
 12 13  1  0  0  0  0
 12 19  1  0  0  0  0
 12 20  1  0  0  0  0
 13 14  1  0  0  0  0
 13 21  1  0  0  0  0
 13 22  1  0  0  0  0
 14 15  1  0  0  0  0
 15 16  1  0  0  0  0
 15 23  1  0  0  0  0
 15 24  1  0  0  0  0
 16 25  1  0  0  0  0
 16 26  1  0  0  0  0
M  CHG  1   5  -1
M  END
> <s_m_source_file>
AV-unprocessed.smi

> <i_m_source_file_index>
2938

> <i_lp_mmshare_version>
43012

> <i_f3d_flags>
0

> <s_epik_input>
TiNDYzFjKFtPSF0pbmMoW05IMl0pbmMxTjJbQ0gyXVtDSDJdT1tDSDJdW0NIMl0y

> <s_epik_cmdline>
J2VwaWtfcHl0aG9uJywgJy1waCcsICc3LjAnLCAnLXRuJywgJzgnLCAnLW1hJywgJzIwMCcsICctbWV0YWxfYmluZGluZycsICctaW1hZScsICc8aW5maWxlLm1hZT4nLCAnLW9tYWUnLCAnPG91dGZpbGUubWFlPic=

> <r_lp_tautomer_probability>
1

> <r_epik_Ionization_Penalty>
0.00503702

> <r_epik_Ionization_Penalty_Charging>
2.31924e-12

> <r_epik_Ionization_Penalty_Neutral>
0.00503702

> <r_epik_State_Penalty>
-0

> <r_epik_Charging_Adjusted_Penalty>
2.31924e-12

> <i_epik_Tot_Q>
-1

> <i_epik_Tot_abs_Q>
1

> <r_epik_Metal_State_Penalty>
-0

> <b_epik_Metal_Only>
0

> <s_lp_Force_Field>
OPLS_2005

> <r_lp_Energy>
14.7587

> <b_lp_Chiralities_Consistent>
1

> <s_lp_Variant>
AV-unprocessed.smi:2938-1

> <Gold.Version>
5.8.1

> <Gold.Id.Protein>
6NUR|6NUR_protein|mol2

> <Gold.PLP.Fitness>
30.4485

> <Gold.PLP.PLP>
-22.3873

> <Gold.PLP.part.hbond>
-4.4860

> <Gold.PLP.part.metal>
0.0000

> <Gold.PLP.part.buried>
-1.3410

> <Gold.PLP.part.nonpolar>
-16.0805

> <Gold.PLP.part.repulsive>
0.3712

> <Gold.PLP.ligand.clash>
0.0000

> <Gold.PLP.ligand.torsion>
0.0931

> <Gold.PLP.Chemscore.Hbond>
2.7103

> <Gold.PLP.Chemscore.CHOScore>
0.0000

> <Gold.PLP.Chemscore.Metal>
0.0000

> <Gold.Chemscore.Hbonds>
donor molecule, donor type, donor heavy atom, donor atom, acceptor molecule, acceptor atom, score
      P1  H  7989  7998       L1     1  0.91
      P1  H 10752 10765       L1     5  1.59

> <Gold.PLP.Chemscore.Internal.Correction>
0.1165

> <Gold.Rescore>
     Score         DG    S(hbond)    S(metal)    S(lipo)     H(rot)  DE(clash)    DE(int)     intcor
     11.80     -12.83       1.69        0.00      36.32       1.00       0.02       1.01       ----

> <Gold.Chemscore.Fitness>
11.8045

> <Gold.Chemscore.DG>
-12.8292

> <Gold.Chemscore.ZeroCoef>
-5.4800

> <Gold.Chemscore.Hbond>
1.6946

> <Gold.Chemscore.Metal>
0.0000

> <Gold.Chemscore.Lipo>
36.3185

> <Gold.Chemscore.Internal_Hbond>
0.0000

> <Gold.Chemscore.DEClash>
0.0166

> <Gold.Chemscore.DEInternal>
1.0080

> <Gold.Chemscore.Rot>
1.0000

> <Gold.Chemscore.Internal.Correction>
   9.000000E+99

> <Gold.Chemscore.Hbonds>
donor molecule, donor type, donor heavy atom, donor atom, acceptor molecule, acceptor atom, score
      P1  H  7989  7998       L1     1  0.23
      P1  H 10752 10765       L1     5  0.65

> <Gold.Chemscore.Hbond.Weighted>
-5.6599

> <Gold.Chemscore.Metal.Weighted>
-0.0000

> <Gold.Chemscore.Lipo.Weighted>
-4.2493

> <Gold.Chemscore.Internal_Hbond.Weighted>
0.0000

> <Gold.Chemscore.DEClash.Weighted>
0.0166

> <Gold.Chemscore.DEInternal.Weighted>
1.0080

> <Gold.Chemscore.Rot.Weighted>
2.5600

> <Gold.Chemscore.Internal.Correction.Weighted>
   9.000000E+99

> <Gold.Protein.RotatedTorsions>
[ 6907 6896 6895 6894 ] final -125.95 input  -60.11 | X-H torsion
[ 7974 7965 7964 7962 ] final   31.89 input  175.53 | X-H torsion
[ 8008 7997 7996 7995 ] final -120.12 input   59.86 | X-H torsion
[ 10167 10162 10161 10158 ] final  -60.85 input  -65.29 | X-H torsion
[ 10718 10713 10712 10709 ] final -138.99 input   66.30 | X-H torsion
[ 10763 10752 10751 10750 ] final  156.57 input  -60.55 | X-H torsion
[ 11005 11000 10999 10996 ] final -107.77 input  -57.11 | X-H torsion

> <Gold.Protein.ActiveResidues>
 VAL166  LYS551  ARG553  GLY616  TRP617  ASP618  TYR619  PRO620  LYS621  CYS622 
 ASP623  PHE694  ASN695  SER759  ASP760  ASP761  ALA762  ILE779  LEU786  VAL792 
 PHE793  MET794  SER795  GLU796  ALA797  LYS798  CYS799  TRP800  GLU811  SER814 

> <Gold.Protein.RotatedAtoms>
  150.8920  133.7231  159.2901 H   0  0  0  0  0  0  0  0  0  0  0  0  # atno 6907 bound_to 6896
  151.4778  135.1049  159.9779 H   0  0  0  0  0  0  0  0  0  0  0  0  # atno 6908 bound_to 6896
  152.4826  133.8244  159.7126 H   0  0  0  0  0  0  0  0  0  0  0  0  # atno 6909 bound_to 6896
  146.1522  139.6598  142.9091 H   0  0  0  0  0  0  0  0  0  0  0  0  # atno 7974 bound_to 7965
  155.1267  140.0399  157.2764 H   0  0  0  0  0  0  0  0  0  0  0  0  # atno 8008 bound_to 7997
  154.6573  140.2583  155.7121 H   0  0  0  0  0  0  0  0  0  0  0  0  # atno 8009 bound_to 7997
  156.2604  140.2824  156.1031 H   0  0  0  0  0  0  0  0  0  0  0  0  # atno 8010 bound_to 7997
  140.6044  143.2369  151.5855 H   0  0  0  0  0  0  0  0  0  0  0  0  # atno 10167 bound_to 10162
  156.3057  130.7453  151.1516 H   0  0  0  0  0  0  0  0  0  0  0  0  # atno 10718 bound_to 10713
  154.1865  135.2797  155.3035 H   0  0  0  0  0  0  0  0  0  0  0  0  # atno 10763 bound_to 10752
  154.5962  135.5544  153.7331 H   0  0  0  0  0  0  0  0  0  0  0  0  # atno 10764 bound_to 10752
  153.0124  135.6380  154.2004 H   0  0  0  0  0  0  0  0  0  0  0  0  # atno 10765 bound_to 10752
  141.0937  133.9010  157.2015 H   0  0  0  0  0  0  0  0  0  0  0  0  # atno 11005 bound_to 11000
  145.4796  141.0437  143.2653 LP  0  0  0  0  0  0  0  0  0  0  0  0  # atno 17320 bound_to 7965
  144.7918  139.6314  143.7110 LP  0  0  0  0  0  0  0  0  0  0  0  0  # atno 17321 bound_to 7965
  139.5314  144.2905  152.1156 LP  0  0  0  0  0  0  0  0  0  0  0  0  # atno 17342 bound_to 10162
  140.2092  144.4580  150.6394 LP  0  0  0  0  0  0  0  0  0  0  0  0  # atno 17343 bound_to 10162
  157.7379  131.0547  150.5328 LP  0  0  0  0  0  0  0  0  0  0  0  0  # atno 17370 bound_to 10713
  156.5462  130.4220  149.6130 LP  0  0  0  0  0  0  0  0  0  0  0  0  # atno 17371 bound_to 10713
  139.9768  135.0111  156.9651 LP  0  0  0  0  0  0  0  0  0  0  0  0  # atno 17394 bound_to 11000
  140.5192  134.0925  155.7288 LP  0  0  0  0  0  0  0  0  0  0  0  0  # atno 17395 bound_to 11000

$$$$
