AV-unprocessed.smi:550|AV-procd|sdf|2895|dock8
  -GOLD-   2262023393D 1   1.00000     0.00000
 Structure written by MMmdl.
 45 47  0  0  0  0  0  0  0  0  1 V2000
  146.5797  139.7532  153.5489 O   0  0  0  0  0  0  0  0  0  0  0  0
  147.3913  138.9008  153.1880 C   0  0  0  0  0  0  0  0  0  0  0  0
  147.0795  137.8847  152.3725 N   0  0  0  0  0  0  0  0  0  0  0  0
  145.7503  137.6497  151.8205 C   0  0  0  0  0  0  0  0  0  0  0  0
  145.2595  136.2250  152.1296 C   0  0  1  0  0  0  0  0  0  0  0  0
  143.7213  136.1249  152.1365 C   0  0  0  0  0  0  0  0  0  0  0  0
  143.3289  134.6454  152.1805 C   0  0  0  0  0  0  0  0  0  0  0  0
  144.5984  133.7741  151.1905 S   0  0  0  0  0  0  0  0  0  0  0  0
  145.1497  132.6655  151.9844 O   0  0  0  0  0  0  0  0  0  0  0  0
  144.0888  133.5506  149.8292 O   0  0  0  0  0  0  0  0  0  0  0  0
  145.7974  135.1623  151.1542 C   0  0  0  0  0  0  0  0  0  0  0  0
  148.6908  138.8741  153.5307 N   0  0  0  0  0  0  0  0  0  0  0  0
  149.3769  139.7352  154.4290 C   0  0  0  0  0  0  0  0  0  0  0  0
  149.0752  141.1067  154.5944 C   0  0  0  0  0  0  0  0  0  0  0  0
  149.8053  141.8573  155.5352 C   0  0  0  0  0  0  0  0  0  0  0  0
  150.8132  141.2187  156.2957 C   0  0  0  0  0  0  0  0  0  0  0  0
  151.5689  141.9379  157.2429 N   0  0  0  0  0  0  0  0  0  0  0  0
  152.1188  141.3023  158.4300 C   0  0  0  0  0  0  0  0  0  0  0  0
  152.7318  142.4493  159.2321 C   0  0  0  0  0  0  0  0  0  0  0  0
  151.8172  143.6293  158.9033 C   0  0  0  0  0  0  0  0  0  0  0  0
  151.3629  143.3627  157.4633 C   0  0  0  0  0  0  0  0  0  0  0  0
  151.0962  139.9032  156.1400 N   0  0  0  0  0  0  0  0  0  0  0  0
  150.3914  139.1871  155.2391 C   0  0  0  0  0  0  0  0  0  0  0  0
  147.8057  137.2315  152.1178 H   0  0  0  0  0  0  0  0  0  0  0  0
  145.0455  138.3733  152.2338 H   0  0  0  0  0  0  0  0  0  0  0  0
  145.7815  137.8165  150.7429 H   0  0  0  0  0  0  0  0  0  0  0  0
  145.6008  135.9535  153.1299 H   0  0  0  0  0  0  0  0  0  0  0  0
  143.2838  136.6771  152.9686 H   0  0  0  0  0  0  0  0  0  0  0  0
  143.3282  136.5659  151.2194 H   0  0  0  0  0  0  0  0  0  0  0  0
  143.3749  134.2639  153.2009 H   0  0  0  0  0  0  0  0  0  0  0  0
  142.3347  134.4521  151.7778 H   0  0  0  0  0  0  0  0  0  0  0  0
  145.8301  135.5453  150.1338 H   0  0  0  0  0  0  0  0  0  0  0  0
  146.7915  134.8041  151.4217 H   0  0  0  0  0  0  0  0  0  0  0  0
  149.2629  138.1817  153.0694 H   0  0  0  0  0  0  0  0  0  0  0  0
  148.2928  141.5920  154.0316 H   0  0  0  0  0  0  0  0  0  0  0  0
  149.5840  142.9070  155.6578 H   0  0  0  0  0  0  0  0  0  0  0  0
  151.3157  140.8245  158.9927 H   0  0  0  0  0  0  0  0  0  0  0  0
  152.8617  140.5458  158.1748 H   0  0  0  0  0  0  0  0  0  0  0  0
  152.7903  142.2369  160.2999 H   0  0  0  0  0  0  0  0  0  0  0  0
  153.7410  142.6544  158.8722 H   0  0  0  0  0  0  0  0  0  0  0  0
  150.9524  143.6139  159.5678 H   0  0  0  0  0  0  0  0  0  0  0  0
  152.3100  144.5949  159.0187 H   0  0  0  0  0  0  0  0  0  0  0  0
  151.9747  143.9211  156.7542 H   0  0  0  0  0  0  0  0  0  0  0  0
  150.3212  143.6544  157.3241 H   0  0  0  0  0  0  0  0  0  0  0  0
  150.6520  138.1418  155.1600 H   0  0  0  0  0  0  0  0  0  0  0  0
  1  2  2  0  0  0  0
  2  3  1  0  0  0  0
  2 12  1  0  0  0  0
  3  4  1  0  0  0  0
  3 24  1  0  0  0  0
  4  5  1  0  0  0  0
  4 25  1  0  0  0  0
  4 26  1  0  0  0  0
  5 11  1  0  0  0  0
  5  6  1  0  0  0  0
  5 27  1  0  0  0  0
  6  7  1  0  0  0  0
  6 28  1  0  0  0  0
  6 29  1  0  0  0  0
  7  8  1  0  0  0  0
  7 30  1  0  0  0  0
  7 31  1  0  0  0  0
  8  9  2  0  0  0  0
  8 10  2  0  0  0  0
  8 11  1  0  0  0  0
 11 32  1  0  0  0  0
 11 33  1  0  0  0  0
 12 13  1  0  0  0  0
 12 34  1  0  0  0  0
 13 23  1  0  0  0  0
 13 14  2  0  0  0  0
 14 15  1  0  0  0  0
 14 35  1  0  0  0  0
 15 16  2  0  0  0  0
 15 36  1  0  0  0  0
 16 17  1  0  0  0  0
 16 22  1  0  0  0  0
 17 21  1  0  0  0  0
 17 18  1  0  0  0  0
 18 19  1  0  0  0  0
 18 37  1  0  0  0  0
 18 38  1  0  0  0  0
 19 20  1  0  0  0  0
 19 39  1  0  0  0  0
 19 40  1  0  0  0  0
 20 21  1  0  0  0  0
 20 41  1  0  0  0  0
 20 42  1  0  0  0  0
 21 43  1  0  0  0  0
 21 44  1  0  0  0  0
 22 23  2  0  0  0  0
 23 45  1  0  0  0  0
M  END
> <s_m_source_file>
AV-unprocessed.smi

> <i_m_source_file_index>
550

> <i_lp_mmshare_version>
43012

> <i_f3d_flags>
0

> <s_epik_input>
Tz1TMSg9TylbQ0gyXVtDSDJdW0NASF0oW0NIMl0xKVtDSDJdW05IXUMoPU8pW05IXWMyW2NIXVtjSF1jKG5bY0hdMilOM1tDSDJdW0NIMl1bQ0gyXVtDSDJdMw==

> <s_epik_cmdline>
J2VwaWtfcHl0aG9uJywgJy1waCcsICc3LjAnLCAnLXRuJywgJzgnLCAnLW1hJywgJzIwMCcsICctbWV0YWxfYmluZGluZycsICctaW1hZScsICc8aW5maWxlLm1hZT4nLCAnLW9tYWUnLCAnPG91dGZpbGUubWFlPic=

> <r_lp_tautomer_probability>
1

> <r_epik_Ionization_Penalty>
0.0965651

> <r_epik_Ionization_Penalty_Charging>
0

> <r_epik_Ionization_Penalty_Neutral>
0.0965651

> <r_epik_State_Penalty>
0.0861592

> <r_epik_Charging_Adjusted_Penalty>
0.0861592

> <i_epik_Tot_Q>
0

> <i_epik_Tot_abs_Q>
0

> <r_epik_Metal_State_Penalty>
0.0740405

> <b_epik_Metal_Only>
0

> <s_lp_Force_Field>
OPLS_2005

> <r_lp_Energy>
33.1318

> <b_lp_Chiralities_Consistent>
1

> <s_lp_Variant>
AV-unprocessed.smi:550-2

> <Gold.Version>
5.8.1

> <Gold.Id.Protein>
6NUR|6NUR_protein|mol2

> <Gold.PLP.Fitness>
44.5571

> <Gold.PLP.PLP>
-41.9624

> <Gold.PLP.part.hbond>
-2.7498

> <Gold.PLP.part.metal>
0.0000

> <Gold.PLP.part.buried>
-4.1441

> <Gold.PLP.part.nonpolar>
-36.8776

> <Gold.PLP.part.repulsive>
0.6364

> <Gold.PLP.ligand.clash>
0.0000

> <Gold.PLP.ligand.torsion>
0.7096

> <Gold.PLP.Chemscore.Hbond>
1.2723

> <Gold.PLP.Chemscore.CHOScore>
0.0000

> <Gold.PLP.Chemscore.Metal>
0.0000

> <Gold.Chemscore.Hbonds>
donor molecule, donor type, donor heavy atom, donor atom, acceptor molecule, acceptor atom, score
      L1  H     3    24       P1  7948  0.99
      L1  H    12    34       P1  7948  0.29

> <Gold.PLP.Chemscore.Internal.Correction>
0.1970

> <Gold.Rescore>
     Score         DG    S(hbond)    S(metal)    S(lipo)     H(rot)  DE(clash)    DE(int)     intcor
     15.63     -17.43       1.30        0.00      92.35       1.25       0.14       1.66       ----

> <Gold.Chemscore.Fitness>
15.6327

> <Gold.Chemscore.DG>
-17.4314

> <Gold.Chemscore.ZeroCoef>
-5.4800

> <Gold.Chemscore.Hbond>
1.3017

> <Gold.Chemscore.Metal>
0.0000

> <Gold.Chemscore.Lipo>
92.3540

> <Gold.Chemscore.Internal_Hbond>
0.0000

> <Gold.Chemscore.DEClash>
0.1410

> <Gold.Chemscore.DEInternal>
1.6577

> <Gold.Chemscore.Rot>
1.2506

> <Gold.Chemscore.Internal.Correction>
   9.000000E+99

> <Gold.Chemscore.Hbonds>
donor molecule, donor type, donor heavy atom, donor atom, acceptor molecule, acceptor atom, score
      L1  H     3    24       P1  7948  0.92
      L1  H    12    34       P1  7948  0.28

> <Gold.Chemscore.Hbond.Weighted>
-4.3475

> <Gold.Chemscore.Metal.Weighted>
-0.0000

> <Gold.Chemscore.Lipo.Weighted>
-10.8054

> <Gold.Chemscore.Internal_Hbond.Weighted>
0.0000

> <Gold.Chemscore.DEClash.Weighted>
0.1410

> <Gold.Chemscore.DEInternal.Weighted>
1.6577

> <Gold.Chemscore.Rot.Weighted>
3.2016

> <Gold.Chemscore.Internal.Correction.Weighted>
   9.000000E+99

> <Gold.Protein.RotatedTorsions>
[ 6907 6896 6895 6894 ] final  -21.68 input  -60.11 | X-H torsion
[ 7974 7965 7964 7962 ] final -172.85 input  175.53 | X-H torsion
[ 8008 7997 7996 7995 ] final  120.22 input   59.86 | X-H torsion
[ 10167 10162 10161 10158 ] final  165.10 input  -65.29 | X-H torsion
[ 10718 10713 10712 10709 ] final  132.50 input   66.30 | X-H torsion
[ 10763 10752 10751 10750 ] final -145.06 input  -60.55 | X-H torsion
[ 11005 11000 10999 10996 ] final   61.02 input  -57.11 | X-H torsion

> <Gold.Protein.ActiveResidues>
 VAL166  LYS551  ARG553  GLY616  TRP617  ASP618  TYR619  PRO620  LYS621  CYS622 
 ASP623  PHE694  ASN695  SER759  ASP760  ASP761  ALA762  ILE779  LEU786  VAL792 
 PHE793  MET794  SER795  GLU796  ALA797  LYS798  CYS799  TRP800  GLU811  SER814 

> <Gold.Protein.RotatedAtoms>
  151.2297  135.0549  159.8982 H   0  0  0  0  0  0  0  0  0  0  0  0  # atno 6907 bound_to 6896
  152.5406  134.0550  159.8137 H   0  0  0  0  0  0  0  0  0  0  0  0  # atno 6908 bound_to 6896
  151.0728  133.5403  159.2657 H   0  0  0  0  0  0  0  0  0  0  0  0  # atno 6909 bound_to 6896
  144.7142  140.1710  143.6367 H   0  0  0  0  0  0  0  0  0  0  0  0  # atno 7974 bound_to 7965
  156.2632  140.2835  156.1115 H   0  0  0  0  0  0  0  0  0  0  0  0  # atno 8008 bound_to 7997
  155.1252  140.0393  157.2778 H   0  0  0  0  0  0  0  0  0  0  0  0  # atno 8009 bound_to 7997
  154.6641  140.2573  155.7083 H   0  0  0  0  0  0  0  0  0  0  0  0  # atno 8010 bound_to 7997
  139.4900  144.4167  151.9235 H   0  0  0  0  0  0  0  0  0  0  0  0  # atno 10167 bound_to 10162
  157.4865  131.1088  150.9613 H   0  0  0  0  0  0  0  0  0  0  0  0  # atno 10718 bound_to 10713
  154.8400  135.3423  154.6445 H   0  0  0  0  0  0  0  0  0  0  0  0  # atno 10763 bound_to 10752
  153.7057  135.6967  153.5055 H   0  0  0  0  0  0  0  0  0  0  0  0  # atno 10764 bound_to 10752
  153.2490  135.4360  155.0731 H   0  0  0  0  0  0  0  0  0  0  0  0  # atno 10765 bound_to 10752
  140.0191  134.6180  155.9666 H   0  0  0  0  0  0  0  0  0  0  0  0  # atno 11005 bound_to 11000
  145.8943  139.2394  143.1531 LP  0  0  0  0  0  0  0  0  0  0  0  0  # atno 17320 bound_to 7965
  145.9873  140.8633  143.0084 LP  0  0  0  0  0  0  0  0  0  0  0  0  # atno 17321 bound_to 7965
  140.3610  144.2973  150.5933 LP  0  0  0  0  0  0  0  0  0  0  0  0  # atno 17342 bound_to 10162
  140.5403  143.2225  151.8096 LP  0  0  0  0  0  0  0  0  0  0  0  0  # atno 17343 bound_to 10162
  157.0329  130.5718  149.5345 LP  0  0  0  0  0  0  0  0  0  0  0  0  # atno 17370 bound_to 10713
  156.0150  130.5243  150.8105 LP  0  0  0  0  0  0  0  0  0  0  0  0  # atno 17371 bound_to 10713
  141.1762  133.6540  156.4838 LP  0  0  0  0  0  0  0  0  0  0  0  0  # atno 17394 bound_to 11000
  140.4419  134.7007  157.4996 LP  0  0  0  0  0  0  0  0  0  0  0  0  # atno 17395 bound_to 11000

$$$$
