#       Name:                AV-unprocessed.smi:3181
#       Creating user name   scv26
#       Creation time:       Fri Mar 27 17:58:48 2020


#       File generated by GOLD software.
#

@<TRIPOS>MOLECULE
AV-unprocessed.smi:3181
    44    45     1
SMALL
NO_CHARGES


@<TRIPOS>ATOM
      1 ****        -1.8578  -2.0951   1.3256 C.3            1 S1                 0.0000
      2 ****        -1.3674  -1.4348   0.0259 C.3            1 S1                 0.0000
      3 ****        -1.8192  -2.1867  -1.2420 C.3            1 S1                 0.0000
      4 ****        -3.2622  -2.3013  -1.3460 N.pl3          1 S1                 0.0000
      5 ****        -4.1778  -1.4058  -1.7191 C.2            1 S1                 0.0000
      6 ****        -5.4198  -1.8677  -1.6927 N.2            1 S1                 0.0000
      7 ****        -5.1798  -3.1446  -1.2696 C.2            1 S1                 0.0000
      8 ****        -3.9024  -3.4560  -1.0481 N.2            1 S1                 0.0000
      9 ****         0.1100  -1.3363   0.0382 N.4            1 S1                 1.0000
     10 ****         0.6658   0.0353   0.0587 C.3            1 S1                 0.0000
     11 ****         0.4782   0.7001   1.4375 C.3            1 S1                 0.0000
     12 ****         1.1095   2.1009   1.4795 C.3            1 S1                 0.0000
     13 ****         2.6006   2.0642   1.0894 C.3            1 S1                 0.0000
     14 ****         3.2551   3.4507   1.2048 C.3            1 S1                 0.0000
     15 ****         2.8127   1.3977  -0.2942 C.3            1 S1                 0.0000
     16 ****         2.3547   2.2593  -1.4887 C.3            1 S1                 0.0000
     17 ****         2.1604  -0.0010  -0.3160 C.3            1 S1                 0.0000
     18 ****        -2.9464  -2.1092   1.3819 H              1 S1                 0.0000
     19 ****        -1.4986  -1.5554   2.2021 H              1 S1                 0.0000
     20 ****        -1.5080  -3.1250   1.4033 H              1 S1                 0.0000
     21 ****        -1.7954  -0.4319  -0.0163 H              1 S1                 0.0000
     22 ****        -1.4597  -1.6689  -2.1323 H              1 S1                 0.0000
     23 ****        -1.3840  -3.1874  -1.2673 H              1 S1                 0.0000
     24 ****        -3.9316  -0.3959  -2.0133 H              1 S1                 0.0000
     25 ****        -5.9698  -3.8659  -1.1197 H              1 S1                 0.0000
     26 ****         0.4694  -1.8489   0.8308 H              1 S1                 0.0000
     27 ****         0.1391   0.6183  -0.6979 H              1 S1                 0.0000
     28 ****        -0.5805   0.7782   1.6858 H              1 S1                 0.0000
     29 ****         0.9297   0.0776   2.2115 H              1 S1                 0.0000
     30 ****         0.5627   2.7705   0.8150 H              1 S1                 0.0000
     31 ****         1.0000   2.5143   2.4827 H              1 S1                 0.0000
     32 ****         3.1030   1.4303   1.8220 H              1 S1                 0.0000
     33 ****         2.7593   4.1871   0.5722 H              1 S1                 0.0000
     34 ****         4.3066   3.4150   0.9187 H              1 S1                 0.0000
     35 ****         3.2068   3.8189   2.2299 H              1 S1                 0.0000
     36 ****         3.8858   1.2475  -0.4217 H              1 S1                 0.0000
     37 ****         1.3018   2.5315  -1.4229 H              1 S1                 0.0000
     38 ****         2.4967   1.7261  -2.4290 H              1 S1                 0.0000
     39 ****         2.9300   3.1821  -1.5591 H              1 S1                 0.0000
     40 ****         2.6902  -0.6488   0.3843 H              1 S1                 0.0000
     41 ****         2.2894  -0.4545  -1.2997 H              1 S1                 0.0000
     42 ****         0.4444  -1.7839  -0.8032 H              1 S1                 0.0000
     43 ****        -6.2821  -1.4137  -1.9172 LP             1 S1                 0.0000
     44 ****        -3.5147  -4.3246  -0.7394 LP             1 S1                 0.0000
@<TRIPOS>BOND
    1    1    2 1     
    2    1   18 1     
    3    1   19 1     
    4    1   20 1     
    5    2    3 1     
    6    2    9 1     
    7    2   21 1     
    8    3    4 1     
    9    3   22 1     
   10    3   23 1     
   11    4    8 1     
   12    4    5 1     
   13    5    6 2     
   14    5   24 1     
   15    6    7 1     
   16    7    8 2     
   17    7   25 1     
   18    9   10 1     
   19    9   26 1     
   20    9   42 1     
   21   10   17 1     
   22   10   11 1     
   23   10   27 1     
   24   11   12 1     
   25   11   28 1     
   26   11   29 1     
   27   12   13 1     
   28   12   30 1     
   29   12   31 1     
   30   13   14 1     
   31   13   15 1     
   32   13   32 1     
   33   14   33 1     
   34   14   34 1     
   35   14   35 1     
   36   15   16 1     
   37   15   17 1     
   38   15   36 1     
   39   16   37 1     
   40   16   38 1     
   41   16   39 1     
   42   17   40 1     
   43   17   41 1     
   44    6   43 1     
   45    8   44 1     
@<TRIPOS>SUBSTRUCTURE
      1 S1             1
@<TRIPOS>SET
LONE_PAIRS      STATIC     ATOMS    <user>   **** ""
2 43 44
DONOR_HYDROGENS      STATIC     ATOMS    <user>   **** ""
2 26 42
ATOM$BLUE        STATIC     ATOMS    COLORGROUP SYSTEM
2 43 44
ATOM$RED        STATIC     ATOMS    COLORGROUP SYSTEM
2 26 42
