AV-unprocessed.smi:2307|AV-procd|sdf|9251|dock2
  -GOLD-   2272012473D 1   1.00000     0.00000
 Structure written by MMmdl.
 38 39  0  0  0  0  0  0  0  0  1 V2000
  151.6482  144.3754  160.3520 C   0  0  0  0  0  0  0  0  0  0  0  0
  151.7606  143.2844  159.3019 C   0  0  0  0  0  0  0  0  0  0  0  0
  151.0547  143.5121  158.1169 N   0  0  0  0  0  0  0  0  0  0  0  0
  151.0943  142.6385  157.1645 C   0  0  0  0  0  0  0  0  0  0  0  0
  151.8364  141.4523  157.2825 N   0  0  0  0  0  0  0  0  0  0  0  0
  151.8000  140.5422  156.1257 C   0  0  0  0  0  0  0  0  0  0  0  0
  150.3624  140.1011  155.7725 C   0  0  1  0  0  0  0  0  0  0  0  0
  150.2698  139.9388  154.3706 O   0  0  0  0  0  0  0  0  0  0  0  0
  149.9920  138.8208  156.5055 C   0  0  0  0  0  0  0  0  0  0  0  0
  150.0967  138.7607  157.9099 C   0  0  0  0  0  0  0  0  0  0  0  0
  149.7663  137.5767  158.5961 C   0  0  0  0  0  0  0  0  0  0  0  0
  149.3283  136.4330  157.8976 C   0  0  0  0  0  0  0  0  0  0  0  0
  149.0261  135.3192  158.6545 O   0  0  0  0  0  0  0  0  0  0  0  0
  147.8896  135.2613  159.4008 C   0  0  0  0  0  0  0  0  0  0  0  0
  147.7360  134.0073  159.8904 F   0  0  0  0  0  0  0  0  0  0  0  0
  147.9413  136.0971  160.4684 F   0  0  0  0  0  0  0  0  0  0  0  0
  146.7841  135.5347  158.6633 F   0  0  0  0  0  0  0  0  0  0  0  0
  149.2296  136.4959  156.4847 C   0  0  0  0  0  0  0  0  0  0  0  0
  149.5609  137.6794  155.7970 C   0  0  0  0  0  0  0  0  0  0  0  0
  152.5455  141.1468  158.4078 C   0  0  0  0  0  0  0  0  0  0  0  0
  153.1808  140.0951  158.5062 O   0  0  0  0  0  0  0  0  0  0  0  0
  152.4933  142.1517  159.4820 C   0  0  0  0  0  0  0  0  0  0  0  0
  153.2820  141.8496  160.7501 C   0  0  0  0  0  0  0  0  0  0  0  0
  152.6313  144.7872  160.5816 H   0  0  0  0  0  0  0  0  0  0  0  0
  151.2123  143.9792  161.2694 H   0  0  0  0  0  0  0  0  0  0  0  0
  151.0151  145.1945  160.0084 H   0  0  0  0  0  0  0  0  0  0  0  0
  150.5574  142.7657  156.2229 H   0  0  0  0  0  0  0  0  0  0  0  0
  152.3008  140.9591  155.2493 H   0  0  0  0  0  0  0  0  0  0  0  0
  152.3930  139.6605  156.3773 H   0  0  0  0  0  0  0  0  0  0  0  0
  149.6483  140.8739  156.0600 H   0  0  0  0  0  0  0  0  0  0  0  0
  149.4023  139.6262  154.1628 H   0  0  0  0  0  0  0  0  0  0  0  0
  150.4343  139.6221  158.4676 H   0  0  0  0  0  0  0  0  0  0  0  0
  149.8510  137.5460  159.6725 H   0  0  0  0  0  0  0  0  0  0  0  0
  148.9031  135.6477  155.9032 H   0  0  0  0  0  0  0  0  0  0  0  0
  149.4849  137.7055  154.7198 H   0  0  0  0  0  0  0  0  0  0  0  0
  152.9269  140.9233  161.2031 H   0  0  0  0  0  0  0  0  0  0  0  0
  153.2036  142.6331  161.5020 H   0  0  0  0  0  0  0  0  0  0  0  0
  154.3395  141.7270  160.5137 H   0  0  0  0  0  0  0  0  0  0  0  0
  1  2  1  0  0  0  0
  1 24  1  0  0  0  0
  1 25  1  0  0  0  0
  1 26  1  0  0  0  0
  2 22  2  0  0  0  0
  2  3  1  0  0  0  0
  3  4  2  0  0  0  0
  4  5  1  0  0  0  0
  4 27  1  0  0  0  0
  5  6  1  0  0  0  0
  5 20  1  0  0  0  0
  6  7  1  0  0  0  0
  6 28  1  0  0  0  0
  6 29  1  0  0  0  0
  7  8  1  0  0  0  0
  7  9  1  0  0  0  0
  7 30  1  0  0  0  0
  8 31  1  0  0  0  0
  9 19  1  0  0  0  0
  9 10  2  0  0  0  0
 10 11  1  0  0  0  0
 10 32  1  0  0  0  0
 11 12  2  0  0  0  0
 11 33  1  0  0  0  0
 12 13  1  0  0  0  0
 12 18  1  0  0  0  0
 13 14  1  0  0  0  0
 14 15  1  0  0  0  0
 14 16  1  0  0  0  0
 14 17  1  0  0  0  0
 18 19  2  0  0  0  0
 18 34  1  0  0  0  0
 19 35  1  0  0  0  0
 20 21  2  0  0  0  0
 20 22  1  0  0  0  0
 22 23  1  0  0  0  0
 23 36  1  0  0  0  0
 23 37  1  0  0  0  0
 23 38  1  0  0  0  0
M  END
> <s_m_source_file>
AV-unprocessed.smi

> <i_m_source_file_index>
2307

> <i_lp_mmshare_version>
43012

> <i_f3d_flags>
0

> <s_epik_input>
W0NIM11jMW5bY0hdbihjKD1PKWMxW0NIM10pW0NIMl1bQ0BIXShbT0hdKWMyW2NIXVtjSF1jKE9DKEYpKEYpRilbY0hdW2NIXTI=

> <s_epik_cmdline>
J2VwaWtfcHl0aG9uJywgJy1waCcsICc3LjAnLCAnLXRuJywgJzgnLCAnLW1hJywgJzIwMCcsICctbWV0YWxfYmluZGluZycsICctaW1hZScsICc8aW5maWxlLm1hZT4nLCAnLW9tYWUnLCAnPG91dGZpbGUubWFlPic=

> <r_lp_tautomer_probability>
1

> <r_epik_Ionization_Penalty>
5.07003e-05

> <r_epik_Ionization_Penalty_Charging>
7.56727e-08

> <r_epik_Ionization_Penalty_Neutral>
5.06246e-05

> <r_epik_State_Penalty>
-0

> <r_epik_Charging_Adjusted_Penalty>
7.56727e-08

> <i_epik_Tot_Q>
0

> <i_epik_Tot_abs_Q>
0

> <r_epik_Metal_State_Penalty>
-0

> <b_epik_Metal_Only>
0

> <s_lp_Force_Field>
OPLS_2005

> <r_lp_Energy>
18.0652

> <b_lp_Chiralities_Consistent>
1

> <s_lp_Variant>
AV-unprocessed.smi:2307-2

> <Gold.Version>
5.8.1

> <Gold.Id.Protein>
6NUR|6NUR_protein|mol2

> <Gold.PLP.Fitness>
46.2690

> <Gold.PLP.PLP>
-35.5768

> <Gold.PLP.part.hbond>
-3.0000

> <Gold.PLP.part.metal>
0.0000

> <Gold.PLP.part.buried>
-5.9730

> <Gold.PLP.part.nonpolar>
-26.5133

> <Gold.PLP.part.repulsive>
0.1258

> <Gold.PLP.ligand.clash>
0.0000

> <Gold.PLP.ligand.torsion>
0.6711

> <Gold.PLP.Chemscore.Hbond>
2.9587

> <Gold.PLP.Chemscore.CHOScore>
0.9989

> <Gold.PLP.Chemscore.Metal>
0.0000

> <Gold.Chemscore.Hbonds>
donor molecule, donor type, donor heavy atom, donor atom, acceptor molecule, acceptor atom, score
      P1  H  6896  6909       L1    13  1.00
      P1  H  7989  7998       L1     8  1.00
      P1  H  7997  8010       L1    21  0.98
      L1  C     4    27       P1  8028  0.69

> <Gold.PLP.Chemscore.Internal.Correction>
0.1615

> <Gold.Rescore>
     Score         DG    S(hbond)    S(metal)    S(lipo)     H(rot)  DE(clash)    DE(int)     intcor
     14.36     -15.97       2.50        0.00      77.12       2.69       0.74       0.86       ----

> <Gold.Chemscore.Fitness>
14.3644

> <Gold.Chemscore.DG>
-15.9653

> <Gold.Chemscore.ZeroCoef>
-5.4800

> <Gold.Chemscore.Hbond>
2.4961

> <Gold.Chemscore.Metal>
0.0000

> <Gold.Chemscore.Lipo>
77.1242

> <Gold.Chemscore.Internal_Hbond>
0.0000

> <Gold.Chemscore.DEClash>
0.7432

> <Gold.Chemscore.DEInternal>
0.8578

> <Gold.Chemscore.Rot>
2.6856

> <Gold.Chemscore.Internal.Correction>
   9.000000E+99

> <Gold.Chemscore.Hbonds>
donor molecule, donor type, donor heavy atom, donor atom, acceptor molecule, acceptor atom, score
      P1  H  6896  6909       L1    13  0.63
      P1  H  7989  7998       L1     8  0.81
      P1  H  7997  8010       L1    21  0.62

> <Gold.Chemscore.Hbond.Weighted>
-8.3369

> <Gold.Chemscore.Metal.Weighted>
-0.0000

> <Gold.Chemscore.Lipo.Weighted>
-9.0235

> <Gold.Chemscore.Internal_Hbond.Weighted>
0.0000

> <Gold.Chemscore.DEClash.Weighted>
0.7432

> <Gold.Chemscore.DEInternal.Weighted>
0.8578

> <Gold.Chemscore.Rot.Weighted>
6.8751

> <Gold.Chemscore.Internal.Correction.Weighted>
   9.000000E+99

> <Gold.Protein.RotatedTorsions>
[ 6907 6896 6895 6894 ] final   53.79 input  -60.11 | X-H torsion
[ 7974 7965 7964 7962 ] final   -2.86 input  175.53 | X-H torsion
[ 8008 7997 7996 7995 ] final   30.94 input   59.86 | X-H torsion
[ 10167 10162 10161 10158 ] final -103.82 input  -65.29 | X-H torsion
[ 10718 10713 10712 10709 ] final  -26.40 input   66.30 | X-H torsion
[ 10763 10752 10751 10750 ] final  105.91 input  -60.55 | X-H torsion
[ 11005 11000 10999 10996 ] final   42.97 input  -57.11 | X-H torsion

> <Gold.Protein.ActiveResidues>
 VAL166  LYS551  ARG553  GLY616  TRP617  ASP618  TYR619  PRO620  LYS621  CYS622 
 ASP623  PHE694  ASN695  SER759  ASP760  ASP761  ALA762  ILE779  LEU786  VAL792 
 PHE793  MET794  SER795  GLU796  ALA797  LYS798  CYS799  TRP800  GLU811  SER814 

> <Gold.Protein.RotatedAtoms>
  152.3373  134.7181  160.0273 H   0  0  0  0  0  0  0  0  0  0  0  0  # atno 6907 bound_to 6896
  151.7577  133.3326  159.3417 H   0  0  0  0  0  0  0  0  0  0  0  0  # atno 6908 bound_to 6896
  150.7458  134.6066  159.6109 H   0  0  0  0  0  0  0  0  0  0  0  0  # atno 6909 bound_to 6896
  146.2398  140.1635  142.8332 H   0  0  0  0  0  0  0  0  0  0  0  0  # atno 7974 bound_to 7965
  155.0984  140.3227  155.4554 H   0  0  0  0  0  0  0  0  0  0  0  0  # atno 8008 bound_to 7997
  156.2724  140.2065  156.6057 H   0  0  0  0  0  0  0  0  0  0  0  0  # atno 8009 bound_to 7997
  154.6848  140.0522  157.0290 H   0  0  0  0  0  0  0  0  0  0  0  0  # atno 8010 bound_to 7997
  140.2159  143.3711  152.1011 H   0  0  0  0  0  0  0  0  0  0  0  0  # atno 10167 bound_to 10162
  156.4518  130.4485  149.6985 H   0  0  0  0  0  0  0  0  0  0  0  0  # atno 10718 bound_to 10713
  153.3858  135.3894  155.1889 H   0  0  0  0  0  0  0  0  0  0  0  0  # atno 10763 bound_to 10752
  154.8713  135.3736  154.4799 H   0  0  0  0  0  0  0  0  0  0  0  0  # atno 10764 bound_to 10752
  153.5281  135.7086  153.5758 H   0  0  0  0  0  0  0  0  0  0  0  0  # atno 10765 bound_to 10752
  140.1688  134.4248  155.8270 H   0  0  0  0  0  0  0  0  0  0  0  0  # atno 11005 bound_to 11000
  145.0070  140.8681  143.5247 LP  0  0  0  0  0  0  0  0  0  0  0  0  # atno 17320 bound_to 7965
  145.1662  139.2430  143.5365 LP  0  0  0  0  0  0  0  0  0  0  0  0  # atno 17321 bound_to 7965
  139.5162  144.6974  151.5591 LP  0  0  0  0  0  0  0  0  0  0  0  0  # atno 17342 bound_to 10162
  140.6290  143.9113  150.6589 LP  0  0  0  0  0  0  0  0  0  0  0  0  # atno 17343 bound_to 10162
  156.3809  130.7578  151.2571 LP  0  0  0  0  0  0  0  0  0  0  0  0  # atno 17370 bound_to 10713
  157.7502  131.0296  150.4100 LP  0  0  0  0  0  0  0  0  0  0  0  0  # atno 17371 bound_to 10713
  141.2216  133.6947  156.7727 LP  0  0  0  0  0  0  0  0  0  0  0  0  # atno 17394 bound_to 11000
  140.2401  134.8620  157.3565 LP  0  0  0  0  0  0  0  0  0  0  0  0  # atno 17395 bound_to 11000

$$$$
