AV-unprocessed.smi:313|AV-procd|sdf|2312|dock9
  -GOLD-   2262022213D 1   1.00000     0.00000
 Structure written by MMmdl.
 50 51  0  0  0  0  0  0  0  0  1 V2000
  151.8768  145.3845  160.3902 C   0  0  0  0  0  0  0  0  0  0  0  0
  150.9223  144.6211  159.4606 C   0  0  0  0  0  0  0  0  0  0  0  0
  151.5660  144.1897  158.1294 C   0  0  1  0  0  0  0  0  0  0  0  0
  152.8072  143.3132  158.3602 C   0  0  0  0  0  0  0  0  0  0  0  0
  150.5929  143.4732  157.3084 N   0  0  0  0  0  0  0  0  0  0  0  0
  150.2915  142.1698  157.4134 C   0  0  0  0  0  0  0  0  0  0  0  0
  150.8174  141.4178  158.2358 O   0  0  0  0  0  0  0  0  0  0  0  0
  149.2463  141.6381  156.4193 C   0  0  1  0  0  0  0  0  0  0  0  0
  149.5100  142.2968  155.0550 C   0  0  0  0  0  0  0  0  0  0  0  0
  149.3719  140.1909  156.2540 N   0  0  0  0  0  0  0  0  0  0  0  0
  150.3460  139.5693  155.5681 C   0  0  0  0  0  0  0  0  0  0  0  0
  151.2505  140.1641  154.9815 O   0  0  0  0  0  0  0  0  0  0  0  0
  150.2338  138.0742  155.4962 C   0  0  0  0  0  0  0  0  0  0  0  0
  149.2042  137.3730  156.1598 C   0  0  0  0  0  0  0  0  0  0  0  0
  149.1622  135.9682  156.0739 C   0  0  0  0  0  0  0  0  0  0  0  0
  150.1580  135.2882  155.3272 C   0  0  0  0  0  0  0  0  0  0  0  0
  150.1776  133.8791  155.2044 N   0  0  0  0  0  0  0  0  0  0  0  0
  149.1408  133.2811  154.3623 C   0  0  0  0  0  0  0  0  0  0  0  0
  149.4757  131.8138  154.0458 C   0  0  0  0  0  0  0  0  0  0  0  0
  149.6957  131.0978  155.2552 O   0  0  0  0  0  0  0  0  0  0  0  0
  150.8047  131.6202  155.9770 C   0  0  0  0  0  0  0  0  0  0  0  0
  150.5264  133.0790  156.3763 C   0  0  0  0  0  0  0  0  0  0  0  0
  151.1513  135.9672  154.7035 N   0  0  0  0  0  0  0  0  0  0  0  0
  151.1889  137.3136  154.7900 C   0  0  0  0  0  0  0  0  0  0  0  0
  151.3862  145.6254  161.3333 H   0  0  0  0  0  0  0  0  0  0  0  0
  152.2090  146.3221  159.9441 H   0  0  0  0  0  0  0  0  0  0  0  0
  152.7615  144.7897  160.6190 H   0  0  0  0  0  0  0  0  0  0  0  0
  150.5607  143.7366  159.9864 H   0  0  0  0  0  0  0  0  0  0  0  0
  150.0427  145.2357  159.2642 H   0  0  0  0  0  0  0  0  0  0  0  0
  151.8800  145.0933  157.6034 H   0  0  0  0  0  0  0  0  0  0  0  0
  153.5519  143.8389  158.9582 H   0  0  0  0  0  0  0  0  0  0  0  0
  153.2802  143.0395  157.4165 H   0  0  0  0  0  0  0  0  0  0  0  0
  152.5510  142.3913  158.8836 H   0  0  0  0  0  0  0  0  0  0  0  0
  150.1136  144.0115  156.6013 H   0  0  0  0  0  0  0  0  0  0  0  0
  148.2394  141.8880  156.7596 H   0  0  0  0  0  0  0  0  0  0  0  0
  149.4242  143.3826  155.1156 H   0  0  0  0  0  0  0  0  0  0  0  0
  148.7874  141.9564  154.3129 H   0  0  0  0  0  0  0  0  0  0  0  0
  150.5060  142.0623  154.6758 H   0  0  0  0  0  0  0  0  0  0  0  0
  148.6514  139.6222  156.6742 H   0  0  0  0  0  0  0  0  0  0  0  0
  148.4506  137.8942  156.7320 H   0  0  0  0  0  0  0  0  0  0  0  0
  148.3625  135.4473  156.5774 H   0  0  0  0  0  0  0  0  0  0  0  0
  148.1858  133.3428  154.8854 H   0  0  0  0  0  0  0  0  0  0  0  0
  149.0250  133.8189  153.4216 H   0  0  0  0  0  0  0  0  0  0  0  0
  148.6510  131.3501  153.5045 H   0  0  0  0  0  0  0  0  0  0  0  0
  150.3551  131.7462  153.4031 H   0  0  0  0  0  0  0  0  0  0  0  0
  150.9680  131.0126  156.8672 H   0  0  0  0  0  0  0  0  0  0  0  0
  151.7114  131.5487  155.3732 H   0  0  0  0  0  0  0  0  0  0  0  0
  151.4181  133.4808  156.8583 H   0  0  0  0  0  0  0  0  0  0  0  0
  149.7099  133.1226  157.0984 H   0  0  0  0  0  0  0  0  0  0  0  0
  152.0069  137.7924  154.2714 H   0  0  0  0  0  0  0  0  0  0  0  0
  1  2  1  0  0  0  0
  1 25  1  0  0  0  0
  1 26  1  0  0  0  0
  1 27  1  0  0  0  0
  2  3  1  0  0  0  0
  2 28  1  0  0  0  0
  2 29  1  0  0  0  0
  3  4  1  0  0  0  0
  3  5  1  0  0  0  0
  3 30  1  0  0  0  0
  4 31  1  0  0  0  0
  4 32  1  0  0  0  0
  4 33  1  0  0  0  0
  5  6  1  0  0  0  0
  5 34  1  0  0  0  0
  6  7  2  0  0  0  0
  6  8  1  0  0  0  0
  8  9  1  0  0  0  0
  8 10  1  0  0  0  0
  8 35  1  0  0  0  0
  9 36  1  0  0  0  0
  9 37  1  0  0  0  0
  9 38  1  0  0  0  0
 10 11  1  0  0  0  0
 10 39  1  0  0  0  0
 11 12  2  0  0  0  0
 11 13  1  0  0  0  0
 13 24  1  0  0  0  0
 13 14  2  0  0  0  0
 14 15  1  0  0  0  0
 14 40  1  0  0  0  0
 15 16  2  0  0  0  0
 15 41  1  0  0  0  0
 16 17  1  0  0  0  0
 16 23  1  0  0  0  0
 17 22  1  0  0  0  0
 17 18  1  0  0  0  0
 18 19  1  0  0  0  0
 18 42  1  0  0  0  0
 18 43  1  0  0  0  0
 19 20  1  0  0  0  0
 19 44  1  0  0  0  0
 19 45  1  0  0  0  0
 20 21  1  0  0  0  0
 21 22  1  0  0  0  0
 21 46  1  0  0  0  0
 21 47  1  0  0  0  0
 22 48  1  0  0  0  0
 22 49  1  0  0  0  0
 23 24  2  0  0  0  0
 24 50  1  0  0  0  0
M  END
> <s_m_source_file>
AV-unprocessed.smi

> <i_m_source_file_index>
313

> <i_lp_mmshare_version>
43012

> <i_f3d_flags>
0

> <s_epik_input>
W0NIM11bQ0gyXVtDQEhdKFtDSDNdKVtOSF1DKD1PKVtDQEhdKFtDSDNdKVtOSF1DKD1PKWMxW2NIXVtjSF1jKG5bY0hdMSlOMltDSDJdW0NIMl1PW0NIMl1bQ0gyXTI=

> <s_epik_cmdline>
J2VwaWtfcHl0aG9uJywgJy1waCcsICc3LjAnLCAnLXRuJywgJzgnLCAnLW1hJywgJzIwMCcsICctbWV0YWxfYmluZGluZycsICctaW1hZScsICc8aW5maWxlLm1hZT4nLCAnLW9tYWUnLCAnPG91dGZpbGUubWFlPic=

> <r_lp_tautomer_probability>
1

> <r_epik_Ionization_Penalty>
9.96442e-06

> <r_epik_Ionization_Penalty_Charging>
0

> <r_epik_Ionization_Penalty_Neutral>
9.96442e-06

> <r_epik_State_Penalty>
-0

> <r_epik_Charging_Adjusted_Penalty>
0

> <i_epik_Tot_Q>
0

> <i_epik_Tot_abs_Q>
0

> <r_epik_Metal_State_Penalty>
-0

> <b_epik_Metal_Only>
0

> <s_lp_Force_Field>
OPLS_2005

> <r_lp_Energy>
19.952

> <b_lp_Chiralities_Consistent>
1

> <s_lp_Variant>
AV-unprocessed.smi:313-4

> <Gold.Version>
5.8.1

> <Gold.Id.Protein>
6NUR|6NUR_protein|mol2

> <Gold.PLP.Fitness>
43.4431

> <Gold.PLP.PLP>
-36.5839

> <Gold.PLP.part.hbond>
-3.0000

> <Gold.PLP.part.metal>
0.0000

> <Gold.PLP.part.buried>
-2.7157

> <Gold.PLP.part.nonpolar>
-30.7148

> <Gold.PLP.part.repulsive>
0.3363

> <Gold.PLP.ligand.clash>
0.0000

> <Gold.PLP.ligand.torsion>
1.3103

> <Gold.PLP.Chemscore.Hbond>
3.0000

> <Gold.PLP.Chemscore.CHOScore>
0.0000

> <Gold.PLP.Chemscore.Metal>
0.0000

> <Gold.Chemscore.Hbonds>
donor molecule, donor type, donor heavy atom, donor atom, acceptor molecule, acceptor atom, score
      L1  H     5    34       P1  8028  1.00
      P1  H  7989  7998       L1    12  1.00
      P1  H 10752 10765       L1    23  1.00

> <Gold.PLP.Chemscore.Internal.Correction>
0.4797

> <Gold.Rescore>
     Score         DG    S(hbond)    S(metal)    S(lipo)     H(rot)  DE(clash)    DE(int)     intcor
     14.62     -20.36       2.52        0.00      94.25       1.79       2.00       3.74       ----

> <Gold.Chemscore.Fitness>
14.6175

> <Gold.Chemscore.DG>
-20.3565

> <Gold.Chemscore.ZeroCoef>
-5.4800

> <Gold.Chemscore.Hbond>
2.5235

> <Gold.Chemscore.Metal>
0.0000

> <Gold.Chemscore.Lipo>
94.2498

> <Gold.Chemscore.Internal_Hbond>
0.0000

> <Gold.Chemscore.DEClash>
2.0010

> <Gold.Chemscore.DEInternal>
3.7379

> <Gold.Chemscore.Rot>
1.7888

> <Gold.Chemscore.Internal.Correction>
   9.000000E+99

> <Gold.Chemscore.Hbonds>
donor molecule, donor type, donor heavy atom, donor atom, acceptor molecule, acceptor atom, score
      L1  H     5    34       P1  8028  1.00
      P1  H  7989  7998       L1    12  0.99
      P1  H 10752 10765       L1    23  0.26

> <Gold.Chemscore.Hbond.Weighted>
-8.4285

> <Gold.Chemscore.Metal.Weighted>
-0.0000

> <Gold.Chemscore.Lipo.Weighted>
-11.0272

> <Gold.Chemscore.Internal_Hbond.Weighted>
0.0000

> <Gold.Chemscore.DEClash.Weighted>
2.0010

> <Gold.Chemscore.DEInternal.Weighted>
3.7379

> <Gold.Chemscore.Rot.Weighted>
4.5793

> <Gold.Chemscore.Internal.Correction.Weighted>
   9.000000E+99

> <Gold.Protein.RotatedTorsions>
[ 6907 6896 6895 6894 ] final  -51.33 input  -60.11 | X-H torsion
[ 7974 7965 7964 7962 ] final  147.47 input  175.53 | X-H torsion
[ 8008 7997 7996 7995 ] final -176.58 input   59.86 | X-H torsion
[ 10167 10162 10161 10158 ] final  -60.16 input  -65.29 | X-H torsion
[ 10718 10713 10712 10709 ] final    7.01 input   66.30 | X-H torsion
[ 10763 10752 10751 10750 ] final  166.18 input  -60.55 | X-H torsion
[ 11005 11000 10999 10996 ] final   69.69 input  -57.11 | X-H torsion

> <Gold.Protein.ActiveResidues>
 VAL166  LYS551  ARG553  GLY616  TRP617  ASP618  TYR619  PRO620  LYS621  CYS622 
 ASP623  PHE694  ASN695  SER759  ASP760  ASP761  ALA762  ILE779  LEU786  VAL792 
 PHE793  MET794  SER795  GLU796  ALA797  LYS798  CYS799  TRP800  GLU811  SER814 

> <Gold.Protein.RotatedAtoms>
  150.8622  134.7976  159.7091 H   0  0  0  0  0  0  0  0  0  0  0  0  # atno 6907 bound_to 6896
  152.4655  134.5082  159.9755 H   0  0  0  0  0  0  0  0  0  0  0  0  # atno 6908 bound_to 6896
  151.5184  133.3433  159.2932 H   0  0  0  0  0  0  0  0  0  0  0  0  # atno 6909 bound_to 6896
  144.8589  139.6033  143.5940 H   0  0  0  0  0  0  0  0  0  0  0  0  # atno 7974 bound_to 7965
  155.9965  140.1212  157.0588 H   0  0  0  0  0  0  0  0  0  0  0  0  # atno 8008 bound_to 7997
  154.4228  140.1115  156.5706 H   0  0  0  0  0  0  0  0  0  0  0  0  # atno 8009 bound_to 7997
  155.6271  140.3472  155.4673 H   0  0  0  0  0  0  0  0  0  0  0  0  # atno 8010 bound_to 7997
  140.6089  143.2381  151.5757 H   0  0  0  0  0  0  0  0  0  0  0  0  # atno 10167 bound_to 10162
  156.9306  130.5824  149.5649 H   0  0  0  0  0  0  0  0  0  0  0  0  # atno 10718 bound_to 10713
  154.3352  135.2754  155.2451 H   0  0  0  0  0  0  0  0  0  0  0  0  # atno 10763 bound_to 10752
  154.4746  135.5874  153.6349 H   0  0  0  0  0  0  0  0  0  0  0  0  # atno 10764 bound_to 10752
  152.9862  135.6096  154.3548 H   0  0  0  0  0  0  0  0  0  0  0  0  # atno 10765 bound_to 10752
  139.9640  134.7013  156.0586 H   0  0  0  0  0  0  0  0  0  0  0  0  # atno 11005 bound_to 11000
  146.2845  139.6965  142.9205 LP  0  0  0  0  0  0  0  0  0  0  0  0  # atno 17320 bound_to 7965
  145.4352  141.0418  143.2888 LP  0  0  0  0  0  0  0  0  0  0  0  0  # atno 17321 bound_to 7965
  139.5346  144.2819  152.1222 LP  0  0  0  0  0  0  0  0  0  0  0  0  # atno 17342 bound_to 10162
  140.2014  144.4654  150.6430 LP  0  0  0  0  0  0  0  0  0  0  0  0  # atno 17343 bound_to 10162
  156.0449  130.5527  150.8857 LP  0  0  0  0  0  0  0  0  0  0  0  0  # atno 17370 bound_to 10713
  157.5849  131.0945  150.9212 LP  0  0  0  0  0  0  0  0  0  0  0  0  # atno 17371 bound_to 10713
  141.1318  133.6584  156.3486 LP  0  0  0  0  0  0  0  0  0  0  0  0  # atno 17394 bound_to 11000
  140.5438  134.6094  157.5388 LP  0  0  0  0  0  0  0  0  0  0  0  0  # atno 17395 bound_to 11000

$$$$
