AV-unprocessed.smi:3343|AV-procd|sdf|12893|dock3
  -GOLD-   2272019303D 1   1.00000     0.00000
 Structure written by MMmdl.
 41 42  0  0  0  0  0  0  0  0  1 V2000
  150.7676  137.8211  154.6088 C   0  0  0  0  0  0  0  0  0  0  0  0
  150.9284  139.3537  154.6735 C   0  0  2  0  0  0  0  0  0  0  0  0
  151.6172  139.8336  155.9617 C   0  0  0  0  0  0  0  0  0  0  0  0
  152.8135  139.6175  156.1582 O   0  0  0  0  0  0  0  0  0  0  0  0
  150.8297  140.4640  156.8465 N   0  0  0  0  0  0  0  0  0  0  0  0
  151.2134  140.8334  158.2031 C   0  0  0  0  0  0  0  0  0  0  0  0
  152.0193  142.1453  158.2020 C   0  0  0  0  0  0  0  0  0  0  0  0
  152.5862  142.5376  159.4935 N   0  0  0  0  0  0  0  0  0  0  0  0
  151.6218  143.3241  160.2649 C   0  0  0  0  0  0  0  0  0  0  0  0
  152.1982  143.7614  161.6243 C   0  0  0  0  0  0  0  0  0  0  0  0
  152.5980  142.6078  162.4265 N   0  0  0  0  0  0  0  0  0  0  0  0
  153.1320  143.0125  163.7178 C   0  0  0  0  0  0  0  0  0  0  0  0
  153.5661  141.8195  161.6685 C   0  0  0  0  0  0  0  0  0  0  0  0
  152.9962  141.3868  160.3055 C   0  0  0  0  0  0  0  0  0  0  0  0
  149.6549  140.0458  154.5041 N   0  0  0  0  0  0  0  0  0  0  0  0
  148.4600  139.5693  154.1474 C   0  0  0  0  0  0  0  0  0  0  0  0
  147.5227  140.4991  154.0265 N   0  0  0  0  0  0  0  0  0  0  0  0
  148.2591  141.6067  154.3376 C   0  0  0  0  0  0  0  0  0  0  0  0
  149.5436  141.3930  154.6216 N   0  0  0  0  0  0  0  0  0  0  0  0
  151.7342  137.3211  154.6754 H   0  0  0  0  0  0  0  0  0  0  0  0
  150.3088  137.5189  153.6670 H   0  0  0  0  0  0  0  0  0  0  0  0
  150.1420  137.4400  155.4171 H   0  0  0  0  0  0  0  0  0  0  0  0
  151.5677  139.6484  153.8396 H   0  0  0  0  0  0  0  0  0  0  0  0
  149.8637  140.6137  156.5948 H   0  0  0  0  0  0  0  0  0  0  0  0
  150.3550  140.9131  158.8726 H   0  0  0  0  0  0  0  0  0  0  0  0
  151.8366  140.0269  158.5910 H   0  0  0  0  0  0  0  0  0  0  0  0
  152.8455  142.0050  157.5038 H   0  0  0  0  0  0  0  0  0  0  0  0
  151.4217  142.9584  157.7859 H   0  0  0  0  0  0  0  0  0  0  0  0
  151.3325  144.2103  159.6990 H   0  0  0  0  0  0  0  0  0  0  0  0
  150.7107  142.7454  160.4249 H   0  0  0  0  0  0  0  0  0  0  0  0
  153.0521  144.4221  161.4655 H   0  0  0  0  0  0  0  0  0  0  0  0
  151.4496  144.3429  162.1635 H   0  0  0  0  0  0  0  0  0  0  0  0
  153.4049  142.1400  164.3122 H   0  0  0  0  0  0  0  0  0  0  0  0
  152.3908  143.5800  164.2814 H   0  0  0  0  0  0  0  0  0  0  0  0
  154.0199  143.6351  163.6002 H   0  0  0  0  0  0  0  0  0  0  0  0
  154.4807  142.3948  161.5158 H   0  0  0  0  0  0  0  0  0  0  0  0
  153.8466  140.9331  162.2387 H   0  0  0  0  0  0  0  0  0  0  0  0
  152.1510  140.7135  160.4566 H   0  0  0  0  0  0  0  0  0  0  0  0
  153.7651  140.8170  159.7867 H   0  0  0  0  0  0  0  0  0  0  0  0
  148.2742  138.5216  153.9611 H   0  0  0  0  0  0  0  0  0  0  0  0
  147.8381  142.6014  154.3472 H   0  0  0  0  0  0  0  0  0  0  0  0
  1  2  1  0  0  0  0
  1 20  1  0  0  0  0
  1 21  1  0  0  0  0
  1 22  1  0  0  0  0
  2  3  1  0  0  0  0
  2 15  1  0  0  0  0
  2 23  1  0  0  0  0
  3  4  2  0  0  0  0
  3  5  1  0  0  0  0
  5  6  1  0  0  0  0
  5 24  1  0  0  0  0
  6  7  1  0  0  0  0
  6 25  1  0  0  0  0
  6 26  1  0  0  0  0
  7  8  1  0  0  0  0
  7 27  1  0  0  0  0
  7 28  1  0  0  0  0
  8 14  1  0  0  0  0
  8  9  1  0  0  0  0
  9 10  1  0  0  0  0
  9 29  1  0  0  0  0
  9 30  1  0  0  0  0
 10 11  1  0  0  0  0
 10 31  1  0  0  0  0
 10 32  1  0  0  0  0
 11 12  1  0  0  0  0
 11 13  1  0  0  0  0
 12 33  1  0  0  0  0
 12 34  1  0  0  0  0
 12 35  1  0  0  0  0
 13 14  1  0  0  0  0
 13 36  1  0  0  0  0
 13 37  1  0  0  0  0
 14 38  1  0  0  0  0
 14 39  1  0  0  0  0
 15 19  1  0  0  0  0
 15 16  1  0  0  0  0
 16 17  2  0  0  0  0
 16 40  1  0  0  0  0
 17 18  1  0  0  0  0
 18 19  2  0  0  0  0
 18 41  1  0  0  0  0
M  END
> <s_m_source_file>
AV-unprocessed.smi

> <i_m_source_file_index>
3343

> <i_lp_mmshare_version>
43012

> <i_f3d_flags>
0

> <s_epik_input>
bjFbY0hdbltjSF1uMVtDQEhdKFtDSDNdKUMoPU8pW05IXVtDSDJdW0NIMl1OMltDSDJdW0NIMl1OKFtDSDNdKVtDSDJdW0NIMl0y

> <s_epik_cmdline>
J2VwaWtfcHl0aG9uJywgJy1waCcsICc3LjAnLCAnLXRuJywgJzgnLCAnLW1hJywgJzIwMCcsICctbWV0YWxfYmluZGluZycsICctaW1hZScsICc8aW5maWxlLm1hZT4nLCAnLW9tYWUnLCAnPG91dGZpbGUubWFlPic=

> <r_lp_tautomer_probability>
1

> <r_epik_Ionization_Penalty>
1.97295

> <r_epik_Ionization_Penalty_Charging>
0

> <r_epik_Ionization_Penalty_Neutral>
1.97295

> <r_epik_State_Penalty>
1.8027

> <r_epik_Charging_Adjusted_Penalty>
1.8027

> <i_epik_Tot_Q>
0

> <i_epik_Tot_abs_Q>
0

> <r_epik_Metal_State_Penalty>
1.8027

> <b_epik_Metal_Only>
0

> <s_lp_Force_Field>
OPLS_2005

> <r_lp_Energy>
39.2202

> <b_lp_Chiralities_Consistent>
1

> <s_lp_Variant>
AV-unprocessed.smi:3343-3

> <Gold.Version>
5.8.1

> <Gold.Id.Protein>
6NUR|6NUR_protein|mol2

> <Gold.PLP.Fitness>
44.9468

> <Gold.PLP.PLP>
-40.9375

> <Gold.PLP.part.hbond>
-2.4321

> <Gold.PLP.part.metal>
0.0000

> <Gold.PLP.part.buried>
-4.9029

> <Gold.PLP.part.nonpolar>
-33.7611

> <Gold.PLP.part.repulsive>
0.4644

> <Gold.PLP.ligand.clash>
0.0000

> <Gold.PLP.ligand.torsion>
1.0239

> <Gold.PLP.Chemscore.Hbond>
1.0000

> <Gold.PLP.Chemscore.CHOScore>
0.9700

> <Gold.PLP.Chemscore.Metal>
0.0000

> <Gold.Chemscore.Hbonds>
donor molecule, donor type, donor heavy atom, donor atom, acceptor molecule, acceptor atom, score
      P1  H  7997  8010       L1     4  1.00
      L1  C    18    41       P1  8028  0.61

> <Gold.PLP.Chemscore.Internal.Correction>
0.1469

> <Gold.Rescore>
     Score         DG    S(hbond)    S(metal)    S(lipo)     H(rot)  DE(clash)    DE(int)     intcor
     11.49     -12.53       1.14        0.00      83.63       2.56       0.08       0.95       ----

> <Gold.Chemscore.Fitness>
11.4876

> <Gold.Chemscore.DG>
-12.5255

> <Gold.Chemscore.ZeroCoef>
-5.4800

> <Gold.Chemscore.Hbond>
1.1404

> <Gold.Chemscore.Metal>
0.0000

> <Gold.Chemscore.Lipo>
83.6258

> <Gold.Chemscore.Internal_Hbond>
0.0000

> <Gold.Chemscore.DEClash>
0.0850

> <Gold.Chemscore.DEInternal>
0.9529

> <Gold.Chemscore.Rot>
2.5577

> <Gold.Chemscore.Internal.Correction>
   9.000000E+99

> <Gold.Chemscore.Hbonds>
donor molecule, donor type, donor heavy atom, donor atom, acceptor molecule, acceptor atom, score
      P1  H  7997  8010       L1     4  0.99

> <Gold.Chemscore.Hbond.Weighted>
-3.8090

> <Gold.Chemscore.Metal.Weighted>
-0.0000

> <Gold.Chemscore.Lipo.Weighted>
-9.7842

> <Gold.Chemscore.Internal_Hbond.Weighted>
0.0000

> <Gold.Chemscore.DEClash.Weighted>
0.0850

> <Gold.Chemscore.DEInternal.Weighted>
0.9529

> <Gold.Chemscore.Rot.Weighted>
6.5477

> <Gold.Chemscore.Internal.Correction.Weighted>
   9.000000E+99

> <Gold.Protein.RotatedTorsions>
[ 6907 6896 6895 6894 ] final  122.09 input  -60.11 | X-H torsion
[ 7974 7965 7964 7962 ] final   23.90 input  175.53 | X-H torsion
[ 8008 7997 7996 7995 ] final   84.25 input   59.86 | X-H torsion
[ 10167 10162 10161 10158 ] final -128.58 input  -65.29 | X-H torsion
[ 10718 10713 10712 10709 ] final  -58.10 input   66.30 | X-H torsion
[ 10763 10752 10751 10750 ] final  170.64 input  -60.55 | X-H torsion
[ 11005 11000 10999 10996 ] final -117.32 input  -57.11 | X-H torsion

> <Gold.Protein.ActiveResidues>
 VAL166  LYS551  ARG553  GLY616  TRP617  ASP618  TYR619  PRO620  LYS621  CYS622 
 ASP623  PHE694  ASN695  SER759  ASP760  ASP761  ALA762  ILE779  LEU786  VAL792 
 PHE793  MET794  SER795  GLU796  ALA797  LYS798  CYS799  TRP800  GLU811  SER814 

> <Gold.Protein.RotatedAtoms>
  152.4270  133.7213  159.6534 H   0  0  0  0  0  0  0  0  0  0  0  0  # atno 6907 bound_to 6896
  150.8147  133.8347  159.3172 H   0  0  0  0  0  0  0  0  0  0  0  0  # atno 6908 bound_to 6896
  151.6047  135.1047  160.0119 H   0  0  0  0  0  0  0  0  0  0  0  0  # atno 6909 bound_to 6896
  146.1963  139.7680  142.8795 H   0  0  0  0  0  0  0  0  0  0  0  0  # atno 7974 bound_to 7965
  155.9346  140.3412  155.6277 H   0  0  0  0  0  0  0  0  0  0  0  0  # atno 8008 bound_to 7997
  155.7116  140.0772  157.2387 H   0  0  0  0  0  0  0  0  0  0  0  0  # atno 8009 bound_to 7997
  154.4091  140.1622  156.2289 H   0  0  0  0  0  0  0  0  0  0  0  0  # atno 8010 bound_to 7997
  139.9488  143.6079  152.2481 H   0  0  0  0  0  0  0  0  0  0  0  0  # atno 10167 bound_to 10162
  156.1161  130.4170  150.0531 H   0  0  0  0  0  0  0  0  0  0  0  0  # atno 10718 bound_to 10713
  154.4005  135.2755  155.2099 H   0  0  0  0  0  0  0  0  0  0  0  0  # atno 10763 bound_to 10752
  154.4127  135.6018  153.5966 H   0  0  0  0  0  0  0  0  0  0  0  0  # atno 10764 bound_to 10752
  152.9831  135.5953  154.4273 H   0  0  0  0  0  0  0  0  0  0  0  0  # atno 10765 bound_to 10752
  141.0363  133.9905  157.3065 H   0  0  0  0  0  0  0  0  0  0  0  0  # atno 11005 bound_to 11000
  145.3633  141.0330  143.3272 LP  0  0  0  0  0  0  0  0  0  0  0  0  # atno 17320 bound_to 7965
  144.8587  139.5210  143.6822 LP  0  0  0  0  0  0  0  0  0  0  0  0  # atno 17321 bound_to 7965
  139.6645  144.7662  151.1900 LP  0  0  0  0  0  0  0  0  0  0  0  0  # atno 17342 bound_to 10162
  140.7589  143.5959  150.8748 LP  0  0  0  0  0  0  0  0  0  0  0  0  # atno 17343 bound_to 10162
  156.8481  130.9449  151.3627 LP  0  0  0  0  0  0  0  0  0  0  0  0  # atno 17370 bound_to 10713
  157.6344  130.8755  149.9332 LP  0  0  0  0  0  0  0  0  0  0  0  0  # atno 17371 bound_to 10713
  139.9243  135.0201  156.8178 LP  0  0  0  0  0  0  0  0  0  0  0  0  # atno 17394 bound_to 11000
  140.6316  133.9900  155.7665 LP  0  0  0  0  0  0  0  0  0  0  0  0  # atno 17395 bound_to 11000

$$$$
