AV-unprocessed.smi:234|AV-procd|sdf|1788|dock8
  -GOLD-   2262020343D 1   1.00000     0.00000
 Structure written by MMmdl.
 59 62  0  0  0  0  0  0  0  0  1 V2000
  146.6282  142.1400  154.5954 C   0  0  0  0  0  0  0  0  0  0  0  0
  146.8820  141.3382  153.3118 C   0  0  0  0  0  0  0  0  0  0  0  0
  147.4009  140.0481  153.6030 O   0  0  0  0  0  0  0  0  0  0  0  0
  148.8232  139.9827  153.6497 C   0  0  1  0  0  0  0  0  0  0  0  0
  149.4104  141.0064  154.6256 C   0  0  0  0  0  0  0  0  0  0  0  0
  149.2532  139.9287  155.7080 C   0  0  2  0  0  0  0  0  0  0  0  0
  150.3509  139.8904  156.6809 N   0  0  0  0  0  0  0  0  0  0  0  0
  151.6688  140.3270  156.2330 C   0  0  0  0  0  0  0  0  0  0  0  0
  150.4384  138.8047  157.4896 C   0  0  0  0  0  0  0  0  0  0  0  0
  151.6533  138.2768  157.7980 N   0  0  0  0  0  0  0  0  0  0  0  0
  151.7404  137.2191  158.6098 C   0  0  0  0  0  0  0  0  0  0  0  0
  150.7581  136.5478  159.2142 N   0  0  0  0  0  0  0  0  0  0  0  0
  149.5376  137.0744  158.9093 C   0  0  0  0  0  0  0  0  0  0  0  0
  149.2909  138.1949  158.0672 C   0  0  0  0  0  0  0  0  0  0  0  0
  147.9256  138.4419  157.9930 N   0  0  0  0  0  0  0  0  0  0  0  0
  147.3950  137.5218  158.7514 C   0  0  0  0  0  0  0  0  0  0  0  0
  148.2895  136.6512  159.3330 N   0  0  0  0  0  0  0  0  0  0  0  0
  147.9702  135.5375  160.2136 C   0  0  0  0  0  0  0  0  0  0  0  0
  147.1088  135.9445  161.4382 C   0  0  1  0  0  0  0  0  0  0  0  0
  147.7194  137.0701  162.0477 O   0  0  0  0  0  0  0  0  0  0  0  0
  145.6762  136.3297  161.0796 C   0  0  0  0  0  0  0  0  0  0  0  0
  144.9023  135.9829  162.3419 C   0  0  0  0  0  0  0  0  0  0  0  0
  145.5068  134.7664  162.7424 O   0  0  0  0  0  0  0  0  0  0  0  0
  146.9143  134.8611  162.5371 C   0  0  1  0  0  0  0  0  0  0  0  0
  147.4323  133.4500  162.2180 C   0  0  0  0  0  0  0  0  0  0  0  0
  149.3353  138.8570  154.5841 C   0  0  0  0  0  0  0  0  0  0  0  0
  148.4164  137.6393  154.7216 C   0  0  0  0  0  0  0  0  0  0  0  0
  150.7276  138.3210  154.2105 C   0  0  0  0  0  0  0  0  0  0  0  0
  146.3091  143.1552  154.3594 H   0  0  0  0  0  0  0  0  0  0  0  0
  147.5342  142.2080  155.1978 H   0  0  0  0  0  0  0  0  0  0  0  0
  145.8504  141.6878  155.2102 H   0  0  0  0  0  0  0  0  0  0  0  0
  145.9787  141.2749  152.7036 H   0  0  0  0  0  0  0  0  0  0  0  0
  147.6246  141.8626  152.7104 H   0  0  0  0  0  0  0  0  0  0  0  0
  149.2979  139.9758  152.6680 H   0  0  0  0  0  0  0  0  0  0  0  0
  150.4478  141.2602  154.4014 H   0  0  0  0  0  0  0  0  0  0  0  0
  148.8053  141.8992  154.7843 H   0  0  0  0  0  0  0  0  0  0  0  0
  148.2633  139.9625  156.1672 H   0  0  0  0  0  0  0  0  0  0  0  0
  152.3003  139.4761  155.9731 H   0  0  0  0  0  0  0  0  0  0  0  0
  152.1671  140.8979  157.0165 H   0  0  0  0  0  0  0  0  0  0  0  0
  151.5999  140.9645  155.3535 H   0  0  0  0  0  0  0  0  0  0  0  0
  152.7405  136.8601  158.8035 H   0  0  0  0  0  0  0  0  0  0  0  0
  146.3278  137.4477  158.9037 H   0  0  0  0  0  0  0  0  0  0  0  0
  147.4591  134.7799  159.6191 H   0  0  0  0  0  0  0  0  0  0  0  0
  148.9089  135.0899  160.5430 H   0  0  0  0  0  0  0  0  0  0  0  0
  147.6816  136.9590  162.9853 H   0  0  0  0  0  0  0  0  0  0  0  0
  145.5598  137.3704  160.7739 H   0  0  0  0  0  0  0  0  0  0  0  0
  145.3104  135.7013  160.2669 H   0  0  0  0  0  0  0  0  0  0  0  0
  145.0444  136.7405  163.1140 H   0  0  0  0  0  0  0  0  0  0  0  0
  143.8337  135.8625  162.1639 H   0  0  0  0  0  0  0  0  0  0  0  0
  147.3643  135.1874  163.4769 H   0  0  0  0  0  0  0  0  0  0  0  0
  148.5114  133.4463  162.0650 H   0  0  0  0  0  0  0  0  0  0  0  0
  146.9576  133.0414  161.3256 H   0  0  0  0  0  0  0  0  0  0  0  0
  147.2185  132.7685  163.0416 H   0  0  0  0  0  0  0  0  0  0  0  0
  148.8295  136.8892  155.3954 H   0  0  0  0  0  0  0  0  0  0  0  0
  148.2524  137.1566  153.7577 H   0  0  0  0  0  0  0  0  0  0  0  0
  147.4379  137.9151  155.1155 H   0  0  0  0  0  0  0  0  0  0  0  0
  151.1054  137.6191  154.9544 H   0  0  0  0  0  0  0  0  0  0  0  0
  151.4649  139.1193  154.1218 H   0  0  0  0  0  0  0  0  0  0  0  0
  150.7064  137.7982  153.2537 H   0  0  0  0  0  0  0  0  0  0  0  0
  1  2  1  0  0  0  0
  1 29  1  0  0  0  0
  1 30  1  0  0  0  0
  1 31  1  0  0  0  0
  2  3  1  0  0  0  0
  2 32  1  0  0  0  0
  2 33  1  0  0  0  0
  3  4  1  0  0  0  0
  4 26  1  0  0  0  0
  4  5  1  0  0  0  0
  4 34  1  0  0  0  0
  5  6  1  0  0  0  0
  5 35  1  0  0  0  0
  5 36  1  0  0  0  0
  6  7  1  0  0  0  0
  6 26  1  0  0  0  0
  6 37  1  0  0  0  0
  7  8  1  0  0  0  0
  7  9  1  0  0  0  0
  8 38  1  0  0  0  0
  8 39  1  0  0  0  0
  8 40  1  0  0  0  0
  9 14  1  0  0  0  0
  9 10  2  0  0  0  0
 10 11  1  0  0  0  0
 11 12  2  0  0  0  0
 11 41  1  0  0  0  0
 12 13  1  0  0  0  0
 13 17  1  0  0  0  0
 13 14  2  0  0  0  0
 14 15  1  0  0  0  0
 15 16  2  0  0  0  0
 16 17  1  0  0  0  0
 16 42  1  0  0  0  0
 17 18  1  0  0  0  0
 18 19  1  0  0  0  0
 18 43  1  0  0  0  0
 18 44  1  0  0  0  0
 19 24  1  0  0  0  0
 19 20  1  0  0  0  0
 19 21  1  0  0  0  0
 20 45  1  0  0  0  0
 21 22  1  0  0  0  0
 21 46  1  0  0  0  0
 21 47  1  0  0  0  0
 22 23  1  0  0  0  0
 22 48  1  0  0  0  0
 22 49  1  0  0  0  0
 23 24  1  0  0  0  0
 24 25  1  0  0  0  0
 24 50  1  0  0  0  0
 25 51  1  0  0  0  0
 25 52  1  0  0  0  0
 25 53  1  0  0  0  0
 26 27  1  0  0  0  0
 26 28  1  0  0  0  0
 27 54  1  0  0  0  0
 27 55  1  0  0  0  0
 27 56  1  0  0  0  0
 28 57  1  0  0  0  0
 28 58  1  0  0  0  0
 28 59  1  0  0  0  0
M  END
> <s_m_source_file>
AV-unprocessed.smi

> <i_m_source_file_index>
234

> <i_lp_mmshare_version>
43012

> <i_f3d_flags>
0

> <s_epik_input>
W0NIM11bQ0gyXU9bQ0BASF0oQzEoW0NIM10pW0NIM10pW0NIMl1bQ0BIXTFOKFtDSDNdKWMobltjSF1uMiljKGMyMyluW2NIXW4zW0NIMl1bQ0BAXTQoW09IXSlbQ0gyXVtDSDJdT1tDQEhdNFtDSDNd

> <s_epik_cmdline>
J2VwaWtfcHl0aG9uJywgJy1waCcsICc3LjAnLCAnLXRuJywgJzgnLCAnLW1hJywgJzIwMCcsICctbWV0YWxfYmluZGluZycsICctaW1hZScsICc8aW5maWxlLm1hZT4nLCAnLW9tYWUnLCAnPG91dGZpbGUubWFlPic=

> <r_lp_tautomer_probability>
1

> <r_epik_Ionization_Penalty>
0.00349132

> <r_epik_Ionization_Penalty_Charging>
0

> <r_epik_Ionization_Penalty_Neutral>
0.00349132

> <r_epik_State_Penalty>
0.00242418

> <r_epik_Charging_Adjusted_Penalty>
0.00242418

> <i_epik_Tot_Q>
0

> <i_epik_Tot_abs_Q>
0

> <r_epik_Metal_State_Penalty>
-0

> <b_epik_Metal_Only>
0

> <s_lp_Force_Field>
OPLS_2005

> <r_lp_Energy>
49.5598

> <b_lp_Chiralities_Consistent>
1

> <s_lp_Variant>
AV-unprocessed.smi:234-4

> <Gold.Version>
5.8.1

> <Gold.Id.Protein>
6NUR|6NUR_protein|mol2

> <Gold.PLP.Fitness>
50.4388

> <Gold.PLP.PLP>
-44.7440

> <Gold.PLP.part.hbond>
-3.3852

> <Gold.PLP.part.metal>
0.0000

> <Gold.PLP.part.buried>
-4.9457

> <Gold.PLP.part.nonpolar>
-35.9169

> <Gold.PLP.part.repulsive>
0.1638

> <Gold.PLP.ligand.clash>
0.0000

> <Gold.PLP.ligand.torsion>
1.0426

> <Gold.PLP.Chemscore.Hbond>
2.2728

> <Gold.PLP.Chemscore.CHOScore>
0.0000

> <Gold.PLP.Chemscore.Metal>
0.0000

> <Gold.Chemscore.Hbonds>
donor molecule, donor type, donor heavy atom, donor atom, acceptor molecule, acceptor atom, score
      P1  H  6896  6907       L1    12  1.00
      P1  H  6931  6943       L1    20  1.00
      P1  H  6934  6947       L1    20  0.20

> <Gold.PLP.Chemscore.Internal.Correction>
0.9617

> <Gold.Rescore>
     Score         DG    S(hbond)    S(metal)    S(lipo)     H(rot)  DE(clash)    DE(int)     intcor
     13.56     -16.10       1.86        0.00      95.11       2.62       1.04       1.50       ----

> <Gold.Chemscore.Fitness>
13.5597

> <Gold.Chemscore.DG>
-16.1006

> <Gold.Chemscore.ZeroCoef>
-5.4800

> <Gold.Chemscore.Hbond>
1.8579

> <Gold.Chemscore.Metal>
0.0000

> <Gold.Chemscore.Lipo>
95.1059

> <Gold.Chemscore.Internal_Hbond>
0.0000

> <Gold.Chemscore.DEClash>
1.0411

> <Gold.Chemscore.DEInternal>
1.4998

> <Gold.Chemscore.Rot>
2.6219

> <Gold.Chemscore.Internal.Correction>
   9.000000E+99

> <Gold.Chemscore.Hbonds>
donor molecule, donor type, donor heavy atom, donor atom, acceptor molecule, acceptor atom, score
      P1  H  6896  6907       L1    12  0.95
      P1  H  6931  6943       L1    20  0.25
      P1  H  6934  6947       L1    20  0.17

> <Gold.Chemscore.Hbond.Weighted>
-6.2053

> <Gold.Chemscore.Metal.Weighted>
-0.0000

> <Gold.Chemscore.Lipo.Weighted>
-11.1274

> <Gold.Chemscore.Internal_Hbond.Weighted>
0.0000

> <Gold.Chemscore.DEClash.Weighted>
1.0411

> <Gold.Chemscore.DEInternal.Weighted>
1.4998

> <Gold.Chemscore.Rot.Weighted>
6.7121

> <Gold.Chemscore.Internal.Correction.Weighted>
   9.000000E+99

> <Gold.Protein.RotatedTorsions>
[ 6907 6896 6895 6894 ] final  -38.60 input  -60.11 | X-H torsion
[ 7974 7965 7964 7962 ] final  116.11 input  175.53 | X-H torsion
[ 8008 7997 7996 7995 ] final   19.17 input   59.86 | X-H torsion
[ 10167 10162 10161 10158 ] final  111.70 input  -65.29 | X-H torsion
[ 10718 10713 10712 10709 ] final  173.67 input   66.30 | X-H torsion
[ 10763 10752 10751 10750 ] final  -46.12 input  -60.55 | X-H torsion
[ 11005 11000 10999 10996 ] final -137.27 input  -57.11 | X-H torsion

> <Gold.Protein.ActiveResidues>
 VAL166  LYS551  ARG553  GLY616  TRP617  ASP618  TYR619  PRO620  LYS621  CYS622 
 ASP623  PHE694  ASN695  SER759  ASP760  ASP761  ALA762  ILE779  LEU786  VAL792 
 PHE793  MET794  SER795  GLU796  ALA797  LYS798  CYS799  TRP800  GLU811  SER814 

> <Gold.Protein.RotatedAtoms>
  151.0005  134.9318  159.7950 H   0  0  0  0  0  0  0  0  0  0  0  0  # atno 6907 bound_to 6896
  152.5276  134.3160  159.9141 H   0  0  0  0  0  0  0  0  0  0  0  0  # atno 6908 bound_to 6896
  151.3166  133.4016  159.2685 H   0  0  0  0  0  0  0  0  0  0  0  0  # atno 6909 bound_to 6896
  145.1837  139.3036  143.4405 H   0  0  0  0  0  0  0  0  0  0  0  0  # atno 7974 bound_to 7965
  154.9168  140.3022  155.5237 H   0  0  0  0  0  0  0  0  0  0  0  0  # atno 8008 bound_to 7997
  156.3012  140.2379  156.4150 H   0  0  0  0  0  0  0  0  0  0  0  0  # atno 8009 bound_to 7997
  154.8370  140.0415  157.1504 H   0  0  0  0  0  0  0  0  0  0  0  0  # atno 8010 bound_to 7997
  139.6592  144.7129  151.1898 H   0  0  0  0  0  0  0  0  0  0  0  0  # atno 10167 bound_to 10162
  156.9609  131.0060  151.2928 H   0  0  0  0  0  0  0  0  0  0  0  0  # atno 10718 bound_to 10713
  154.0398  135.6645  153.4789 H   0  0  0  0  0  0  0  0  0  0  0  0  # atno 10763 bound_to 10752
  153.0506  135.5087  154.7853 H   0  0  0  0  0  0  0  0  0  0  0  0  # atno 10764 bound_to 10752
  154.6825  135.3047  154.9559 H   0  0  0  0  0  0  0  0  0  0  0  0  # atno 10765 bound_to 10752
  140.8727  134.2031  157.4641 H   0  0  0  0  0  0  0  0  0  0  0  0  # atno 11005 bound_to 11000
  146.3449  140.2025  142.8589 LP  0  0  0  0  0  0  0  0  0  0  0  0  # atno 17320 bound_to 7965
  145.0111  140.8714  143.5224 LP  0  0  0  0  0  0  0  0  0  0  0  0  # atno 17321 bound_to 7965
  140.7572  143.6023  150.8688 LP  0  0  0  0  0  0  0  0  0  0  0  0  # atno 17342 bound_to 10162
  139.9678  143.6090  152.2983 LP  0  0  0  0  0  0  0  0  0  0  0  0  # atno 17343 bound_to 10162
  157.5659  130.8277  149.8326 LP  0  0  0  0  0  0  0  0  0  0  0  0  # atno 17370 bound_to 10713
  156.0323  130.3761  150.1655 LP  0  0  0  0  0  0  0  0  0  0  0  0  # atno 17371 bound_to 10713
  139.8713  134.9781  156.4986 LP  0  0  0  0  0  0  0  0  0  0  0  0  # atno 17394 bound_to 11000
  140.8555  133.8100  155.9211 LP  0  0  0  0  0  0  0  0  0  0  0  0  # atno 17395 bound_to 11000

$$$$
