AV-unprocessed.smi:691|AV-procd|sdf|3366|dock6
  -GOLD-   22720 0343D 1   1.00000     0.00000
 Structure written by MMmdl.
 37 38  0  0  0  0  0  0  0  0  1 V2000
  144.8041  132.8068  152.2522 C   0  0  0  0  0  0  0  0  0  0  0  0
  145.7787  133.9531  151.8924 C   0  0  1  0  0  0  0  0  0  0  0  0
  147.2367  133.4333  151.9953 C   0  0  0  0  0  0  0  0  0  0  0  0
  147.3590  132.1152  151.4993 O   0  0  0  0  0  0  0  0  0  0  0  0
  145.4707  134.4449  150.4668 C   0  0  0  0  0  0  0  0  0  0  0  0
  144.2864  135.4100  150.5924 C   0  0  0  0  0  0  0  0  0  0  0  0
  144.2837  135.9009  152.0467 C   0  0  0  0  0  0  0  0  0  0  0  0
  145.4679  135.2114  152.7470 C   0  0  2  0  0  0  0  0  0  0  0  0
  146.5969  136.1436  152.8068 N   0  0  0  0  0  0  0  0  0  0  0  0
  146.6009  137.3409  153.4104 C   0  0  0  0  0  0  0  0  0  0  0  0
  145.6266  137.8165  153.9926 O   0  0  0  0  0  0  0  0  0  0  0  0
  147.8066  137.9257  153.3083 N   0  0  0  0  0  0  0  0  0  0  0  0
  148.2318  139.1783  153.8280 C   0  0  0  0  0  0  0  0  0  0  0  0
  147.4106  140.3289  153.9130 C   0  0  0  0  0  0  0  0  0  0  0  0
  147.9573  141.5167  154.4359 C   0  0  0  0  0  0  0  0  0  0  0  0
  149.3041  141.5139  154.8471 C   0  0  0  0  0  0  0  0  0  0  0  0
  150.1024  140.4293  154.7581 N   0  0  0  0  0  0  0  0  0  0  0  0
  149.5715  139.2945  154.2555 C   0  0  0  0  0  0  0  0  0  0  0  0
  144.9698  131.9343  151.6196 H   0  0  0  0  0  0  0  0  0  0  0  0
  143.7611  133.1001  152.1322 H   0  0  0  0  0  0  0  0  0  0  0  0
  144.9287  132.4876  153.2871 H   0  0  0  0  0  0  0  0  0  0  0  0
  147.9079  134.0785  151.4276 H   0  0  0  0  0  0  0  0  0  0  0  0
  147.5970  133.4502  153.0242 H   0  0  0  0  0  0  0  0  0  0  0  0
  148.1363  132.0648  150.9642 H   0  0  0  0  0  0  0  0  0  0  0  0
  146.3269  134.9932  150.0714 H   0  0  0  0  0  0  0  0  0  0  0  0
  145.2680  133.6298  149.7710 H   0  0  0  0  0  0  0  0  0  0  0  0
  144.3728  136.2355  149.8851 H   0  0  0  0  0  0  0  0  0  0  0  0
  143.3512  134.8929  150.3746 H   0  0  0  0  0  0  0  0  0  0  0  0
  144.3362  136.9890  152.1091 H   0  0  0  0  0  0  0  0  0  0  0  0
  143.3491  135.6055  152.5252 H   0  0  0  0  0  0  0  0  0  0  0  0
  145.1775  134.9168  153.7569 H   0  0  0  0  0  0  0  0  0  0  0  0
  147.4494  135.8417  152.3588 H   0  0  0  0  0  0  0  0  0  0  0  0
  148.5270  137.3779  152.8609 H   0  0  0  0  0  0  0  0  0  0  0  0
  146.3850  140.3303  153.5783 H   0  0  0  0  0  0  0  0  0  0  0  0
  147.3581  142.4118  154.5156 H   0  0  0  0  0  0  0  0  0  0  0  0
  149.7539  142.4081  155.2524 H   0  0  0  0  0  0  0  0  0  0  0  0
  150.2401  138.4478  154.1980 H   0  0  0  0  0  0  0  0  0  0  0  0
  1  2  1  0  0  0  0
  1 19  1  0  0  0  0
  1 20  1  0  0  0  0
  1 21  1  0  0  0  0
  2  8  1  0  0  0  0
  2  3  1  0  0  0  0
  2  5  1  0  0  0  0
  3  4  1  0  0  0  0
  3 22  1  0  0  0  0
  3 23  1  0  0  0  0
  4 24  1  0  0  0  0
  5  6  1  0  0  0  0
  5 25  1  0  0  0  0
  5 26  1  0  0  0  0
  6  7  1  0  0  0  0
  6 27  1  0  0  0  0
  6 28  1  0  0  0  0
  7  8  1  0  0  0  0
  7 29  1  0  0  0  0
  7 30  1  0  0  0  0
  8  9  1  0  0  0  0
  8 31  1  0  0  0  0
  9 10  1  0  0  0  0
  9 32  1  0  0  0  0
 10 11  2  0  0  0  0
 10 12  1  0  0  0  0
 12 13  1  0  0  0  0
 12 33  1  0  0  0  0
 13 18  1  0  0  0  0
 13 14  2  0  0  0  0
 14 15  1  0  0  0  0
 14 34  1  0  0  0  0
 15 16  2  0  0  0  0
 15 35  1  0  0  0  0
 16 17  1  0  0  0  0
 16 36  1  0  0  0  0
 17 18  2  0  0  0  0
 18 37  1  0  0  0  0
M  END
> <s_m_source_file>
AV-unprocessed.smi

> <i_m_source_file_index>
691

> <i_lp_mmshare_version>
43012

> <i_f3d_flags>
0

> <s_epik_input>
W09IXVtDSDJdW0NAXTEoW0NIM10pW0NIMl1bQ0gyXVtDSDJdW0NASF0xW05IXUMoPU8pW05IXWMyW2NIXVtjSF1bY0hdbltjSF0y

> <s_epik_cmdline>
J2VwaWtfcHl0aG9uJywgJy1waCcsICc3LjAnLCAnLXRuJywgJzgnLCAnLW1hJywgJzIwMCcsICctbWV0YWxfYmluZGluZycsICctaW1hZScsICc8aW5maWxlLm1hZT4nLCAnLW9tYWUnLCAnPG91dGZpbGUubWFlPic=

> <r_epik_Ionization_Penalty>
0.00496828

> <r_epik_Ionization_Penalty_Charging>
0

> <r_epik_Ionization_Penalty_Neutral>
0.00496828

> <r_epik_State_Penalty>
0.00358054

> <r_epik_Charging_Adjusted_Penalty>
0.00358054

> <i_epik_Tot_Q>
0

> <i_epik_Tot_abs_Q>
0

> <r_epik_Metal_State_Penalty>
-0

> <b_epik_Metal_Only>
0

> <s_lp_Force_Field>
OPLS_2005

> <r_lp_Energy>
29.635

> <b_lp_Chiralities_Consistent>
1

> <s_lp_Variant>
AV-unprocessed.smi:691-3

> <Gold.Version>
5.8.1

> <Gold.Id.Protein>
6NUR|6NUR_protein|mol2

> <Gold.PLP.Fitness>
41.3817

> <Gold.PLP.PLP>
-28.2755

> <Gold.PLP.part.hbond>
-3.9198

> <Gold.PLP.part.metal>
0.0000

> <Gold.PLP.part.buried>
0.6800

> <Gold.PLP.part.nonpolar>
-25.3123

> <Gold.PLP.part.repulsive>
0.2922

> <Gold.PLP.ligand.clash>
0.0000

> <Gold.PLP.ligand.torsion>
0.5108

> <Gold.PLP.Chemscore.Hbond>
3.7040

> <Gold.PLP.Chemscore.CHOScore>
1.0000

> <Gold.PLP.Chemscore.Metal>
0.0000

> <Gold.Chemscore.Hbonds>
donor molecule, donor type, donor heavy atom, donor atom, acceptor molecule, acceptor atom, score
      L1  H     4    24       P1 10747  0.72
      L1  H     9    32       P1  7948  0.98
      L1  H    12    33       P1  7948  1.00
      P1  H  7989  7998       L1    17  0.96
      L1  C    16    36       P1  8028  1.00

> <Gold.PLP.Chemscore.Internal.Correction>
0.0157

> <Gold.Rescore>
     Score         DG    S(hbond)    S(metal)    S(lipo)     H(rot)  DE(clash)    DE(int)     intcor
     17.47     -18.79       3.00        0.00      67.07       1.78       0.39       0.93       ----

> <Gold.Chemscore.Fitness>
17.4670

> <Gold.Chemscore.DG>
-18.7904

> <Gold.Chemscore.ZeroCoef>
-5.4800

> <Gold.Chemscore.Hbond>
3.0030

> <Gold.Chemscore.Metal>
0.0000

> <Gold.Chemscore.Lipo>
67.0679

> <Gold.Chemscore.Internal_Hbond>
0.0000

> <Gold.Chemscore.DEClash>
0.3944

> <Gold.Chemscore.DEInternal>
0.9291

> <Gold.Chemscore.Rot>
1.7838

> <Gold.Chemscore.Internal.Correction>
   9.000000E+99

> <Gold.Chemscore.Hbonds>
donor molecule, donor type, donor heavy atom, donor atom, acceptor molecule, acceptor atom, score
      L1  H     4    24       P1 10747  0.71
      L1  H     9    32       P1  7948  0.92
      L1  H    12    33       P1  7948  0.92
      P1  H  7989  7998       L1    17  0.26

> <Gold.Chemscore.Hbond.Weighted>
-10.0301

> <Gold.Chemscore.Metal.Weighted>
-0.0000

> <Gold.Chemscore.Lipo.Weighted>
-7.8469

> <Gold.Chemscore.Internal_Hbond.Weighted>
0.0000

> <Gold.Chemscore.DEClash.Weighted>
0.3944

> <Gold.Chemscore.DEInternal.Weighted>
0.9291

> <Gold.Chemscore.Rot.Weighted>
4.5666

> <Gold.Chemscore.Internal.Correction.Weighted>
   9.000000E+99

> <Gold.Protein.RotatedTorsions>
[ 6907 6896 6895 6894 ] final  -30.48 input  -60.11 | X-H torsion
[ 7974 7965 7964 7962 ] final   22.05 input  175.53 | X-H torsion
[ 8008 7997 7996 7995 ] final  134.56 input   59.86 | X-H torsion
[ 10167 10162 10161 10158 ] final   50.86 input  -65.29 | X-H torsion
[ 10718 10713 10712 10709 ] final  -55.10 input   66.30 | X-H torsion
[ 10763 10752 10751 10750 ] final  144.44 input  -60.55 | X-H torsion
[ 11005 11000 10999 10996 ] final -164.55 input  -57.11 | X-H torsion

> <Gold.Protein.ActiveResidues>
 VAL166  LYS551  ARG553  GLY616  TRP617  ASP618  TYR619  PRO620  LYS621  CYS622 
 ASP623  PHE694  ASN695  SER759  ASP760  ASP761  ALA762  ILE779  LEU786  VAL792 
 PHE793  MET794  SER795  GLU796  ALA797  LYS798  CYS799  TRP800  GLU811  SER814 

> <Gold.Protein.RotatedAtoms>
  151.1050  134.9994  159.8466 H   0  0  0  0  0  0  0  0  0  0  0  0  # atno 6907 bound_to 6896
  152.5439  134.1904  159.8681 H   0  0  0  0  0  0  0  0  0  0  0  0  # atno 6908 bound_to 6896
  151.1950  133.4600  159.2628 H   0  0  0  0  0  0  0  0  0  0  0  0  # atno 6909 bound_to 6896
  146.2045  139.7940  142.8736 H   0  0  0  0  0  0  0  0  0  0  0  0  # atno 7974 bound_to 7965
  156.2999  140.2493  156.3437 H   0  0  0  0  0  0  0  0  0  0  0  0  # atno 8008 bound_to 7997
  154.9031  140.0405  157.1923 H   0  0  0  0  0  0  0  0  0  0  0  0  # atno 8009 bound_to 7997
  154.8481  140.2901  155.5620 H   0  0  0  0  0  0  0  0  0  0  0  0  # atno 8010 bound_to 7997
  140.2680  144.3297  150.6298 H   0  0  0  0  0  0  0  0  0  0  0  0  # atno 10167 bound_to 10162
  156.1396  130.4155  150.0126 H   0  0  0  0  0  0  0  0  0  0  0  0  # atno 10718 bound_to 10713
  153.9890  135.2934  155.3413 H   0  0  0  0  0  0  0  0  0  0  0  0  # atno 10763 bound_to 10752
  154.7225  135.5103  153.8838 H   0  0  0  0  0  0  0  0  0  0  0  0  # atno 10764 bound_to 10752
  153.0818  135.6681  154.0144 H   0  0  0  0  0  0  0  0  0  0  0  0  # atno 10765 bound_to 10752
  140.5856  134.5097  157.5185 H   0  0  0  0  0  0  0  0  0  0  0  0  # atno 11005 bound_to 11000
  145.3367  141.0278  143.3416 LP  0  0  0  0  0  0  0  0  0  0  0  0  # atno 17320 bound_to 7965
  144.8761  139.4969  143.6745 LP  0  0  0  0  0  0  0  0  0  0  0  0  # atno 17321 bound_to 7965
  140.5912  143.2168  151.7249 LP  0  0  0  0  0  0  0  0  0  0  0  0  # atno 17342 bound_to 10162
  139.4997  144.3935  152.0255 LP  0  0  0  0  0  0  0  0  0  0  0  0  # atno 17343 bound_to 10162
  156.8015  130.9292  151.3646 LP  0  0  0  0  0  0  0  0  0  0  0  0  # atno 17370 bound_to 10713
  157.6564  130.8928  149.9737 LP  0  0  0  0  0  0  0  0  0  0  0  0  # atno 17371 bound_to 10713
  139.9297  134.7987  156.0966 LP  0  0  0  0  0  0  0  0  0  0  0  0  # atno 17394 bound_to 11000
  141.0968  133.6692  156.2663 LP  0  0  0  0  0  0  0  0  0  0  0  0  # atno 17395 bound_to 11000

$$$$
