AV-unprocessed.smi:1395|AV-procd|sdf|5671|dock5
  -GOLD-   22720 5293D 1   1.00000     0.00000
 Structure written by MMmdl.
 43 44  0  0  0  0  0  0  0  0  2 V2000
  151.6618  143.4170  158.2152 C   0  0  0  0  0  0  0  0  0  0  0  0
  152.3864  142.3271  158.9884 C   0  0  0  0  0  0  0  0  0  0  0  0
  153.3129  142.6905  159.9889 C   0  0  0  0  0  0  0  0  0  0  0  0
  153.9828  141.6821  160.7026 C   0  0  0  0  0  0  0  0  0  0  0  0
  153.6957  140.3439  160.3833 C   0  0  0  0  0  0  0  0  0  0  0  0
  152.8118  139.9877  159.4290 N   0  0  0  0  0  0  0  0  0  0  0  0
  152.1562  140.9489  158.7313 C   0  0  0  0  0  0  0  0  0  0  0  0
  151.2122  140.6465  157.7094 N   0  0  0  0  0  0  0  0  0  0  0  0
  151.4342  140.0982  156.5015 C   0  0  0  0  0  0  0  0  0  0  0  0
  152.5294  139.7362  156.0711 O   0  0  0  0  0  0  0  0  0  0  0  0
  150.2951  139.9894  155.8013 N   0  0  0  0  0  0  0  0  0  0  0  0
  150.1817  139.4266  154.4557 C   0  0  2  0  0  0  0  0  0  0  0  0
  148.7225  139.0794  154.0975 C   0  0  0  0  0  0  0  0  0  0  0  0
  148.2064  137.8662  154.8911 C   0  0  0  0  0  0  0  0  0  0  0  0
  149.0859  136.6856  154.6952 N   0  3  2  0  0  0  0  0  0  0  0  0
  148.5380  135.4604  155.3348 C   0  0  0  0  0  0  0  0  0  0  0  0
  149.1140  134.1407  154.7991 C   0  0  0  0  0  0  0  0  0  0  0  0
  149.0090  133.8655  153.4941 N   0  0  0  0  0  0  0  0  0  0  0  0
  149.6626  133.3639  155.5760 O   0  0  0  0  0  0  0  0  0  0  0  0
  150.4861  136.9767  155.1052 C   0  0  0  0  0  0  0  0  0  0  0  0
  151.0604  138.1706  154.3207 C   0  0  0  0  0  0  0  0  0  0  0  0
  151.9603  144.4096  158.5543 H   0  0  0  0  0  0  0  0  0  0  0  0
  150.5833  143.3280  158.3488 H   0  0  0  0  0  0  0  0  0  0  0  0
  151.8879  143.3445  157.1510 H   0  0  0  0  0  0  0  0  0  0  0  0
  153.5107  143.7292  160.2094 H   0  0  0  0  0  0  0  0  0  0  0  0
  154.6976  141.9276  161.4739 H   0  0  0  0  0  0  0  0  0  0  0  0
  154.1881  139.5379  160.9069 H   0  0  0  0  0  0  0  0  0  0  0  0
  150.2552  140.8815  157.9259 H   0  0  0  0  0  0  0  0  0  0  0  0
  149.4414  140.3054  156.2375 H   0  0  0  0  0  0  0  0  0  0  0  0
  150.5495  140.1736  153.7499 H   0  0  0  0  0  0  0  0  0  0  0  0
  148.0695  139.9376  154.2601 H   0  0  0  0  0  0  0  0  0  0  0  0
  148.6611  138.8567  153.0315 H   0  0  0  0  0  0  0  0  0  0  0  0
  148.1423  138.1044  155.9540 H   0  0  0  0  0  0  0  0  0  0  0  0
  147.1947  137.6307  154.5585 H   0  0  0  0  0  0  0  0  0  0  0  0
  148.6722  135.5118  156.4166 H   0  0  0  0  0  0  0  0  0  0  0  0
  147.4619  135.4114  155.1625 H   0  0  0  0  0  0  0  0  0  0  0  0
  149.3861  133.0113  153.1118 H   0  0  0  0  0  0  0  0  0  0  0  0
  148.5529  134.5307  152.8850 H   0  0  0  0  0  0  0  0  0  0  0  0
  150.5176  137.1792  156.1769 H   0  0  0  0  0  0  0  0  0  0  0  0
  151.1163  136.1034  154.9360 H   0  0  0  0  0  0  0  0  0  0  0  0
  151.1361  137.8990  153.2668 H   0  0  0  0  0  0  0  0  0  0  0  0
  152.0780  138.3827  154.6514 H   0  0  0  0  0  0  0  0  0  0  0  0
  149.0957  136.5078  153.7014 H   0  0  0  0  0  0  0  0  0  0  0  0
  1  2  1  0  0  0  0
  1 22  1  0  0  0  0
  1 23  1  0  0  0  0
  1 24  1  0  0  0  0
  2  7  1  0  0  0  0
  2  3  2  0  0  0  0
  3  4  1  0  0  0  0
  3 25  1  0  0  0  0
  4  5  2  0  0  0  0
  4 26  1  0  0  0  0
  5  6  1  0  0  0  0
  5 27  1  0  0  0  0
  6  7  2  0  0  0  0
  7  8  1  0  0  0  0
  8  9  1  0  0  0  0
  8 28  1  0  0  0  0
  9 10  2  0  0  0  0
  9 11  1  0  0  0  0
 11 12  1  0  0  0  0
 11 29  1  0  0  0  0
 12 21  1  0  0  0  0
 12 13  1  0  0  0  0
 12 30  1  0  0  0  0
 13 14  1  0  0  0  0
 13 31  1  0  0  0  0
 13 32  1  0  0  0  0
 14 15  1  0  0  0  0
 14 33  1  0  0  0  0
 14 34  1  0  0  0  0
 15 16  1  0  0  0  0
 15 20  1  0  0  0  0
 15 43  1  0  0  0  0
 16 17  1  0  0  0  0
 16 35  1  0  0  0  0
 16 36  1  0  0  0  0
 17 18  1  0  0  0  0
 17 19  2  0  0  0  0
 18 37  1  0  0  0  0
 18 38  1  0  0  0  0
 20 21  1  0  0  0  0
 20 39  1  0  0  0  0
 20 40  1  0  0  0  0
 21 41  1  0  0  0  0
 21 42  1  0  0  0  0
M  CHG  1  15   1
M  END
> <s_m_source_file>
AV-unprocessed.smi

> <i_m_source_file_index>
1395

> <i_lp_mmshare_version>
43012

> <i_f3d_flags>
0

> <s_epik_input>
W0NIM11jMVtjSF1bY0hdW2NIXW5jMVtOSF1DKD1PKVtOSF1bQ0hdMltDSDJdW0NIMl1OKFtDSDJdW0NIMl0yKVtDSDJdQyg9TylbTkgyXQ==

> <s_epik_cmdline>
J2VwaWtfcHl0aG9uJywgJy1waCcsICc3LjAnLCAnLXRuJywgJzgnLCAnLW1hJywgJzIwMCcsICctbWV0YWxfYmluZGluZycsICctaW1hZScsICc8aW5maWxlLm1hZT4nLCAnLW9tYWUnLCAnPG91dGZpbGUubWFlPic=

> <r_epik_Ionization_Penalty>
0.83893

> <r_epik_Ionization_Penalty_Charging>
0.838844

> <r_epik_Ionization_Penalty_Neutral>
8.62421e-05

> <r_epik_State_Penalty>
0.8734

> <r_epik_Charging_Adjusted_Penalty>
1.71224

> <i_epik_Tot_Q>
1

> <i_epik_Tot_abs_Q>
1

> <r_epik_Metal_State_Penalty>
0.890705

> <b_epik_Metal_Only>
0

> <s_lp_Force_Field>
OPLS_2005

> <r_lp_Energy>
18.2774

> <b_lp_Chiralities_Consistent>
1

> <s_lp_Variant>
AV-unprocessed.smi:1395-3

> <Gold.Version>
5.8.1

> <Gold.Id.Protein>
6NUR|6NUR_protein|mol2

> <Gold.PLP.Fitness>
46.6804

> <Gold.PLP.PLP>
-37.2914

> <Gold.PLP.part.hbond>
-3.0000

> <Gold.PLP.part.metal>
0.0000

> <Gold.PLP.part.buried>
-3.4478

> <Gold.PLP.part.nonpolar>
-30.3134

> <Gold.PLP.part.repulsive>
0.1405

> <Gold.PLP.ligand.clash>
0.0000

> <Gold.PLP.ligand.torsion>
1.0177

> <Gold.PLP.Chemscore.Hbond>
3.8000

> <Gold.PLP.Chemscore.CHOScore>
0.0000

> <Gold.PLP.Chemscore.Metal>
0.0000

> <Gold.Chemscore.Hbonds>
donor molecule, donor type, donor heavy atom, donor atom, acceptor molecule, acceptor atom, score
      L1  H    15    43       P1  7948  2.00
      L1  H    18    38       P1  7948  0.71
      P1  H  7997  8008       L1    10  1.00

> <Gold.PLP.Chemscore.Internal.Correction>
0.0243

> <Gold.Rescore>
     Score         DG    S(hbond)    S(metal)    S(lipo)     H(rot)  DE(clash)    DE(int)     intcor
     16.64     -19.20       2.65        0.00      84.56       1.96       0.09       2.48       ----

> <Gold.Chemscore.Fitness>
16.6389

> <Gold.Chemscore.DG>
-19.1995

> <Gold.Chemscore.ZeroCoef>
-5.4800

> <Gold.Chemscore.Hbond>
2.6496

> <Gold.Chemscore.Metal>
0.0000

> <Gold.Chemscore.Lipo>
84.5561

> <Gold.Chemscore.Internal_Hbond>
0.0000

> <Gold.Chemscore.DEClash>
0.0855

> <Gold.Chemscore.DEInternal>
2.4750

> <Gold.Chemscore.Rot>
1.9622

> <Gold.Chemscore.Internal.Correction>
   9.000000E+99

> <Gold.Chemscore.Hbonds>
donor molecule, donor type, donor heavy atom, donor atom, acceptor molecule, acceptor atom, score
      L1  H    15    43       P1  7948  0.99
      L1  H    18    38       P1  7948  0.14
      P1  H  7997  8008       L1    10  1.00

> <Gold.Chemscore.Hbond.Weighted>
-8.8496

> <Gold.Chemscore.Metal.Weighted>
-0.0000

> <Gold.Chemscore.Lipo.Weighted>
-9.8931

> <Gold.Chemscore.Internal_Hbond.Weighted>
0.0000

> <Gold.Chemscore.DEClash.Weighted>
0.0855

> <Gold.Chemscore.DEInternal.Weighted>
2.4750

> <Gold.Chemscore.Rot.Weighted>
5.0232

> <Gold.Chemscore.Internal.Correction.Weighted>
   9.000000E+99

> <Gold.Protein.RotatedTorsions>
[ 6907 6896 6895 6894 ] final   79.25 input  -60.11 | X-H torsion
[ 7974 7965 7964 7962 ] final   76.14 input  175.53 | X-H torsion
[ 8008 7997 7996 7995 ] final  -48.35 input   59.86 | X-H torsion
[ 10167 10162 10161 10158 ] final  -75.30 input  -65.29 | X-H torsion
[ 10718 10713 10712 10709 ] final  -79.15 input   66.30 | X-H torsion
[ 10763 10752 10751 10750 ] final -177.32 input  -60.55 | X-H torsion
[ 11005 11000 10999 10996 ] final  154.91 input  -57.11 | X-H torsion

> <Gold.Protein.ActiveResidues>
 VAL166  LYS551  ARG553  GLY616  TRP617  ASP618  TYR619  PRO620  LYS621  CYS622 
 ASP623  PHE694  ASN695  SER759  ASP760  ASP761  ALA762  ILE779  LEU786  VAL792 
 PHE793  MET794  SER795  GLU796  ALA797  LYS798  CYS799  TRP800  GLU811  SER814 

> <Gold.Protein.RotatedAtoms>
  152.5191  134.3540  159.9260 H   0  0  0  0  0  0  0  0  0  0  0  0  # atno 6907 bound_to 6896
  151.3491  133.3926  159.2686 H   0  0  0  0  0  0  0  0  0  0  0  0  # atno 6908 bound_to 6896
  150.9741  134.9127  159.7863 H   0  0  0  0  0  0  0  0  0  0  0  0  # atno 6909 bound_to 6896
  145.7067  139.2601  143.1674 H   0  0  0  0  0  0  0  0  0  0  0  0  # atno 7974 bound_to 7965
  154.4028  140.1324  156.4324 H   0  0  0  0  0  0  0  0  0  0  0  0  # atno 8008 bound_to 7997
  155.7538  140.3487  155.5143 H   0  0  0  0  0  0  0  0  0  0  0  0  # atno 8009 bound_to 7997
  155.8924  140.1005  157.1399 H   0  0  0  0  0  0  0  0  0  0  0  0  # atno 8010 bound_to 7997
  140.4954  143.2371  151.7839 H   0  0  0  0  0  0  0  0  0  0  0  0  # atno 10167 bound_to 10162
  156.0099  130.4537  150.3604 H   0  0  0  0  0  0  0  0  0  0  0  0  # atno 10718 bound_to 10713
  154.5616  135.2820  155.0913 H   0  0  0  0  0  0  0  0  0  0  0  0  # atno 10763 bound_to 10752
  154.2320  135.6372  153.5182 H   0  0  0  0  0  0  0  0  0  0  0  0  # atno 10764 bound_to 10752
  153.0031  135.5539  154.6212 H   0  0  0  0  0  0  0  0  0  0  0  0  # atno 10765 bound_to 10752
  140.1533  134.8660  157.2482 H   0  0  0  0  0  0  0  0  0  0  0  0  # atno 11005 bound_to 11000
  146.0749  140.7828  142.9670 LP  0  0  0  0  0  0  0  0  0  0  0  0  # atno 17320 bound_to 7965
  144.6953  140.3400  143.7201 LP  0  0  0  0  0  0  0  0  0  0  0  0  # atno 17321 bound_to 7965
  139.4860  144.4594  151.9559 LP  0  0  0  0  0  0  0  0  0  0  0  0  # atno 17342 bound_to 10162
  140.3681  144.2889  150.5923 LP  0  0  0  0  0  0  0  0  0  0  0  0  # atno 17343 bound_to 10162
  157.1693  131.0365  151.2803 LP  0  0  0  0  0  0  0  0  0  0  0  0  # atno 17370 bound_to 10713
  157.4243  130.7455  149.6938 LP  0  0  0  0  0  0  0  0  0  0  0  0  # atno 17371 bound_to 10713
  140.2578  134.3607  155.7417 LP  0  0  0  0  0  0  0  0  0  0  0  0  # atno 17394 bound_to 11000
  141.2201  133.7352  156.9034 LP  0  0  0  0  0  0  0  0  0  0  0  0  # atno 17395 bound_to 11000

$$$$
