AV-unprocessed.smi:1970|AV-procd|sdf|7961|dock5
  -GOLD-   2272010133D 1   1.00000     0.00000
 Structure written by MMmdl.
 34 35  0  0  0  0  0  0  0  0  2 V2000
  152.5745  139.8601  156.3548 O   0  0  0  0  0  0  0  0  0  0  0  0
  151.6793  139.6318  155.5401 C   0  0  0  0  0  0  0  0  0  0  0  0
  151.6649  138.3228  154.7404 C   0  0  0  0  0  0  0  0  0  0  0  0
  150.5213  137.4679  155.0702 N   0  0  0  0  0  0  0  0  0  0  0  0
  149.1779  137.9493  154.7676 C   0  0  0  0  0  0  0  0  0  0  0  0
  148.0550  136.5455  154.9862 S   0  0  0  0  0  0  0  0  0  0  0  0
  149.2846  135.5766  155.8764 C   0  0  0  0  0  0  0  0  0  0  0  0
  150.6225  136.2611  155.6550 C   0  0  0  0  0  0  0  0  0  0  0  0
  151.6792  135.7268  155.9906 O   0  0  0  0  0  0  0  0  0  0  0  0
  150.6826  140.4928  155.2854 N   0  0  0  0  0  0  0  0  0  0  0  0
  150.5027  141.7781  155.9499 C   0  0  0  0  0  0  0  0  0  0  0  0
  150.2981  141.6042  157.4645 C   0  0  0  0  0  0  0  0  0  0  0  0
  151.0010  142.6806  158.2679 C   0  0  0  0  0  0  0  0  0  0  0  0
  151.9888  142.3733  159.2289 C   0  0  0  0  0  0  0  0  0  0  0  0
  152.6090  143.4220  159.9392 C   0  0  0  0  0  0  0  0  0  0  0  0
  152.2301  144.7544  159.6733 C   0  0  0  0  0  0  0  0  0  0  0  0
  151.2393  145.0043  158.7018 C   0  0  0  0  0  0  0  0  0  0  0  0
  150.6679  143.9723  158.0426 N   0  3  0  0  0  0  0  0  0  0  0  0
  151.6601  138.5396  153.6704 H   0  0  0  0  0  0  0  0  0  0  0  0
  152.5941  137.7875  154.9396 H   0  0  0  0  0  0  0  0  0  0  0  0
  148.9078  138.7506  155.4561 H   0  0  0  0  0  0  0  0  0  0  0  0
  149.1116  138.3292  153.7475 H   0  0  0  0  0  0  0  0  0  0  0  0
  149.0494  135.5626  156.9407 H   0  0  0  0  0  0  0  0  0  0  0  0
  149.3023  134.5507  155.5081 H   0  0  0  0  0  0  0  0  0  0  0  0
  149.9940  140.2321  154.5941 H   0  0  0  0  0  0  0  0  0  0  0  0
  151.3611  142.4224  155.7515 H   0  0  0  0  0  0  0  0  0  0  0  0
  149.6361  142.2707  155.5084 H   0  0  0  0  0  0  0  0  0  0  0  0
  149.2336  141.6219  157.7029 H   0  0  0  0  0  0  0  0  0  0  0  0
  150.6673  140.6296  157.7869 H   0  0  0  0  0  0  0  0  0  0  0  0
  152.2698  141.3475  159.4195 H   0  0  0  0  0  0  0  0  0  0  0  0
  153.3665  143.2068  160.6786 H   0  0  0  0  0  0  0  0  0  0  0  0
  152.6932  145.5720  160.2065 H   0  0  0  0  0  0  0  0  0  0  0  0
  150.8891  145.9905  158.4342 H   0  0  0  0  0  0  0  0  0  0  0  0
  149.9530  144.1767  157.3441 H   0  0  0  0  0  0  0  0  0  0  0  0
  1  2  2  0  0  0  0
  2  3  1  0  0  0  0
  2 10  1  0  0  0  0
  3  4  1  0  0  0  0
  3 19  1  0  0  0  0
  3 20  1  0  0  0  0
  4  8  1  0  0  0  0
  4  5  1  0  0  0  0
  5  6  1  0  0  0  0
  5 21  1  0  0  0  0
  5 22  1  0  0  0  0
  6  7  1  0  0  0  0
  7  8  1  0  0  0  0
  7 23  1  0  0  0  0
  7 24  1  0  0  0  0
  8  9  2  0  0  0  0
 10 11  1  0  0  0  0
 10 25  1  0  0  0  0
 11 12  1  0  0  0  0
 11 26  1  0  0  0  0
 11 27  1  0  0  0  0
 12 13  1  0  0  0  0
 12 28  1  0  0  0  0
 12 29  1  0  0  0  0
 13 18  1  0  0  0  0
 13 14  2  0  0  0  0
 14 15  1  0  0  0  0
 14 30  1  0  0  0  0
 15 16  2  0  0  0  0
 15 31  1  0  0  0  0
 16 17  1  0  0  0  0
 16 32  1  0  0  0  0
 17 18  2  0  0  0  0
 17 33  1  0  0  0  0
 18 34  1  0  0  0  0
M  CHG  1  18   1
M  END
> <s_m_source_file>
AV-unprocessed.smi

> <i_m_source_file_index>
1970

> <i_lp_mmshare_version>
43012

> <i_f3d_flags>
0

> <s_epik_input>
Tz1DMVtDSDJdU1tDSDJdTjFbQ0gyXUMoPU8pW05IXVtDSDJdW0NIMl1jMltjSF1bY0hdW2NIXVtjSF1uMg==

> <s_epik_cmdline>
J2VwaWtfcHl0aG9uJywgJy1waCcsICc3LjAnLCAnLXRuJywgJzgnLCAnLW1hJywgJzIwMCcsICctbWV0YWxfYmluZGluZycsICctaW1hZScsICc8aW5maWxlLm1hZT4nLCAnLW9tYWUnLCAnPG91dGZpbGUubWFlPic=

> <r_epik_Ionization_Penalty>
1.87519

> <r_epik_Ionization_Penalty_Charging>
1.87519

> <r_epik_Ionization_Penalty_Neutral>
8.746e-08

> <r_epik_State_Penalty>
1.99452

> <r_epik_Charging_Adjusted_Penalty>
3.86972

> <i_epik_Tot_Q>
1

> <i_epik_Tot_abs_Q>
1

> <r_epik_Metal_State_Penalty>
2.01927

> <b_epik_Metal_Only>
0

> <s_epik_Chemistry_Notes>
This compound contains an acetal/aminal-like group ( X-CH(R)-Y where X, Y are N, S, or O) that may be acid/base labile, releasing an aldehyde.

> <s_lp_Force_Field>
OPLS_2005

> <r_lp_Energy>
10.5607

> <b_lp_Chiralities_Consistent>
1

> <s_lp_Variant>
AV-unprocessed.smi:1970-2

> <Gold.Version>
5.8.1

> <Gold.Id.Protein>
6NUR|6NUR_protein|mol2

> <Gold.PLP.Fitness>
48.0257

> <Gold.PLP.PLP>
-36.6385

> <Gold.PLP.part.hbond>
-3.0000

> <Gold.PLP.part.metal>
0.0000

> <Gold.PLP.part.buried>
-5.3523

> <Gold.PLP.part.nonpolar>
-29.0093

> <Gold.PLP.part.repulsive>
1.3251

> <Gold.PLP.ligand.clash>
0.0000

> <Gold.PLP.ligand.torsion>
0.3291

> <Gold.PLP.Chemscore.Hbond>
4.0000

> <Gold.PLP.Chemscore.CHOScore>
0.0000

> <Gold.PLP.Chemscore.Metal>
0.0000

> <Gold.Chemscore.Hbonds>
donor molecule, donor type, donor heavy atom, donor atom, acceptor molecule, acceptor atom, score
      L1  H    18    34       P1  8028  1.95
      P1  H  7997  8010       L1     1  1.00
      P1  H 10752 10764       L1     9  1.00

> <Gold.PLP.Chemscore.Internal.Correction>
0.0454

> <Gold.Rescore>
     Score         DG    S(hbond)    S(metal)    S(lipo)     H(rot)  DE(clash)    DE(int)     intcor
     17.83     -20.18       2.87        0.00      88.13       2.03       1.00       1.35       ----

> <Gold.Chemscore.Fitness>
17.8295

> <Gold.Chemscore.DG>
-20.1790

> <Gold.Chemscore.ZeroCoef>
-5.4800

> <Gold.Chemscore.Hbond>
2.8696

> <Gold.Chemscore.Metal>
0.0000

> <Gold.Chemscore.Lipo>
88.1312

> <Gold.Chemscore.Internal_Hbond>
0.0000

> <Gold.Chemscore.DEClash>
0.9976

> <Gold.Chemscore.DEInternal>
1.3519

> <Gold.Chemscore.Rot>
2.0300

> <Gold.Chemscore.Internal.Correction>
   9.000000E+99

> <Gold.Chemscore.Hbonds>
donor molecule, donor type, donor heavy atom, donor atom, acceptor molecule, acceptor atom, score
      L1  H    18    34       P1  8028  0.50
      P1  H  7997  8010       L1     1  1.00
      P1  H 10752 10764       L1     9  0.96

> <Gold.Chemscore.Hbond.Weighted>
-9.5844

> <Gold.Chemscore.Metal.Weighted>
-0.0000

> <Gold.Chemscore.Lipo.Weighted>
-10.3113

> <Gold.Chemscore.Internal_Hbond.Weighted>
0.0000

> <Gold.Chemscore.DEClash.Weighted>
0.9976

> <Gold.Chemscore.DEInternal.Weighted>
1.3519

> <Gold.Chemscore.Rot.Weighted>
5.1967

> <Gold.Chemscore.Internal.Correction.Weighted>
   9.000000E+99

> <Gold.Protein.RotatedTorsions>
[ 6907 6896 6895 6894 ] final -158.43 input  -60.11 | X-H torsion
[ 7974 7965 7964 7962 ] final   -7.13 input  175.53 | X-H torsion
[ 8008 7997 7996 7995 ] final   82.35 input   59.86 | X-H torsion
[ 10167 10162 10161 10158 ] final -140.12 input  -65.29 | X-H torsion
[ 10718 10713 10712 10709 ] final  157.54 input   66.30 | X-H torsion
[ 10763 10752 10751 10750 ] final  -49.28 input  -60.55 | X-H torsion
[ 11005 11000 10999 10996 ] final   36.51 input  -57.11 | X-H torsion

> <Gold.Protein.ActiveResidues>
 VAL166  LYS551  ARG553  GLY616  TRP617  ASP618  TYR619  PRO620  LYS621  CYS622 
 ASP623  PHE694  ASN695  SER759  ASP760  ASP761  ALA762  ILE779  LEU786  VAL792 
 PHE793  MET794  SER795  GLU796  ALA797  LYS798  CYS799  TRP800  GLU811  SER814 

> <Gold.Protein.RotatedAtoms>
  151.3181  133.4052  159.2651 H   0  0  0  0  0  0  0  0  0  0  0  0  # atno 6907 bound_to 6896
  151.0058  134.9358  159.7989 H   0  0  0  0  0  0  0  0  0  0  0  0  # atno 6908 bound_to 6896
  152.5287  134.3146  159.9178 H   0  0  0  0  0  0  0  0  0  0  0  0  # atno 6909 bound_to 6896
  146.2314  140.2274  142.8339 H   0  0  0  0  0  0  0  0  0  0  0  0  # atno 7974 bound_to 7965
  155.9095  140.3428  155.6087 H   0  0  0  0  0  0  0  0  0  0  0  0  # atno 8008 bound_to 7997
  155.7405  140.0807  157.2267 H   0  0  0  0  0  0  0  0  0  0  0  0  # atno 8009 bound_to 7997
  154.4054  140.1571  156.2598 H   0  0  0  0  0  0  0  0  0  0  0  0  # atno 8010 bound_to 7997
  139.8313  143.7443  152.2666 H   0  0  0  0  0  0  0  0  0  0  0  0  # atno 10167 bound_to 10162
  157.1901  131.0652  151.2084 H   0  0  0  0  0  0  0  0  0  0  0  0  # atno 10718 bound_to 10713
  154.0916  135.6576  153.4853 H   0  0  0  0  0  0  0  0  0  0  0  0  # atno 10763 bound_to 10752
  153.0320  135.5203  154.7375 H   0  0  0  0  0  0  0  0  0  0  0  0  # atno 10764 bound_to 10752
  154.6500  135.3000  154.9967 H   0  0  0  0  0  0  0  0  0  0  0  0  # atno 10765 bound_to 10752
  140.2318  134.3519  155.7961 H   0  0  0  0  0  0  0  0  0  0  0  0  # atno 11005 bound_to 11000
  144.9584  140.8250  143.5528 LP  0  0  0  0  0  0  0  0  0  0  0  0  # atno 17320 bound_to 7965
  145.2242  139.2145  143.5077 LP  0  0  0  0  0  0  0  0  0  0  0  0  # atno 17321 bound_to 7965
  139.7652  144.7494  151.0305 LP  0  0  0  0  0  0  0  0  0  0  0  0  # atno 17342 bound_to 10162
  140.7806  143.4706  151.0151 LP  0  0  0  0  0  0  0  0  0  0  0  0  # atno 17343 bound_to 10162
  157.3869  130.7261  149.6669 LP  0  0  0  0  0  0  0  0  0  0  0  0  # atno 17370 bound_to 10713
  155.9713  130.4157  150.4195 LP  0  0  0  0  0  0  0  0  0  0  0  0  # atno 17371 bound_to 10713
  141.2217  133.7249  156.8743 LP  0  0  0  0  0  0  0  0  0  0  0  0  # atno 17394 bound_to 11000
  140.1743  134.9078  157.2871 LP  0  0  0  0  0  0  0  0  0  0  0  0  # atno 17395 bound_to 11000

$$$$
