AV-unprocessed.smi:1195|AV-procd|sdf|4995|dock6
  -GOLD-   22720 4 03D 1   1.00000     0.00000
 Structure written by MMmdl.
 39 40  0  0  0  0  0  0  0  0  1 V2000
  153.2650  128.2245  154.0918 N   0  0  0  0  0  0  0  0  0  0  0  0
  153.1763  128.4761  155.4001 C   0  0  0  0  0  0  0  0  0  0  0  0
  154.1548  128.8152  156.0645 O   0  0  0  0  0  0  0  0  0  0  0  0
  151.7864  128.3204  156.0317 C   0  0  0  0  0  0  0  0  0  0  0  0
  150.8175  129.2690  155.5067 N   0  0  0  0  0  0  0  0  0  0  0  0
  150.3973  129.4231  154.2000 C   0  0  0  0  0  0  0  0  0  0  0  0
  149.4801  130.4354  154.2232 C   0  0  0  0  0  0  0  0  0  0  0  0
  148.7329  130.9961  153.1566 N   0  0  0  0  0  0  0  0  0  0  0  0
  147.5873  131.6920  153.2429 C   0  0  0  0  0  0  0  0  0  0  0  0
  146.9919  131.9472  154.2900 O   0  0  0  0  0  0  0  0  0  0  0  0
  147.1604  132.0807  152.0329 N   0  0  0  0  0  0  0  0  0  0  0  0
  145.9454  132.8481  151.7764 C   0  0  2  0  0  0  0  0  0  0  0  0
  145.7605  133.0337  150.2596 C   0  0  0  0  0  0  0  0  0  0  0  0
  144.5118  133.8751  149.9415 C   0  0  0  0  0  0  0  0  0  0  0  0
  144.5185  135.2313  150.6722 C   0  0  2  0  0  0  0  0  0  0  0  0
  145.5093  136.0751  150.1194 O   0  0  0  0  0  0  0  0  0  0  0  0
  144.7551  135.0601  152.1847 C   0  0  0  0  0  0  0  0  0  0  0  0
  146.0039  134.2142  152.4884 C   0  0  0  0  0  0  0  0  0  0  0  0
  149.3936  130.8486  155.5780 C   0  0  0  0  0  0  0  0  0  0  0  0
  150.2073  130.1417  156.3475 N   0  0  0  0  0  0  0  0  0  0  0  0
  154.1563  128.3128  153.6255 H   0  0  0  0  0  0  0  0  0  0  0  0
  152.4441  127.9487  153.5732 H   0  0  0  0  0  0  0  0  0  0  0  0
  151.4226  127.3052  155.8657 H   0  0  0  0  0  0  0  0  0  0  0  0
  151.8579  128.4637  157.1106 H   0  0  0  0  0  0  0  0  0  0  0  0
  150.7800  128.8081  153.3990 H   0  0  0  0  0  0  0  0  0  0  0  0
  149.1089  130.8496  152.2312 H   0  0  0  0  0  0  0  0  0  0  0  0
  147.7160  131.8290  151.2285 H   0  0  0  0  0  0  0  0  0  0  0  0
  145.0877  132.2885  152.1551 H   0  0  0  0  0  0  0  0  0  0  0  0
  146.6420  133.5168  149.8355 H   0  0  0  0  0  0  0  0  0  0  0  0
  145.6787  132.0618  149.7715 H   0  0  0  0  0  0  0  0  0  0  0  0
  144.4263  134.0260  148.8646 H   0  0  0  0  0  0  0  0  0  0  0  0
  143.6242  133.3159  150.2400 H   0  0  0  0  0  0  0  0  0  0  0  0
  143.5585  135.7242  150.5153 H   0  0  0  0  0  0  0  0  0  0  0  0
  145.7636  135.7286  149.2778 H   0  0  0  0  0  0  0  0  0  0  0  0
  144.8349  136.0342  152.6687 H   0  0  0  0  0  0  0  0  0  0  0  0
  143.8854  134.5726  152.6268 H   0  0  0  0  0  0  0  0  0  0  0  0
  146.0926  134.0745  153.5664 H   0  0  0  0  0  0  0  0  0  0  0  0
  146.8976  134.7561  152.1758 H   0  0  0  0  0  0  0  0  0  0  0  0
  148.7823  131.6218  156.0195 H   0  0  0  0  0  0  0  0  0  0  0  0
  1  2  1  0  0  0  0
  1 21  1  0  0  0  0
  1 22  1  0  0  0  0
  2  3  2  0  0  0  0
  2  4  1  0  0  0  0
  4  5  1  0  0  0  0
  4 23  1  0  0  0  0
  4 24  1  0  0  0  0
  5 20  1  0  0  0  0
  5  6  1  0  0  0  0
  6  7  2  0  0  0  0
  6 25  1  0  0  0  0
  7  8  1  0  0  0  0
  7 19  1  0  0  0  0
  8  9  1  0  0  0  0
  8 26  1  0  0  0  0
  9 10  2  0  0  0  0
  9 11  1  0  0  0  0
 11 12  1  0  0  0  0
 11 27  1  0  0  0  0
 12 18  1  0  0  0  0
 12 13  1  0  0  0  0
 12 28  1  0  0  0  0
 13 14  1  0  0  0  0
 13 29  1  0  0  0  0
 13 30  1  0  0  0  0
 14 15  1  0  0  0  0
 14 31  1  0  0  0  0
 14 32  1  0  0  0  0
 15 16  1  0  0  0  0
 15 17  1  0  0  0  0
 15 33  1  0  0  0  0
 16 34  1  0  0  0  0
 17 18  1  0  0  0  0
 17 35  1  0  0  0  0
 17 36  1  0  0  0  0
 18 37  1  0  0  0  0
 18 38  1  0  0  0  0
 19 20  2  0  0  0  0
 19 39  1  0  0  0  0
M  END
> <s_m_source_file>
AV-unprocessed.smi

> <i_m_source_file_index>
1195

> <i_lp_mmshare_version>
43012

> <i_f3d_flags>
0

> <s_epik_input>
W05IMl1DKD1PKVtDSDJdbjFbY0hdYyhbY0hdbjEpW05IXUMoPU8pW05IXVtDQEBIXTJbQ0gyXVtDSDJdW0NAQEhdKFtPSF0pW0NIMl1bQ0gyXTI=

> <s_epik_cmdline>
J2VwaWtfcHl0aG9uJywgJy1waCcsICc3LjAnLCAnLXRuJywgJzgnLCAnLW1hJywgJzIwMCcsICctbWV0YWxfYmluZGluZycsICctaW1hZScsICc8aW5maWxlLm1hZT4nLCAnLW9tYWUnLCAnPG91dGZpbGUubWFlPic=

> <r_lp_tautomer_probability>
1

> <r_epik_Ionization_Penalty>
4.75851e-05

> <r_epik_Ionization_Penalty_Charging>
0

> <r_epik_Ionization_Penalty_Neutral>
4.75851e-05

> <r_epik_State_Penalty>
-0

> <r_epik_Charging_Adjusted_Penalty>
0

> <i_epik_Tot_Q>
0

> <i_epik_Tot_abs_Q>
0

> <r_epik_Metal_State_Penalty>
-0

> <b_epik_Metal_Only>
0

> <s_lp_Force_Field>
OPLS_2005

> <r_lp_Energy>
14.5792

> <b_lp_Chiralities_Consistent>
1

> <s_lp_Variant>
AV-unprocessed.smi:1195-2

> <Gold.Version>
5.8.1

> <Gold.Id.Protein>
6NUR|6NUR_protein|mol2

> <Gold.PLP.Fitness>
44.3335

> <Gold.PLP.PLP>
-30.8665

> <Gold.PLP.part.hbond>
-4.9911

> <Gold.PLP.part.metal>
0.0000

> <Gold.PLP.part.buried>
-2.4501

> <Gold.PLP.part.nonpolar>
-22.4165

> <Gold.PLP.part.repulsive>
0.1497

> <Gold.PLP.ligand.clash>
0.0000

> <Gold.PLP.ligand.torsion>
0.1183

> <Gold.PLP.Chemscore.Hbond>
3.5621

> <Gold.PLP.Chemscore.CHOScore>
1.0000

> <Gold.PLP.Chemscore.Metal>
0.0000

> <Gold.Chemscore.Hbonds>
donor molecule, donor type, donor heavy atom, donor atom, acceptor molecule, acceptor atom, score
      L1  H     1    22       P1 10737  0.66
      L1  H     8    26       P1 10747  1.00
      L1  H    11    27       P1 10747  1.00
      L1  H    16    34       P1  7921  1.00
      L1  C     6    25       P1 10737  1.00

> <Gold.PLP.Chemscore.Internal.Correction>
0.0173

> <Gold.Rescore>
     Score         DG    S(hbond)    S(metal)    S(lipo)     H(rot)  DE(clash)    DE(int)     intcor
     12.77     -14.18       2.68        0.00      55.25       2.62       0.02       1.39       ----

> <Gold.Chemscore.Fitness>
12.7694

> <Gold.Chemscore.DG>
-14.1765

> <Gold.Chemscore.ZeroCoef>
-5.4800

> <Gold.Chemscore.Hbond>
2.6774

> <Gold.Chemscore.Metal>
0.0000

> <Gold.Chemscore.Lipo>
55.2504

> <Gold.Chemscore.Internal_Hbond>
0.0000

> <Gold.Chemscore.DEClash>
0.0202

> <Gold.Chemscore.DEInternal>
1.3868

> <Gold.Chemscore.Rot>
2.6212

> <Gold.Chemscore.Internal.Correction>
   9.000000E+99

> <Gold.Chemscore.Hbonds>
donor molecule, donor type, donor heavy atom, donor atom, acceptor molecule, acceptor atom, score
      L1  H     1    22       P1 10737  0.60
      L1  H     8    26       P1 10747  0.25
      L1  H    11    27       P1 10747  0.98
      L1  H    16    34       P1  7921  1.00

> <Gold.Chemscore.Hbond.Weighted>
-8.9425

> <Gold.Chemscore.Metal.Weighted>
-0.0000

> <Gold.Chemscore.Lipo.Weighted>
-6.4643

> <Gold.Chemscore.Internal_Hbond.Weighted>
0.0000

> <Gold.Chemscore.DEClash.Weighted>
0.0202

> <Gold.Chemscore.DEInternal.Weighted>
1.3868

> <Gold.Chemscore.Rot.Weighted>
6.7103

> <Gold.Chemscore.Internal.Correction.Weighted>
   9.000000E+99

> <Gold.Protein.RotatedTorsions>
[ 6907 6896 6895 6894 ] final -152.41 input  -60.11 | X-H torsion
[ 7974 7965 7964 7962 ] final   81.38 input  175.53 | X-H torsion
[ 8008 7997 7996 7995 ] final  108.44 input   59.86 | X-H torsion
[ 10167 10162 10161 10158 ] final  -79.03 input  -65.29 | X-H torsion
[ 10718 10713 10712 10709 ] final   69.40 input   66.30 | X-H torsion
[ 10763 10752 10751 10750 ] final  -96.95 input  -60.55 | X-H torsion
[ 11005 11000 10999 10996 ] final   47.26 input  -57.11 | X-H torsion

> <Gold.Protein.ActiveResidues>
 VAL166  LYS551  ARG553  GLY616  TRP617  ASP618  TYR619  PRO620  LYS621  CYS622 
 ASP623  PHE694  ASN695  SER759  ASP760  ASP761  ALA762  ILE779  LEU786  VAL792 
 PHE793  MET794  SER795  GLU796  ALA797  LYS798  CYS799  TRP800  GLU811  SER814 

> <Gold.Protein.RotatedAtoms>
  151.2274  133.4469  159.2602 H   0  0  0  0  0  0  0  0  0  0  0  0  # atno 6907 bound_to 6896
  151.0826  134.9868  159.8374 H   0  0  0  0  0  0  0  0  0  0  0  0  # atno 6908 bound_to 6896
  152.5426  134.2213  159.8841 H   0  0  0  0  0  0  0  0  0  0  0  0  # atno 6909 bound_to 6896
  145.6389  139.2421  143.2042 H   0  0  0  0  0  0  0  0  0  0  0  0  # atno 7974 bound_to 7965
  156.1903  140.3076  155.9319 H   0  0  0  0  0  0  0  0  0  0  0  0  # atno 8008 bound_to 7997
  155.3188  140.0455  157.3055 H   0  0  0  0  0  0  0  0  0  0  0  0  # atno 8009 bound_to 7997
  154.5444  140.2272  155.8596 H   0  0  0  0  0  0  0  0  0  0  0  0  # atno 8010 bound_to 7997
  140.4630  143.2448  151.8321 H   0  0  0  0  0  0  0  0  0  0  0  0  # atno 10167 bound_to 10162
  157.6344  130.9424  150.0509 H   0  0  0  0  0  0  0  0  0  0  0  0  # atno 10718 bound_to 10713
  154.7285  135.5065  153.8924 H   0  0  0  0  0  0  0  0  0  0  0  0  # atno 10763 bound_to 10752
  153.0927  135.6663  153.9831 H   0  0  0  0  0  0  0  0  0  0  0  0  # atno 10764 bound_to 10752
  153.9638  135.3045  155.3411 H   0  0  0  0  0  0  0  0  0  0  0  0  # atno 10765 bound_to 10752
  140.1295  134.4724  155.8533 H   0  0  0  0  0  0  0  0  0  0  0  0  # atno 11005 bound_to 11000
  146.1296  140.7202  142.9418 LP  0  0  0  0  0  0  0  0  0  0  0  0  # atno 17320 bound_to 7965
  144.7165  140.4226  143.7041 LP  0  0  0  0  0  0  0  0  0  0  0  0  # atno 17321 bound_to 7965
  139.4808  144.4985  151.9092 LP  0  0  0  0  0  0  0  0  0  0  0  0  # atno 17342 bound_to 10162
  140.4071  144.2418  150.5890 LP  0  0  0  0  0  0  0  0  0  0  0  0  # atno 17343 bound_to 10162
  156.1571  130.3643  149.9353 LP  0  0  0  0  0  0  0  0  0  0  0  0  # atno 17370 bound_to 10713
  156.7359  130.9061  151.3629 LP  0  0  0  0  0  0  0  0  0  0  0  0  # atno 17371 bound_to 10713
  141.2167  133.6790  156.7042 LP  0  0  0  0  0  0  0  0  0  0  0  0  # atno 17394 bound_to 11000
  140.2861  134.8278  157.3976 LP  0  0  0  0  0  0  0  0  0  0  0  0  # atno 17395 bound_to 11000

$$$$
