AV-unprocessed.smi:424|AV-procd|sdf|2539|dock1
  -GOLD-   2262022503D 1   1.00000     0.00000
 Structure written by MMmdl.
 34 35  0  0  0  0  0  0  0  0  1 V2000
  153.9406  135.1804  161.9942 C   0  0  0  0  0  0  0  0  0  0  0  0
  153.7426  135.3942  160.4848 C   0  0  0  0  0  0  0  0  0  0  0  0
  153.2100  136.7849  160.1208 C   0  0  0  0  0  0  0  0  0  0  0  0
  152.2582  136.9049  159.3494 O   0  0  0  0  0  0  0  0  0  0  0  0
  153.8710  137.8122  160.6854 N   0  0  0  0  0  0  0  0  0  0  0  0
  153.6257  139.2079  160.5680 C   0  0  0  0  0  0  0  0  0  0  0  0
  154.1282  140.1895  161.4538 C   0  0  0  0  0  0  0  0  0  0  0  0
  153.8279  141.5440  161.2131 C   0  0  0  0  0  0  0  0  0  0  0  0
  153.0386  141.8913  160.0914 C   0  0  0  0  0  0  0  0  0  0  0  0
  152.7288  143.2440  159.8311 N   0  0  0  0  0  0  0  0  0  0  0  0
  152.0117  143.9478  160.8916 C   0  0  0  0  0  0  0  0  0  0  0  0
  152.0156  145.4635  160.6271 C   0  0  0  0  0  0  0  0  0  0  0  0
  151.4922  145.7307  159.3303 O   0  0  0  0  0  0  0  0  0  0  0  0
  152.2780  145.1268  158.3084 C   0  0  0  0  0  0  0  0  0  0  0  0
  152.2732  143.5995  158.4882 C   0  0  0  0  0  0  0  0  0  0  0  0
  152.5733  140.9488  159.2355 N   0  0  0  0  0  0  0  0  0  0  0  0
  152.8623  139.6519  159.4703 C   0  0  0  0  0  0  0  0  0  0  0  0
  154.3366  134.1844  162.1927 H   0  0  0  0  0  0  0  0  0  0  0  0
  152.9990  135.2730  162.5369 H   0  0  0  0  0  0  0  0  0  0  0  0
  154.6437  135.9027  162.4111 H   0  0  0  0  0  0  0  0  0  0  0  0
  154.6920  135.2388  159.9706 H   0  0  0  0  0  0  0  0  0  0  0  0
  153.0508  134.6449  160.0989 H   0  0  0  0  0  0  0  0  0  0  0  0
  154.6809  137.5629  161.2345 H   0  0  0  0  0  0  0  0  0  0  0  0
  154.7502  139.9398  162.2987 H   0  0  0  0  0  0  0  0  0  0  0  0
  154.2232  142.2978  161.8773 H   0  0  0  0  0  0  0  0  0  0  0  0
  150.9860  143.5784  160.9264 H   0  0  0  0  0  0  0  0  0  0  0  0
  152.4495  143.7589  161.8706 H   0  0  0  0  0  0  0  0  0  0  0  0
  151.4024  145.9750  161.3691 H   0  0  0  0  0  0  0  0  0  0  0  0
  153.0246  145.8699  160.7141 H   0  0  0  0  0  0  0  0  0  0  0  0
  151.8624  145.3919  157.3362 H   0  0  0  0  0  0  0  0  0  0  0  0
  153.2960  145.5189  158.3371 H   0  0  0  0  0  0  0  0  0  0  0  0
  152.9203  143.1460  157.7363 H   0  0  0  0  0  0  0  0  0  0  0  0
  151.2667  143.2086  158.3331 H   0  0  0  0  0  0  0  0  0  0  0  0
  152.4672  138.9453  158.7550 H   0  0  0  0  0  0  0  0  0  0  0  0
  1  2  1  0  0  0  0
  1 18  1  0  0  0  0
  1 19  1  0  0  0  0
  1 20  1  0  0  0  0
  2  3  1  0  0  0  0
  2 21  1  0  0  0  0
  2 22  1  0  0  0  0
  3  4  2  0  0  0  0
  3  5  1  0  0  0  0
  5  6  1  0  0  0  0
  5 23  1  0  0  0  0
  6 17  1  0  0  0  0
  6  7  2  0  0  0  0
  7  8  1  0  0  0  0
  7 24  1  0  0  0  0
  8  9  2  0  0  0  0
  8 25  1  0  0  0  0
  9 10  1  0  0  0  0
  9 16  1  0  0  0  0
 10 15  1  0  0  0  0
 10 11  1  0  0  0  0
 11 12  1  0  0  0  0
 11 26  1  0  0  0  0
 11 27  1  0  0  0  0
 12 13  1  0  0  0  0
 12 28  1  0  0  0  0
 12 29  1  0  0  0  0
 13 14  1  0  0  0  0
 14 15  1  0  0  0  0
 14 30  1  0  0  0  0
 14 31  1  0  0  0  0
 15 32  1  0  0  0  0
 15 33  1  0  0  0  0
 16 17  2  0  0  0  0
 17 34  1  0  0  0  0
M  END
> <s_m_source_file>
AV-unprocessed.smi

> <i_m_source_file_index>
424

> <i_lp_mmshare_version>
43012

> <i_f3d_flags>
0

> <s_epik_input>
W0NIM11bQ0gyXUMoPU8pW05IXWMxW2NIXVtjSF1jKG5bY0hdMSlOMltDSDJdW0NIMl1PW0NIMl1bQ0gyXTI=

> <s_epik_cmdline>
J2VwaWtfcHl0aG9uJywgJy1waCcsICc3LjAnLCAnLXRuJywgJzgnLCAnLW1hJywgJzIwMCcsICctbWV0YWxfYmluZGluZycsICctaW1hZScsICc8aW5maWxlLm1hZT4nLCAnLW9tYWUnLCAnPG91dGZpbGUubWFlPic=

> <r_lp_tautomer_probability>
1

> <r_epik_Ionization_Penalty>
0.000622595

> <r_epik_Ionization_Penalty_Charging>
0

> <r_epik_Ionization_Penalty_Neutral>
0.000622595

> <r_epik_State_Penalty>
0.000387388

> <r_epik_Charging_Adjusted_Penalty>
0.000387388

> <i_epik_Tot_Q>
0

> <i_epik_Tot_abs_Q>
0

> <r_epik_Metal_State_Penalty>
-0

> <b_epik_Metal_Only>
0

> <s_lp_Force_Field>
OPLS_2005

> <r_lp_Energy>
21.9993

> <b_lp_Chiralities_Consistent>
1

> <s_lp_Variant>
AV-unprocessed.smi:424-1

> <Gold.Version>
5.8.1

> <Gold.Id.Protein>
6NUR|6NUR_protein|mol2

> <Gold.PLP.Fitness>
39.4121

> <Gold.PLP.PLP>
-37.0474

> <Gold.PLP.part.hbond>
-1.5860

> <Gold.PLP.part.metal>
0.0000

> <Gold.PLP.part.buried>
-5.0512

> <Gold.PLP.part.nonpolar>
-30.2841

> <Gold.PLP.part.repulsive>
0.1371

> <Gold.PLP.ligand.clash>
0.0000

> <Gold.PLP.ligand.torsion>
0.4315

> <Gold.PLP.Chemscore.Hbond>
0.9588

> <Gold.PLP.Chemscore.CHOScore>
0.0000

> <Gold.PLP.Chemscore.Metal>
0.0000

> <Gold.Chemscore.Hbonds>
donor molecule, donor type, donor heavy atom, donor atom, acceptor molecule, acceptor atom, score
      P1  H  6896  6908       L1     4  0.10

> <Gold.PLP.Chemscore.Internal.Correction>
0.3514

> <Gold.Rescore>
     Score         DG    S(hbond)    S(metal)    S(lipo)     H(rot)  DE(clash)    DE(int)     intcor
     14.21     -15.84       1.00        0.00      85.93       1.18       0.01       1.62       ----

> <Gold.Chemscore.Fitness>
14.2064

> <Gold.Chemscore.DG>
-15.8389

> <Gold.Chemscore.ZeroCoef>
-5.4800

> <Gold.Chemscore.Hbond>
0.9994

> <Gold.Chemscore.Metal>
0.0000

> <Gold.Chemscore.Lipo>
85.9297

> <Gold.Chemscore.Internal_Hbond>
0.0000

> <Gold.Chemscore.DEClash>
0.0149

> <Gold.Chemscore.DEInternal>
1.6176

> <Gold.Chemscore.Rot>
1.1848

> <Gold.Chemscore.Internal.Correction>
   9.000000E+99

> <Gold.Chemscore.Hbond.Weighted>
-3.3381

> <Gold.Chemscore.Metal.Weighted>
-0.0000

> <Gold.Chemscore.Lipo.Weighted>
-10.0538

> <Gold.Chemscore.Internal_Hbond.Weighted>
0.0000

> <Gold.Chemscore.DEClash.Weighted>
0.0149

> <Gold.Chemscore.DEInternal.Weighted>
1.6176

> <Gold.Chemscore.Rot.Weighted>
3.0331

> <Gold.Chemscore.Internal.Correction.Weighted>
   9.000000E+99

> <Gold.Protein.RotatedTorsions>
[ 6907 6896 6895 6894 ] final -104.75 input  -60.11 | X-H torsion
[ 7974 7965 7964 7962 ] final  -88.74 input  175.53 | X-H torsion
[ 8008 7997 7996 7995 ] final  166.00 input   59.86 | X-H torsion
[ 10167 10162 10161 10158 ] final  -62.59 input  -65.29 | X-H torsion
[ 10718 10713 10712 10709 ] final  -94.89 input   66.30 | X-H torsion
[ 10763 10752 10751 10750 ] final -146.33 input  -60.55 | X-H torsion
[ 11005 11000 10999 10996 ] final   46.07 input  -57.11 | X-H torsion

> <Gold.Protein.ActiveResidues>
 VAL166  LYS551  ARG553  GLY616  TRP617  ASP618  TYR619  PRO620  LYS621  CYS622 
 ASP623  PHE694  ASN695  SER759  ASP760  ASP761  ALA762  ILE779  LEU786  VAL792 
 PHE793  MET794  SER795  GLU796  ALA797  LYS798  CYS799  TRP800  GLU811  SER814 

> <Gold.Protein.RotatedAtoms>
  150.7303  134.0230  159.3707 H   0  0  0  0  0  0  0  0  0  0  0  0  # atno 6907 bound_to 6896
  151.8196  135.0654  160.0432 H   0  0  0  0  0  0  0  0  0  0  0  0  # atno 6908 bound_to 6896
  152.3014  133.5622  159.5657 H   0  0  0  0  0  0  0  0  0  0  0  0  # atno 6909 bound_to 6896
  145.4491  140.9560  143.2032 H   0  0  0  0  0  0  0  0  0  0  0  0  # atno 7974 bound_to 7965
  156.1755  140.1655  156.8371 H   0  0  0  0  0  0  0  0  0  0  0  0  # atno 8008 bound_to 7997
  154.5302  140.0758  156.8365 H   0  0  0  0  0  0  0  0  0  0  0  0  # atno 8009 bound_to 7997
  155.3423  140.3385  155.4241 H   0  0  0  0  0  0  0  0  0  0  0  0  # atno 8010 bound_to 7997
  140.5929  143.2345  151.6100 H   0  0  0  0  0  0  0  0  0  0  0  0  # atno 10167 bound_to 10162
  156.0034  130.5086  150.5995 H   0  0  0  0  0  0  0  0  0  0  0  0  # atno 10718 bound_to 10713
  154.8341  135.3389  154.6644 H   0  0  0  0  0  0  0  0  0  0  0  0  # atno 10763 bound_to 10752
  153.7260  135.6955  153.5005 H   0  0  0  0  0  0  0  0  0  0  0  0  # atno 10764 bound_to 10752
  153.2346  135.4405  155.0585 H   0  0  0  0  0  0  0  0  0  0  0  0  # atno 10765 bound_to 10752
  140.1402  134.4593  155.8455 H   0  0  0  0  0  0  0  0  0  0  0  0  # atno 11005 bound_to 11000
  144.8073  139.6027  143.7045 LP  0  0  0  0  0  0  0  0  0  0  0  0  # atno 17320 bound_to 7965
  146.2514  139.6208  142.9424 LP  0  0  0  0  0  0  0  0  0  0  0  0  # atno 17321 bound_to 7965
  139.5239  144.3120  152.0985 LP  0  0  0  0  0  0  0  0  0  0  0  0  # atno 17342 bound_to 10162
  140.2287  144.4391  150.6309 LP  0  0  0  0  0  0  0  0  0  0  0  0  # atno 17343 bound_to 10162
  157.3846  131.0786  151.1447 LP  0  0  0  0  0  0  0  0  0  0  0  0  # atno 17370 bound_to 10713
  157.2158  130.6459  149.5792 LP  0  0  0  0  0  0  0  0  0  0  0  0  # atno 17371 bound_to 10713
  141.2184  133.6830  156.7232 LP  0  0  0  0  0  0  0  0  0  0  0  0  # atno 17394 bound_to 11000
  140.2732  134.8376  157.3866 LP  0  0  0  0  0  0  0  0  0  0  0  0  # atno 17395 bound_to 11000

$$$$
