AV-unprocessed.smi:946|AV-procd|sdf|4236|dock7
  -GOLD-   22720 2143D 1   1.00000     0.00000
 Structure written by MMmdl.
 42 43  0  0  0  0  0  0  0  0  1 V2000
  151.2507  139.7321  155.8444 C   0  0  0  0  0  0  0  0  0  0  0  0
  151.2254  139.5195  157.3648 C   0  0  2  0  0  0  0  0  0  0  0  0
  152.2884  140.2891  157.9184 O   0  0  0  0  0  0  0  0  0  0  0  0
  152.2528  140.4545  159.3310 C   0  0  0  0  0  0  0  0  0  0  0  0
  152.5097  141.9320  159.6549 C   0  0  1  0  0  0  0  0  0  0  0  0
  151.5234  142.8648  158.9254 C   0  0  0  0  0  0  0  0  0  0  0  0
  151.7553  144.3225  159.3403 C   0  0  0  0  0  0  0  0  0  0  0  0
  151.7128  144.4388  160.8675 C   0  0  0  0  0  0  0  0  0  0  0  0
  152.6714  143.4220  161.5075 C   0  0  0  0  0  0  0  0  0  0  0  0
  152.3526  142.1076  161.0616 O   0  0  0  0  0  0  0  0  0  0  0  0
  151.4030  138.0347  157.7196 C   0  0  0  0  0  0  0  0  0  0  0  0
  152.2181  137.3536  157.0965 O   0  0  0  0  0  0  0  0  0  0  0  0
  150.6363  137.5785  158.7281 N   0  0  0  0  0  0  0  0  0  0  0  0
  150.5762  136.2644  159.2625 C   0  0  0  0  0  0  0  0  0  0  0  0
  150.6694  135.2252  158.3107 C   0  0  0  0  0  0  0  0  0  0  0  0
  150.6245  133.8859  158.7420 C   0  0  0  0  0  0  0  0  0  0  0  0
  150.4864  133.6184  160.1154 C   0  0  0  0  0  0  0  0  0  0  0  0
  150.3972  134.7112  161.0039 C   0  0  0  0  0  0  0  0  0  0  0  0
  150.2438  134.5101  162.5050 C   0  0  0  0  0  0  0  0  0  0  0  0
  150.2304  133.2169  162.8310 F   0  0  0  0  0  0  0  0  0  0  0  0
  151.2578  135.0950  163.1430 F   0  0  0  0  0  0  0  0  0  0  0  0
  149.1016  135.0604  162.9174 F   0  0  0  0  0  0  0  0  0  0  0  0
  150.4413  135.9959  160.5843 N   0  0  0  0  0  0  0  0  0  0  0  0
  150.4576  139.1680  155.3522 H   0  0  0  0  0  0  0  0  0  0  0  0
  152.2024  139.4222  155.4107 H   0  0  0  0  0  0  0  0  0  0  0  0
  151.1064  140.7847  155.5995 H   0  0  0  0  0  0  0  0  0  0  0  0
  150.2714  139.8866  157.7482 H   0  0  0  0  0  0  0  0  0  0  0  0
  151.2660  140.1629  159.6932 H   0  0  0  0  0  0  0  0  0  0  0  0
  152.9863  139.8251  159.8364 H   0  0  0  0  0  0  0  0  0  0  0  0
  153.5303  142.1869  159.3630 H   0  0  0  0  0  0  0  0  0  0  0  0
  151.6341  142.7641  157.8452 H   0  0  0  0  0  0  0  0  0  0  0  0
  150.4987  142.5760  159.1633 H   0  0  0  0  0  0  0  0  0  0  0  0
  152.7259  144.6587  158.9734 H   0  0  0  0  0  0  0  0  0  0  0  0
  151.0061  144.9726  158.8876 H   0  0  0  0  0  0  0  0  0  0  0  0
  151.9739  145.4512  161.1768 H   0  0  0  0  0  0  0  0  0  0  0  0
  150.6978  144.2548  161.2216 H   0  0  0  0  0  0  0  0  0  0  0  0
  153.7088  143.6578  161.2656 H   0  0  0  0  0  0  0  0  0  0  0  0
  152.5825  143.4560  162.5934 H   0  0  0  0  0  0  0  0  0  0  0  0
  150.0135  138.2496  159.1530 H   0  0  0  0  0  0  0  0  0  0  0  0
  150.7776  135.4473  157.2589 H   0  0  0  0  0  0  0  0  0  0  0  0
  150.6962  133.0770  158.0298 H   0  0  0  0  0  0  0  0  0  0  0  0
  150.4511  132.5986  160.4688 H   0  0  0  0  0  0  0  0  0  0  0  0
  1  2  1  0  0  0  0
  1 24  1  0  0  0  0
  1 25  1  0  0  0  0
  1 26  1  0  0  0  0
  2  3  1  0  0  0  0
  2 11  1  0  0  0  0
  2 27  1  0  0  0  0
  3  4  1  0  0  0  0
  4  5  1  0  0  0  0
  4 28  1  0  0  0  0
  4 29  1  0  0  0  0
  5 10  1  0  0  0  0
  5  6  1  0  0  0  0
  5 30  1  0  0  0  0
  6  7  1  0  0  0  0
  6 31  1  0  0  0  0
  6 32  1  0  0  0  0
  7  8  1  0  0  0  0
  7 33  1  0  0  0  0
  7 34  1  0  0  0  0
  8  9  1  0  0  0  0
  8 35  1  0  0  0  0
  8 36  1  0  0  0  0
  9 10  1  0  0  0  0
  9 37  1  0  0  0  0
  9 38  1  0  0  0  0
 11 12  2  0  0  0  0
 11 13  1  0  0  0  0
 13 14  1  0  0  0  0
 13 39  1  0  0  0  0
 14 23  1  0  0  0  0
 14 15  2  0  0  0  0
 15 16  1  0  0  0  0
 15 40  1  0  0  0  0
 16 17  2  0  0  0  0
 16 41  1  0  0  0  0
 17 18  1  0  0  0  0
 17 42  1  0  0  0  0
 18 19  1  0  0  0  0
 18 23  2  0  0  0  0
 19 20  1  0  0  0  0
 19 21  1  0  0  0  0
 19 22  1  0  0  0  0
M  END
> <s_m_source_file>
AV-unprocessed.smi

> <i_m_source_file_index>
946

> <i_lp_mmshare_version>
43012

> <i_f3d_flags>
0

> <s_epik_input>
TzFbQ0gyXVtDSDJdW0NIMl1bQ0gyXVtDQEhdMVtDSDJdT1tDQEBIXShbQ0gzXSlDKD1PKVtOSF1jMltjSF1bY0hdW2NIXWMobjIpQyhGKShGKUY=

> <s_epik_cmdline>
J2VwaWtfcHl0aG9uJywgJy1waCcsICc3LjAnLCAnLXRuJywgJzgnLCAnLW1hJywgJzIwMCcsICctbWV0YWxfYmluZGluZycsICctaW1hZScsICc8aW5maWxlLm1hZT4nLCAnLW9tYWUnLCAnPG91dGZpbGUubWFlPic=

> <r_lp_tautomer_probability>
1

> <r_epik_Ionization_Penalty>
1.32683e-06

> <r_epik_Ionization_Penalty_Charging>
0

> <r_epik_Ionization_Penalty_Neutral>
1.32683e-06

> <r_epik_State_Penalty>
-0

> <r_epik_Charging_Adjusted_Penalty>
0

> <i_epik_Tot_Q>
0

> <i_epik_Tot_abs_Q>
0

> <r_epik_Metal_State_Penalty>
-0

> <b_epik_Metal_Only>
0

> <s_lp_Force_Field>
OPLS_2005

> <r_lp_Energy>
15.6569

> <b_lp_Chiralities_Consistent>
1

> <s_lp_Variant>
AV-unprocessed.smi:946-3

> <Gold.Version>
5.8.1

> <Gold.Id.Protein>
6NUR|6NUR_protein|mol2

> <Gold.PLP.Fitness>
50.4455

> <Gold.PLP.PLP>
-49.4017

> <Gold.PLP.part.hbond>
-3.0000

> <Gold.PLP.part.metal>
0.0000

> <Gold.PLP.part.buried>
-5.0900

> <Gold.PLP.part.nonpolar>
-41.4759

> <Gold.PLP.part.repulsive>
0.2247

> <Gold.PLP.ligand.clash>
0.0000

> <Gold.PLP.ligand.torsion>
1.2396

> <Gold.PLP.Chemscore.Hbond>
1.1502

> <Gold.PLP.Chemscore.CHOScore>
0.0000

> <Gold.PLP.Chemscore.Metal>
0.0000

> <Gold.PLP.Chemscore.Internal.Correction>
0.0725

> <Gold.Rescore>
     Score         DG    S(hbond)    S(metal)    S(lipo)     H(rot)  DE(clash)    DE(int)     intcor
     13.65     -16.60       1.15        0.00     100.59       1.76       0.60       2.35       ----

> <Gold.Chemscore.Fitness>
13.6521

> <Gold.Chemscore.DG>
-16.6002

> <Gold.Chemscore.ZeroCoef>
-5.4800

> <Gold.Chemscore.Hbond>
1.1516

> <Gold.Chemscore.Metal>
0.0000

> <Gold.Chemscore.Lipo>
100.5856

> <Gold.Chemscore.Internal_Hbond>
0.0000

> <Gold.Chemscore.DEClash>
0.5968

> <Gold.Chemscore.DEInternal>
2.3514

> <Gold.Chemscore.Rot>
1.7557

> <Gold.Chemscore.Internal.Correction>
   9.000000E+99

> <Gold.Chemscore.Hbonds>
donor molecule, donor type, donor heavy atom, donor atom, acceptor molecule, acceptor atom, score
      P1  H  7997  8008       L1     3  0.05

> <Gold.Chemscore.Hbond.Weighted>
-3.8463

> <Gold.Chemscore.Metal.Weighted>
-0.0000

> <Gold.Chemscore.Lipo.Weighted>
-11.7685

> <Gold.Chemscore.Internal_Hbond.Weighted>
0.0000

> <Gold.Chemscore.DEClash.Weighted>
0.5968

> <Gold.Chemscore.DEInternal.Weighted>
2.3514

> <Gold.Chemscore.Rot.Weighted>
4.4946

> <Gold.Chemscore.Internal.Correction.Weighted>
   9.000000E+99

> <Gold.Protein.RotatedTorsions>
[ 6907 6896 6895 6894 ] final    0.75 input  -60.11 | X-H torsion
[ 7974 7965 7964 7962 ] final   23.62 input  175.53 | X-H torsion
[ 8008 7997 7996 7995 ] final  -74.95 input   59.86 | X-H torsion
[ 10167 10162 10161 10158 ] final  -71.97 input  -65.29 | X-H torsion
[ 10718 10713 10712 10709 ] final -176.85 input   66.30 | X-H torsion
[ 10763 10752 10751 10750 ] final  -99.42 input  -60.55 | X-H torsion
[ 11005 11000 10999 10996 ] final -137.66 input  -57.11 | X-H torsion

> <Gold.Protein.ActiveResidues>
 VAL166  LYS551  ARG553  GLY616  TRP617  ASP618  TYR619  PRO620  LYS621  CYS622 
 ASP623  PHE694  ASN695  SER759  ASP760  ASP761  ALA762  ILE779  LEU786  VAL792 
 PHE793  MET794  SER795  GLU796  ALA797  LYS798  CYS799  TRP800  GLU811  SER814 

> <Gold.Protein.RotatedAtoms>
  151.5816  135.1058  160.0018 H   0  0  0  0  0  0  0  0  0  0  0  0  # atno 6907 bound_to 6896
  152.4351  133.7343  159.6615 H   0  0  0  0  0  0  0  0  0  0  0  0  # atno 6908 bound_to 6896
  150.8248  133.8120  159.3146 H   0  0  0  0  0  0  0  0  0  0  0  0  # atno 6909 bound_to 6896
  146.1976  139.7719  142.8786 H   0  0  0  0  0  0  0  0  0  0  0  0  # atno 7974 bound_to 7965
  154.5375  140.0752  156.8453 H   0  0  0  0  0  0  0  0  0  0  0  0  # atno 8008 bound_to 7997
  155.3248  140.3398  155.4222 H   0  0  0  0  0  0  0  0  0  0  0  0  # atno 8009 bound_to 7997
  156.1842  140.1663  156.8203 H   0  0  0  0  0  0  0  0  0  0  0  0  # atno 8010 bound_to 7997
  140.5230  143.2329  151.7396 H   0  0  0  0  0  0  0  0  0  0  0  0  # atno 10167 bound_to 10162
  156.8207  130.9619  151.3112 H   0  0  0  0  0  0  0  0  0  0  0  0  # atno 10718 bound_to 10713
  154.7496  135.4973  153.9266 H   0  0  0  0  0  0  0  0  0  0  0  0  # atno 10763 bound_to 10752
  153.1129  135.6713  153.9476 H   0  0  0  0  0  0  0  0  0  0  0  0  # atno 10764 bound_to 10752
  153.9230  135.3086  155.3426 H   0  0  0  0  0  0  0  0  0  0  0  0  # atno 10765 bound_to 10752
  140.8690  134.2074  157.4662 H   0  0  0  0  0  0  0  0  0  0  0  0  # atno 11005 bound_to 11000
  145.3593  141.0322  143.3294 LP  0  0  0  0  0  0  0  0  0  0  0  0  # atno 17320 bound_to 7965
  144.8613  139.5173  143.6811 LP  0  0  0  0  0  0  0  0  0  0  0  0  # atno 17321 bound_to 7965
  139.4929  144.4226  151.9960 LP  0  0  0  0  0  0  0  0  0  0  0  0  # atno 17342 bound_to 10162
  140.3324  144.3300  150.5984 LP  0  0  0  0  0  0  0  0  0  0  0  0  # atno 17343 bound_to 10162
  157.6458  130.8843  149.9536 LP  0  0  0  0  0  0  0  0  0  0  0  0  # atno 17370 bound_to 10713
  156.0990  130.3657  150.0253 LP  0  0  0  0  0  0  0  0  0  0  0  0  # atno 17371 bound_to 10713
  139.8711  134.9765  156.4924 LP  0  0  0  0  0  0  0  0  0  0  0  0  # atno 17394 bound_to 11000
  140.8595  133.8070  155.9250 LP  0  0  0  0  0  0  0  0  0  0  0  0  # atno 17395 bound_to 11000

$$$$
