#       Name:                AV-unprocessed.smi:730
#       Creating user name   scv26
#       Creation time:       Fri Mar 27 00:51:56 2020


#       File generated by GOLD software.
#

@<TRIPOS>MOLECULE
AV-unprocessed.smi:730
    47    48     1
SMALL
NO_CHARGES


@<TRIPOS>ATOM
      1 ****        -4.2250  -3.1065   0.1425 C.3            1 S1                 0.0000
      2 ****        -4.4762  -1.5942  -0.0214 C.3            1 S1                 0.0000
      3 ****        -5.3004  -1.3750  -1.3040 C.3            1 S1                 0.0000
      4 ****        -5.2872  -1.1029   1.1923 C.3            1 S1                 0.0000
      5 ****        -3.1772  -0.8425  -0.1112 C.2            1 S1                 0.0000
      6 ****        -1.8631  -1.2239  -0.0734 C.2            1 S1                 0.0000
      7 ****        -1.1631   0.0031  -0.2165 C.2            1 S1                 0.0000
      8 ****         0.2548   0.0355  -0.2245 N.am           1 S1                 0.0000
      9 ****         1.0483   1.1117  -0.3594 C.2            1 S1                 0.0000
     10 ****         0.6554   2.2674  -0.5210 O.2            1 S1                 0.0000
     11 ****         2.3440   0.7729  -0.2943 N.am           1 S1                 0.0000
     12 ****         3.4632   1.7065  -0.4031 C.3            1 S1                 0.0000
     13 ****         3.7338   2.3862   0.9529 C.3            1 S1                 0.0000
     14 ****         4.9138   1.6300   1.5606 C.3            1 S1                 0.0000
     15 ****         5.7717   1.2710   0.3522 C.3            1 S1                 0.0000
     16 ****         4.7633   0.9497  -0.7596 C.3            1 S1                 0.0000
     17 ****         5.2758   1.3562  -2.0117 O.3            1 S1                 0.0000
     18 ****        -1.9716   1.0443  -0.3304 N.2            1 S1                 0.0000
     19 ****        -3.2627   0.5093  -0.2634 O.3            1 S1                 0.0000
     20 ****        -5.1617  -3.6614   0.2065 H              1 S1                 0.0000
     21 ****        -3.6572  -3.3204   1.0489 H              1 S1                 0.0000
     22 ****        -3.6641  -3.5111  -0.7011 H              1 S1                 0.0000
     23 ****        -4.7583  -1.7183  -2.1860 H              1 S1                 0.0000
     24 ****        -5.5343  -0.3202  -1.4535 H              1 S1                 0.0000
     25 ****        -6.2466  -1.9159  -1.2678 H              1 S1                 0.0000
     26 ****        -6.2301  -1.6429   1.2866 H              1 S1                 0.0000
     27 ****        -5.5264  -0.0419   1.1108 H              1 S1                 0.0000
     28 ****        -4.7335  -1.2437   2.1213 H              1 S1                 0.0000
     29 ****        -1.4670  -2.2222   0.0383 H              1 S1                 0.0000
     30 ****         0.7137  -0.8554  -0.1070 H              1 S1                 0.0000
     31 ****         2.5765  -0.1999  -0.1582 H              1 S1                 0.0000
     32 ****         3.2324   2.4642  -1.1553 H              1 S1                 0.0000
     33 ****         4.0262   3.4229   0.7806 H              1 S1                 0.0000
     34 ****         2.8675   2.4056   1.6155 H              1 S1                 0.0000
     35 ****         5.4550   2.2194   2.3011 H              1 S1                 0.0000
     36 ****         4.5600   0.7204   2.0475 H              1 S1                 0.0000
     37 ****         6.3755   2.1386   0.0802 H              1 S1                 0.0000
     38 ****         6.4547   0.4446   0.5509 H              1 S1                 0.0000
     39 ****         4.5906  -0.1275  -0.7890 H              1 S1                 0.0000
     40 ****         4.6304   1.1662  -2.6754 H              1 S1                 0.0000
     41 ****        -0.3248   2.4614  -0.5604 LP             1 S1                 0.0000
     42 ****         1.3165   3.0120  -0.6129 LP             1 S1                 0.0000
     43 ****         6.1197   0.8572  -2.2090 LP             1 S1                 0.0000
     44 ****         5.4649   2.3380  -1.9963 LP             1 S1                 0.0000
     45 ****        -1.7156   2.0047  -0.4405 LP             1 S1                 0.0000
     46 ****        -3.7489   0.9041   0.5162 LP             1 S1                 0.0000
     47 ****        -3.7572   0.7209  -1.1065 LP             1 S1                 0.0000
@<TRIPOS>BOND
    1    1    2 1     
    2    1   20 1     
    3    1   21 1     
    4    1   22 1     
    5    2    3 1     
    6    2    4 1     
    7    2    5 1     
    8    3   23 1     
    9    3   24 1     
   10    3   25 1     
   11    4   26 1     
   12    4   27 1     
   13    4   28 1     
   14    5   19 1     
   15    5    6 2     
   16    6    7 1     
   17    6   29 1     
   18    7    8 1     
   19    7   18 2     
   20    8    9 am    
   21    8   30 1     
   22    9   10 2     
   23    9   11 am    
   24   11   12 1     
   25   11   31 1     
   26   12   16 1     
   27   12   13 1     
   28   12   32 1     
   29   13   14 1     
   30   13   33 1     
   31   13   34 1     
   32   14   15 1     
   33   14   35 1     
   34   14   36 1     
   35   15   16 1     
   36   15   37 1     
   37   15   38 1     
   38   16   17 1     
   39   16   39 1     
   40   17   40 1     
   41   18   19 1     
   42   10   41 1     
   43   10   42 1     
   44   17   43 1     
   45   17   44 1     
   46   18   45 1     
   47   19   46 1     
   48   19   47 1     
@<TRIPOS>SUBSTRUCTURE
      1 S1             1
@<TRIPOS>SET
LONE_PAIRS      STATIC     ATOMS    <user>   **** ""
7 41 42 43 44 45 46 47
DONOR_HYDROGENS      STATIC     ATOMS    <user>   **** ""
3 30 31 40
ATOM$BLUE        STATIC     ATOMS    COLORGROUP SYSTEM
7 41 42 43 44 45 46 47
ATOM$RED        STATIC     ATOMS    COLORGROUP SYSTEM
3 30 31 40
