AV-unprocessed.smi:1389|AV-procd|sdf|5647|dock3
  -GOLD-   22720 5263D 1   1.00000     0.00000
 Structure written by MMmdl.
 51 53  0  0  0  0  0  0  0  0  1 V2000
  150.0391  137.2946  154.5135 C   0  0  0  0  0  0  0  0  0  0  0  0
  149.9659  138.7183  155.1114 C   0  0  1  0  0  0  0  0  0  0  0  0
  151.4133  139.2349  155.3203 C   0  0  0  0  0  0  0  0  0  0  0  0
  151.5148  140.1198  156.4788 N   0  0  0  0  0  0  0  0  0  0  0  0
  152.2713  139.9035  157.5638 C   0  0  0  0  0  0  0  0  0  0  0  0
  152.9449  138.8878  157.7380 O   0  0  0  0  0  0  0  0  0  0  0  0
  152.2171  140.9481  158.4059 N   0  0  0  0  0  0  0  0  0  0  0  0
  152.9054  141.1133  159.6408 C   0  0  0  0  0  0  0  0  0  0  0  0
  153.7893  140.1302  160.1477 C   0  0  0  0  0  0  0  0  0  0  0  0
  154.4266  140.3508  161.3815 C   0  0  0  0  0  0  0  0  0  0  0  0
  154.1501  141.5444  162.0705 C   0  0  0  0  0  0  0  0  0  0  0  0
  153.2980  142.4823  161.6094 N   0  0  0  0  0  0  0  0  0  0  0  0
  152.6815  142.2811  160.4189 C   0  0  0  0  0  0  0  0  0  0  0  0
  151.7737  143.2657  159.9764 N   0  0  0  0  0  0  0  0  0  0  0  0
  151.4638  144.2752  160.9845 C   0  0  0  0  0  0  0  0  0  0  0  0
  151.2560  145.5879  160.2280 C   0  0  0  0  0  0  0  0  0  0  0  0
  152.1407  145.4161  158.9992 C   0  0  0  0  0  0  0  0  0  0  0  0
  151.9974  143.9264  158.6909 C   0  0  0  0  0  0  0  0  0  0  0  0
  149.1044  139.6393  154.3373 N   0  0  0  0  0  0  0  0  0  0  0  0
  147.8401  139.0185  153.9307 C   0  0  0  0  0  0  0  0  0  0  0  0
  146.9375  139.9801  153.1387 C   0  0  0  0  0  0  0  0  0  0  0  0
  146.6852  141.1458  153.9121 O   0  0  0  0  0  0  0  0  0  0  0  0
  147.8830  141.8200  154.2743 C   0  0  0  0  0  0  0  0  0  0  0  0
  148.7923  140.8693  155.0716 C   0  0  0  0  0  0  0  0  0  0  0  0
  150.7822  136.6864  155.0301 H   0  0  0  0  0  0  0  0  0  0  0  0
  150.3104  137.3171  153.4575 H   0  0  0  0  0  0  0  0  0  0  0  0
  149.0926  136.7631  154.6061 H   0  0  0  0  0  0  0  0  0  0  0  0
  149.5321  138.6122  156.1068 H   0  0  0  0  0  0  0  0  0  0  0  0
  152.1126  138.4108  155.4544 H   0  0  0  0  0  0  0  0  0  0  0  0
  151.7599  139.7359  154.4149 H   0  0  0  0  0  0  0  0  0  0  0  0
  151.0034  140.9884  156.4253 H   0  0  0  0  0  0  0  0  0  0  0  0
  151.7131  141.7592  158.0785 H   0  0  0  0  0  0  0  0  0  0  0  0
  153.9766  139.2084  159.6181 H   0  0  0  0  0  0  0  0  0  0  0  0
  155.1072  139.6193  161.7913 H   0  0  0  0  0  0  0  0  0  0  0  0
  154.6190  141.7484  163.0217 H   0  0  0  0  0  0  0  0  0  0  0  0
  150.5763  144.0026  161.5558 H   0  0  0  0  0  0  0  0  0  0  0  0
  152.2960  144.3746  161.6839 H   0  0  0  0  0  0  0  0  0  0  0  0
  150.2128  145.6783  159.9217 H   0  0  0  0  0  0  0  0  0  0  0  0
  151.5123  146.4654  160.8220 H   0  0  0  0  0  0  0  0  0  0  0  0
  151.8448  146.0529  158.1652 H   0  0  0  0  0  0  0  0  0  0  0  0
  153.1770  145.6450  159.2525 H   0  0  0  0  0  0  0  0  0  0  0  0
  152.8500  143.5473  158.1277 H   0  0  0  0  0  0  0  0  0  0  0  0
  151.1132  143.7588  158.0755 H   0  0  0  0  0  0  0  0  0  0  0  0
  148.0259  138.1506  153.2996 H   0  0  0  0  0  0  0  0  0  0  0  0
  147.3033  138.6605  154.8108 H   0  0  0  0  0  0  0  0  0  0  0  0
  147.4040  140.2563  152.1917 H   0  0  0  0  0  0  0  0  0  0  0  0
  145.9888  139.4991  152.9001 H   0  0  0  0  0  0  0  0  0  0  0  0
  148.3923  142.1810  153.3793 H   0  0  0  0  0  0  0  0  0  0  0  0
  147.6312  142.6949  154.8738 H   0  0  0  0  0  0  0  0  0  0  0  0
  148.3130  140.6221  156.0202 H   0  0  0  0  0  0  0  0  0  0  0  0
  149.7031  141.4152  155.3109 H   0  0  0  0  0  0  0  0  0  0  0  0
  1  2  1  0  0  0  0
  1 25  1  0  0  0  0
  1 26  1  0  0  0  0
  1 27  1  0  0  0  0
  2  3  1  0  0  0  0
  2 19  1  0  0  0  0
  2 28  1  0  0  0  0
  3  4  1  0  0  0  0
  3 29  1  0  0  0  0
  3 30  1  0  0  0  0
  4  5  1  0  0  0  0
  4 31  1  0  0  0  0
  5  6  2  0  0  0  0
  5  7  1  0  0  0  0
  7  8  1  0  0  0  0
  7 32  1  0  0  0  0
  8 13  1  0  0  0  0
  8  9  2  0  0  0  0
  9 10  1  0  0  0  0
  9 33  1  0  0  0  0
 10 11  2  0  0  0  0
 10 34  1  0  0  0  0
 11 12  1  0  0  0  0
 11 35  1  0  0  0  0
 12 13  2  0  0  0  0
 13 14  1  0  0  0  0
 14 18  1  0  0  0  0
 14 15  1  0  0  0  0
 15 16  1  0  0  0  0
 15 36  1  0  0  0  0
 15 37  1  0  0  0  0
 16 17  1  0  0  0  0
 16 38  1  0  0  0  0
 16 39  1  0  0  0  0
 17 18  1  0  0  0  0
 17 40  1  0  0  0  0
 17 41  1  0  0  0  0
 18 42  1  0  0  0  0
 18 43  1  0  0  0  0
 19 24  1  0  0  0  0
 19 20  1  0  0  0  0
 20 21  1  0  0  0  0
 20 44  1  0  0  0  0
 20 45  1  0  0  0  0
 21 22  1  0  0  0  0
 21 46  1  0  0  0  0
 21 47  1  0  0  0  0
 22 23  1  0  0  0  0
 23 24  1  0  0  0  0
 23 48  1  0  0  0  0
 23 49  1  0  0  0  0
 24 50  1  0  0  0  0
 24 51  1  0  0  0  0
M  END
> <s_m_source_file>
AV-unprocessed.smi

> <i_m_source_file_index>
1389

> <i_lp_mmshare_version>
43012

> <i_f3d_flags>
0

> <s_epik_input>
W0NIMl0xW0NIMl1PW0NIMl1bQ0gyXU4xW0NASF0oW0NIM10pW0NIMl1bTkhdQyg9TylbTkhdYzJbY0hdW2NIXVtjSF1uYzJOM1tDSDJdW0NIMl1bQ0gyXVtDSDJdMw==

> <s_epik_cmdline>
J2VwaWtfcHl0aG9uJywgJy1waCcsICc3LjAnLCAnLXRuJywgJzgnLCAnLW1hJywgJzIwMCcsICctbWV0YWxfYmluZGluZycsICctaW1hZScsICc8aW5maWxlLm1hZT4nLCAnLW9tYWUnLCAnPG91dGZpbGUubWFlPic=

> <r_lp_tautomer_probability>
1

> <r_epik_Ionization_Penalty>
0.365229

> <r_epik_Ionization_Penalty_Charging>
0

> <r_epik_Ionization_Penalty_Neutral>
0.365229

> <r_epik_State_Penalty>
0.350519

> <r_epik_Charging_Adjusted_Penalty>
0.350519

> <i_epik_Tot_Q>
0

> <i_epik_Tot_abs_Q>
0

> <r_epik_Metal_State_Penalty>
0.33386

> <b_epik_Metal_Only>
0

> <s_lp_Force_Field>
OPLS_2005

> <r_lp_Energy>
61.7302

> <b_lp_Chiralities_Consistent>
1

> <s_lp_Variant>
AV-unprocessed.smi:1389-2

> <Gold.Version>
5.8.1

> <Gold.Id.Protein>
6NUR|6NUR_protein|mol2

> <Gold.PLP.Fitness>
46.8535

> <Gold.PLP.PLP>
-47.8610

> <Gold.PLP.part.hbond>
-0.8052

> <Gold.PLP.part.metal>
0.0000

> <Gold.PLP.part.buried>
-2.7034

> <Gold.PLP.part.nonpolar>
-45.1115

> <Gold.PLP.part.repulsive>
0.7753

> <Gold.PLP.ligand.clash>
0.0000

> <Gold.PLP.ligand.torsion>
0.6105

> <Gold.PLP.Chemscore.Hbond>
0.0000

> <Gold.PLP.Chemscore.CHOScore>
0.0000

> <Gold.PLP.Chemscore.Metal>
0.0000

> <Gold.PLP.Chemscore.Internal.Correction>
0.2134

> <Gold.Rescore>
     Score         DG    S(hbond)    S(metal)    S(lipo)     H(rot)  DE(clash)    DE(int)     intcor
     12.35     -16.76       0.00        0.00     130.77       1.57       1.46       2.95       ----

> <Gold.Chemscore.Fitness>
12.3454

> <Gold.Chemscore.DG>
-16.7558

> <Gold.Chemscore.ZeroCoef>
-5.4800

> <Gold.Chemscore.Hbond>
0.0000

> <Gold.Chemscore.Metal>
0.0000

> <Gold.Chemscore.Lipo>
130.7669

> <Gold.Chemscore.Internal_Hbond>
0.0000

> <Gold.Chemscore.DEClash>
1.4645

> <Gold.Chemscore.DEInternal>
2.9460

> <Gold.Chemscore.Rot>
1.5718

> <Gold.Chemscore.Internal.Correction>
   9.000000E+99

> <Gold.Chemscore.Hbond.Weighted>
-0.0000

> <Gold.Chemscore.Metal.Weighted>
-0.0000

> <Gold.Chemscore.Lipo.Weighted>
-15.2997

> <Gold.Chemscore.Internal_Hbond.Weighted>
0.0000

> <Gold.Chemscore.DEClash.Weighted>
1.4645

> <Gold.Chemscore.DEInternal.Weighted>
2.9460

> <Gold.Chemscore.Rot.Weighted>
4.0239

> <Gold.Chemscore.Internal.Correction.Weighted>
   9.000000E+99

> <Gold.Protein.RotatedTorsions>
[ 6907 6896 6895 6894 ] final -138.75 input  -60.11 | X-H torsion
[ 7974 7965 7964 7962 ] final   81.74 input  175.53 | X-H torsion
[ 8008 7997 7996 7995 ] final  -33.83 input   59.86 | X-H torsion
[ 10167 10162 10161 10158 ] final -176.99 input  -65.29 | X-H torsion
[ 10718 10713 10712 10709 ] final  -17.68 input   66.30 | X-H torsion
[ 10763 10752 10751 10750 ] final  107.10 input  -60.55 | X-H torsion
[ 11005 11000 10999 10996 ] final  157.13 input  -57.11 | X-H torsion

> <Gold.Protein.ActiveResidues>
 VAL166  LYS551  ARG553  GLY616  TRP617  ASP618  TYR619  PRO620  LYS621  CYS622 
 ASP623  PHE694  ASN695  SER759  ASP760  ASP761  ALA762  ILE779  LEU786  VAL792 
 PHE793  MET794  SER795  GLU796  ALA797  LYS798  CYS799  TRP800  GLU811  SER814 

> <Gold.Protein.RotatedAtoms>
  151.0391  133.5722  159.2652 H   0  0  0  0  0  0  0  0  0  0  0  0  # atno 6907 bound_to 6896
  151.2776  135.0703  159.9167 H   0  0  0  0  0  0  0  0  0  0  0  0  # atno 6908 bound_to 6896
  152.5360  134.0110  159.7992 H   0  0  0  0  0  0  0  0  0  0  0  0  # atno 6909 bound_to 6896
  145.6341  139.2411  143.2068 H   0  0  0  0  0  0  0  0  0  0  0  0  # atno 7974 bound_to 7965
  154.4137  140.1700  156.1952 H   0  0  0  0  0  0  0  0  0  0  0  0  # atno 8008 bound_to 7997
  155.9570  140.3396  155.6434 H   0  0  0  0  0  0  0  0  0  0  0  0  # atno 8009 bound_to 7997
  155.6797  140.0721  157.2480 H   0  0  0  0  0  0  0  0  0  0  0  0  # atno 8010 bound_to 7997
  139.5502  144.2130  152.1063 H   0  0  0  0  0  0  0  0  0  0  0  0  # atno 10167 bound_to 10162
  156.5702  130.4747  149.6366 H   0  0  0  0  0  0  0  0  0  0  0  0  # atno 10718 bound_to 10713
  153.4020  135.3855  155.1994 H   0  0  0  0  0  0  0  0  0  0  0  0  # atno 10763 bound_to 10752
  154.8730  135.3773  154.4606 H   0  0  0  0  0  0  0  0  0  0  0  0  # atno 10764 bound_to 10752
  153.5105  135.7087  153.5845 H   0  0  0  0  0  0  0  0  0  0  0  0  # atno 10765 bound_to 10752
  140.1741  134.8522  157.2725 H   0  0  0  0  0  0  0  0  0  0  0  0  # atno 11005 bound_to 11000
  146.1333  140.7157  142.9402 LP  0  0  0  0  0  0  0  0  0  0  0  0  # atno 17320 bound_to 7965
  144.7182  140.4283  143.7028 LP  0  0  0  0  0  0  0  0  0  0  0  0  # atno 17321 bound_to 7965
  140.1624  144.5014  150.6625 LP  0  0  0  0  0  0  0  0  0  0  0  0  # atno 17342 bound_to 10162
  140.6762  143.2306  151.5501 LP  0  0  0  0  0  0  0  0  0  0  0  0  # atno 17343 bound_to 10162
  156.2721  130.7023  151.1823 LP  0  0  0  0  0  0  0  0  0  0  0  0  # atno 17370 bound_to 10713
  157.7350  131.0577  150.5495 LP  0  0  0  0  0  0  0  0  0  0  0  0  # atno 17371 bound_to 10713
  140.2343  134.3871  155.7508 LP  0  0  0  0  0  0  0  0  0  0  0  0  # atno 17394 bound_to 11000
  141.2219  133.7231  156.8690 LP  0  0  0  0  0  0  0  0  0  0  0  0  # atno 17395 bound_to 11000

$$$$
