AV-unprocessed.smi:2438|AV-procd|sdf|9601|dock3
  -GOLD-   2272013233D 1   1.00000     0.00000
 Structure written by MMmdl.
 44 45  0  0  0  0  0  0  0  0  2 V2000
  150.7757  137.4226  156.1398 C   0  0  0  0  0  0  0  0  0  0  0  0
  150.7939  138.1324  154.8665 N   0  0  0  0  0  0  0  0  0  0  0  0
  152.0366  138.0638  154.1100 C   0  0  0  0  0  0  0  0  0  0  0  0
  150.1941  139.4075  154.8483 C   0  0  0  0  0  0  0  0  0  0  0  0
  150.8154  140.4103  155.5111 N   0  0  0  0  0  0  0  0  0  0  0  0
  150.2875  141.6382  155.5053 C   0  0  0  0  0  0  0  0  0  0  0  0
  149.1489  141.9365  154.8671 N   0  3  0  0  0  0  0  0  0  0  0  0
  148.4855  140.9683  154.1913 C   0  0  0  0  0  0  0  0  0  0  0  0
  148.9872  139.6449  154.1466 C   0  0  0  0  0  0  0  0  0  0  0  0
  148.3269  138.5656  153.4895 N   0  0  0  0  0  0  0  0  0  0  0  0
  147.0138  138.3780  153.2754 C   0  0  0  0  0  0  0  0  0  0  0  0
  146.1203  139.1498  153.6208 O   0  0  0  0  0  0  0  0  0  0  0  0
  146.7947  137.2299  152.6189 N   0  0  0  0  0  0  0  0  0  0  0  0
  145.4904  136.7016  152.2270 C   0  0  2  0  0  0  0  0  0  0  0  0
  144.4825  136.9035  153.3725 C   0  0  0  0  0  0  0  0  0  0  0  0
  143.1189  136.2857  153.0297 C   0  0  0  0  0  0  0  0  0  0  0  0
  143.2556  134.7984  152.6679 C   0  0  0  0  0  0  0  0  0  0  0  0
  144.2538  134.5825  151.5104 C   0  0  2  0  0  0  0  0  0  0  0  0
  144.3832  133.0937  151.1279 C   0  0  0  0  0  0  0  0  0  0  0  0
  143.1844  132.5559  150.9003 F   0  0  0  0  0  0  0  0  0  0  0  0
  145.1275  132.9673  150.0294 F   0  0  0  0  0  0  0  0  0  0  0  0
  144.9780  132.4197  152.1122 F   0  0  0  0  0  0  0  0  0  0  0  0
  145.6197  135.2102  151.8640 C   0  0  0  0  0  0  0  0  0  0  0  0
  149.7890  137.4761  156.6020 H   0  0  0  0  0  0  0  0  0  0  0  0
  151.5074  137.8419  156.8317 H   0  0  0  0  0  0  0  0  0  0  0  0
  151.0164  136.3702  155.9875 H   0  0  0  0  0  0  0  0  0  0  0  0
  151.9253  138.4759  153.1070 H   0  0  0  0  0  0  0  0  0  0  0  0
  152.3621  137.0279  154.0103 H   0  0  0  0  0  0  0  0  0  0  0  0
  152.8241  138.6191  154.6211 H   0  0  0  0  0  0  0  0  0  0  0  0
  150.7757  142.4442  156.0331 H   0  0  0  0  0  0  0  0  0  0  0  0
  147.5698  141.3034  153.7301 H   0  0  0  0  0  0  0  0  0  0  0  0
  148.9409  137.8641  153.1008 H   0  0  0  0  0  0  0  0  0  0  0  0
  147.5966  136.6674  152.3744 H   0  0  0  0  0  0  0  0  0  0  0  0
  145.1155  137.2300  151.3484 H   0  0  0  0  0  0  0  0  0  0  0  0
  144.8647  136.4487  154.2877 H   0  0  0  0  0  0  0  0  0  0  0  0
  144.3619  137.9669  153.5830 H   0  0  0  0  0  0  0  0  0  0  0  0
  142.4368  136.4018  153.8724 H   0  0  0  0  0  0  0  0  0  0  0  0
  142.6722  136.8261  152.1941 H   0  0  0  0  0  0  0  0  0  0  0  0
  143.5811  134.2401  153.5466 H   0  0  0  0  0  0  0  0  0  0  0  0
  142.2762  134.4020  152.3981 H   0  0  0  0  0  0  0  0  0  0  0  0
  143.8653  135.1087  150.6367 H   0  0  0  0  0  0  0  0  0  0  0  0
  146.3061  135.1005  151.0236 H   0  0  0  0  0  0  0  0  0  0  0  0
  146.0657  134.6666  152.6981 H   0  0  0  0  0  0  0  0  0  0  0  0
  148.7711  142.8841  154.8900 H   0  0  0  0  0  0  0  0  0  0  0  0
  1  2  1  0  0  0  0
  1 24  1  0  0  0  0
  1 25  1  0  0  0  0
  1 26  1  0  0  0  0
  2  3  1  0  0  0  0
  2  4  1  0  0  0  0
  3 27  1  0  0  0  0
  3 28  1  0  0  0  0
  3 29  1  0  0  0  0
  4  9  1  0  0  0  0
  4  5  2  0  0  0  0
  5  6  1  0  0  0  0
  6  7  2  0  0  0  0
  6 30  1  0  0  0  0
  7  8  1  0  0  0  0
  7 44  1  0  0  0  0
  8  9  2  0  0  0  0
  8 31  1  0  0  0  0
  9 10  1  0  0  0  0
 10 11  1  0  0  0  0
 10 32  1  0  0  0  0
 11 12  2  0  0  0  0
 11 13  1  0  0  0  0
 13 14  1  0  0  0  0
 13 33  1  0  0  0  0
 14 23  1  0  0  0  0
 14 15  1  0  0  0  0
 14 34  1  0  0  0  0
 15 16  1  0  0  0  0
 15 35  1  0  0  0  0
 15 36  1  0  0  0  0
 16 17  1  0  0  0  0
 16 37  1  0  0  0  0
 16 38  1  0  0  0  0
 17 18  1  0  0  0  0
 17 39  1  0  0  0  0
 17 40  1  0  0  0  0
 18 19  1  0  0  0  0
 18 23  1  0  0  0  0
 18 41  1  0  0  0  0
 19 20  1  0  0  0  0
 19 21  1  0  0  0  0
 19 22  1  0  0  0  0
 23 42  1  0  0  0  0
 23 43  1  0  0  0  0
M  CHG  1   7   1
M  END
> <s_m_source_file>
AV-unprocessed.smi

> <i_m_source_file_index>
2438

> <i_lp_mmshare_version>
43012

> <i_f3d_flags>
0

> <s_epik_input>
W0NIM11OKFtDSDNdKWMxbltjSF1uW2NIXWMxW05IXUMoPU8pW05IXVtDQEBIXTJbQ0gyXVtDSDJdW0NIMl1bQ0BASF0oQyhGKShGKUYpW0NIMl0y

> <s_epik_cmdline>
J2VwaWtfcHl0aG9uJywgJy1waCcsICc3LjAnLCAnLXRuJywgJzgnLCAnLW1hJywgJzIwMCcsICctbWV0YWxfYmluZGluZycsICctaW1hZScsICc8aW5maWxlLm1hZT4nLCAnLW9tYWUnLCAnPG91dGZpbGUubWFlPic=

> <r_lp_tautomer_probability>
0.999336

> <r_epik_Ionization_Penalty>
2.11643

> <r_epik_Ionization_Penalty_Charging>
2.11639

> <r_epik_Ionization_Penalty_Neutral>
4.47523e-05

> <r_epik_State_Penalty>
2.25369

> <r_epik_Charging_Adjusted_Penalty>
4.37008

> <i_epik_Tot_Q>
1

> <i_epik_Tot_abs_Q>
1

> <r_epik_Metal_State_Penalty>
2.27019

> <b_epik_Metal_Only>
0

> <s_lp_Force_Field>
OPLS_2005

> <r_lp_Energy>
18.5992

> <b_lp_Chiralities_Consistent>
1

> <s_lp_Variant>
AV-unprocessed.smi:2438-7

> <Gold.Version>
5.8.1

> <Gold.Id.Protein>
6NUR|6NUR_protein|mol2

> <Gold.PLP.Fitness>
48.0960

> <Gold.PLP.PLP>
-37.6158

> <Gold.PLP.part.hbond>
-4.3211

> <Gold.PLP.part.metal>
0.0000

> <Gold.PLP.part.buried>
-5.2982

> <Gold.PLP.part.nonpolar>
-29.6241

> <Gold.PLP.part.repulsive>
1.4207

> <Gold.PLP.ligand.clash>
0.0000

> <Gold.PLP.ligand.torsion>
0.6419

> <Gold.PLP.Chemscore.Hbond>
3.7996

> <Gold.PLP.Chemscore.CHOScore>
0.0000

> <Gold.PLP.Chemscore.Metal>
0.0000

> <Gold.Chemscore.Hbonds>
donor molecule, donor type, donor heavy atom, donor atom, acceptor molecule, acceptor atom, score
      L1  H     7    44       P1  8028  1.95
      L1  H    10    32       P1  7948  0.86
      L1  H    13    33       P1  7948  0.94
      P1  H  7989  7998       L1     5  0.04

> <Gold.PLP.Chemscore.Internal.Correction>
0.3651

> <Gold.Rescore>
     Score         DG    S(hbond)    S(metal)    S(lipo)     H(rot)  DE(clash)    DE(int)     intcor
     15.09     -17.70       2.75        0.00      54.60       1.31       0.07       2.54       ----

> <Gold.Chemscore.Fitness>
15.0916

> <Gold.Chemscore.DG>
-17.6973

> <Gold.Chemscore.ZeroCoef>
-5.4800

> <Gold.Chemscore.Hbond>
2.7477

> <Gold.Chemscore.Metal>
0.0000

> <Gold.Chemscore.Lipo>
54.5997

> <Gold.Chemscore.Internal_Hbond>
0.0000

> <Gold.Chemscore.DEClash>
0.0670

> <Gold.Chemscore.DEInternal>
2.5387

> <Gold.Chemscore.Rot>
1.3078

> <Gold.Chemscore.Internal.Correction>
   9.000000E+99

> <Gold.Chemscore.Hbonds>
donor molecule, donor type, donor heavy atom, donor atom, acceptor molecule, acceptor atom, score
      L1  H     7    44       P1  8028  0.91
      L1  H    10    32       P1  7948  0.79
      L1  H    13    33       P1  7948  0.90

> <Gold.Chemscore.Hbond.Weighted>
-9.1772

> <Gold.Chemscore.Metal.Weighted>
-0.0000

> <Gold.Chemscore.Lipo.Weighted>
-6.3882

> <Gold.Chemscore.Internal_Hbond.Weighted>
0.0000

> <Gold.Chemscore.DEClash.Weighted>
0.0670

> <Gold.Chemscore.DEInternal.Weighted>
2.5387

> <Gold.Chemscore.Rot.Weighted>
3.3481

> <Gold.Chemscore.Internal.Correction.Weighted>
   9.000000E+99

> <Gold.Protein.RotatedTorsions>
[ 6907 6896 6895 6894 ] final   64.05 input  -60.11 | X-H torsion
[ 7974 7965 7964 7962 ] final  -91.75 input  175.53 | X-H torsion
[ 8008 7997 7996 7995 ] final  140.45 input   59.86 | X-H torsion
[ 10167 10162 10161 10158 ] final   32.62 input  -65.29 | X-H torsion
[ 10718 10713 10712 10709 ] final  158.80 input   66.30 | X-H torsion
[ 10763 10752 10751 10750 ] final -132.38 input  -60.55 | X-H torsion
[ 11005 11000 10999 10996 ] final   45.64 input  -57.11 | X-H torsion

> <Gold.Protein.ActiveResidues>
 VAL166  LYS551  ARG553  GLY616  TRP617  ASP618  TYR619  PRO620  LYS621  CYS622 
 ASP623  PHE694  ASN695  SER759  ASP760  ASP761  ALA762  ILE779  LEU786  VAL792 
 PHE793  MET794  SER795  GLU796  ALA797  LYS798  CYS799  TRP800  GLU811  SER814 

> <Gold.Protein.RotatedAtoms>
  152.4302  134.5793  159.9942 H   0  0  0  0  0  0  0  0  0  0  0  0  # atno 6907 bound_to 6896
  151.5918  133.3360  159.3037 H   0  0  0  0  0  0  0  0  0  0  0  0  # atno 6908 bound_to 6896
  150.8194  134.7429  159.6824 H   0  0  0  0  0  0  0  0  0  0  0  0  # atno 6909 bound_to 6896
  145.4089  140.9543  143.2245 H   0  0  0  0  0  0  0  0  0  0  0  0  # atno 7974 bound_to 7965
  156.2979  140.2341  156.4402 H   0  0  0  0  0  0  0  0  0  0  0  0  # atno 8008 bound_to 7997
  154.8192  140.0439  157.1419 H   0  0  0  0  0  0  0  0  0  0  0  0  # atno 8009 bound_to 7997
  154.9334  140.3020  155.5160 H   0  0  0  0  0  0  0  0  0  0  0  0  # atno 8010 bound_to 7997
  140.4482  144.1088  150.6186 H   0  0  0  0  0  0  0  0  0  0  0  0  # atno 10167 bound_to 10162
  157.1729  131.0614  151.2173 H   0  0  0  0  0  0  0  0  0  0  0  0  # atno 10718 bound_to 10713
  154.8743  135.3799  154.4401 H   0  0  0  0  0  0  0  0  0  0  0  0  # atno 10763 bound_to 10752
  153.5086  135.7030  153.5798 H   0  0  0  0  0  0  0  0  0  0  0  0  # atno 10764 bound_to 10752
  153.4097  135.3928  155.2008 H   0  0  0  0  0  0  0  0  0  0  0  0  # atno 10765 bound_to 10752
  140.1442  134.4545  155.8428 H   0  0  0  0  0  0  0  0  0  0  0  0  # atno 11005 bound_to 11000
  144.8322  139.5609  143.6938 LP  0  0  0  0  0  0  0  0  0  0  0  0  # atno 17320 bound_to 7965
  146.2715  139.6646  142.9293 LP  0  0  0  0  0  0  0  0  0  0  0  0  # atno 17321 bound_to 7965
  140.4239  143.2599  151.9681 LP  0  0  0  0  0  0  0  0  0  0  0  0  # atno 17342 bound_to 10162
  139.4794  144.5806  151.7939 LP  0  0  0  0  0  0  0  0  0  0  0  0  # atno 17343 bound_to 10162
  157.4026  130.7342  149.6778 LP  0  0  0  0  0  0  0  0  0  0  0  0  # atno 17370 bound_to 10713
  155.9736  130.4116  150.3992 LP  0  0  0  0  0  0  0  0  0  0  0  0  # atno 17371 bound_to 10713
  141.2190  133.6845  156.7302 LP  0  0  0  0  0  0  0  0  0  0  0  0  # atno 17394 bound_to 11000
  140.2685  134.8411  157.3825 LP  0  0  0  0  0  0  0  0  0  0  0  0  # atno 17395 bound_to 11000

$$$$
