AV-unprocessed.smi:1667|AV-procd|sdf|6673|dock3
  -GOLD-   22720 7383D 1   1.00000     0.00000
 Structure written by MMmdl.
 45 47  0  0  0  0  0  0  0  0  1 V2000
  154.9914  135.9492  159.3746 C   0  0  0  0  0  0  0  0  0  0  0  0
  153.9259  136.5156  158.4427 C   0  0  0  0  0  0  0  0  0  0  0  0
  153.9520  136.2411  157.2442 O   0  0  0  0  0  0  0  0  0  0  0  0
  152.9999  137.3014  159.0181 N   0  0  0  0  0  0  0  0  0  0  0  0
  151.8582  137.9649  158.3829 C   0  0  1  0  0  0  0  0  0  0  0  0
  150.4968  137.3616  158.7801 C   0  0  0  0  0  0  0  0  0  0  0  0
  151.9576  139.4591  158.5833 C   0  0  0  0  0  0  0  0  0  0  0  0
  152.8971  140.0053  159.3589 N   0  0  0  0  0  0  0  0  0  0  0  0
  152.6812  141.3582  159.2053 C   0  0  0  0  0  0  0  0  0  0  0  0
  153.3530  142.4637  159.7738 C   0  0  0  0  0  0  0  0  0  0  0  0
  152.9581  143.7794  159.4560 C   0  0  0  0  0  0  0  0  0  0  0  0
  151.8897  144.0070  158.5651 C   0  0  0  0  0  0  0  0  0  0  0  0
  151.2081  142.9185  157.9878 C   0  0  0  0  0  0  0  0  0  0  0  0
  151.6020  141.6060  158.3125 C   0  0  0  0  0  0  0  0  0  0  0  0
  151.1540  140.3433  157.9306 N   0  0  0  0  0  0  0  0  0  0  0  0
  150.0630  140.0719  156.9966 C   0  0  0  0  0  0  0  0  0  0  0  0
  148.9646  141.1614  156.9696 C   0  0  2  0  0  0  0  0  0  0  0  0
  148.1376  141.0578  158.1118 O   0  0  0  0  0  0  0  0  0  0  0  0
  148.1715  141.1768  155.6693 C   0  0  0  0  0  0  0  0  0  0  0  0
  148.4431  140.2471  154.6399 C   0  0  0  0  0  0  0  0  0  0  0  0
  147.7127  140.2856  153.4366 C   0  0  0  0  0  0  0  0  0  0  0  0
  146.7087  141.2550  153.2524 C   0  0  0  0  0  0  0  0  0  0  0  0
  146.4335  142.1843  154.2736 C   0  0  0  0  0  0  0  0  0  0  0  0
  145.4711  143.1198  154.0964 F   0  0  0  0  0  0  0  0  0  0  0  0
  147.1612  142.1437  155.4789 C   0  0  0  0  0  0  0  0  0  0  0  0
  151.9608  137.7538  157.3218 H   0  0  0  0  0  0  0  0  0  0  0  0
  155.5495  136.7556  159.8510 H   0  0  0  0  0  0  0  0  0  0  0  0
  155.6962  135.3254  158.8241 H   0  0  0  0  0  0  0  0  0  0  0  0
  154.5316  135.3392  160.1525 H   0  0  0  0  0  0  0  0  0  0  0  0
  153.0904  137.4514  160.0123 H   0  0  0  0  0  0  0  0  0  0  0  0
  149.6900  137.8148  158.2044 H   0  0  0  0  0  0  0  0  0  0  0  0
  150.2680  137.5135  159.8348 H   0  0  0  0  0  0  0  0  0  0  0  0
  150.4744  136.2888  158.5877 H   0  0  0  0  0  0  0  0  0  0  0  0
  154.1759  142.2985  160.4535 H   0  0  0  0  0  0  0  0  0  0  0  0
  153.4789  144.6174  159.8954 H   0  0  0  0  0  0  0  0  0  0  0  0
  151.5937  145.0176  158.3245 H   0  0  0  0  0  0  0  0  0  0  0  0
  150.3899  143.0915  157.3050 H   0  0  0  0  0  0  0  0  0  0  0  0
  150.4964  139.9730  156.0006 H   0  0  0  0  0  0  0  0  0  0  0  0
  149.6288  139.0967  157.2146 H   0  0  0  0  0  0  0  0  0  0  0  0
  149.4604  142.1290  157.0562 H   0  0  0  0  0  0  0  0  0  0  0  0
  148.0671  141.9124  158.5089 H   0  0  0  0  0  0  0  0  0  0  0  0
  149.2205  139.5071  154.7630 H   0  0  0  0  0  0  0  0  0  0  0  0
  147.9280  139.5753  152.6522 H   0  0  0  0  0  0  0  0  0  0  0  0
  146.1520  141.2870  152.3277 H   0  0  0  0  0  0  0  0  0  0  0  0
  146.9464  142.8640  156.2546 H   0  0  0  0  0  0  0  0  0  0  0  0
  1  2  1  0  0  0  0
  1 27  1  0  0  0  0
  1 28  1  0  0  0  0
  1 29  1  0  0  0  0
  2  3  2  0  0  0  0
  2  4  1  0  0  0  0
  4  5  1  0  0  0  0
  4 30  1  0  0  0  0
  5 26  1  0  0  0  0
  5  6  1  0  0  0  0
  5  7  1  0  0  0  0
  6 31  1  0  0  0  0
  6 32  1  0  0  0  0
  6 33  1  0  0  0  0
  7 15  1  0  0  0  0
  7  8  2  0  0  0  0
  8  9  1  0  0  0  0
  9 14  2  0  0  0  0
  9 10  1  0  0  0  0
 10 11  2  0  0  0  0
 10 34  1  0  0  0  0
 11 12  1  0  0  0  0
 11 35  1  0  0  0  0
 12 13  2  0  0  0  0
 12 36  1  0  0  0  0
 13 14  1  0  0  0  0
 13 37  1  0  0  0  0
 14 15  1  0  0  0  0
 15 16  1  0  0  0  0
 16 17  1  0  0  0  0
 16 38  1  0  0  0  0
 16 39  1  0  0  0  0
 17 18  1  0  0  0  0
 17 19  1  0  0  0  0
 17 40  1  0  0  0  0
 18 41  1  0  0  0  0
 19 25  1  0  0  0  0
 19 20  2  0  0  0  0
 20 21  1  0  0  0  0
 20 42  1  0  0  0  0
 21 22  2  0  0  0  0
 21 43  1  0  0  0  0
 22 23  1  0  0  0  0
 22 44  1  0  0  0  0
 23 24  1  0  0  0  0
 23 25  2  0  0  0  0
 25 45  1  0  0  0  0
M  END
> <s_m_source_file>
AV-unprocessed.smi

> <i_m_source_file_index>
1667

> <i_lp_mmshare_version>
43012

> <i_f3d_flags>
0

> <s_epik_input>
W0NIM11DKD1PKVtOSF1bQ0BASF0oW0NIM10pYyhuMSluKGMoYzEyKVtjSF1bY0hdW2NIXVtjSF0yKVtDSDJdW0NASF0oW09IXSljM1tjSF1bY0hdW2NIXWMoRilbY0hdMw==

> <s_epik_cmdline>
J2VwaWtfcHl0aG9uJywgJy1waCcsICc3LjAnLCAnLXRuJywgJzgnLCAnLW1hJywgJzIwMCcsICctbWV0YWxfYmluZGluZycsICctaW1hZScsICc8aW5maWxlLm1hZT4nLCAnLW9tYWUnLCAnPG91dGZpbGUubWFlPic=

> <r_epik_Ionization_Penalty>
0.133011

> <r_epik_Ionization_Penalty_Charging>
0

> <r_epik_Ionization_Penalty_Neutral>
0.133011

> <r_epik_State_Penalty>
0.122384

> <r_epik_Charging_Adjusted_Penalty>
0.122384

> <i_epik_Tot_Q>
0

> <i_epik_Tot_abs_Q>
0

> <r_epik_Metal_State_Penalty>
0.0997374

> <b_epik_Metal_Only>
0

> <s_lp_Force_Field>
OPLS_2005

> <r_lp_Energy>
8.264

> <b_lp_Chiralities_Consistent>
1

> <s_lp_Variant>
AV-unprocessed.smi:1667-1

> <Gold.Version>
5.8.1

> <Gold.Id.Protein>
6NUR|6NUR_protein|mol2

> <Gold.PLP.Fitness>
45.5708

> <Gold.PLP.PLP>
-43.7555

> <Gold.PLP.part.hbond>
-1.2072

> <Gold.PLP.part.metal>
0.0000

> <Gold.PLP.part.buried>
-2.8799

> <Gold.PLP.part.nonpolar>
-39.7942

> <Gold.PLP.part.repulsive>
0.0899

> <Gold.PLP.ligand.clash>
0.0000

> <Gold.PLP.ligand.torsion>
0.7043

> <Gold.PLP.Chemscore.Hbond>
1.0000

> <Gold.PLP.Chemscore.CHOScore>
0.0000

> <Gold.PLP.Chemscore.Metal>
0.0000

> <Gold.Chemscore.Hbonds>
donor molecule, donor type, donor heavy atom, donor atom, acceptor molecule, acceptor atom, score
      P1  H 10752 10764       L1     3  0.84

> <Gold.PLP.Chemscore.Internal.Correction>
0.2240

> <Gold.Rescore>
     Score         DG    S(hbond)    S(metal)    S(lipo)     H(rot)  DE(clash)    DE(int)     intcor
     13.89     -16.17       0.99        0.00     117.19       2.48       0.67       1.61       ----

> <Gold.Chemscore.Fitness>
13.8880

> <Gold.Chemscore.DG>
-16.1713

> <Gold.Chemscore.ZeroCoef>
-5.4800

> <Gold.Chemscore.Hbond>
0.9938

> <Gold.Chemscore.Metal>
0.0000

> <Gold.Chemscore.Lipo>
117.1852

> <Gold.Chemscore.Internal_Hbond>
0.0000

> <Gold.Chemscore.DEClash>
0.6720

> <Gold.Chemscore.DEInternal>
1.6113

> <Gold.Chemscore.Rot>
2.4760

> <Gold.Chemscore.Internal.Correction>
   9.000000E+99

> <Gold.Chemscore.Hbonds>
donor molecule, donor type, donor heavy atom, donor atom, acceptor molecule, acceptor atom, score
      P1  H 10752 10764       L1     3  0.81

> <Gold.Chemscore.Hbond.Weighted>
-3.3192

> <Gold.Chemscore.Metal.Weighted>
-0.0000

> <Gold.Chemscore.Lipo.Weighted>
-13.7107

> <Gold.Chemscore.Internal_Hbond.Weighted>
0.0000

> <Gold.Chemscore.DEClash.Weighted>
0.6720

> <Gold.Chemscore.DEInternal.Weighted>
1.6113

> <Gold.Chemscore.Rot.Weighted>
6.3385

> <Gold.Chemscore.Internal.Correction.Weighted>
   9.000000E+99

> <Gold.Protein.RotatedTorsions>
[ 6907 6896 6895 6894 ] final -153.64 input  -60.11 | X-H torsion
[ 7974 7965 7964 7962 ] final   32.14 input  175.53 | X-H torsion
[ 8008 7997 7996 7995 ] final  -50.96 input   59.86 | X-H torsion
[ 10167 10162 10161 10158 ] final  -76.91 input  -65.29 | X-H torsion
[ 10718 10713 10712 10709 ] final   88.36 input   66.30 | X-H torsion
[ 10763 10752 10751 10750 ] final    3.79 input  -60.55 | X-H torsion
[ 11005 11000 10999 10996 ] final  -24.61 input  -57.11 | X-H torsion

> <Gold.Protein.ActiveResidues>
 VAL166  LYS551  ARG553  GLY616  TRP617  ASP618  TYR619  PRO620  LYS621  CYS622 
 ASP623  PHE694  ASN695  SER759  ASP760  ASP761  ALA762  ILE779  LEU786  VAL792 
 PHE793  MET794  SER795  GLU796  ALA797  LYS798  CYS799  TRP800  GLU811  SER814 

> <Gold.Protein.RotatedAtoms>
  151.2456  133.4376  159.2608 H   0  0  0  0  0  0  0  0  0  0  0  0  # atno 6907 bound_to 6896
  151.0664  134.9770  159.8297 H   0  0  0  0  0  0  0  0  0  0  0  0  # atno 6908 bound_to 6896
  152.5406  134.2404  159.8912 H   0  0  0  0  0  0  0  0  0  0  0  0  # atno 6909 bound_to 6896
  146.1505  139.6565  142.9102 H   0  0  0  0  0  0  0  0  0  0  0  0  # atno 7974 bound_to 7965
  154.4073  140.1259  156.4752 H   0  0  0  0  0  0  0  0  0  0  0  0  # atno 8008 bound_to 7997
  155.7140  140.3493  155.4967 H   0  0  0  0  0  0  0  0  0  0  0  0  # atno 8009 bound_to 7997
  155.9275  140.1063  157.1149 H   0  0  0  0  0  0  0  0  0  0  0  0  # atno 8010 bound_to 7997
  140.4816  143.2401  151.8049 H   0  0  0  0  0  0  0  0  0  0  0  0  # atno 10167 bound_to 10162
  157.6948  131.0292  150.3263 H   0  0  0  0  0  0  0  0  0  0  0  0  # atno 10718 bound_to 10713
  153.2791  135.6939  153.7403 H   0  0  0  0  0  0  0  0  0  0  0  0  # atno 10763 bound_to 10752
  153.6398  135.3395  155.3068 H   0  0  0  0  0  0  0  0  0  0  0  0  # atno 10764 bound_to 10752
  154.8489  135.4429  154.1838 H   0  0  0  0  0  0  0  0  0  0  0  0  # atno 10765 bound_to 10752
  140.8861  133.7620  156.0362 H   0  0  0  0  0  0  0  0  0  0  0  0  # atno 11005 bound_to 11000
  145.4834  141.0438  143.2633 LP  0  0  0  0  0  0  0  0  0  0  0  0  # atno 17320 bound_to 7965
  144.7899  139.6351  143.7118 LP  0  0  0  0  0  0  0  0  0  0  0  0  # atno 17321 bound_to 7965
  139.4834  144.4765  151.9360 LP  0  0  0  0  0  0  0  0  0  0  0  0  # atno 17342 bound_to 10162
  140.3850  144.2688  150.5905 LP  0  0  0  0  0  0  0  0  0  0  0  0  # atno 17343 bound_to 10162
  156.3743  130.3869  149.7151 LP  0  0  0  0  0  0  0  0  0  0  0  0  # atno 17370 bound_to 10713
  156.4555  130.7927  151.2948 LP  0  0  0  0  0  0  0  0  0  0  0  0  # atno 17371 bound_to 10713
  140.8403  134.3074  157.5316 LP  0  0  0  0  0  0  0  0  0  0  0  0  # atno 17394 bound_to 11000
  139.8724  134.9412  156.3792 LP  0  0  0  0  0  0  0  0  0  0  0  0  # atno 17395 bound_to 11000

$$$$
