#       Name:                AV-unprocessed.smi:1166
#       Creating user name   scv26
#       Creation time:       Fri Mar 27 03:52:03 2020


#       File generated by GOLD software.
#

@<TRIPOS>MOLECULE
AV-unprocessed.smi:1166
    49    50     1
SMALL
NO_CHARGES


@<TRIPOS>ATOM
      1 ****        -7.1517   0.2967  -0.5583 C.3            1 S1                 0.0000
      2 ****        -6.2863   1.3798  -0.1099 N.pl3          1 S1                 0.0000
      3 ****        -6.8623   2.6192   0.4001 C.3            1 S1                 0.0000
      4 ****        -4.8864   1.1988  -0.0946 C.ar           1 S1                 0.0000
      5 ****        -4.2519   0.0170  -0.5486 C.ar           1 S1                 0.0000
      6 ****        -2.8467  -0.0935  -0.5012 C.ar           1 S1                 0.0000
      7 ****        -2.0760   0.9835   0.0039 C.ar           1 S1                 0.0000
      8 ****        -0.6567   0.9939   0.1077 N.am           1 S1                 0.0000
      9 ****         0.2334   0.0313  -0.1912 C.2            1 S1                 0.0000
     10 ****        -0.0356  -1.0745  -0.6583 O.2            1 S1                 0.0000
     11 ****         1.4829   0.4299   0.0862 N.am           1 S1                 0.0000
     12 ****         2.6875  -0.3722  -0.1068 C.3            1 S1                 0.0000
     13 ****         3.2296  -0.2032  -1.5352 C.3            1 S1                 0.0000
     14 ****         4.5230  -1.0103  -1.6962 C.3            1 S1                 0.0000
     15 ****         5.5679  -0.6112  -0.6392 C.3            1 S1                 0.0000
     16 ****         5.0185  -0.6932   0.7296 N.pl3          1 S1                 0.0000
     17 ****         5.4081  -2.0530   1.7438 S.o2           1 S1                 0.0000
     18 ****         4.3685  -3.4209   1.0856 C.3            1 S1                 0.0000
     19 ****         6.8192  -2.3969   1.5105 O.2            1 S1                 0.0000
     20 ****         4.9492  -1.7433   3.1066 O.2            1 S1                 0.0000
     21 ****         3.7513   0.0377   0.9301 C.3            1 S1                 0.0000
     22 ****        -2.7580   2.1378   0.4394 C.ar           1 S1                 0.0000
     23 ****        -4.1051   2.2011   0.3757 N.pl3          1 S1                 1.0000
     24 ****        -6.9525   0.0552  -1.6028 H              1 S1                 0.0000
     25 ****        -8.2040   0.5690  -0.4743 H              1 S1                 0.0000
     26 ****        -6.9908  -0.5978   0.0442 H              1 S1                 0.0000
     27 ****        -6.5995   2.7601   1.4491 H              1 S1                 0.0000
     28 ****        -7.9500   2.6116   0.3261 H              1 S1                 0.0000
     29 ****        -6.4963   3.4748  -0.1683 H              1 S1                 0.0000
     30 ****        -4.8215  -0.8144  -0.9356 H              1 S1                 0.0000
     31 ****        -2.4016  -1.0082  -0.8569 H              1 S1                 0.0000
     32 ****        -0.2641   1.8464   0.4798 H              1 S1                 0.0000
     33 ****         1.6136   1.3563   0.4655 H              1 S1                 0.0000
     34 ****         2.4392  -1.4218   0.0505 H              1 S1                 0.0000
     35 ****         2.4921  -0.5354  -2.2668 H              1 S1                 0.0000
     36 ****         3.4247   0.8502  -1.7411 H              1 S1                 0.0000
     37 ****         4.3009  -2.0740  -1.6213 H              1 S1                 0.0000
     38 ****         4.9330  -0.8558  -2.6945 H              1 S1                 0.0000
     39 ****         6.4570  -1.2344  -0.7303 H              1 S1                 0.0000
     40 ****         5.8925   0.4144  -0.8177 H              1 S1                 0.0000
     41 ****         4.5625  -4.3240   1.6639 H              1 S1                 0.0000
     42 ****         4.6181  -3.6097   0.0430 H              1 S1                 0.0000
     43 ****         3.3145  -3.1652   1.1775 H              1 S1                 0.0000
     44 ****         3.9575   1.1058   0.8472 H              1 S1                 0.0000
     45 ****         3.3795  -0.1245   1.9418 H              1 S1                 0.0000
     46 ****        -2.2683   3.0143   0.8390 H              1 S1                 0.0000
     47 ****        -4.5609   3.0535   0.7020 H              1 S1                 0.0000
     48 ****        -0.9865  -1.3196  -0.8472 LP             1 S1                 0.0000
     49 ****         0.6967  -1.7283  -0.8491 LP             1 S1                 0.0000
@<TRIPOS>BOND
    1    1    2 1     
    2    1   24 1     
    3    1   25 1     
    4    1   26 1     
    5    2    3 1     
    6    2    4 1     
    7    3   27 1     
    8    3   28 1     
    9    3   29 1     
   10    4   23 ar    
   11    4    5 ar    
   12    5    6 ar    
   13    5   30 1     
   14    6    7 ar    
   15    6   31 1     
   16    7    8 1     
   17    7   22 ar    
   18    8    9 am    
   19    8   32 1     
   20    9   10 2     
   21    9   11 am    
   22   11   12 1     
   23   11   33 1     
   24   12   21 1     
   25   12   13 1     
   26   12   34 1     
   27   13   14 1     
   28   13   35 1     
   29   13   36 1     
   30   14   15 1     
   31   14   37 1     
   32   14   38 1     
   33   15   16 1     
   34   15   39 1     
   35   15   40 1     
   36   16   17 1     
   37   16   21 1     
   38   17   18 1     
   39   17   19 2     
   40   17   20 2     
   41   18   41 1     
   42   18   42 1     
   43   18   43 1     
   44   21   44 1     
   45   21   45 1     
   46   22   23 ar    
   47   22   46 1     
   48   23   47 1     
   49   10   48 1     
   50   10   49 1     
@<TRIPOS>SUBSTRUCTURE
      1 S1             1
@<TRIPOS>SET
LONE_PAIRS      STATIC     ATOMS    <user>   **** ""
4 48 49 19 20
DONOR_HYDROGENS      STATIC     ATOMS    <user>   **** ""
3 32 33 47
ATOM$BLUE        STATIC     ATOMS    COLORGROUP SYSTEM
4 48 49 19 20
ATOM$RED        STATIC     ATOMS    COLORGROUP SYSTEM
3 32 33 47
