#       Name:                AV-unprocessed.smi:32
#       Creating user name   scv26
#       Creation time:       Thu Mar 26 15:46:56 2020


#       File generated by GOLD software.
#

@<TRIPOS>MOLECULE
AV-unprocessed.smi:32
    57    59     1
SMALL
NO_CHARGES


@<TRIPOS>ATOM
      1 ****        -0.4197  -0.2105  -0.2194 O.2            1 S1                 0.0000
      2 ****         0.2289  -1.2502  -0.3430 C.2            1 S1                 0.0000
      3 ****         1.7638  -1.2157  -0.3914 C.3            1 S1                 0.0000
      4 ****         2.3418  -0.0364   0.2888 N.am           1 S1                 0.0000
      5 ****         2.5624  -0.1071   1.6870 C.2            1 S1                 0.0000
      6 ****         2.2930  -1.1262   2.3248 O.2            1 S1                 0.0000
      7 ****         3.1125   1.0963   2.3001 C.2            1 S1                 0.0000
      8 ****         3.3520   1.1200   3.6223 F              1 S1                 0.0000
      9 ****         3.3821   2.1913   1.5603 C.2            1 S1                 0.0000
     10 ****         3.1602   2.2474   0.1961 N.am           1 S1                 0.0000
     11 ****         3.4537   3.4995  -0.6025 C.3            1 S1                 0.0000
     12 ****         2.1860   4.3485  -0.7420 C.3            1 S1                 0.0000
     13 ****         2.2924   5.2602   0.4609 C.3            1 S1                 0.0000
     14 ****         3.7990   5.4808   0.5506 C.3            1 S1                 0.0000
     15 ****         4.3970   4.2728   0.0824 O.3            1 S1                 0.0000
     16 ****         2.6206   1.1254  -0.4701 C.2            1 S1                 0.0000
     17 ****         2.3889   1.1646  -1.6804 O.2            1 S1                 0.0000
     18 ****        -0.3310  -2.4670  -0.4569 N.am           1 S1                 0.0000
     19 ****        -1.7586  -2.8004  -0.4525 C.3            1 S1                 0.0000
     20 ****        -2.4509  -2.1999  -1.6990 C.3            1 S1                 0.0000
     21 ****        -3.8312  -2.7870  -2.0283 C.3            1 S1                 0.0000
     22 ****        -4.8715  -2.6749  -0.9018 C.3            1 S1                 0.0000
     23 ****        -4.6148  -3.6689   0.2409 C.3            1 S1                 0.0000
     24 ****        -3.6372  -3.1916   1.3287 C.3            1 S1                 0.0000
     25 ****        -2.4268  -2.3569   0.8705 C.3            1 S1                 0.0000
     26 ****         2.1589  -2.1363   0.0422 H              1 S1                 0.0000
     27 ****         2.0704  -1.2652  -1.4369 H              1 S1                 0.0000
     28 ****         3.7818   3.0540   2.0715 H              1 S1                 0.0000
     29 ****         3.8714   3.1611  -1.5523 H              1 S1                 0.0000
     30 ****         2.2525   4.9249  -1.6655 H              1 S1                 0.0000
     31 ****         1.2782   3.7446  -0.7652 H              1 S1                 0.0000
     32 ****         1.7312   6.1881   0.3478 H              1 S1                 0.0000
     33 ****         1.9302   4.7493   1.3537 H              1 S1                 0.0000
     34 ****         4.1021   6.2964  -0.1072 H              1 S1                 0.0000
     35 ****         4.1263   5.7218   1.5621 H              1 S1                 0.0000
     36 ****         0.2999  -3.2493  -0.5541 H              1 S1                 0.0000
     37 ****        -1.7921  -3.8884  -0.5179 H              1 S1                 0.0000
     38 ****        -2.5426  -1.1185  -1.5913 H              1 S1                 0.0000
     39 ****        -1.8122  -2.3544  -2.5699 H              1 S1                 0.0000
     40 ****        -4.2162  -2.2684  -2.9069 H              1 S1                 0.0000
     41 ****        -3.7233  -3.8299  -2.3288 H              1 S1                 0.0000
     42 ****        -4.9428  -1.6528  -0.5279 H              1 S1                 0.0000
     43 ****        -5.8471  -2.9041  -1.3318 H              1 S1                 0.0000
     44 ****        -5.5636  -3.9033   0.7247 H              1 S1                 0.0000
     45 ****        -4.2657  -4.6155  -0.1737 H              1 S1                 0.0000
     46 ****        -4.1868  -2.6065   2.0667 H              1 S1                 0.0000
     47 ****        -3.2781  -4.0700   1.8660 H              1 S1                 0.0000
     48 ****        -1.6963  -2.3801   1.6806 H              1 S1                 0.0000
     49 ****        -2.7270  -1.3116   0.7886 H              1 S1                 0.0000
     50 ****         0.0526   0.6681  -0.1494 LP             1 S1                 0.0000
     51 ****        -1.4187  -0.2450  -0.1891 LP             1 S1                 0.0000
     52 ****         1.9114  -1.9230   1.8563 LP             1 S1                 0.0000
     53 ****         2.4559  -1.1565   3.3110 LP             1 S1                 0.0000
     54 ****         5.1518   4.4956  -0.5345 LP             1 S1                 0.0000
     55 ****         4.7461   3.7534   0.8623 LP             1 S1                 0.0000
     56 ****         1.9980   0.3675  -2.1407 LP             1 S1                 0.0000
     57 ****         2.5918   1.9934  -2.2018 LP             1 S1                 0.0000
@<TRIPOS>BOND
    1    1    2 2     
    2    2    3 1     
    3    2   18 am    
    4    3    4 1     
    5    3   26 1     
    6    3   27 1     
    7    4   16 am    
    8    4    5 am    
    9    5    6 2     
   10    5    7 1     
   11    7    8 1     
   12    7    9 2     
   13    9   10 1     
   14    9   28 1     
   15   10   11 1     
   16   10   16 am    
   17   11   15 1     
   18   11   12 1     
   19   11   29 1     
   20   12   13 1     
   21   12   30 1     
   22   12   31 1     
   23   13   14 1     
   24   13   32 1     
   25   13   33 1     
   26   14   15 1     
   27   14   34 1     
   28   14   35 1     
   29   16   17 2     
   30   18   19 1     
   31   18   36 1     
   32   19   25 1     
   33   19   20 1     
   34   19   37 1     
   35   20   21 1     
   36   20   38 1     
   37   20   39 1     
   38   21   22 1     
   39   21   40 1     
   40   21   41 1     
   41   22   23 1     
   42   22   42 1     
   43   22   43 1     
   44   23   24 1     
   45   23   44 1     
   46   23   45 1     
   47   24   25 1     
   48   24   46 1     
   49   24   47 1     
   50   25   48 1     
   51   25   49 1     
   52    1   50 1     
   53    1   51 1     
   54    6   52 1     
   55    6   53 1     
   56   15   54 1     
   57   15   55 1     
   58   17   56 1     
   59   17   57 1     
@<TRIPOS>SUBSTRUCTURE
      1 S1             1
@<TRIPOS>SET
LONE_PAIRS      STATIC     ATOMS    <user>   **** ""
8 50 51 52 53 54 55 56 57
DONOR_HYDROGENS      STATIC     ATOMS    <user>   **** ""
1 36
ATOM$BLUE        STATIC     ATOMS    COLORGROUP SYSTEM
8 50 51 52 53 54 55 56 57
ATOM$RED        STATIC     ATOMS    COLORGROUP SYSTEM
1 36
