AV-unprocessed.smi:2387|AV-procd|sdf|9470|dock8
  -GOLD-   2272013103D 1   1.00000     0.00000
 Structure written by MMmdl.
 48 50  0  0  0  0  0  0  0  0  2 V2000
  143.5587  132.6075  148.2761 C   0  0  0  0  0  0  0  0  0  0  0  0
  144.2766  132.7422  149.6024 C   0  0  0  0  0  0  0  0  0  0  0  0
  145.6170  132.3408  149.7799 C   0  0  0  0  0  0  0  0  0  0  0  0
  146.2227  132.4936  151.0444 C   0  0  0  0  0  0  0  0  0  0  0  0
  145.4715  133.0386  152.1168 C   0  0  0  0  0  0  0  0  0  0  0  0
  145.9905  133.2467  153.4238 N   0  0  0  0  0  0  0  0  0  0  0  0
  147.2370  133.0156  153.8710 C   0  0  0  0  0  0  0  0  0  0  0  0
  148.1573  132.5573  153.1948 O   0  0  0  0  0  0  0  0  0  0  0  0
  147.3554  133.3390  155.1710 N   0  0  0  0  0  0  0  0  0  0  0  0
  148.5482  133.1997  156.0267 C   0  0  0  0  0  0  0  0  0  0  0  0
  148.3310  133.7609  157.4596 C   0  0  0  0  0  0  0  0  0  0  0  0
  149.1580  134.5307  157.9502 O   0  0  0  0  0  0  0  0  0  0  0  0
  147.2376  133.3634  158.1328 N   0  0  0  0  0  0  0  0  0  0  0  0
  146.8805  133.7822  159.4814 C   0  0  0  0  0  0  0  0  0  0  0  0
  147.9683  133.5901  160.5209 C   0  0  0  0  0  0  0  0  0  0  0  0
  147.9249  132.4330  161.4906 C   0  0  0  0  0  0  0  0  0  0  0  0
  147.6815  133.8396  161.9827 C   0  0  0  0  0  0  0  0  0  0  0  0
  148.9160  131.6911  156.1191 C   0  0  0  0  0  0  0  0  0  0  0  0
  150.2800  131.5051  155.4473 C   0  0  0  0  0  0  0  0  0  0  0  0
  150.9485  132.8686  155.5432 C   0  0  0  0  0  0  0  0  0  0  0  0
  149.7912  133.8455  155.3485 C   0  0  0  0  0  0  0  0  0  0  0  0
  144.1400  133.4360  151.8691 C   0  0  0  0  0  0  0  0  0  0  0  0
  143.5970  133.2721  150.6429 N   0  3  0  0  0  0  0  0  0  0  0  0
  144.2141  132.1813  147.5159 H   0  0  0  0  0  0  0  0  0  0  0  0
  143.2204  133.5830  147.9255 H   0  0  0  0  0  0  0  0  0  0  0  0
  142.6897  131.9571  148.3791 H   0  0  0  0  0  0  0  0  0  0  0  0
  146.1802  131.9232  148.9579 H   0  0  0  0  0  0  0  0  0  0  0  0
  147.2548  132.2007  151.1614 H   0  0  0  0  0  0  0  0  0  0  0  0
  145.3196  133.5454  154.1163 H   0  0  0  0  0  0  0  0  0  0  0  0
  146.5347  133.7075  155.6288 H   0  0  0  0  0  0  0  0  0  0  0  0
  146.6069  132.7242  157.6722 H   0  0  0  0  0  0  0  0  0  0  0  0
  146.5886  134.8334  159.4713 H   0  0  0  0  0  0  0  0  0  0  0  0
  145.9940  133.2239  159.7833 H   0  0  0  0  0  0  0  0  0  0  0  0
  148.9569  133.8951  160.1831 H   0  0  0  0  0  0  0  0  0  0  0  0
  147.0697  131.7620  161.4426 H   0  0  0  0  0  0  0  0  0  0  0  0
  148.8707  131.9641  161.7544 H   0  0  0  0  0  0  0  0  0  0  0  0
  148.4646  134.3080  162.5753 H   0  0  0  0  0  0  0  0  0  0  0  0
  146.6637  134.1033  162.2631 H   0  0  0  0  0  0  0  0  0  0  0  0
  148.9904  131.3570  157.1559 H   0  0  0  0  0  0  0  0  0  0  0  0
  148.1705  131.0456  155.6519 H   0  0  0  0  0  0  0  0  0  0  0  0
  150.8715  130.7147  155.9100 H   0  0  0  0  0  0  0  0  0  0  0  0
  150.1386  131.2427  154.3980 H   0  0  0  0  0  0  0  0  0  0  0  0
  151.3865  132.9998  156.5334 H   0  0  0  0  0  0  0  0  0  0  0  0
  151.7402  133.0022  154.8056 H   0  0  0  0  0  0  0  0  0  0  0  0
  149.6252  133.9650  154.2767 H   0  0  0  0  0  0  0  0  0  0  0  0
  150.0326  134.8375  155.7338 H   0  0  0  0  0  0  0  0  0  0  0  0
  143.4899  133.8723  152.6136 H   0  0  0  0  0  0  0  0  0  0  0  0
  142.6298  133.5619  150.4955 H   0  0  0  0  0  0  0  0  0  0  0  0
  1  2  1  0  0  0  0
  1 24  1  0  0  0  0
  1 25  1  0  0  0  0
  1 26  1  0  0  0  0
  2 23  1  0  0  0  0
  2  3  2  0  0  0  0
  3  4  1  0  0  0  0
  3 27  1  0  0  0  0
  4  5  2  0  0  0  0
  4 28  1  0  0  0  0
  5  6  1  0  0  0  0
  5 22  1  0  0  0  0
  6  7  1  0  0  0  0
  6 29  1  0  0  0  0
  7  8  2  0  0  0  0
  7  9  1  0  0  0  0
  9 10  1  0  0  0  0
  9 30  1  0  0  0  0
 10 21  1  0  0  0  0
 10 11  1  0  0  0  0
 10 18  1  0  0  0  0
 11 12  2  0  0  0  0
 11 13  1  0  0  0  0
 13 14  1  0  0  0  0
 13 31  1  0  0  0  0
 14 15  1  0  0  0  0
 14 32  1  0  0  0  0
 14 33  1  0  0  0  0
 15 17  1  0  0  0  0
 15 16  1  0  0  0  0
 15 34  1  0  0  0  0
 16 17  1  0  0  0  0
 16 35  1  0  0  0  0
 16 36  1  0  0  0  0
 17 37  1  0  0  0  0
 17 38  1  0  0  0  0
 18 19  1  0  0  0  0
 18 39  1  0  0  0  0
 18 40  1  0  0  0  0
 19 20  1  0  0  0  0
 19 41  1  0  0  0  0
 19 42  1  0  0  0  0
 20 21  1  0  0  0  0
 20 43  1  0  0  0  0
 20 44  1  0  0  0  0
 21 45  1  0  0  0  0
 21 46  1  0  0  0  0
 22 23  2  0  0  0  0
 22 47  1  0  0  0  0
 23 48  1  0  0  0  0
M  CHG  1  23   1
M  END
> <s_m_source_file>
AV-unprocessed.smi

> <i_m_source_file_index>
2387

> <i_lp_mmshare_version>
43012

> <i_f3d_flags>
0

> <s_epik_input>
W0NIM11jMVtjSF1bY0hdYyhbY0hdbjEpW05IXUMoPU8pW05IXUMyKFtDSDJdW0NIMl1bQ0gyXVtDSDJdMilDKD1PKVtOSF1bQ0gyXVtDSF0zW0NIMl1bQ0gyXTM=

> <s_epik_cmdline>
J2VwaWtfcHl0aG9uJywgJy1waCcsICc3LjAnLCAnLXRuJywgJzgnLCAnLW1hJywgJzIwMCcsICctbWV0YWxfYmluZGluZycsICctaW1hZScsICc8aW5maWxlLm1hZT4nLCAnLW9tYWUnLCAnPG91dGZpbGUubWFlPic=

> <r_epik_Ionization_Penalty>
2.1018

> <r_epik_Ionization_Penalty_Charging>
2.10178

> <r_epik_Ionization_Penalty_Neutral>
2.02976e-05

> <r_epik_State_Penalty>
2.23801

> <r_epik_Charging_Adjusted_Penalty>
4.33979

> <i_epik_Tot_Q>
1

> <i_epik_Tot_abs_Q>
1

> <r_epik_Metal_State_Penalty>
2.25493

> <b_epik_Metal_Only>
0

> <s_lp_Force_Field>
OPLS_2005

> <r_lp_Energy>
37.3987

> <b_lp_Chiralities_Consistent>
1

> <s_lp_Variant>
AV-unprocessed.smi:2387-2

> <Gold.Version>
5.8.1

> <Gold.Id.Protein>
6NUR|6NUR_protein|mol2

> <Gold.PLP.Fitness>
43.2077

> <Gold.PLP.PLP>
-34.8312

> <Gold.PLP.part.hbond>
-2.0000

> <Gold.PLP.part.metal>
0.0000

> <Gold.PLP.part.buried>
-5.4725

> <Gold.PLP.part.nonpolar>
-28.6144

> <Gold.PLP.part.repulsive>
0.1466

> <Gold.PLP.ligand.clash>
0.0000

> <Gold.PLP.ligand.torsion>
0.6248

> <Gold.PLP.Chemscore.Hbond>
3.0000

> <Gold.PLP.Chemscore.CHOScore>
0.0000

> <Gold.PLP.Chemscore.Metal>
0.0000

> <Gold.Chemscore.Hbonds>
donor molecule, donor type, donor heavy atom, donor atom, acceptor molecule, acceptor atom, score
      L1  H    23    48       P1 10186  1.85
      P1  H  6896  6908       L1    12  0.84

> <Gold.PLP.Chemscore.Internal.Correction>
0.6261

> <Gold.Rescore>
     Score         DG    S(hbond)    S(metal)    S(lipo)     H(rot)  DE(clash)    DE(int)     intcor
     15.15     -19.19       1.86        0.00      99.62       1.63       0.00       4.03       ----

> <Gold.Chemscore.Fitness>
15.1533

> <Gold.Chemscore.DG>
-19.1851

> <Gold.Chemscore.ZeroCoef>
-5.4800

> <Gold.Chemscore.Hbond>
1.8620

> <Gold.Chemscore.Metal>
0.0000

> <Gold.Chemscore.Lipo>
99.6181

> <Gold.Chemscore.Internal_Hbond>
0.0000

> <Gold.Chemscore.DEClash>
0.0038

> <Gold.Chemscore.DEInternal>
4.0280

> <Gold.Chemscore.Rot>
1.6286

> <Gold.Chemscore.Internal.Correction>
   9.000000E+99

> <Gold.Chemscore.Hbonds>
donor molecule, donor type, donor heavy atom, donor atom, acceptor molecule, acceptor atom, score
      L1  H    23    48       P1 10186  0.87
      P1  H  6896  6908       L1    12  0.82

> <Gold.Chemscore.Hbond.Weighted>
-6.2190

> <Gold.Chemscore.Metal.Weighted>
-0.0000

> <Gold.Chemscore.Lipo.Weighted>
-11.6553

> <Gold.Chemscore.Internal_Hbond.Weighted>
0.0000

> <Gold.Chemscore.DEClash.Weighted>
0.0038

> <Gold.Chemscore.DEInternal.Weighted>
4.0280

> <Gold.Chemscore.Rot.Weighted>
4.1692

> <Gold.Chemscore.Internal.Correction.Weighted>
   9.000000E+99

> <Gold.Protein.RotatedTorsions>
[ 6907 6896 6895 6894 ] final  140.04 input  -60.11 | X-H torsion
[ 7974 7965 7964 7962 ] final  146.87 input  175.53 | X-H torsion
[ 8008 7997 7996 7995 ] final  -59.24 input   59.86 | X-H torsion
[ 10167 10162 10161 10158 ] final  129.45 input  -65.29 | X-H torsion
[ 10718 10713 10712 10709 ] final   25.60 input   66.30 | X-H torsion
[ 10763 10752 10751 10750 ] final   11.71 input  -60.55 | X-H torsion
[ 11005 11000 10999 10996 ] final    8.05 input  -57.11 | X-H torsion

> <Gold.Protein.ActiveResidues>
 VAL166  LYS551  ARG553  GLY616  TRP617  ASP618  TYR619  PRO620  LYS621  CYS622 
 ASP623  PHE694  ASN695  SER759  ASP760  ASP761  ALA762  ILE779  LEU786  VAL792 
 PHE793  MET794  SER795  GLU796  ALA797  LYS798  CYS799  TRP800  GLU811  SER814 

> <Gold.Protein.RotatedAtoms>
  152.2478  133.5189  159.5307 H   0  0  0  0  0  0  0  0  0  0  0  0  # atno 6907 bound_to 6896
  150.7084  134.1001  159.3972 H   0  0  0  0  0  0  0  0  0  0  0  0  # atno 6908 bound_to 6896
  151.8921  135.0412  160.0549 H   0  0  0  0  0  0  0  0  0  0  0  0  # atno 6909 bound_to 6896
  144.8636  139.5959  143.5919 H   0  0  0  0  0  0  0  0  0  0  0  0  # atno 7974 bound_to 7965
  154.4343  140.1066  156.6084 H   0  0  0  0  0  0  0  0  0  0  0  0  # atno 8008 bound_to 7997
  155.5836  140.3491  155.4528 H   0  0  0  0  0  0  0  0  0  0  0  0  # atno 8009 bound_to 7997
  156.0300  140.1258  157.0258 H   0  0  0  0  0  0  0  0  0  0  0  0  # atno 8010 bound_to 7997
  139.5477  144.6787  151.4421 H   0  0  0  0  0  0  0  0  0  0  0  0  # atno 10167 bound_to 10162
  157.1956  130.6866  149.6167 H   0  0  0  0  0  0  0  0  0  0  0  0  # atno 10718 bound_to 10713
  153.1897  135.6840  153.8368 H   0  0  0  0  0  0  0  0  0  0  0  0  # atno 10763 bound_to 10752
  153.7672  135.3201  155.3347 H   0  0  0  0  0  0  0  0  0  0  0  0  # atno 10764 bound_to 10752
  154.8110  135.4717  154.0614 H   0  0  0  0  0  0  0  0  0  0  0  0  # atno 10765 bound_to 10752
  140.5413  134.0371  155.7905 H   0  0  0  0  0  0  0  0  0  0  0  0  # atno 11005 bound_to 11000
  146.2879  139.7056  142.9182 LP  0  0  0  0  0  0  0  0  0  0  0  0  # atno 17320 bound_to 7965
  145.4264  141.0411  143.2935 LP  0  0  0  0  0  0  0  0  0  0  0  0  # atno 17321 bound_to 7965
  140.6731  143.8251  150.7023 LP  0  0  0  0  0  0  0  0  0  0  0  0  # atno 17342 bound_to 10162
  140.1681  143.4218  152.2020 LP  0  0  0  0  0  0  0  0  0  0  0  0  # atno 17343 bound_to 10162
  155.9706  130.4600  150.6056 LP  0  0  0  0  0  0  0  0  0  0  0  0  # atno 17370 bound_to 10713
  157.3818  131.0782  151.1470 LP  0  0  0  0  0  0  0  0  0  0  0  0  # atno 17371 bound_to 10713
  141.1225  133.9437  157.2701 LP  0  0  0  0  0  0  0  0  0  0  0  0  # atno 17394 bound_to 11000
  139.9502  135.0177  156.8972 LP  0  0  0  0  0  0  0  0  0  0  0  0  # atno 17395 bound_to 11000

$$$$
