AV-unprocessed.smi:2489|AV-procd|sdf|9806|dock5
  -GOLD-   2272013443D 1   1.00000     0.00000
 Structure written by MMmdl.
 34 35  0  0  0  0  0  0  0  0  2 V2000
  153.4790  142.2569  161.4608 C   0  0  0  0  0  0  0  0  0  0  0  0
  153.0097  141.7094  160.2373 O   0  0  0  0  0  0  0  0  0  0  0  0
  152.3314  142.5421  159.3740 C   0  0  0  0  0  0  0  0  0  0  0  0
  152.2236  143.9466  159.5361 C   0  0  0  0  0  0  0  0  0  0  0  0
  151.4931  144.6947  158.5930 C   0  0  0  0  0  0  0  0  0  0  0  0
  150.9108  144.0751  157.5448 N   0  3  0  0  0  0  0  0  0  0  0  0
  150.9911  142.7431  157.3275 C   0  0  0  0  0  0  0  0  0  0  0  0
  150.3149  142.2293  156.1884 N   0  0  0  0  0  0  0  0  0  0  0  0
  150.3967  140.9977  155.6520 C   0  0  0  0  0  0  0  0  0  0  0  0
  151.1062  140.0928  156.0930 O   0  0  0  0  0  0  0  0  0  0  0  0
  149.5258  140.7635  154.4065 C   0  0  1  0  0  0  0  0  0  0  0  0
  148.4808  139.6387  154.5596 C   0  0  0  0  0  0  0  0  0  0  0  0
  147.1444  140.3389  154.3761 C   0  0  0  0  0  0  0  0  0  0  0  0
  147.4686  141.7942  154.6960 C   0  0  2  0  0  0  0  0  0  0  0  0
  146.4999  142.8052  154.0739 C   0  0  0  0  0  0  0  0  0  0  0  0
  148.7712  141.9460  154.1501 O   0  0  0  0  0  0  0  0  0  0  0  0
  151.7022  141.9463  158.2597 C   0  0  0  0  0  0  0  0  0  0  0  0
  153.9924  141.4809  162.0282 H   0  0  0  0  0  0  0  0  0  0  0  0
  152.6556  142.6242  162.0749 H   0  0  0  0  0  0  0  0  0  0  0  0
  154.1912  143.0653  161.2893 H   0  0  0  0  0  0  0  0  0  0  0  0
  152.6814  144.4639  160.3657 H   0  0  0  0  0  0  0  0  0  0  0  0
  151.3579  145.7653  158.6461 H   0  0  0  0  0  0  0  0  0  0  0  0
  149.7514  142.8943  155.6787 H   0  0  0  0  0  0  0  0  0  0  0  0
  150.1639  140.5687  153.5428 H   0  0  0  0  0  0  0  0  0  0  0  0
  148.6180  138.8568  153.8120 H   0  0  0  0  0  0  0  0  0  0  0  0
  148.5232  139.1553  155.5365 H   0  0  0  0  0  0  0  0  0  0  0  0
  146.8227  140.2438  153.3381 H   0  0  0  0  0  0  0  0  0  0  0  0
  146.3584  139.9304  155.0117 H   0  0  0  0  0  0  0  0  0  0  0  0
  147.5144  141.9373  155.7768 H   0  0  0  0  0  0  0  0  0  0  0  0
  145.4905  142.6691  154.4624 H   0  0  0  0  0  0  0  0  0  0  0  0
  146.4596  142.7000  152.9893 H   0  0  0  0  0  0  0  0  0  0  0  0
  146.8078  143.8268  154.2978 H   0  0  0  0  0  0  0  0  0  0  0  0
  151.7679  140.8748  158.1474 H   0  0  0  0  0  0  0  0  0  0  0  0
  150.3887  144.6464  156.8799 H   0  0  0  0  0  0  0  0  0  0  0  0
  1  2  1  0  0  0  0
  1 18  1  0  0  0  0
  1 19  1  0  0  0  0
  1 20  1  0  0  0  0
  2  3  1  0  0  0  0
  3 17  1  0  0  0  0
  3  4  2  0  0  0  0
  4  5  1  0  0  0  0
  4 21  1  0  0  0  0
  5  6  2  0  0  0  0
  5 22  1  0  0  0  0
  6  7  1  0  0  0  0
  6 34  1  0  0  0  0
  7  8  1  0  0  0  0
  7 17  2  0  0  0  0
  8  9  1  0  0  0  0
  8 23  1  0  0  0  0
  9 10  2  0  0  0  0
  9 11  1  0  0  0  0
 11 16  1  0  0  0  0
 11 12  1  0  0  0  0
 11 24  1  0  0  0  0
 12 13  1  0  0  0  0
 12 25  1  0  0  0  0
 12 26  1  0  0  0  0
 13 14  1  0  0  0  0
 13 27  1  0  0  0  0
 13 28  1  0  0  0  0
 14 15  1  0  0  0  0
 14 16  1  0  0  0  0
 14 29  1  0  0  0  0
 15 30  1  0  0  0  0
 15 31  1  0  0  0  0
 15 32  1  0  0  0  0
 17 33  1  0  0  0  0
M  CHG  1   6   1
M  END
> <s_m_source_file>
AV-unprocessed.smi

> <i_m_source_file_index>
2489

> <i_lp_mmshare_version>
43012

> <i_f3d_flags>
0

> <s_epik_input>
W0NIM11PYzFbY0hdW2NIXW5jKFtjSF0xKVtOSF1DKD1PKVtDQEBIXTJbQ0gyXVtDSDJdW0NASF0oTzIpW0NIM10=

> <s_epik_cmdline>
J2VwaWtfcHl0aG9uJywgJy1waCcsICc3LjAnLCAnLXRuJywgJzgnLCAnLW1hJywgJzIwMCcsICctbWV0YWxfYmluZGluZycsICctaW1hZScsICc8aW5maWxlLm1hZT4nLCAnLW9tYWUnLCAnPG91dGZpbGUubWFlPic=

> <r_epik_Ionization_Penalty>
1.58956

> <r_epik_Ionization_Penalty_Charging>
1.1784

> <r_epik_Ionization_Penalty_Neutral>
0.411158

> <r_epik_State_Penalty>
1.31089

> <r_epik_Charging_Adjusted_Penalty>
2.48928

> <i_epik_Tot_Q>
1

> <i_epik_Tot_abs_Q>
1

> <r_epik_Metal_State_Penalty>
5.00213

> <b_epik_Metal_Only>
0

> <s_lp_Force_Field>
OPLS_2005

> <r_lp_Energy>
33.2408

> <b_lp_Chiralities_Consistent>
1

> <s_lp_Variant>
AV-unprocessed.smi:2489-12

> <Gold.Version>
5.8.1

> <Gold.Id.Protein>
6NUR|6NUR_protein|mol2

> <Gold.PLP.Fitness>
49.3663

> <Gold.PLP.PLP>
-40.2368

> <Gold.PLP.part.hbond>
-3.0000

> <Gold.PLP.part.metal>
0.0000

> <Gold.PLP.part.buried>
-6.1017

> <Gold.PLP.part.nonpolar>
-32.2529

> <Gold.PLP.part.repulsive>
0.3241

> <Gold.PLP.ligand.clash>
0.0000

> <Gold.PLP.ligand.torsion>
0.1139

> <Gold.PLP.Chemscore.Hbond>
3.1160

> <Gold.PLP.Chemscore.CHOScore>
0.0000

> <Gold.PLP.Chemscore.Metal>
0.0000

> <Gold.Chemscore.Hbonds>
donor molecule, donor type, donor heavy atom, donor atom, acceptor molecule, acceptor atom, score
      L1  H     6    34       P1  8028  1.92
      L1  H     8    23       P1  8028  0.94
      P1  H  8011  8017       L1    16  0.24

> <Gold.PLP.Chemscore.Internal.Correction>
0.0091

> <Gold.Rescore>
     Score         DG    S(hbond)    S(metal)    S(lipo)     H(rot)  DE(clash)    DE(int)     intcor
     16.62     -17.91       1.67        0.00      85.80       1.24       0.02       1.27       ----

> <Gold.Chemscore.Fitness>
16.6173

> <Gold.Chemscore.DG>
-17.9090

> <Gold.Chemscore.ZeroCoef>
-5.4800

> <Gold.Chemscore.Hbond>
1.6666

> <Gold.Chemscore.Metal>
0.0000

> <Gold.Chemscore.Lipo>
85.8048

> <Gold.Chemscore.Internal_Hbond>
0.0000

> <Gold.Chemscore.DEClash>
0.0195

> <Gold.Chemscore.DEInternal>
1.2722

> <Gold.Chemscore.Rot>
1.2409

> <Gold.Chemscore.Internal.Correction>
   9.000000E+99

> <Gold.Chemscore.Hbonds>
donor molecule, donor type, donor heavy atom, donor atom, acceptor molecule, acceptor atom, score
      L1  H     6    34       P1  8028  0.72
      L1  H     8    23       P1  8028  0.86
      P1  H  8011  8017       L1    16  0.03

> <Gold.Chemscore.Hbond.Weighted>
-5.5665

> <Gold.Chemscore.Metal.Weighted>
-0.0000

> <Gold.Chemscore.Lipo.Weighted>
-10.0392

> <Gold.Chemscore.Internal_Hbond.Weighted>
0.0000

> <Gold.Chemscore.DEClash.Weighted>
0.0195

> <Gold.Chemscore.DEInternal.Weighted>
1.2722

> <Gold.Chemscore.Rot.Weighted>
3.1767

> <Gold.Chemscore.Internal.Correction.Weighted>
   9.000000E+99

> <Gold.Protein.RotatedTorsions>
[ 6907 6896 6895 6894 ] final  -68.79 input  -60.11 | X-H torsion
[ 7974 7965 7964 7962 ] final  -23.59 input  175.53 | X-H torsion
[ 8008 7997 7996 7995 ] final  152.17 input   59.86 | X-H torsion
[ 10167 10162 10161 10158 ] final  -96.74 input  -65.29 | X-H torsion
[ 10718 10713 10712 10709 ] final  -84.70 input   66.30 | X-H torsion
[ 10763 10752 10751 10750 ] final  126.19 input  -60.55 | X-H torsion
[ 11005 11000 10999 10996 ] final   80.81 input  -57.11 | X-H torsion

> <Gold.Protein.ActiveResidues>
 VAL166  LYS551  ARG553  GLY616  TRP617  ASP618  TYR619  PRO620  LYS621  CYS622 
 ASP623  PHE694  ASN695  SER759  ASP760  ASP761  ALA762  ILE779  LEU786  VAL792 
 PHE793  MET794  SER795  GLU796  ALA797  LYS798  CYS799  TRP800  GLU811  SER814 

> <Gold.Protein.RotatedAtoms>
  150.7338  134.5689  159.5879 H   0  0  0  0  0  0  0  0  0  0  0  0  # atno 6907 bound_to 6896
  152.3133  134.7468  160.0340 H   0  0  0  0  0  0  0  0  0  0  0  0  # atno 6908 bound_to 6896
  151.8009  133.3334  159.3563 H   0  0  0  0  0  0  0  0  0  0  0  0  # atno 6909 bound_to 6896
  146.1607  140.4637  142.8573 H   0  0  0  0  0  0  0  0  0  0  0  0  # atno 7974 bound_to 7965
  156.2641  140.2028  156.6290 H   0  0  0  0  0  0  0  0  0  0  0  0  # atno 8008 bound_to 7997
  154.6697  140.0551  157.0177 H   0  0  0  0  0  0  0  0  0  0  0  0  # atno 8009 bound_to 7997
  155.1155  140.3219  155.4513 H   0  0  0  0  0  0  0  0  0  0  0  0  # atno 8010 bound_to 7997
  140.2906  143.3224  152.0349 H   0  0  0  0  0  0  0  0  0  0  0  0  # atno 10167 bound_to 10162
  156.0003  130.4706  150.4450 H   0  0  0  0  0  0  0  0  0  0  0  0  # atno 10718 bound_to 10713
  153.6894  135.3301  155.3198 H   0  0  0  0  0  0  0  0  0  0  0  0  # atno 10763 bound_to 10752
  154.8444  135.4428  154.1524 H   0  0  0  0  0  0  0  0  0  0  0  0  # atno 10764 bound_to 10752
  153.2561  135.6986  153.7705 H   0  0  0  0  0  0  0  0  0  0  0  0  # atno 10765 bound_to 10752
  139.9121  134.7948  156.1958 H   0  0  0  0  0  0  0  0  0  0  0  0  # atno 11005 bound_to 11000
  144.8023  140.6235  143.6470 LP  0  0  0  0  0  0  0  0  0  0  0  0  # atno 17320 bound_to 7965
  145.4596  139.1514  143.3873 LP  0  0  0  0  0  0  0  0  0  0  0  0  # atno 17321 bound_to 7965
  139.4939  144.6527  151.6640 LP  0  0  0  0  0  0  0  0  0  0  0  0  # atno 17342 bound_to 10162
  140.5735  144.0068  150.6229 LP  0  0  0  0  0  0  0  0  0  0  0  0  # atno 17343 bound_to 10162
  157.2488  131.0542  151.2392 LP  0  0  0  0  0  0  0  0  0  0  0  0  # atno 17370 bound_to 10713
  157.3548  130.7101  149.6464 LP  0  0  0  0  0  0  0  0  0  0  0  0  # atno 17371 bound_to 10713
  141.0556  133.6867  156.1853 LP  0  0  0  0  0  0  0  0  0  0  0  0  # atno 17394 bound_to 11000
  140.6743  134.4835  157.5588 LP  0  0  0  0  0  0  0  0  0  0  0  0  # atno 17395 bound_to 11000

$$$$
