AV-unprocessed.smi:1583|AV-procd|sdf|6364|dock7
  -GOLD-   22720 6593D 1   1.00000     0.00000
 Structure written by MMmdl.
 37 38  0  0  0  0  0  0  0  0  2 V2000
  146.5768  138.9330  151.9458 C   0  0  0  0  0  0  0  0  0  0  0  0
  147.3536  139.9121  152.6906 N   0  0  0  0  0  0  0  0  0  0  0  0
  147.0674  140.3097  153.9389 C   0  0  0  0  0  0  0  0  0  0  0  0
  146.1098  139.8830  154.5834 O   0  0  0  0  0  0  0  0  0  0  0  0
  147.9956  141.3546  154.5523 C   0  0  0  0  0  0  0  0  0  0  0  0
  149.7375  140.8504  154.5098 S   0  0  0  0  0  0  0  0  0  0  0  0
  150.4820  141.5976  155.9239 C   0  0  0  0  0  0  0  0  0  0  0  0
  150.4248  142.9171  156.2565 N   0  3  0  0  0  0  0  0  0  0  0  0
  151.1404  143.1322  157.4354 C   0  0  0  0  0  0  0  0  0  0  0  0
  151.3721  144.2965  158.1611 C   0  0  0  0  0  0  0  0  0  0  0  0
  152.1545  144.1698  159.3278 C   0  0  0  0  0  0  0  0  0  0  0  0
  152.6729  142.9224  159.7330 C   0  0  0  0  0  0  0  0  0  0  0  0
  152.4309  141.7482  158.9898 C   0  0  0  0  0  0  0  0  0  0  0  0
  151.6559  141.8821  157.8383 C   0  0  0  0  0  0  0  0  0  0  0  0
  151.2212  140.9635  156.8769 N   0  0  0  0  0  0  0  0  0  0  0  0
  151.6020  139.5501  157.0076 C   0  0  0  0  0  0  0  0  0  0  0  0
  152.5856  139.1088  155.9142 C   0  0  0  0  0  0  0  0  0  0  0  0
  151.9828  139.2671  154.6400 O   0  0  0  0  0  0  0  0  0  0  0  0
  151.1350  138.1837  154.3025 C   0  0  0  0  0  0  0  0  0  0  0  0
  147.0244  138.7710  150.9651 H   0  0  0  0  0  0  0  0  0  0  0  0
  145.5527  139.2798  151.8005 H   0  0  0  0  0  0  0  0  0  0  0  0
  146.5500  137.9770  152.4705 H   0  0  0  0  0  0  0  0  0  0  0  0
  148.1604  140.3091  152.2308 H   0  0  0  0  0  0  0  0  0  0  0  0
  147.8818  142.2980  154.0172 H   0  0  0  0  0  0  0  0  0  0  0  0
  147.7048  141.5357  155.5878 H   0  0  0  0  0  0  0  0  0  0  0  0
  150.9770  145.2535  157.8525 H   0  0  0  0  0  0  0  0  0  0  0  0
  152.3618  145.0469  159.9235 H   0  0  0  0  0  0  0  0  0  0  0  0
  153.2690  142.8647  160.6323 H   0  0  0  0  0  0  0  0  0  0  0  0
  152.8336  140.7978  159.3077 H   0  0  0  0  0  0  0  0  0  0  0  0
  152.0196  139.3863  158.0014 H   0  0  0  0  0  0  0  0  0  0  0  0
  150.6917  138.9527  156.9531 H   0  0  0  0  0  0  0  0  0  0  0  0
  153.4985  139.7037  155.9691 H   0  0  0  0  0  0  0  0  0  0  0  0
  152.8667  138.0664  156.0701 H   0  0  0  0  0  0  0  0  0  0  0  0
  150.7000  138.3523  153.3174 H   0  0  0  0  0  0  0  0  0  0  0  0
  150.3184  138.0841  155.0185 H   0  0  0  0  0  0  0  0  0  0  0  0
  151.6889  137.2447  154.2696 H   0  0  0  0  0  0  0  0  0  0  0  0
  149.9341  143.6164  155.7148 H   0  0  0  0  0  0  0  0  0  0  0  0
  1  2  1  0  0  0  0
  1 20  1  0  0  0  0
  1 21  1  0  0  0  0
  1 22  1  0  0  0  0
  2  3  1  0  0  0  0
  2 23  1  0  0  0  0
  3  4  2  0  0  0  0
  3  5  1  0  0  0  0
  5  6  1  0  0  0  0
  5 24  1  0  0  0  0
  5 25  1  0  0  0  0
  6  7  1  0  0  0  0
  7 15  1  0  0  0  0
  7  8  2  0  0  0  0
  8  9  1  0  0  0  0
  8 37  1  0  0  0  0
  9 14  2  0  0  0  0
  9 10  1  0  0  0  0
 10 11  2  0  0  0  0
 10 26  1  0  0  0  0
 11 12  1  0  0  0  0
 11 27  1  0  0  0  0
 12 13  2  0  0  0  0
 12 28  1  0  0  0  0
 13 14  1  0  0  0  0
 13 29  1  0  0  0  0
 14 15  1  0  0  0  0
 15 16  1  0  0  0  0
 16 17  1  0  0  0  0
 16 30  1  0  0  0  0
 16 31  1  0  0  0  0
 17 18  1  0  0  0  0
 17 32  1  0  0  0  0
 17 33  1  0  0  0  0
 18 19  1  0  0  0  0
 19 34  1  0  0  0  0
 19 35  1  0  0  0  0
 19 36  1  0  0  0  0
M  CHG  1   8   1
M  END
> <s_m_source_file>
AV-unprocessed.smi

> <i_m_source_file_index>
1583

> <i_lp_mmshare_version>
43012

> <i_f3d_flags>
0

> <s_epik_input>
W0NIM11bTkhdQyg9TylbQ0gyXVNjKG4xKW4oW0NIMl1bQ0gyXU9bQ0gzXSljKGMxMilbY0hdW2NIXVtjSF1bY0hdMg==

> <s_epik_cmdline>
J2VwaWtfcHl0aG9uJywgJy1waCcsICc3LjAnLCAnLXRuJywgJzgnLCAnLW1hJywgJzIwMCcsICctbWV0YWxfYmluZGluZycsICctaW1hZScsICc8aW5maWxlLm1hZT4nLCAnLW9tYWUnLCAnPG91dGZpbGUubWFlPic=

> <r_epik_Ionization_Penalty>
1.68337

> <r_epik_Ionization_Penalty_Charging>
1.68337

> <r_epik_Ionization_Penalty_Neutral>
1.65978e-07

> <r_epik_State_Penalty>
1.78799

> <r_epik_Charging_Adjusted_Penalty>
3.47136

> <i_epik_Tot_Q>
1

> <i_epik_Tot_abs_Q>
1

> <r_epik_Metal_State_Penalty>
1.82204

> <b_epik_Metal_Only>
0

> <s_lp_Force_Field>
OPLS_2005

> <r_lp_Energy>
8.62321

> <b_lp_Chiralities_Consistent>
1

> <s_lp_Variant>
AV-unprocessed.smi:1583-2

> <Gold.Version>
5.8.1

> <Gold.Id.Protein>
6NUR|6NUR_protein|mol2

> <Gold.PLP.Fitness>
54.7294

> <Gold.PLP.PLP>
-43.8540

> <Gold.PLP.part.hbond>
-2.7481

> <Gold.PLP.part.metal>
0.0000

> <Gold.PLP.part.buried>
-2.9744

> <Gold.PLP.part.nonpolar>
-39.5996

> <Gold.PLP.part.repulsive>
0.3229

> <Gold.PLP.ligand.clash>
0.0000

> <Gold.PLP.ligand.torsion>
0.4629

> <Gold.PLP.Chemscore.Hbond>
3.9200

> <Gold.PLP.Chemscore.CHOScore>
0.0000

> <Gold.PLP.Chemscore.Metal>
0.0000

> <Gold.Chemscore.Hbonds>
donor molecule, donor type, donor heavy atom, donor atom, acceptor molecule, acceptor atom, score
      L1  H     2    23       P1  7957  0.96
      L1  H     8    37       P1  8028  1.90
      P1  H  7989  7998       L1    18  0.93

> <Gold.PLP.Chemscore.Internal.Correction>
0.0412

> <Gold.Rescore>
     Score         DG    S(hbond)    S(metal)    S(lipo)     H(rot)  DE(clash)    DE(int)     intcor
     18.93     -21.01       2.60        0.00     107.87       2.25       0.17       1.90       ----

> <Gold.Chemscore.Fitness>
18.9345

> <Gold.Chemscore.DG>
-21.0121

> <Gold.Chemscore.ZeroCoef>
-5.4800

> <Gold.Chemscore.Hbond>
2.5998

> <Gold.Chemscore.Metal>
0.0000

> <Gold.Chemscore.Lipo>
107.8681

> <Gold.Chemscore.Internal_Hbond>
0.0000

> <Gold.Chemscore.DEClash>
0.1727

> <Gold.Chemscore.DEInternal>
1.9049

> <Gold.Chemscore.Rot>
2.2546

> <Gold.Chemscore.Internal.Correction>
   9.000000E+99

> <Gold.Chemscore.Hbonds>
donor molecule, donor type, donor heavy atom, donor atom, acceptor molecule, acceptor atom, score
      L1  H     2    23       P1  7957  0.92
      L1  H     8    37       P1  8028  0.85
      P1  H  7989  7998       L1    18  0.72

> <Gold.Chemscore.Hbond.Weighted>
-8.6834

> <Gold.Chemscore.Metal.Weighted>
-0.0000

> <Gold.Chemscore.Lipo.Weighted>
-12.6206

> <Gold.Chemscore.Internal_Hbond.Weighted>
0.0000

> <Gold.Chemscore.DEClash.Weighted>
0.1727

> <Gold.Chemscore.DEInternal.Weighted>
1.9049

> <Gold.Chemscore.Rot.Weighted>
5.7719

> <Gold.Chemscore.Internal.Correction.Weighted>
   9.000000E+99

> <Gold.Protein.RotatedTorsions>
[ 6907 6896 6895 6894 ] final  150.01 input  -60.11 | X-H torsion
[ 7974 7965 7964 7962 ] final  142.26 input  175.53 | X-H torsion
[ 8008 7997 7996 7995 ] final  -76.89 input   59.86 | X-H torsion
[ 10167 10162 10161 10158 ] final    7.16 input  -65.29 | X-H torsion
[ 10718 10713 10712 10709 ] final  101.49 input   66.30 | X-H torsion
[ 10763 10752 10751 10750 ] final   -5.99 input  -60.55 | X-H torsion
[ 11005 11000 10999 10996 ] final   -2.65 input  -57.11 | X-H torsion

> <Gold.Protein.ActiveResidues>
 VAL166  LYS551  ARG553  GLY616  TRP617  ASP618  TYR619  PRO620  LYS621  CYS622 
 ASP623  PHE694  ASN695  SER759  ASP760  ASP761  ALA762  ILE779  LEU786  VAL792 
 PHE793  MET794  SER795  GLU796  ALA797  LYS798  CYS799  TRP800  GLU811  SER814 

> <Gold.Protein.RotatedAtoms>
  152.1202  133.4349  159.4671 H   0  0  0  0  0  0  0  0  0  0  0  0  # atno 6907 bound_to 6896
  150.6871  134.2544  159.4533 H   0  0  0  0  0  0  0  0  0  0  0  0  # atno 6908 bound_to 6896
  152.0420  134.9705  160.0624 H   0  0  0  0  0  0  0  0  0  0  0  0  # atno 6909 bound_to 6896
  144.9023  139.5406  143.5748 H   0  0  0  0  0  0  0  0  0  0  0  0  # atno 7974 bound_to 7965
  154.5546  140.0719  156.8723 H   0  0  0  0  0  0  0  0  0  0  0  0  # atno 8008 bound_to 7997
  155.2927  140.3379  155.4233 H   0  0  0  0  0  0  0  0  0  0  0  0  # atno 8009 bound_to 7997
  156.1991  140.1715  156.7923 H   0  0  0  0  0  0  0  0  0  0  0  0  # atno 8010 bound_to 7997
  140.6387  143.7825  150.7396 H   0  0  0  0  0  0  0  0  0  0  0  0  # atno 10167 bound_to 10162
  157.6828  131.0727  150.5260 H   0  0  0  0  0  0  0  0  0  0  0  0  # atno 10718 bound_to 10713
  153.4061  135.7006  153.6392 H   0  0  0  0  0  0  0  0  0  0  0  0  # atno 10763 bound_to 10752
  153.4905  135.3674  155.2489 H   0  0  0  0  0  0  0  0  0  0  0  0  # atno 10764 bound_to 10752
  154.8714  135.4088  154.3405 H   0  0  0  0  0  0  0  0  0  0  0  0  # atno 10765 bound_to 10752
  140.6607  133.9322  155.8434 H   0  0  0  0  0  0  0  0  0  0  0  0  # atno 11005 bound_to 11000
  146.3115  139.7763  142.9016 LP  0  0  0  0  0  0  0  0  0  0  0  0  # atno 17320 bound_to 7965
  145.3595  141.0323  143.3293 LP  0  0  0  0  0  0  0  0  0  0  0  0  # atno 17321 bound_to 7965
  140.1452  143.4406  152.2168 LP  0  0  0  0  0  0  0  0  0  0  0  0  # atno 17342 bound_to 10162
  139.5597  144.7397  151.4192 LP  0  0  0  0  0  0  0  0  0  0  0  0  # atno 17343 bound_to 10162
  156.5571  130.4246  149.6080 LP  0  0  0  0  0  0  0  0  0  0  0  0  # atno 17370 bound_to 10713
  156.2853  130.7093  151.1928 LP  0  0  0  0  0  0  0  0  0  0  0  0  # atno 17371 bound_to 10713
  141.0467  134.0543  157.3835 LP  0  0  0  0  0  0  0  0  0  0  0  0  # atno 17394 bound_to 11000
  139.9014  135.0166  156.7285 LP  0  0  0  0  0  0  0  0  0  0  0  0  # atno 17395 bound_to 11000

$$$$
