AV-unprocessed.smi:3353|AV-procd|sdf|12953|dock4
  -GOLD-   2272019393D 1   1.00000     0.00000
 Structure written by MMmdl.
 43 44  0  0  0  0  0  0  0  0  2 V2000
  149.9488  142.9938  158.4376 C   0  0  0  0  0  0  0  0  0  0  0  0
  151.0992  142.8829  157.4303 C   0  0  0  0  0  0  0  0  0  0  0  0
  150.9122  141.7648  156.5268 N   0  0  0  0  0  0  0  0  0  0  0  0
  149.9107  141.5801  155.5942 C   0  0  0  0  0  0  0  0  0  0  0  0
  150.1704  140.3737  155.0077 C   0  0  0  0  0  0  0  0  0  0  0  0
  149.4556  139.6970  153.9873 N   0  0  0  0  0  0  0  0  0  0  0  0
  148.1455  139.4022  153.9690 C   0  0  0  0  0  0  0  0  0  0  0  0
  147.3400  139.6923  154.8540 O   0  0  0  0  0  0  0  0  0  0  0  0
  147.8085  138.7382  152.8542 N   0  0  0  0  0  0  0  0  0  0  0  0
  146.4602  138.2773  152.5362 C   0  0  0  0  0  0  0  0  0  0  0  0
  146.1094  136.9224  153.2051 C   0  0  2  0  0  0  0  0  0  0  0  0
  146.7709  136.8109  154.5972 C   0  0  0  0  0  0  0  0  0  0  0  0
  146.5005  135.7851  152.3229 N   0  3  0  0  0  0  0  0  0  0  0  0
  146.5304  134.4524  152.9643 C   0  0  0  0  0  0  0  0  0  0  0  0
  146.4528  133.4575  151.8125 C   0  0  0  0  0  0  0  0  0  0  0  0
  145.5007  134.1379  150.8363 C   0  0  0  0  0  0  0  0  0  0  0  0
  145.6910  135.6404  151.0855 C   0  0  0  0  0  0  0  0  0  0  0  0
  151.3459  139.8838  155.6343 C   0  0  0  0  0  0  0  0  0  0  0  0
  151.7879  140.7297  156.5523 N   0  0  0  0  0  0  0  0  0  0  0  0
  150.0976  143.8435  159.1039 H   0  0  0  0  0  0  0  0  0  0  0  0
  149.8750  142.0969  159.0533 H   0  0  0  0  0  0  0  0  0  0  0  0
  148.9937  143.1317  157.9297 H   0  0  0  0  0  0  0  0  0  0  0  0
  151.1741  143.7976  156.8411 H   0  0  0  0  0  0  0  0  0  0  0  0
  152.0504  142.7620  157.9507 H   0  0  0  0  0  0  0  0  0  0  0  0
  149.1268  142.3073  155.4440 H   0  0  0  0  0  0  0  0  0  0  0  0
  150.0016  139.4027  153.1907 H   0  0  0  0  0  0  0  0  0  0  0  0
  148.5317  138.5424  152.1772 H   0  0  0  0  0  0  0  0  0  0  0  0
  145.7568  139.0599  152.8228 H   0  0  0  0  0  0  0  0  0  0  0  0
  146.3846  138.1855  151.4522 H   0  0  0  0  0  0  0  0  0  0  0  0
  145.0287  136.8674  153.3459 H   0  0  0  0  0  0  0  0  0  0  0  0
  146.4937  137.6445  155.2423 H   0  0  0  0  0  0  0  0  0  0  0  0
  147.8584  136.8022  154.5189 H   0  0  0  0  0  0  0  0  0  0  0  0
  146.4656  135.9073  155.1245 H   0  0  0  0  0  0  0  0  0  0  0  0
  147.4278  134.3082  153.5670 H   0  0  0  0  0  0  0  0  0  0  0  0
  145.6595  134.3336  153.6116 H   0  0  0  0  0  0  0  0  0  0  0  0
  147.4362  133.3429  151.3538 H   0  0  0  0  0  0  0  0  0  0  0  0
  146.1085  132.4710  152.1251 H   0  0  0  0  0  0  0  0  0  0  0  0
  145.6947  133.8556  149.8008 H   0  0  0  0  0  0  0  0  0  0  0  0
  144.4729  133.8552  151.0687 H   0  0  0  0  0  0  0  0  0  0  0  0
  144.7162  136.1216  151.1818 H   0  0  0  0  0  0  0  0  0  0  0  0
  146.2156  136.1165  150.2564 H   0  0  0  0  0  0  0  0  0  0  0  0
  151.8814  138.9622  155.4594 H   0  0  0  0  0  0  0  0  0  0  0  0
  147.4471  135.9599  152.0165 H   0  0  0  0  0  0  0  0  0  0  0  0
  1  2  1  0  0  0  0
  1 20  1  0  0  0  0
  1 21  1  0  0  0  0
  1 22  1  0  0  0  0
  2  3  1  0  0  0  0
  2 23  1  0  0  0  0
  2 24  1  0  0  0  0
  3 19  1  0  0  0  0
  3  4  1  0  0  0  0
  4  5  2  0  0  0  0
  4 25  1  0  0  0  0
  5  6  1  0  0  0  0
  5 18  1  0  0  0  0
  6  7  1  0  0  0  0
  6 26  1  0  0  0  0
  7  8  2  0  0  0  0
  7  9  1  0  0  0  0
  9 10  1  0  0  0  0
  9 27  1  0  0  0  0
 10 11  1  0  0  0  0
 10 28  1  0  0  0  0
 10 29  1  0  0  0  0
 11 12  1  0  0  0  0
 11 13  1  0  0  0  0
 11 30  1  0  0  0  0
 12 31  1  0  0  0  0
 12 32  1  0  0  0  0
 12 33  1  0  0  0  0
 13 17  1  0  0  0  0
 13 14  1  0  0  0  0
 13 43  1  0  0  0  0
 14 15  1  0  0  0  0
 14 34  1  0  0  0  0
 14 35  1  0  0  0  0
 15 16  1  0  0  0  0
 15 36  1  0  0  0  0
 15 37  1  0  0  0  0
 16 17  1  0  0  0  0
 16 38  1  0  0  0  0
 16 39  1  0  0  0  0
 17 40  1  0  0  0  0
 17 41  1  0  0  0  0
 18 19  2  0  0  0  0
 18 42  1  0  0  0  0
M  CHG  1  13   1
M  END
> <s_m_source_file>
AV-unprocessed.smi

> <i_m_source_file_index>
3353

> <i_lp_mmshare_version>
43012

> <i_f3d_flags>
0

> <s_epik_input>
W0NIM11bQ0gyXW4xW2NIXWMoW2NIXW4xKVtOSF1DKD1PKVtOSF1bQ0gyXVtDQEhdKFtDSDNdKU4yW0NIMl1bQ0gyXVtDSDJdW0NIMl0y

> <s_epik_cmdline>
J2VwaWtfcHl0aG9uJywgJy1waCcsICc3LjAnLCAnLXRuJywgJzgnLCAnLW1hJywgJzIwMCcsICctbWV0YWxfYmluZGluZycsICctaW1hZScsICc8aW5maWxlLm1hZT4nLCAnLW9tYWUnLCAnPG91dGZpbGUubWFlPic=

> <r_lp_tautomer_probability>
1

> <r_epik_Ionization_Penalty>
0.000914091

> <r_epik_Ionization_Penalty_Charging>
0.000761583

> <r_epik_Ionization_Penalty_Neutral>
0.000152508

> <r_epik_State_Penalty>
0.000487427

> <r_epik_Charging_Adjusted_Penalty>
0.00124901

> <i_epik_Tot_Q>
1

> <i_epik_Tot_abs_Q>
1

> <r_epik_Metal_State_Penalty>
-0

> <b_epik_Metal_Only>
0

> <s_lp_Force_Field>
OPLS_2005

> <r_lp_Energy>
33.6396

> <b_lp_Chiralities_Consistent>
1

> <s_lp_Variant>
AV-unprocessed.smi:3353-1

> <Gold.Version>
5.8.1

> <Gold.Id.Protein>
6NUR|6NUR_protein|mol2

> <Gold.PLP.Fitness>
44.0491

> <Gold.PLP.PLP>
-34.6431

> <Gold.PLP.part.hbond>
-4.0000

> <Gold.PLP.part.metal>
0.0000

> <Gold.PLP.part.buried>
-2.8557

> <Gold.PLP.part.nonpolar>
-28.8016

> <Gold.PLP.part.repulsive>
0.3090

> <Gold.PLP.ligand.clash>
0.0055

> <Gold.PLP.ligand.torsion>
1.1780

> <Gold.PLP.Chemscore.Hbond>
2.9041

> <Gold.PLP.Chemscore.CHOScore>
0.9987

> <Gold.PLP.Chemscore.Metal>
0.0000

> <Gold.Chemscore.Hbonds>
donor molecule, donor type, donor heavy atom, donor atom, acceptor molecule, acceptor atom, score
      L1  H     6    26       P1  7957  0.34
      L1  H     9    27       P1  7957  0.44
      L1  H    13    43       P1  7948  1.92
      L1  C     4    25       P1  8028  1.00

> <Gold.PLP.Chemscore.Internal.Correction>
0.0592

> <Gold.Rescore>
     Score         DG    S(hbond)    S(metal)    S(lipo)     H(rot)  DE(clash)    DE(int)     intcor
     13.65     -16.20       1.86        0.00      73.96       1.61       1.54       1.01       ----

> <Gold.Chemscore.Fitness>
13.6513

> <Gold.Chemscore.DG>
-16.2037

> <Gold.Chemscore.ZeroCoef>
-5.4800

> <Gold.Chemscore.Hbond>
1.8551

> <Gold.Chemscore.Metal>
0.0000

> <Gold.Chemscore.Lipo>
73.9633

> <Gold.Chemscore.Internal_Hbond>
0.0000

> <Gold.Chemscore.DEClash>
1.5440

> <Gold.Chemscore.DEInternal>
1.0085

> <Gold.Chemscore.Rot>
1.6117

> <Gold.Chemscore.Internal.Correction>
   9.000000E+99

> <Gold.Chemscore.Hbonds>
donor molecule, donor type, donor heavy atom, donor atom, acceptor molecule, acceptor atom, score
      L1  H     6    26       P1  7957  0.34
      L1  H     9    27       P1  7957  0.35
      L1  H    13    43       P1  7948  0.91

> <Gold.Chemscore.Hbond.Weighted>
-6.1960

> <Gold.Chemscore.Metal.Weighted>
-0.0000

> <Gold.Chemscore.Lipo.Weighted>
-8.6537

> <Gold.Chemscore.Internal_Hbond.Weighted>
0.0000

> <Gold.Chemscore.DEClash.Weighted>
1.5440

> <Gold.Chemscore.DEInternal.Weighted>
1.0085

> <Gold.Chemscore.Rot.Weighted>
4.1260

> <Gold.Chemscore.Internal.Correction.Weighted>
   9.000000E+99

> <Gold.Protein.RotatedTorsions>
[ 6907 6896 6895 6894 ] final -105.29 input  -60.11 | X-H torsion
[ 7974 7965 7964 7962 ] final   -1.19 input  175.53 | X-H torsion
[ 8008 7997 7996 7995 ] final  169.38 input   59.86 | X-H torsion
[ 10167 10162 10161 10158 ] final  124.92 input  -65.29 | X-H torsion
[ 10718 10713 10712 10709 ] final -128.13 input   66.30 | X-H torsion
[ 10763 10752 10751 10750 ] final  -28.62 input  -60.55 | X-H torsion
[ 11005 11000 10999 10996 ] final   82.69 input  -57.11 | X-H torsion

> <Gold.Protein.ActiveResidues>
 VAL166  LYS551  ARG553  GLY616  TRP617  ASP618  TYR619  PRO620  LYS621  CYS622 
 ASP623  PHE694  ASN695  SER759  ASP760  ASP761  ALA762  ILE779  LEU786  VAL792 
 PHE793  MET794  SER795  GLU796  ALA797  LYS798  CYS799  TRP800  GLU811  SER814 

> <Gold.Protein.RotatedAtoms>
  150.7329  134.0150  159.3681 H   0  0  0  0  0  0  0  0  0  0  0  0  # atno 6907 bound_to 6896
  151.8111  135.0678  160.0422 H   0  0  0  0  0  0  0  0  0  0  0  0  # atno 6908 bound_to 6896
  152.3072  133.5679  159.5693 H   0  0  0  0  0  0  0  0  0  0  0  0  # atno 6909 bound_to 6896
  146.2419  140.1384  142.8336 H   0  0  0  0  0  0  0  0  0  0  0  0  # atno 7974 bound_to 7965
  156.1463  140.1566  156.8842 H   0  0  0  0  0  0  0  0  0  0  0  0  # atno 8008 bound_to 7997
  154.5031  140.0820  156.7876 H   0  0  0  0  0  0  0  0  0  0  0  0  # atno 8009 bound_to 7997
  155.3983  140.3413  155.4257 H   0  0  0  0  0  0  0  0  0  0  0  0  # atno 8010 bound_to 7997
  139.5715  144.6941  151.3767 H   0  0  0  0  0  0  0  0  0  0  0  0  # atno 10167 bound_to 10162
  156.1922  130.6803  151.0438 H   0  0  0  0  0  0  0  0  0  0  0  0  # atno 10718 bound_to 10713
  153.7513  135.6926  153.4945 H   0  0  0  0  0  0  0  0  0  0  0  0  # atno 10763 bound_to 10752
  153.2001  135.4439  155.0255 H   0  0  0  0  0  0  0  0  0  0  0  0  # atno 10764 bound_to 10752
  154.8186  135.3411  154.7034 H   0  0  0  0  0  0  0  0  0  0  0  0  # atno 10765 bound_to 10752
  139.9055  134.8090  156.2208 H   0  0  0  0  0  0  0  0  0  0  0  0  # atno 11005 bound_to 11000
  145.0267  140.8838  143.5134 LP  0  0  0  0  0  0  0  0  0  0  0  0  # atno 17320 bound_to 7965
  145.1441  139.2554  143.5475 LP  0  0  0  0  0  0  0  0  0  0  0  0  # atno 17321 bound_to 7965
  140.6999  143.7658  150.7386 LP  0  0  0  0  0  0  0  0  0  0  0  0  # atno 17342 bound_to 10162
  140.1165  143.4651  152.2339 LP  0  0  0  0  0  0  0  0  0  0  0  0  # atno 17343 bound_to 10162
  157.6936  131.0802  150.7036 LP  0  0  0  0  0  0  0  0  0  0  0  0  # atno 17370 bound_to 10713
  156.7092  130.4647  149.5552 LP  0  0  0  0  0  0  0  0  0  0  0  0  # atno 17371 bound_to 10713
  141.0407  133.6939  156.1592 LP  0  0  0  0  0  0  0  0  0  0  0  0  # atno 17394 bound_to 11000
  140.6960  134.4615  157.5587 LP  0  0  0  0  0  0  0  0  0  0  0  0  # atno 17395 bound_to 11000

$$$$
