AV-unprocessed.smi:2381|AV-procd|sdf|9457|dock9
  -GOLD-   2272013 83D 1   1.00000     0.00000
 Structure written by MMmdl.
 30 31  0  0  0  0  0  0  0  0  1 V2000
  153.8745  141.5063  160.6129 C   0  0  0  0  0  0  0  0  0  0  0  0
  152.8103  142.5090  160.2185 C   0  0  0  0  0  0  0  0  0  0  0  0
  152.4980  143.5992  161.0531 C   0  0  0  0  0  0  0  0  0  0  0  0
  151.4994  144.4951  160.6293 C   0  0  0  0  0  0  0  0  0  0  0  0
  150.8296  144.3587  159.4658 N   0  0  0  0  0  0  0  0  0  0  0  0
  151.1208  143.3122  158.6532 C   0  0  0  0  0  0  0  0  0  0  0  0
  150.4734  143.0739  157.4114 N   0  0  0  0  0  0  0  0  0  0  0  0
  150.3821  141.9181  156.7300 C   0  0  0  0  0  0  0  0  0  0  0  0
  150.8452  140.8369  157.0951 O   0  0  0  0  0  0  0  0  0  0  0  0
  149.7126  142.0835  155.5800 N   0  0  0  0  0  0  0  0  0  0  0  0
  149.4510  141.0294  154.6081 C   0  0  0  0  0  0  0  0  0  0  0  0
  148.1611  141.1861  153.8247 C   0  0  0  0  0  0  0  0  0  0  0  0
  147.2085  142.3237  154.1097 C   0  0  0  0  0  0  0  0  0  0  0  0
  146.8285  140.9100  154.4801 C   0  0  0  0  0  0  0  0  0  0  0  0
  152.1107  142.3660  159.0032 C   0  0  0  0  0  0  0  0  0  0  0  0
  154.3374  141.7725  161.5635 H   0  0  0  0  0  0  0  0  0  0  0  0
  154.6553  141.4652  159.8530 H   0  0  0  0  0  0  0  0  0  0  0  0
  153.4381  140.5122  160.7122 H   0  0  0  0  0  0  0  0  0  0  0  0
  153.0071  143.7496  161.9938 H   0  0  0  0  0  0  0  0  0  0  0  0
  151.2309  145.3436  161.2409 H   0  0  0  0  0  0  0  0  0  0  0  0
  150.0365  143.8792  156.9885 H   0  0  0  0  0  0  0  0  0  0  0  0
  149.3649  143.0044  155.3570 H   0  0  0  0  0  0  0  0  0  0  0  0
  150.2820  140.9706  153.9033 H   0  0  0  0  0  0  0  0  0  0  0  0
  149.4349  140.0768  155.1387 H   0  0  0  0  0  0  0  0  0  0  0  0
  148.2383  140.8734  152.7850 H   0  0  0  0  0  0  0  0  0  0  0  0
  147.4584  143.0051  154.9206 H   0  0  0  0  0  0  0  0  0  0  0  0
  146.6994  142.7761  153.2612 H   0  0  0  0  0  0  0  0  0  0  0  0
  146.0657  140.4199  153.8784 H   0  0  0  0  0  0  0  0  0  0  0  0
  146.8255  140.6524  155.5374 H   0  0  0  0  0  0  0  0  0  0  0  0
  152.3337  141.5364  158.3476 H   0  0  0  0  0  0  0  0  0  0  0  0
  1  2  1  0  0  0  0
  1 16  1  0  0  0  0
  1 17  1  0  0  0  0
  1 18  1  0  0  0  0
  2 15  1  0  0  0  0
  2  3  2  0  0  0  0
  3  4  1  0  0  0  0
  3 19  1  0  0  0  0
  4  5  2  0  0  0  0
  4 20  1  0  0  0  0
  5  6  1  0  0  0  0
  6  7  1  0  0  0  0
  6 15  2  0  0  0  0
  7  8  1  0  0  0  0
  7 21  1  0  0  0  0
  8  9  2  0  0  0  0
  8 10  1  0  0  0  0
 10 11  1  0  0  0  0
 10 22  1  0  0  0  0
 11 12  1  0  0  0  0
 11 23  1  0  0  0  0
 11 24  1  0  0  0  0
 12 14  1  0  0  0  0
 12 13  1  0  0  0  0
 12 25  1  0  0  0  0
 13 14  1  0  0  0  0
 13 26  1  0  0  0  0
 13 27  1  0  0  0  0
 14 28  1  0  0  0  0
 14 29  1  0  0  0  0
 15 30  1  0  0  0  0
M  END
> <s_m_source_file>
AV-unprocessed.smi

> <i_m_source_file_index>
2381

> <i_lp_mmshare_version>
43012

> <i_f3d_flags>
0

> <s_epik_input>
W0NIM11jMVtjSF1bY0hdbmMoW2NIXTEpW05IXUMoPU8pW05IXVtDSDJdW0NIXTJbQ0gyXVtDSDJdMg==

> <s_epik_cmdline>
J2VwaWtfcHl0aG9uJywgJy1waCcsICc3LjAnLCAnLXRuJywgJzgnLCAnLW1hJywgJzIwMCcsICctbWV0YWxfYmluZGluZycsICctaW1hZScsICc8aW5maWxlLm1hZT4nLCAnLW9tYWUnLCAnPG91dGZpbGUubWFlPic=

> <r_lp_tautomer_probability>
1

> <r_epik_Ionization_Penalty>
9.40607e-05

> <r_epik_Ionization_Penalty_Charging>
0

> <r_epik_Ionization_Penalty_Neutral>
9.40607e-05

> <r_epik_State_Penalty>
-0

> <r_epik_Charging_Adjusted_Penalty>
0

> <i_epik_Tot_Q>
0

> <i_epik_Tot_abs_Q>
0

> <r_epik_Metal_State_Penalty>
-0

> <b_epik_Metal_Only>
0

> <s_lp_Force_Field>
OPLS_2005

> <r_lp_Energy>
14.347

> <b_lp_Chiralities_Consistent>
1

> <s_lp_Variant>
AV-unprocessed.smi:2381-1

> <Gold.Version>
5.8.1

> <Gold.Id.Protein>
6NUR|6NUR_protein|mol2

> <Gold.PLP.Fitness>
41.6473

> <Gold.PLP.PLP>
-36.5312

> <Gold.PLP.part.hbond>
-2.0000

> <Gold.PLP.part.metal>
0.0000

> <Gold.PLP.part.buried>
-4.6205

> <Gold.PLP.part.nonpolar>
-30.3898

> <Gold.PLP.part.repulsive>
0.3120

> <Gold.PLP.ligand.clash>
0.0000

> <Gold.PLP.ligand.torsion>
0.7092

> <Gold.PLP.Chemscore.Hbond>
2.0000

> <Gold.PLP.Chemscore.CHOScore>
0.0000

> <Gold.PLP.Chemscore.Metal>
0.0000

> <Gold.Chemscore.Hbonds>
donor molecule, donor type, donor heavy atom, donor atom, acceptor molecule, acceptor atom, score
      L1  H     7    21       P1  8028  1.00
      L1  H    10    22       P1  8028  1.00

> <Gold.PLP.Chemscore.Internal.Correction>
0.5344

> <Gold.Rescore>
     Score         DG    S(hbond)    S(metal)    S(lipo)     H(rot)  DE(clash)    DE(int)     intcor
     16.59     -18.75       1.95        0.00      83.99       1.20       0.01       2.15       ----

> <Gold.Chemscore.Fitness>
16.5938

> <Gold.Chemscore.DG>
-18.7492

> <Gold.Chemscore.ZeroCoef>
-5.4800

> <Gold.Chemscore.Hbond>
1.9475

> <Gold.Chemscore.Metal>
0.0000

> <Gold.Chemscore.Lipo>
83.9892

> <Gold.Chemscore.Internal_Hbond>
0.0000

> <Gold.Chemscore.DEClash>
0.0096

> <Gold.Chemscore.DEInternal>
2.1458

> <Gold.Chemscore.Rot>
1.1962

> <Gold.Chemscore.Internal.Correction>
   9.000000E+99

> <Gold.Chemscore.Hbonds>
donor molecule, donor type, donor heavy atom, donor atom, acceptor molecule, acceptor atom, score
      L1  H     7    21       P1  8028  0.94
      L1  H    10    22       P1  8028  0.99

> <Gold.Chemscore.Hbond.Weighted>
-6.5047

> <Gold.Chemscore.Metal.Weighted>
-0.0000

> <Gold.Chemscore.Lipo.Weighted>
-9.8267

> <Gold.Chemscore.Internal_Hbond.Weighted>
0.0000

> <Gold.Chemscore.DEClash.Weighted>
0.0096

> <Gold.Chemscore.DEInternal.Weighted>
2.1458

> <Gold.Chemscore.Rot.Weighted>
3.0622

> <Gold.Chemscore.Internal.Correction.Weighted>
   9.000000E+99

> <Gold.Protein.RotatedTorsions>
[ 6907 6896 6895 6894 ] final   30.20 input  -60.11 | X-H torsion
[ 7974 7965 7964 7962 ] final   26.15 input  175.53 | X-H torsion
[ 8008 7997 7996 7995 ] final -158.42 input   59.86 | X-H torsion
[ 10167 10162 10161 10158 ] final  114.40 input  -65.29 | X-H torsion
[ 10718 10713 10712 10709 ] final   28.01 input   66.30 | X-H torsion
[ 10763 10752 10751 10750 ] final   30.54 input  -60.55 | X-H torsion
[ 11005 11000 10999 10996 ] final -168.52 input  -57.11 | X-H torsion

> <Gold.Protein.ActiveResidues>
 VAL166  LYS551  ARG553  GLY616  TRP617  ASP618  TYR619  PRO620  LYS621  CYS622 
 ASP623  PHE694  ASN695  SER759  ASP760  ASP761  ALA762  ILE779  LEU786  VAL792 
 PHE793  MET794  SER795  GLU796  ALA797  LYS798  CYS799  TRP800  GLU811  SER814 

> <Gold.Protein.RotatedAtoms>
  152.0425  134.9702  160.0573 H   0  0  0  0  0  0  0  0  0  0  0  0  # atno 6907 bound_to 6896
  152.1135  133.4309  159.4650 H   0  0  0  0  0  0  0  0  0  0  0  0  # atno 6908 bound_to 6896
  150.6845  134.2538  159.4565 H   0  0  0  0  0  0  0  0  0  0  0  0  # atno 6909 bound_to 6896
  146.1852  139.7367  142.8871 H   0  0  0  0  0  0  0  0  0  0  0  0  # atno 7974 bound_to 7965
  155.7473  140.0822  157.2218 H   0  0  0  0  0  0  0  0  0  0  0  0  # atno 8008 bound_to 7997
  154.4015  140.1567  156.2740 H   0  0  0  0  0  0  0  0  0  0  0  0  # atno 8009 bound_to 7997
  155.8964  140.3412  155.5996 H   0  0  0  0  0  0  0  0  0  0  0  0  # atno 8010 bound_to 7997
  139.6391  144.7122  151.2273 H   0  0  0  0  0  0  0  0  0  0  0  0  # atno 10167 bound_to 10162
  157.2278  130.7009  149.6299 H   0  0  0  0  0  0  0  0  0  0  0  0  # atno 10718 bound_to 10713
  153.0366  135.6461  154.1060 H   0  0  0  0  0  0  0  0  0  0  0  0  # atno 10763 bound_to 10752
  154.0774  135.2876  155.3298 H   0  0  0  0  0  0  0  0  0  0  0  0  # atno 10764 bound_to 10752
  154.6553  135.5411  153.8016 H   0  0  0  0  0  0  0  0  0  0  0  0  # atno 10765 bound_to 10752
  140.5411  134.5521  157.5100 H   0  0  0  0  0  0  0  0  0  0  0  0  # atno 11005 bound_to 11000
  145.3959  141.0379  143.3098 LP  0  0  0  0  0  0  0  0  0  0  0  0  # atno 17320 bound_to 7965
  144.8385  139.5511  143.6911 LP  0  0  0  0  0  0  0  0  0  0  0  0  # atno 17321 bound_to 7965
  140.7481  143.6343  150.8394 LP  0  0  0  0  0  0  0  0  0  0  0  0  # atno 17342 bound_to 10162
  139.9978  143.5777  152.2887 LP  0  0  0  0  0  0  0  0  0  0  0  0  # atno 17343 bound_to 10162
  155.9677  130.4498  150.5674 LP  0  0  0  0  0  0  0  0  0  0  0  0  # atno 17370 bound_to 10713
  157.3509  131.0733  151.1714 LP  0  0  0  0  0  0  0  0  0  0  0  0  # atno 17371 bound_to 10713
  139.9503  134.7628  156.0463 LP  0  0  0  0  0  0  0  0  0  0  0  0  # atno 17394 bound_to 11000
  141.1226  133.6608  156.3255 LP  0  0  0  0  0  0  0  0  0  0  0  0  # atno 17395 bound_to 11000

$$$$
