AV-unprocessed.smi:1278|AV-procd|sdf|5353|dock6
  -GOLD-   22720 4483D 1   1.00000     0.00000
 Structure written by MMmdl.
 38 39  0  0  0  0  0  0  0  0  3 V2000
  147.3867  133.3272  151.9724 C   0  0  0  0  0  0  0  0  0  0  0  0
  146.0310  133.7401  152.5728 C   0  0  2  0  0  0  0  0  0  0  0  0
  144.9110  133.8203  151.5192 C   0  0  0  0  0  0  0  0  0  0  0  0
  145.0663  135.0664  150.6361 C   0  0  0  0  0  0  0  0  0  0  0  0
  145.1753  136.3388  151.4908 C   0  0  0  0  0  0  0  0  0  0  0  0
  146.2891  136.2356  152.4683 N   0  3  1  0  0  0  0  0  0  0  0  0
  146.5056  137.5051  153.2052 C   0  0  0  0  0  0  0  0  0  0  0  0
  146.4961  138.7312  152.2730 C   0  0  0  0  0  0  0  0  0  0  0  0
  147.5587  139.6675  152.6183 N   0  0  0  0  0  0  0  0  0  0  0  0
  147.5850  140.4528  153.7045 C   0  0  0  0  0  0  0  0  0  0  0  0
  146.6542  140.4142  154.5127 O   0  0  0  0  0  0  0  0  0  0  0  0
  148.6844  141.2351  153.7831 N   0  5  0  0  0  0  0  0  0  0  0  0
  149.5548  141.0704  154.7925 C   0  0  0  0  0  0  0  0  0  0  0  0
  150.7378  140.4636  154.6433 N   0  0  0  0  0  0  0  0  0  0  0  0
  151.4848  140.4058  155.8213 C   0  0  0  0  0  0  0  0  0  0  0  0
  150.8592  140.9901  156.8905 C   0  0  0  0  0  0  0  0  0  0  0  0
  149.3043  141.6340  156.4469 S   0  0  0  0  0  0  0  0  0  0  0  0
  146.1219  135.0602  153.3665 C   0  0  0  0  0  0  0  0  0  0  0  0
  147.7646  134.0694  151.2694 H   0  0  0  0  0  0  0  0  0  0  0  0
  147.3066  132.3782  151.4416 H   0  0  0  0  0  0  0  0  0  0  0  0
  148.1379  133.2024  152.7530 H   0  0  0  0  0  0  0  0  0  0  0  0
  145.7563  132.9539  153.2774 H   0  0  0  0  0  0  0  0  0  0  0  0
  144.8944  132.9190  150.9053 H   0  0  0  0  0  0  0  0  0  0  0  0
  143.9457  133.8629  152.0255 H   0  0  0  0  0  0  0  0  0  0  0  0
  145.9505  134.9695  150.0056 H   0  0  0  0  0  0  0  0  0  0  0  0
  144.2163  135.1476  149.9581 H   0  0  0  0  0  0  0  0  0  0  0  0
  145.3374  137.1940  150.8335 H   0  0  0  0  0  0  0  0  0  0  0  0
  144.2395  136.5200  152.0223 H   0  0  0  0  0  0  0  0  0  0  0  0
  145.7093  137.6381  153.9391 H   0  0  0  0  0  0  0  0  0  0  0  0
  147.4360  137.4434  153.7717 H   0  0  0  0  0  0  0  0  0  0  0  0
  146.5997  138.4448  151.2263 H   0  0  0  0  0  0  0  0  0  0  0  0
  145.5439  139.2552  152.3580 H   0  0  0  0  0  0  0  0  0  0  0  0
  148.3434  139.7264  151.9856 H   0  0  0  0  0  0  0  0  0  0  0  0
  152.4540  139.9297  155.8067 H   0  0  0  0  0  0  0  0  0  0  0  0
  151.2155  141.0823  157.9052 H   0  0  0  0  0  0  0  0  0  0  0  0
  145.2161  135.1945  153.9600 H   0  0  0  0  0  0  0  0  0  0  0  0
  146.9457  134.9963  154.0763 H   0  0  0  0  0  0  0  0  0  0  0  0
  147.1260  136.0766  151.9260 H   0  0  0  0  0  0  0  0  0  0  0  0
  1  2  1  0  0  0  0
  1 19  1  0  0  0  0
  1 20  1  0  0  0  0
  1 21  1  0  0  0  0
  2 18  1  0  0  0  0
  2  3  1  0  0  0  0
  2 22  1  0  0  0  0
  3  4  1  0  0  0  0
  3 23  1  0  0  0  0
  3 24  1  0  0  0  0
  4  5  1  0  0  0  0
  4 25  1  0  0  0  0
  4 26  1  0  0  0  0
  5  6  1  0  0  0  0
  5 27  1  0  0  0  0
  5 28  1  0  0  0  0
  6  7  1  0  0  0  0
  6 18  1  0  0  0  0
  6 38  1  0  0  0  0
  7  8  1  0  0  0  0
  7 29  1  0  0  0  0
  7 30  1  0  0  0  0
  8  9  1  0  0  0  0
  8 31  1  0  0  0  0
  8 32  1  0  0  0  0
  9 10  1  0  0  0  0
  9 33  1  0  0  0  0
 10 11  2  0  0  0  0
 10 12  1  0  0  0  0
 12 13  1  0  0  0  0
 13 17  1  0  0  0  0
 13 14  2  0  0  0  0
 14 15  1  0  0  0  0
 15 16  2  0  0  0  0
 15 34  1  0  0  0  0
 16 17  1  0  0  0  0
 16 35  1  0  0  0  0
 18 36  1  0  0  0  0
 18 37  1  0  0  0  0
M  CHG  1   6   1
M  CHG  1  12  -1
M  END
> <s_m_source_file>
AV-unprocessed.smi

> <i_m_source_file_index>
1278

> <i_lp_mmshare_version>
43012

> <i_f3d_flags>
0

> <s_epik_input>
W0NIM11bQ0BASF0xW0NIMl1bQ0gyXVtDSDJdTihbQ0gyXTEpW0NIMl1bQ0gyXVtOSF1DKD1PKVtOSF1jMm5bY0hdW2NIXXMy

> <s_epik_cmdline>
J2VwaWtfcHl0aG9uJywgJy1waCcsICc3LjAnLCAnLXRuJywgJzgnLCAnLW1hJywgJzIwMCcsICctbWV0YWxfYmluZGluZycsICctaW1hZScsICc8aW5maWxlLm1hZT4nLCAnLW9tYWUnLCAnPG91dGZpbGUubWFlPic=

> <r_lp_tautomer_probability>
0.999

> <r_epik_Ionization_Penalty>
6.22019

> <r_epik_Ionization_Penalty_Charging>
5.38911

> <r_epik_Ionization_Penalty_Neutral>
0.831074

> <r_epik_State_Penalty>
5.38904

> <r_epik_Charging_Adjusted_Penalty>
10.7782

> <i_epik_Tot_Q>
0

> <i_epik_Tot_abs_Q>
2

> <r_epik_Metal_State_Penalty>
1.41502

> <b_epik_Metal_Only>
1

> <s_lp_Force_Field>
OPLS_2005

> <r_lp_Energy>
8.40837

> <b_lp_Chiralities_Consistent>
1

> <s_lp_Variant>
AV-unprocessed.smi:1278-7

> <Gold.Version>
5.8.1

> <Gold.Id.Protein>
6NUR|6NUR_protein|mol2

> <Gold.PLP.Fitness>
40.8447

> <Gold.PLP.PLP>
-30.7650

> <Gold.PLP.part.hbond>
-3.9132

> <Gold.PLP.part.metal>
0.0000

> <Gold.PLP.part.buried>
-0.4598

> <Gold.PLP.part.nonpolar>
-26.2323

> <Gold.PLP.part.repulsive>
0.9732

> <Gold.PLP.ligand.clash>
0.0000

> <Gold.PLP.ligand.torsion>
1.7444

> <Gold.PLP.Chemscore.Hbond>
4.5039

> <Gold.PLP.Chemscore.CHOScore>
0.0000

> <Gold.PLP.Chemscore.Metal>
0.0000

> <Gold.Chemscore.Hbonds>
donor molecule, donor type, donor heavy atom, donor atom, acceptor molecule, acceptor atom, score
      L1  H     6    38       P1  7948  1.92
      L1  H     9    33       P1  7957  0.98
      P1  H  7989  7998       L1    14  0.94
      P1  H  8011  8017       L1    12  0.54

> <Gold.PLP.Chemscore.Internal.Correction>
0.0568

> <Gold.Rescore>
     Score         DG    S(hbond)    S(metal)    S(lipo)     H(rot)  DE(clash)    DE(int)     intcor
     16.41     -18.26       2.93        0.00      59.91       1.57       0.16       1.69       ----

> <Gold.Chemscore.Fitness>
16.4085

> <Gold.Chemscore.DG>
-18.2640

> <Gold.Chemscore.ZeroCoef>
-5.4800

> <Gold.Chemscore.Hbond>
2.9305

> <Gold.Chemscore.Metal>
0.0000

> <Gold.Chemscore.Lipo>
59.9083

> <Gold.Chemscore.Internal_Hbond>
0.0000

> <Gold.Chemscore.DEClash>
0.1638

> <Gold.Chemscore.DEInternal>
1.6917

> <Gold.Chemscore.Rot>
1.5676

> <Gold.Chemscore.Internal.Correction>
   9.000000E+99

> <Gold.Chemscore.Hbonds>
donor molecule, donor type, donor heavy atom, donor atom, acceptor molecule, acceptor atom, score
      L1  H     6    38       P1  7948  0.92
      L1  H     9    33       P1  7957  0.92
      P1  H  7989  7998       L1    14  0.64
      P1  H  8011  8017       L1    12  0.24

> <Gold.Chemscore.Hbond.Weighted>
-9.7878

> <Gold.Chemscore.Metal.Weighted>
-0.0000

> <Gold.Chemscore.Lipo.Weighted>
-7.0093

> <Gold.Chemscore.Internal_Hbond.Weighted>
0.0000

> <Gold.Chemscore.DEClash.Weighted>
0.1638

> <Gold.Chemscore.DEInternal.Weighted>
1.6917

> <Gold.Chemscore.Rot.Weighted>
4.0130

> <Gold.Chemscore.Internal.Correction.Weighted>
   9.000000E+99

> <Gold.Protein.RotatedTorsions>
[ 6907 6896 6895 6894 ] final  157.11 input  -60.11 | X-H torsion
[ 7974 7965 7964 7962 ] final  -98.87 input  175.53 | X-H torsion
[ 8008 7997 7996 7995 ] final -138.89 input   59.86 | X-H torsion
[ 10167 10162 10161 10158 ] final  -37.80 input  -65.29 | X-H torsion
[ 10718 10713 10712 10709 ] final  -14.80 input   66.30 | X-H torsion
[ 10763 10752 10751 10750 ] final -150.60 input  -60.55 | X-H torsion
[ 11005 11000 10999 10996 ] final   60.06 input  -57.11 | X-H torsion

> <Gold.Protein.ActiveResidues>
 VAL166  LYS551  ARG553  GLY616  TRP617  ASP618  TYR619  PRO620  LYS621  CYS622 
 ASP623  PHE694  ASN695  SER759  ASP760  ASP761  ALA762  ILE779  LEU786  VAL792 
 PHE793  MET794  SER795  GLU796  ALA797  LYS798  CYS799  TRP800  GLU811  SER814 

> <Gold.Protein.RotatedAtoms>
  152.0200  133.3895  159.4253 H   0  0  0  0  0  0  0  0  0  0  0  0  # atno 6907 bound_to 6896
  150.6891  134.3637  159.4971 H   0  0  0  0  0  0  0  0  0  0  0  0  # atno 6908 bound_to 6896
  152.1409  134.9063  160.0604 H   0  0  0  0  0  0  0  0  0  0  0  0  # atno 6909 bound_to 6896
  145.3149  140.9409  143.2748 H   0  0  0  0  0  0  0  0  0  0  0  0  # atno 7974 bound_to 7965
  155.4357  140.0528  157.3015 H   0  0  0  0  0  0  0  0  0  0  0  0  # atno 8008 bound_to 7997
  154.4840  140.2093  155.9655 H   0  0  0  0  0  0  0  0  0  0  0  0  # atno 8009 bound_to 7997
  156.1247  140.3182  155.8265 H   0  0  0  0  0  0  0  0  0  0  0  0  # atno 8010 bound_to 7997
  140.7109  143.3318  151.2552 H   0  0  0  0  0  0  0  0  0  0  0  0  # atno 10167 bound_to 10162
  156.6108  130.4849  149.6202 H   0  0  0  0  0  0  0  0  0  0  0  0  # atno 10718 bound_to 10713
  154.8109  135.3280  154.7308 H   0  0  0  0  0  0  0  0  0  0  0  0  # atno 10763 bound_to 10752
  153.7957  135.6907  153.4868 H   0  0  0  0  0  0  0  0  0  0  0  0  # atno 10764 bound_to 10752
  153.1887  135.4559  155.0068 H   0  0  0  0  0  0  0  0  0  0  0  0  # atno 10765 bound_to 10752
  140.0259  134.6084  155.9574 H   0  0  0  0  0  0  0  0  0  0  0  0  # atno 11005 bound_to 11000
  144.8986  139.4680  143.6643 LP  0  0  0  0  0  0  0  0  0  0  0  0  # atno 17320 bound_to 7965
  146.3104  139.7726  142.9024 LP  0  0  0  0  0  0  0  0  0  0  0  0  # atno 17321 bound_to 7965
  139.6802  143.9867  152.2804 LP  0  0  0  0  0  0  0  0  0  0  0  0  # atno 17342 bound_to 10162
  139.9495  144.6630  150.8186 LP  0  0  0  0  0  0  0  0  0  0  0  0  # atno 17343 bound_to 10162
  156.2391  130.6840  151.1538 LP  0  0  0  0  0  0  0  0  0  0  0  0  # atno 17370 bound_to 10713
  157.7254  131.0653  150.5952 LP  0  0  0  0  0  0  0  0  0  0  0  0  # atno 17371 bound_to 10713
  141.1802  133.6545  156.4989 LP  0  0  0  0  0  0  0  0  0  0  0  0  # atno 17394 bound_to 11000
  140.4308  134.7103  157.4941 LP  0  0  0  0  0  0  0  0  0  0  0  0  # atno 17395 bound_to 11000

$$$$
