AV-unprocessed.smi:3155|AV-procd|sdf|12025|dock6
  -GOLD-   2272017443D 1   1.00000     0.00000
 Structure written by MMmdl.
 38 39  0  0  0  0  0  0  0  0  2 V2000
  147.8411  140.8836  154.1703 C   0  0  0  0  0  0  0  0  0  0  0  0
  148.4970  139.4920  154.1806 C   0  0  2  0  0  0  0  0  0  0  0  0
  150.0376  139.5639  154.3067 C   0  0  0  0  0  0  0  0  0  0  0  0
  150.4818  140.3948  155.4113 N   0  0  0  0  0  0  0  0  0  0  0  0
  151.2259  140.0316  156.5144 C   0  0  0  0  0  0  0  0  0  0  0  0
  151.3866  141.1501  157.2810 C   0  0  0  0  0  0  0  0  0  0  0  0
  150.6877  142.1581  156.5601 C   0  0  0  0  0  0  0  0  0  0  0  0
  150.1438  141.7018  155.4432 N   0  0  0  0  0  0  0  0  0  0  0  0
  148.0916  138.7565  152.9621 N   0  3  0  0  0  0  0  0  0  0  0  0
  146.6341  138.5880  152.7688 C   0  0  0  0  0  0  0  0  0  0  0  0
  146.3086  137.7059  151.5545 C   0  0  0  0  0  0  0  0  0  0  0  0
  146.7381  138.0173  150.4425 O   0  0  0  0  0  0  0  0  0  0  0  0
  145.5511  136.6067  151.7485 N   0  0  0  0  0  0  0  0  0  0  0  0
  145.1909  135.6741  150.6820 C   0  0  0  0  0  0  0  0  0  0  0  0
  144.5799  134.4611  151.3835 C   0  0  0  0  0  0  0  0  0  0  0  0
  144.0401  135.0215  152.6922 C   0  0  0  0  0  0  0  0  0  0  0  0
  144.9884  136.1731  153.0269 C   0  0  0  0  0  0  0  0  0  0  0  0
  148.0275  141.4251  155.0981 H   0  0  0  0  0  0  0  0  0  0  0  0
  146.7590  140.8058  154.0574 H   0  0  0  0  0  0  0  0  0  0  0  0
  148.2184  141.4922  153.3478 H   0  0  0  0  0  0  0  0  0  0  0  0
  148.0974  138.9523  155.0405 H   0  0  0  0  0  0  0  0  0  0  0  0
  150.4650  138.5716  154.4503 H   0  0  0  0  0  0  0  0  0  0  0  0
  150.4707  139.9597  153.3871 H   0  0  0  0  0  0  0  0  0  0  0  0
  151.5779  139.0208  156.6598 H   0  0  0  0  0  0  0  0  0  0  0  0
  151.9196  141.2355  158.2163 H   0  0  0  0  0  0  0  0  0  0  0  0
  150.5594  143.1999  156.8146 H   0  0  0  0  0  0  0  0  0  0  0  0
  148.4364  139.2718  152.1646 H   0  0  0  0  0  0  0  0  0  0  0  0
  146.1999  138.1378  153.6609 H   0  0  0  0  0  0  0  0  0  0  0  0
  146.1727  139.5663  152.6292 H   0  0  0  0  0  0  0  0  0  0  0  0
  144.4577  136.1479  150.0276 H   0  0  0  0  0  0  0  0  0  0  0  0
  146.0520  135.3879  150.0757 H   0  0  0  0  0  0  0  0  0  0  0  0
  143.8135  133.9673  150.7853 H   0  0  0  0  0  0  0  0  0  0  0  0
  145.3610  133.7295  151.5949 H   0  0  0  0  0  0  0  0  0  0  0  0
  143.0335  135.4112  152.5341 H   0  0  0  0  0  0  0  0  0  0  0  0
  143.9879  134.2729  153.4834 H   0  0  0  0  0  0  0  0  0  0  0  0
  145.7949  135.8241  153.6731 H   0  0  0  0  0  0  0  0  0  0  0  0
  144.4606  136.9771  153.5415 H   0  0  0  0  0  0  0  0  0  0  0  0
  148.5306  137.8467  152.9628 H   0  0  0  0  0  0  0  0  0  0  0  0
  1  2  1  0  0  0  0
  1 18  1  0  0  0  0
  1 19  1  0  0  0  0
  1 20  1  0  0  0  0
  2  3  1  0  0  0  0
  2  9  1  0  0  0  0
  2 21  1  0  0  0  0
  3  4  1  0  0  0  0
  3 22  1  0  0  0  0
  3 23  1  0  0  0  0
  4  8  1  0  0  0  0
  4  5  1  0  0  0  0
  5  6  2  0  0  0  0
  5 24  1  0  0  0  0
  6  7  1  0  0  0  0
  6 25  1  0  0  0  0
  7  8  2  0  0  0  0
  7 26  1  0  0  0  0
  9 10  1  0  0  0  0
  9 27  1  0  0  0  0
  9 38  1  0  0  0  0
 10 11  1  0  0  0  0
 10 28  1  0  0  0  0
 10 29  1  0  0  0  0
 11 12  2  0  0  0  0
 11 13  1  0  0  0  0
 13 17  1  0  0  0  0
 13 14  1  0  0  0  0
 14 15  1  0  0  0  0
 14 30  1  0  0  0  0
 14 31  1  0  0  0  0
 15 16  1  0  0  0  0
 15 32  1  0  0  0  0
 15 33  1  0  0  0  0
 16 17  1  0  0  0  0
 16 34  1  0  0  0  0
 16 35  1  0  0  0  0
 17 36  1  0  0  0  0
 17 37  1  0  0  0  0
M  CHG  1   9   1
M  END
> <s_m_source_file>
AV-unprocessed.smi

> <i_m_source_file_index>
3155

> <i_lp_mmshare_version>
43012

> <i_f3d_flags>
0

> <s_epik_input>
bjFbY0hdW2NIXVtjSF1uMVtDSDJdW0NAQEhdKFtDSDNdKVtOSF1bQ0gyXUMoPU8pTjJbQ0gyXVtDSDJdW0NIMl1bQ0gyXTI=

> <s_epik_cmdline>
J2VwaWtfcHl0aG9uJywgJy1waCcsICc3LjAnLCAnLXRuJywgJzgnLCAnLW1hJywgJzIwMCcsICctbWV0YWxfYmluZGluZycsICctaW1hZScsICc8aW5maWxlLm1hZT4nLCAnLW9tYWUnLCAnPG91dGZpbGUubWFlPic=

> <r_lp_tautomer_probability>
1

> <r_epik_Ionization_Penalty>
0.120138

> <r_epik_Ionization_Penalty_Charging>
0.120135

> <r_epik_Ionization_Penalty_Neutral>
3.43791e-06

> <r_epik_State_Penalty>
0.109683

> <r_epik_Charging_Adjusted_Penalty>
0.229818

> <i_epik_Tot_Q>
1

> <i_epik_Tot_abs_Q>
1

> <r_epik_Metal_State_Penalty>
0.109693

> <b_epik_Metal_Only>
0

> <s_lp_Force_Field>
OPLS_2005

> <r_lp_Energy>
27.5308

> <b_lp_Chiralities_Consistent>
1

> <s_lp_Variant>
AV-unprocessed.smi:3155-1

> <Gold.Version>
5.8.1

> <Gold.Id.Protein>
6NUR|6NUR_protein|mol2

> <Gold.PLP.Fitness>
44.4335

> <Gold.PLP.PLP>
-30.7666

> <Gold.PLP.part.hbond>
-3.2756

> <Gold.PLP.part.metal>
0.0000

> <Gold.PLP.part.buried>
1.5494

> <Gold.PLP.part.nonpolar>
-30.9409

> <Gold.PLP.part.repulsive>
1.5828

> <Gold.PLP.ligand.clash>
0.0000

> <Gold.PLP.ligand.torsion>
0.0515

> <Gold.PLP.Chemscore.Hbond>
3.7277

> <Gold.PLP.Chemscore.CHOScore>
0.8544

> <Gold.PLP.Chemscore.Metal>
0.0000

> <Gold.Chemscore.Hbonds>
donor molecule, donor type, donor heavy atom, donor atom, acceptor molecule, acceptor atom, score
      L1  H     9    27       P1  7957  1.00
      L1  H     9    38       P1  7948  1.79
      P1  H  7954  7966       L1    12  0.92
      L1  C     7    26       P1  8028  0.88

> <Gold.PLP.Chemscore.Internal.Correction>
0.0236

> <Gold.Rescore>
     Score         DG    S(hbond)    S(metal)    S(lipo)     H(rot)  DE(clash)    DE(int)     intcor
     14.90     -17.47       2.79        0.00      63.00       1.84       1.07       1.50       ----

> <Gold.Chemscore.Fitness>
14.8995

> <Gold.Chemscore.DG>
-17.4652

> <Gold.Chemscore.ZeroCoef>
-5.4800

> <Gold.Chemscore.Hbond>
2.7893

> <Gold.Chemscore.Metal>
0.0000

> <Gold.Chemscore.Lipo>
62.9955

> <Gold.Chemscore.Internal_Hbond>
0.0000

> <Gold.Chemscore.DEClash>
1.0696

> <Gold.Chemscore.DEInternal>
1.4962

> <Gold.Chemscore.Rot>
1.8366

> <Gold.Chemscore.Internal.Correction>
   9.000000E+99

> <Gold.Chemscore.Hbonds>
donor molecule, donor type, donor heavy atom, donor atom, acceptor molecule, acceptor atom, score
      L1  H     9    27       P1  7957  0.99
      L1  H     9    38       P1  7948  0.86
      P1  H  7954  7966       L1    12  0.84

> <Gold.Chemscore.Hbond.Weighted>
-9.3164

> <Gold.Chemscore.Metal.Weighted>
-0.0000

> <Gold.Chemscore.Lipo.Weighted>
-7.3705

> <Gold.Chemscore.Internal_Hbond.Weighted>
0.0000

> <Gold.Chemscore.DEClash.Weighted>
1.0696

> <Gold.Chemscore.DEInternal.Weighted>
1.4962

> <Gold.Chemscore.Rot.Weighted>
4.7017

> <Gold.Chemscore.Internal.Correction.Weighted>
   9.000000E+99

> <Gold.Protein.RotatedTorsions>
[ 6907 6896 6895 6894 ] final   40.95 input  -60.11 | X-H torsion
[ 7974 7965 7964 7962 ] final   -6.18 input  175.53 | X-H torsion
[ 8008 7997 7996 7995 ] final -120.96 input   59.86 | X-H torsion
[ 10167 10162 10161 10158 ] final   56.08 input  -65.29 | X-H torsion
[ 10718 10713 10712 10709 ] final  -92.44 input   66.30 | X-H torsion
[ 10763 10752 10751 10750 ] final  -10.33 input  -60.55 | X-H torsion
[ 11005 11000 10999 10996 ] final -134.67 input  -57.11 | X-H torsion

> <Gold.Protein.ActiveResidues>
 VAL166  LYS551  ARG553  GLY616  TRP617  ASP618  TYR619  PRO620  LYS621  CYS622 
 ASP623  PHE694  ASN695  SER759  ASP760  ASP761  ALA762  ILE779  LEU786  VAL792 
 PHE793  MET794  SER795  GLU796  ALA797  LYS798  CYS799  TRP800  GLU811  SER814 

> <Gold.Protein.RotatedAtoms>
  152.1891  134.8687  160.0519 H   0  0  0  0  0  0  0  0  0  0  0  0  # atno 6907 bound_to 6896
  151.9583  133.3682  159.4034 H   0  0  0  0  0  0  0  0  0  0  0  0  # atno 6908 bound_to 6896
  150.6932  134.4191  159.5240 H   0  0  0  0  0  0  0  0  0  0  0  0  # atno 6909 bound_to 6896
  146.2336  140.2132  142.8336 H   0  0  0  0  0  0  0  0  0  0  0  0  # atno 7974 bound_to 7965
  155.1403  140.0402  157.2797 H   0  0  0  0  0  0  0  0  0  0  0  0  # atno 8008 bound_to 7997
  154.6478  140.2562  155.7222 H   0  0  0  0  0  0  0  0  0  0  0  0  # atno 8009 bound_to 7997
  156.2563  140.2842  156.0899 H   0  0  0  0  0  0  0  0  0  0  0  0  # atno 8010 bound_to 7997
  140.2125  144.3874  150.6483 H   0  0  0  0  0  0  0  0  0  0  0  0  # atno 10167 bound_to 10162
  156.0002  130.4987  150.5626 H   0  0  0  0  0  0  0  0  0  0  0  0  # atno 10718 bound_to 10713
  153.4676  135.7016  153.6013 H   0  0  0  0  0  0  0  0  0  0  0  0  # atno 10763 bound_to 10752
  153.4280  135.3809  155.2153 H   0  0  0  0  0  0  0  0  0  0  0  0  # atno 10764 bound_to 10752
  154.8726  135.3944  154.4110 H   0  0  0  0  0  0  0  0  0  0  0  0  # atno 10765 bound_to 10752
  140.8969  134.1741  157.4488 H   0  0  0  0  0  0  0  0  0  0  0  0  # atno 11005 bound_to 11000
  144.9690  140.8350  143.5467 LP  0  0  0  0  0  0  0  0  0  0  0  0  # atno 17320 bound_to 7965
  145.2112  139.2204  143.5142 LP  0  0  0  0  0  0  0  0  0  0  0  0  # atno 17321 bound_to 7965
  140.6313  143.2188  151.6489 LP  0  0  0  0  0  0  0  0  0  0  0  0  # atno 17342 bound_to 10162
  139.5174  144.3315  152.0822 LP  0  0  0  0  0  0  0  0  0  0  0  0  # atno 17343 bound_to 10162
  157.3533  131.0737  151.1696 LP  0  0  0  0  0  0  0  0  0  0  0  0  # atno 17370 bound_to 10713
  157.2505  130.6612  149.5929 LP  0  0  0  0  0  0  0  0  0  0  0  0  # atno 17371 bound_to 10713
  139.8737  134.9882  156.5400 LP  0  0  0  0  0  0  0  0  0  0  0  0  # atno 17394 bound_to 11000
  140.8278  133.8302  155.8956 LP  0  0  0  0  0  0  0  0  0  0  0  0  # atno 17395 bound_to 11000

$$$$
