AV-unprocessed.smi:1397|AV-procd|sdf|5679|dock10
  -GOLD-   22720 5303D 1   1.00000     0.00000
 Structure written by MMmdl.
 37 38  0  0  0  0  0  0  0  0  1 V2000
  149.8765  140.9006  156.2004 C   0  0  0  0  0  0  0  0  0  0  0  0
  149.0285  141.2214  154.9675 C   0  0  0  0  0  0  0  0  0  0  0  0
  149.4661  142.0448  154.1638 O   0  0  0  0  0  0  0  0  0  0  0  0
  147.8388  140.5948  154.7997 N   0  0  0  0  0  0  0  0  0  0  0  0
  146.9941  140.7985  153.6165 C   0  0  0  0  0  0  0  0  0  0  0  0
  146.9906  139.5103  152.7738 C   0  0  0  0  0  0  0  0  0  0  0  0
  146.5348  138.2938  153.6113 C   0  0  0  0  0  0  0  0  0  0  0  0
  146.7094  137.0539  152.8604 N   0  0  0  0  0  0  0  0  0  0  0  0
  145.7470  136.1490  152.6272 C   0  0  0  0  0  0  0  0  0  0  0  0
  144.5873  136.2748  153.0217 O   0  0  0  0  0  0  0  0  0  0  0  0
  146.2188  135.1085  151.9177 N   0  0  0  0  0  0  0  0  0  0  0  0
  145.5190  133.9499  151.4857 C   0  0  0  0  0  0  0  0  0  0  0  0
  146.3378  132.8556  151.1257 C   0  0  0  0  0  0  0  0  0  0  0  0
  145.7406  131.6586  150.6848 C   0  0  0  0  0  0  0  0  0  0  0  0
  144.3380  131.5869  150.6147 C   0  0  0  0  0  0  0  0  0  0  0  0
  143.5962  132.7220  150.9908 C   0  0  0  0  0  0  0  0  0  0  0  0
  144.1666  133.8699  151.4138 N   0  0  0  0  0  0  0  0  0  0  0  0
  147.3100  138.2096  154.9431 C   0  0  0  0  0  0  0  0  0  0  0  0
  147.2913  139.5584  155.6845 C   0  0  0  0  0  0  0  0  0  0  0  0
  150.1267  139.8399  156.2332 H   0  0  0  0  0  0  0  0  0  0  0  0
  149.3464  141.1697  157.1143 H   0  0  0  0  0  0  0  0  0  0  0  0
  150.8110  141.4623  156.1811 H   0  0  0  0  0  0  0  0  0  0  0  0
  145.9789  141.0398  153.9348 H   0  0  0  0  0  0  0  0  0  0  0  0
  147.3199  141.6397  153.0032 H   0  0  0  0  0  0  0  0  0  0  0  0
  146.3399  139.6372  151.9077 H   0  0  0  0  0  0  0  0  0  0  0  0
  147.9947  139.3363  152.3836 H   0  0  0  0  0  0  0  0  0  0  0  0
  145.4775  138.4192  153.8535 H   0  0  0  0  0  0  0  0  0  0  0  0
  147.6330  136.8704  152.4965 H   0  0  0  0  0  0  0  0  0  0  0  0
  147.1942  135.1458  151.6621 H   0  0  0  0  0  0  0  0  0  0  0  0
  147.4143  132.9275  151.1857 H   0  0  0  0  0  0  0  0  0  0  0  0
  146.3489  130.8109  150.4055 H   0  0  0  0  0  0  0  0  0  0  0  0
  143.8438  130.6865  150.2812 H   0  0  0  0  0  0  0  0  0  0  0  0
  142.5171  132.7092  150.9498 H   0  0  0  0  0  0  0  0  0  0  0  0
  146.8818  137.4314  155.5761 H   0  0  0  0  0  0  0  0  0  0  0  0
  148.3451  137.9204  154.7536 H   0  0  0  0  0  0  0  0  0  0  0  0
  147.8206  139.4661  156.6315 H   0  0  0  0  0  0  0  0  0  0  0  0
  146.2665  139.8222  155.9499 H   0  0  0  0  0  0  0  0  0  0  0  0
  1  2  1  0  0  0  0
  1 20  1  0  0  0  0
  1 21  1  0  0  0  0
  1 22  1  0  0  0  0
  2  3  2  0  0  0  0
  2  4  1  0  0  0  0
  4 19  1  0  0  0  0
  4  5  1  0  0  0  0
  5  6  1  0  0  0  0
  5 23  1  0  0  0  0
  5 24  1  0  0  0  0
  6  7  1  0  0  0  0
  6 25  1  0  0  0  0
  6 26  1  0  0  0  0
  7  8  1  0  0  0  0
  7 18  1  0  0  0  0
  7 27  1  0  0  0  0
  8  9  1  0  0  0  0
  8 28  1  0  0  0  0
  9 10  2  0  0  0  0
  9 11  1  0  0  0  0
 11 12  1  0  0  0  0
 11 29  1  0  0  0  0
 12 17  1  0  0  0  0
 12 13  2  0  0  0  0
 13 14  1  0  0  0  0
 13 30  1  0  0  0  0
 14 15  2  0  0  0  0
 14 31  1  0  0  0  0
 15 16  1  0  0  0  0
 15 32  1  0  0  0  0
 16 17  2  0  0  0  0
 16 33  1  0  0  0  0
 18 19  1  0  0  0  0
 18 34  1  0  0  0  0
 18 35  1  0  0  0  0
 19 36  1  0  0  0  0
 19 37  1  0  0  0  0
M  END
> <s_m_source_file>
AV-unprocessed.smi

> <i_m_source_file_index>
1397

> <i_lp_mmshare_version>
43012

> <i_f3d_flags>
0

> <s_epik_input>
W0NIM11DKD1PKU4xW0NIMl1bQ0gyXVtDSF0oW0NIMl1bQ0gyXTEpW05IXUMoPU8pW05IXWMyW2NIXVtjSF1bY0hdW2NIXW4y

> <s_epik_cmdline>
J2VwaWtfcHl0aG9uJywgJy1waCcsICc3LjAnLCAnLXRuJywgJzgnLCAnLW1hJywgJzIwMCcsICctbWV0YWxfYmluZGluZycsICctaW1hZScsICc8aW5maWxlLm1hZT4nLCAnLW9tYWUnLCAnPG91dGZpbGUubWFlPic=

> <r_lp_tautomer_probability>
1

> <r_epik_Ionization_Penalty>
4.8787e-05

> <r_epik_Ionization_Penalty_Charging>
0

> <r_epik_Ionization_Penalty_Neutral>
4.8787e-05

> <r_epik_State_Penalty>
-0

> <r_epik_Charging_Adjusted_Penalty>
0

> <i_epik_Tot_Q>
0

> <i_epik_Tot_abs_Q>
0

> <r_epik_Metal_State_Penalty>
-0

> <b_epik_Metal_Only>
0

> <s_lp_Force_Field>
OPLS_2005

> <r_lp_Energy>
25.5882

> <b_lp_Chiralities_Consistent>
1

> <s_lp_Variant>
AV-unprocessed.smi:1397-1

> <Gold.Version>
5.8.1

> <Gold.Id.Protein>
6NUR|6NUR_protein|mol2

> <Gold.PLP.Fitness>
36.8737

> <Gold.PLP.PLP>
-27.2356

> <Gold.PLP.part.hbond>
-4.0000

> <Gold.PLP.part.metal>
0.0000

> <Gold.PLP.part.buried>
-1.5973

> <Gold.PLP.part.nonpolar>
-23.0285

> <Gold.PLP.part.repulsive>
0.7137

> <Gold.PLP.ligand.clash>
0.0000

> <Gold.PLP.ligand.torsion>
0.1315

> <Gold.PLP.Chemscore.Hbond>
2.2960

> <Gold.PLP.Chemscore.CHOScore>
1.0000

> <Gold.PLP.Chemscore.Metal>
0.0000

> <Gold.Chemscore.Hbonds>
donor molecule, donor type, donor heavy atom, donor atom, acceptor molecule, acceptor atom, score
      L1  H     8    28       P1  7948  1.00
      L1  H    11    29       P1  7948  0.92
      P1  H  8011  8017       L1     3  0.35
      L1  C    16    33       P1 10186  0.60

> <Gold.PLP.Chemscore.Internal.Correction>
0.0131

> <Gold.Rescore>
     Score         DG    S(hbond)    S(metal)    S(lipo)     H(rot)  DE(clash)    DE(int)     intcor
     14.51     -16.19       1.91        0.00      58.81       1.00       0.33       1.36       ----

> <Gold.Chemscore.Fitness>
14.5110

> <Gold.Chemscore.DG>
-16.1926

> <Gold.Chemscore.ZeroCoef>
-5.4800

> <Gold.Chemscore.Hbond>
1.9136

> <Gold.Chemscore.Metal>
0.0000

> <Gold.Chemscore.Lipo>
58.8135

> <Gold.Chemscore.Internal_Hbond>
0.0000

> <Gold.Chemscore.DEClash>
0.3251

> <Gold.Chemscore.DEInternal>
1.3565

> <Gold.Chemscore.Rot>
1.0000

> <Gold.Chemscore.Internal.Correction>
   9.000000E+99

> <Gold.Chemscore.Hbonds>
donor molecule, donor type, donor heavy atom, donor atom, acceptor molecule, acceptor atom, score
      L1  H     8    28       P1  7948  0.98
      L1  H    11    29       P1  7948  0.77
      P1  H  8011  8017       L1     3  0.34

> <Gold.Chemscore.Hbond.Weighted>
-6.3914

> <Gold.Chemscore.Metal.Weighted>
-0.0000

> <Gold.Chemscore.Lipo.Weighted>
-6.8812

> <Gold.Chemscore.Internal_Hbond.Weighted>
0.0000

> <Gold.Chemscore.DEClash.Weighted>
0.3251

> <Gold.Chemscore.DEInternal.Weighted>
1.3565

> <Gold.Chemscore.Rot.Weighted>
2.5600

> <Gold.Chemscore.Internal.Correction.Weighted>
   9.000000E+99

> <Gold.Protein.RotatedTorsions>
[ 6907 6896 6895 6894 ] final  142.66 input  -60.11 | X-H torsion
[ 7974 7965 7964 7962 ] final  -80.87 input  175.53 | X-H torsion
[ 8008 7997 7996 7995 ] final -153.93 input   59.86 | X-H torsion
[ 10167 10162 10161 10158 ] final  -78.55 input  -65.29 | X-H torsion
[ 10718 10713 10712 10709 ] final  177.47 input   66.30 | X-H torsion
[ 10763 10752 10751 10750 ] final   -7.12 input  -60.55 | X-H torsion
[ 11005 11000 10999 10996 ] final  -51.67 input  -57.11 | X-H torsion

> <Gold.Protein.ActiveResidues>
 VAL166  LYS551  ARG553  GLY616  TRP617  ASP618  TYR619  PRO620  LYS621  CYS622 
 ASP623  PHE694  ASN695  SER759  ASP760  ASP761  ALA762  ILE779  LEU786  VAL792 
 PHE793  MET794  SER795  GLU796  ALA797  LYS798  CYS799  TRP800  GLU811  SER814 

> <Gold.Protein.RotatedAtoms>
  152.2159  133.4946  159.5135 H   0  0  0  0  0  0  0  0  0  0  0  0  # atno 6907 bound_to 6896
  150.7001  134.1406  159.4112 H   0  0  0  0  0  0  0  0  0  0  0  0  # atno 6908 bound_to 6896
  151.9326  135.0249  160.0581 H   0  0  0  0  0  0  0  0  0  0  0  0  # atno 6909 bound_to 6896
  145.5542  140.9492  143.1482 H   0  0  0  0  0  0  0  0  0  0  0  0  # atno 7974 bound_to 7965
  155.6784  140.0741  157.2494 H   0  0  0  0  0  0  0  0  0  0  0  0  # atno 8008 bound_to 7997
  154.4110  140.1686  156.2007 H   0  0  0  0  0  0  0  0  0  0  0  0  # atno 8009 bound_to 7997
  155.9556  140.3374  155.6448 H   0  0  0  0  0  0  0  0  0  0  0  0  # atno 8010 bound_to 7997
  140.4673  143.2436  151.8259 H   0  0  0  0  0  0  0  0  0  0  0  0  # atno 10167 bound_to 10162
  156.9048  130.9890  151.3030 H   0  0  0  0  0  0  0  0  0  0  0  0  # atno 10718 bound_to 10713
  153.4219  135.7010  153.6288 H   0  0  0  0  0  0  0  0  0  0  0  0  # atno 10763 bound_to 10752
  153.4739  135.3708  155.2406 H   0  0  0  0  0  0  0  0  0  0  0  0  # atno 10764 bound_to 10752
  154.8722  135.4049  154.3589 H   0  0  0  0  0  0  0  0  0  0  0  0  # atno 10765 bound_to 10752
  141.0884  133.6638  156.3912 H   0  0  0  0  0  0  0  0  0  0  0  0  # atno 11005 bound_to 11000
  144.7514  139.7184  143.7271 LP  0  0  0  0  0  0  0  0  0  0  0  0  # atno 17320 bound_to 7965
  146.1896  139.5129  142.9814 LP  0  0  0  0  0  0  0  0  0  0  0  0  # atno 17321 bound_to 7965
  139.4813  144.4935  151.9153 LP  0  0  0  0  0  0  0  0  0  0  0  0  # atno 17342 bound_to 10162
  140.4021  144.2480  150.5892 LP  0  0  0  0  0  0  0  0  0  0  0  0  # atno 17343 bound_to 10162
  157.6004  130.8508  149.8793 LP  0  0  0  0  0  0  0  0  0  0  0  0  # atno 17370 bound_to 10713
  156.0564  130.3707  150.1081 LP  0  0  0  0  0  0  0  0  0  0  0  0  # atno 17371 bound_to 10713
  140.5310  134.6212  157.5350 LP  0  0  0  0  0  0  0  0  0  0  0  0  # atno 17394 bound_to 11000
  139.9705  134.7300  156.0051 LP  0  0  0  0  0  0  0  0  0  0  0  0  # atno 17395 bound_to 11000

$$$$
