#       Name:                AV-unprocessed.smi:2124
#       Creating user name   scv26
#       Creation time:       Fri Mar 27 11:39:52 2020


#       File generated by GOLD software.
#

@<TRIPOS>MOLECULE
AV-unprocessed.smi:2124
    52    54     1
SMALL
NO_CHARGES


@<TRIPOS>ATOM
      1 ****        -4.1794   4.9298  -1.3569 C.3            1 S1                 0.0000
      2 ****        -3.6747   3.5084  -1.2257 C.2            1 S1                 0.0000
      3 ****        -3.1797   3.0173  -0.1377 N.2            1 S1                 0.0000
      4 ****        -2.7464   1.6842  -0.1360 C.2            1 S1                 0.0000
      5 ****        -2.1805   1.1818   1.1810 C.3            1 S1                 0.0000
      6 ****        -2.8351   0.9008  -1.2510 C.2            1 S1                 0.0000
      7 ****        -2.3747  -0.5556  -1.2794 C.3            1 S1                 0.0000
      8 ****        -0.8712  -0.7643  -1.4712 C.2            1 S1                 0.0000
      9 ****        -0.3005  -0.2695  -2.4427 O.2            1 S1                 0.0000
     10 ****        -0.2448  -1.4932  -0.5344 N.am           1 S1                 0.0000
     11 ****         1.1830  -1.8030  -0.5043 C.3            1 S1                 0.0000
     12 ****         1.4353  -3.1199  -1.2572 C.3            1 S1                 0.0000
     13 ****         1.6594  -1.8598   0.9665 C.3            1 S1                 0.0000
     14 ****         1.4947  -0.5375   1.7511 C.3            1 S1                 0.0000
     15 ****         2.8739  -0.3495   2.4098 C.3            1 S1                 0.0000
     16 ****         3.8850   0.0934   1.3368 C.3            1 S1                 0.0000
     17 ****         4.0952  -1.1946   0.5203 C.3            1 S1                 0.0000
     18 ****         3.1509  -2.1990   1.2132 C.3            1 S1                 0.0000
     19 ****         3.3059  -1.7872   2.6741 C.3            1 S1                 0.0000
     20 ****        -3.3999   1.4733  -2.4889 C.2            1 S1                 0.0000
     21 ****        -3.5209   0.8615  -3.5491 O.2            1 S1                 0.0000
     22 ****        -3.7931   2.7635  -2.3977 N.am           1 S1                 0.0000
     23 ****        -4.1862   3.2006  -3.2184 H              1 S1                 0.0000
     24 ****        -3.3711   5.6346  -1.1613 H              1 S1                 0.0000
     25 ****        -4.9760   5.1128  -0.6353 H              1 S1                 0.0000
     26 ****        -4.5718   5.1280  -2.3555 H              1 S1                 0.0000
     27 ****        -2.7771   0.3550   1.5663 H              1 S1                 0.0000
     28 ****        -2.1747   1.9692   1.9357 H              1 S1                 0.0000
     29 ****        -1.1543   0.8403   1.0517 H              1 S1                 0.0000
     30 ****        -2.6911  -1.0376  -0.3537 H              1 S1                 0.0000
     31 ****        -2.8941  -1.1064  -2.0643 H              1 S1                 0.0000
     32 ****        -0.8007  -1.8569   0.2260 H              1 S1                 0.0000
     33 ****         1.7199  -1.0037  -1.0160 H              1 S1                 0.0000
     34 ****         2.4982  -3.3576  -1.2971 H              1 S1                 0.0000
     35 ****         1.0802  -3.0589  -2.2865 H              1 S1                 0.0000
     36 ****         0.9246  -3.9556  -0.7779 H              1 S1                 0.0000
     37 ****         1.0678  -2.6249   1.4733 H              1 S1                 0.0000
     38 ****         1.2399   0.3085   1.1114 H              1 S1                 0.0000
     39 ****         0.7087  -0.6326   2.5012 H              1 S1                 0.0000
     40 ****         2.8557   0.2976   3.2872 H              1 S1                 0.0000
     41 ****         3.5092   0.9162   0.7276 H              1 S1                 0.0000
     42 ****         4.8222   0.4152   1.7926 H              1 S1                 0.0000
     43 ****         3.8881  -1.0625  -0.5406 H              1 S1                 0.0000
     44 ****         5.1301  -1.5280   0.6062 H              1 S1                 0.0000
     45 ****         3.4009  -3.2414   1.0131 H              1 S1                 0.0000
     46 ****         4.3299  -1.8705   3.0428 H              1 S1                 0.0000
     47 ****         2.6379  -2.3222   3.3516 H              1 S1                 0.0000
     48 ****        -3.1071   3.5777   0.6873 LP             1 S1                 0.0000
     49 ****        -0.8194   0.2689  -3.1067 LP             1 S1                 0.0000
     50 ****         0.6822  -0.4058  -2.5682 LP             1 S1                 0.0000
     51 ****        -3.2263  -0.0920  -3.6126 LP             1 S1                 0.0000
     52 ****        -3.9138   1.3176  -4.3476 LP             1 S1                 0.0000
@<TRIPOS>BOND
    1    1    2 1     
    2    1   24 1     
    3    1   25 1     
    4    1   26 1     
    5    2   22 1     
    6    2    3 2     
    7    3    4 1     
    8    4    5 1     
    9    4    6 2     
   10    5   27 1     
   11    5   28 1     
   12    5   29 1     
   13    6    7 1     
   14    6   20 1     
   15    7    8 1     
   16    7   30 1     
   17    7   31 1     
   18    8    9 2     
   19    8   10 am    
   20   10   11 1     
   21   10   32 1     
   22   11   12 1     
   23   11   13 1     
   24   11   33 1     
   25   12   34 1     
   26   12   35 1     
   27   12   36 1     
   28   13   18 1     
   29   13   14 1     
   30   13   37 1     
   31   14   15 1     
   32   14   38 1     
   33   14   39 1     
   34   15   19 1     
   35   15   16 1     
   36   15   40 1     
   37   16   17 1     
   38   16   41 1     
   39   16   42 1     
   40   17   18 1     
   41   17   43 1     
   42   17   44 1     
   43   18   19 1     
   44   18   45 1     
   45   19   46 1     
   46   19   47 1     
   47   20   21 2     
   48   20   22 am    
   49   22   23 1     
   50    3   48 1     
   51    9   49 1     
   52    9   50 1     
   53   21   51 1     
   54   21   52 1     
@<TRIPOS>SUBSTRUCTURE
      1 S1             1
@<TRIPOS>SET
LONE_PAIRS      STATIC     ATOMS    <user>   **** ""
5 48 49 50 51 52
DONOR_HYDROGENS      STATIC     ATOMS    <user>   **** ""
2 32 23
ATOM$BLUE        STATIC     ATOMS    COLORGROUP SYSTEM
5 48 49 50 51 52
ATOM$RED        STATIC     ATOMS    COLORGROUP SYSTEM
2 32 23
