AV-unprocessed.smi:2100|AV-procd|sdf|8577|dock3
  -GOLD-   2272011303D 1   1.00000     0.00000
 Structure written by MMmdl.
 40 41  0  0  0  0  0  0  0  0  2 V2000
  151.2836  138.3695  153.8637 C   0  0  0  0  0  0  0  0  0  0  0  0
  151.2754  138.9939  155.2634 C   0  0  1  0  0  0  0  0  0  0  0  0
  152.4516  138.4978  156.1241 C   0  0  0  0  0  0  0  0  0  0  0  0
  152.5079  139.2157  157.4087 N   0  0  0  0  0  0  0  0  0  0  0  0
  153.5076  138.5655  158.6708 S   0  0  0  0  0  0  0  0  0  0  0  0
  152.9732  137.2279  158.9749 O   0  0  0  0  0  0  0  0  0  0  0  0
  154.8951  138.6579  158.1874 O   0  0  0  0  0  0  0  0  0  0  0  0
  153.1454  139.6726  159.7983 N   0  5  0  0  0  0  0  0  0  0  0  0
  154.2015  140.1741  160.6599 C   0  0  0  0  0  0  0  0  0  0  0  0
  153.6488  141.3001  161.5601 C   0  0  0  0  0  0  0  0  0  0  0  0
  153.1170  142.5097  160.7977 C   0  0  0  0  0  0  0  0  0  0  0  0
  152.5285  143.5930  161.4898 C   0  0  0  0  0  0  0  0  0  0  0  0
  152.0374  144.6829  160.7458 C   0  0  0  0  0  0  0  0  0  0  0  0
  152.1464  144.6511  159.3427 C   0  0  0  0  0  0  0  0  0  0  0  0
  152.7440  143.5249  158.7431 C   0  0  0  0  0  0  0  0  0  0  0  0
  153.2178  142.4743  159.4461 N   0  0  0  0  0  0  0  0  0  0  0  0
  152.4117  140.6794  157.2781 C   0  0  0  0  0  0  0  0  0  0  0  0
  151.2359  141.0769  156.3672 C   0  0  1  0  0  0  0  0  0  0  0  0
  151.2006  142.5854  156.0979 C   0  0  0  0  0  0  0  0  0  0  0  0
  151.3500  140.4060  155.1196 O   0  0  0  0  0  0  0  0  0  0  0  0
  151.2153  137.2829  153.9187 H   0  0  0  0  0  0  0  0  0  0  0  0
  152.1974  138.6209  153.3247 H   0  0  0  0  0  0  0  0  0  0  0  0
  150.4395  138.7261  153.2730 H   0  0  0  0  0  0  0  0  0  0  0  0
  150.3335  138.7332  155.7498 H   0  0  0  0  0  0  0  0  0  0  0  0
  152.3526  137.4273  156.3035 H   0  0  0  0  0  0  0  0  0  0  0  0
  153.3947  138.6474  155.5970 H   0  0  0  0  0  0  0  0  0  0  0  0
  154.6083  139.3834  161.2913 H   0  0  0  0  0  0  0  0  0  0  0  0
  155.0418  140.5582  160.0808 H   0  0  0  0  0  0  0  0  0  0  0  0
  152.8485  140.9085  162.1901 H   0  0  0  0  0  0  0  0  0  0  0  0
  154.4286  141.6404  162.2430 H   0  0  0  0  0  0  0  0  0  0  0  0
  152.4590  143.5890  162.5677 H   0  0  0  0  0  0  0  0  0  0  0  0
  151.5843  145.5278  161.2429 H   0  0  0  0  0  0  0  0  0  0  0  0
  151.7800  145.4692  158.7404 H   0  0  0  0  0  0  0  0  0  0  0  0
  152.8421  143.4658  157.6692 H   0  0  0  0  0  0  0  0  0  0  0  0
  152.2851  141.1300  158.2624 H   0  0  0  0  0  0  0  0  0  0  0  0
  153.3502  141.0578  156.8713 H   0  0  0  0  0  0  0  0  0  0  0  0
  150.2953  140.7917  156.8421 H   0  0  0  0  0  0  0  0  0  0  0  0
  151.1009  143.1473  157.0268 H   0  0  0  0  0  0  0  0  0  0  0  0
  150.3571  142.8473  155.4588 H   0  0  0  0  0  0  0  0  0  0  0  0
  152.1118  142.9190  155.6005 H   0  0  0  0  0  0  0  0  0  0  0  0
  1  2  1  0  0  0  0
  1 21  1  0  0  0  0
  1 22  1  0  0  0  0
  1 23  1  0  0  0  0
  2 20  1  0  0  0  0
  2  3  1  0  0  0  0
  2 24  1  0  0  0  0
  3  4  1  0  0  0  0
  3 25  1  0  0  0  0
  3 26  1  0  0  0  0
  4  5  1  0  0  0  0
  4 17  1  0  0  0  0
  5  6  2  0  0  0  0
  5  7  2  0  0  0  0
  5  8  1  0  0  0  0
  8  9  1  0  0  0  0
  9 10  1  0  0  0  0
  9 27  1  0  0  0  0
  9 28  1  0  0  0  0
 10 11  1  0  0  0  0
 10 29  1  0  0  0  0
 10 30  1  0  0  0  0
 11 16  1  0  0  0  0
 11 12  2  0  0  0  0
 12 13  1  0  0  0  0
 12 31  1  0  0  0  0
 13 14  2  0  0  0  0
 13 32  1  0  0  0  0
 14 15  1  0  0  0  0
 14 33  1  0  0  0  0
 15 16  2  0  0  0  0
 15 34  1  0  0  0  0
 17 18  1  0  0  0  0
 17 35  1  0  0  0  0
 17 36  1  0  0  0  0
 18 19  1  0  0  0  0
 18 20  1  0  0  0  0
 18 37  1  0  0  0  0
 19 38  1  0  0  0  0
 19 39  1  0  0  0  0
 19 40  1  0  0  0  0
M  CHG  1   8  -1
M  END
> <s_m_source_file>
AV-unprocessed.smi

> <i_m_source_file_index>
2100

> <i_lp_mmshare_version>
43012

> <i_f3d_flags>
0

> <s_epik_input>
W0NIM11bQ0BASF0xW0NIMl1OKFtDSDJdW0NASF0oTzEpW0NIM10pUyg9TykoPU8pW05IXVtDSDJdW0NIMl1jMltjSF1bY0hdW2NIXVtjSF1uMg==

> <s_epik_cmdline>
J2VwaWtfcHl0aG9uJywgJy1waCcsICc3LjAnLCAnLXRuJywgJzgnLCAnLW1hJywgJzIwMCcsICctbWV0YWxfYmluZGluZycsICctaW1hZScsICc8aW5maWxlLm1hZT4nLCAnLW9tYWUnLCAnPG91dGZpbGUubWFlPic=

> <r_epik_Ionization_Penalty>
1.27779

> <r_epik_Ionization_Penalty_Charging>
1.20871

> <r_epik_Ionization_Penalty_Neutral>
0.0690773

> <r_epik_State_Penalty>
1.64557

> <r_epik_Charging_Adjusted_Penalty>
2.85428

> <i_epik_Tot_Q>
-1

> <i_epik_Tot_abs_Q>
1

> <r_epik_Metal_State_Penalty>
0.643506

> <b_epik_Metal_Only>
0

> <s_lp_Force_Field>
OPLS_2005

> <r_lp_Energy>
4.91885

> <b_lp_Chiralities_Consistent>
1

> <s_lp_Variant>
AV-unprocessed.smi:2100-5

> <Gold.Version>
5.8.1

> <Gold.Id.Protein>
6NUR|6NUR_protein|mol2

> <Gold.PLP.Fitness>
48.8249

> <Gold.PLP.PLP>
-43.2557

> <Gold.PLP.part.hbond>
-2.0000

> <Gold.PLP.part.metal>
0.0000

> <Gold.PLP.part.buried>
-5.3784

> <Gold.PLP.part.nonpolar>
-35.2387

> <Gold.PLP.part.repulsive>
0.0316

> <Gold.PLP.ligand.clash>
0.0000

> <Gold.PLP.ligand.torsion>
1.7644

> <Gold.PLP.Chemscore.Hbond>
2.0000

> <Gold.PLP.Chemscore.CHOScore>
0.0000

> <Gold.PLP.Chemscore.Metal>
0.0000

> <Gold.Chemscore.Hbonds>
donor molecule, donor type, donor heavy atom, donor atom, acceptor molecule, acceptor atom, score
      P1  H  7989  7998       L1    20  0.98
      P1  H  7997  8010       L1     7  1.00

> <Gold.PLP.Chemscore.Internal.Correction>
3.0981

> <Gold.Rescore>
     Score         DG    S(hbond)    S(metal)    S(lipo)     H(rot)  DE(clash)    DE(int)     intcor
     22.45     -24.46       2.47        0.00     120.35       1.30       0.06       1.94       ----

> <Gold.Chemscore.Fitness>
22.4530

> <Gold.Chemscore.DG>
-24.4591

> <Gold.Chemscore.ZeroCoef>
-5.4800

> <Gold.Chemscore.Hbond>
2.4658

> <Gold.Chemscore.Metal>
0.0000

> <Gold.Chemscore.Lipo>
120.3516

> <Gold.Chemscore.Internal_Hbond>
0.0000

> <Gold.Chemscore.DEClash>
0.0616

> <Gold.Chemscore.DEInternal>
1.9445

> <Gold.Chemscore.Rot>
1.3039

> <Gold.Chemscore.Internal.Correction>
   9.000000E+99

> <Gold.Chemscore.Hbonds>
donor molecule, donor type, donor heavy atom, donor atom, acceptor molecule, acceptor atom, score
      P1  H  7989  7998       L1    20  0.80
      P1  H  7997  8010       L1     7  0.67

> <Gold.Chemscore.Hbond.Weighted>
-8.2359

> <Gold.Chemscore.Metal.Weighted>
-0.0000

> <Gold.Chemscore.Lipo.Weighted>
-14.0811

> <Gold.Chemscore.Internal_Hbond.Weighted>
0.0000

> <Gold.Chemscore.DEClash.Weighted>
0.0616

> <Gold.Chemscore.DEInternal.Weighted>
1.9445

> <Gold.Chemscore.Rot.Weighted>
3.3379

> <Gold.Chemscore.Internal.Correction.Weighted>
   9.000000E+99

> <Gold.Protein.RotatedTorsions>
[ 6907 6896 6895 6894 ] final   13.64 input  -60.11 | X-H torsion
[ 7974 7965 7964 7962 ] final   37.55 input  175.53 | X-H torsion
[ 8008 7997 7996 7995 ] final    4.03 input   59.86 | X-H torsion
[ 10167 10162 10161 10158 ] final -173.71 input  -65.29 | X-H torsion
[ 10718 10713 10712 10709 ] final -144.77 input   66.30 | X-H torsion
[ 10763 10752 10751 10750 ] final  120.34 input  -60.55 | X-H torsion
[ 11005 11000 10999 10996 ] final   14.18 input  -57.11 | X-H torsion

> <Gold.Protein.ActiveResidues>
 VAL166  LYS551  ARG553  GLY616  TRP617  ASP618  TYR619  PRO620  LYS621  CYS622 
 ASP623  PHE694  ASN695  SER759  ASP760  ASP761  ALA762  ILE779  LEU786  VAL792 
 PHE793  MET794  SER795  GLU796  ALA797  LYS798  CYS799  TRP800  GLU811  SER814 

> <Gold.Protein.RotatedAtoms>
  151.7895  135.0740  160.0384 H   0  0  0  0  0  0  0  0  0  0  0  0  # atno 6907 bound_to 6896
  152.3167  133.5805  159.5725 H   0  0  0  0  0  0  0  0  0  0  0  0  # atno 6908 bound_to 6896
  150.7348  133.9988  159.3673 H   0  0  0  0  0  0  0  0  0  0  0  0  # atno 6909 bound_to 6896
  146.1129  139.5880  142.9340 H   0  0  0  0  0  0  0  0  0  0  0  0  # atno 7974 bound_to 7965
  154.7109  140.2692  155.6630 H   0  0  0  0  0  0  0  0  0  0  0  0  # atno 8008 bound_to 7997
  156.2795  140.2753  156.1674 H   0  0  0  0  0  0  0  0  0  0  0  0  # atno 8009 bound_to 7997
  155.0636  140.0371  157.2575 H   0  0  0  0  0  0  0  0  0  0  0  0  # atno 8010 bound_to 7997
  139.5673  144.1724  152.1332 H   0  0  0  0  0  0  0  0  0  0  0  0  # atno 10167 bound_to 10162
  156.3742  130.7804  151.1988 H   0  0  0  0  0  0  0  0  0  0  0  0  # atno 10718 bound_to 10713
  153.5970  135.3455  155.2931 H   0  0  0  0  0  0  0  0  0  0  0  0  # atno 10763 bound_to 10752
  154.8643  135.4218  154.2454 H   0  0  0  0  0  0  0  0  0  0  0  0  # atno 10764 bound_to 10752
  153.3274  135.7042  153.7048 H   0  0  0  0  0  0  0  0  0  0  0  0  # atno 10765 bound_to 10752
  140.4724  134.1017  155.7735 H   0  0  0  0  0  0  0  0  0  0  0  0  # atno 11005 bound_to 11000
  145.5627  141.0403  143.2217 LP  0  0  0  0  0  0  0  0  0  0  0  0  # atno 17320 bound_to 7965
  144.7527  139.7152  143.7266 LP  0  0  0  0  0  0  0  0  0  0  0  0  # atno 17321 bound_to 7965
  140.1250  144.5339  150.6838 LP  0  0  0  0  0  0  0  0  0  0  0  0  # atno 17342 bound_to 10162
  140.6957  143.2402  151.5007 LP  0  0  0  0  0  0  0  0  0  0  0  0  # atno 17343 bound_to 10162
  157.7487  131.0363  150.4403 LP  0  0  0  0  0  0  0  0  0  0  0  0  # atno 17370 bound_to 10713
  156.4636  130.4037  149.6561 LP  0  0  0  0  0  0  0  0  0  0  0  0  # atno 17371 bound_to 10713
  141.1570  133.8863  157.1950 LP  0  0  0  0  0  0  0  0  0  0  0  0  # atno 17394 bound_to 11000
  139.9877  135.0076  156.9900 LP  0  0  0  0  0  0  0  0  0  0  0  0  # atno 17395 bound_to 11000

$$$$
