#       Name:                AV-unprocessed.smi:1047
#       Creating user name   scv26
#       Creation time:       Fri Mar 27 03:03:50 2020


#       File generated by GOLD software.
#

@<TRIPOS>MOLECULE
AV-unprocessed.smi:1047
    62    64     1
SMALL
NO_CHARGES


@<TRIPOS>ATOM
      1 ****        -1.9470   6.8865   2.3677 C.3            1 S1                 0.0000
      2 ****        -1.0410   5.6485   2.3104 C.3            1 S1                 0.0000
      3 ****        -1.4973   4.6555   1.3061 N.4            1 S1                 1.0000
      4 ****        -1.2480   5.0718  -0.0961 C.3            1 S1                 0.0000
      5 ****        -1.7923   4.0177  -1.0747 C.3            1 S1                 0.0000
      6 ****        -1.1987   2.7539  -0.8043 O.3            1 S1                 0.0000
      7 ****        -1.4769   2.2984   0.5160 C.3            1 S1                 0.0000
      8 ****        -0.9202   0.8744   0.6831 C.3            1 S1                 0.0000
      9 ****         0.5345   0.8350   0.5574 N.3            1 S1                 0.0000
     10 ****         1.0882  -0.5091   0.6902 C.3            1 S1                 0.0000
     11 ****         2.6146  -0.5084   0.4774 C.3            1 S1                 0.0000
     12 ****         3.2284  -0.0380   1.6591 O.3            1 S1                 0.0000
     13 ****         3.1977  -1.9045   0.1829 C.3            1 S1                 0.0000
     14 ****         2.6601  -2.4898  -1.0321 N.pl3          1 S1                 0.0000
     15 ****         3.0033  -2.1823  -2.2975 C.2            1 S1                 0.0000
     16 ****         2.3814  -2.8371  -3.2734 N.2            1 S1                 0.0000
     17 ****         1.5397  -3.6710  -2.5577 C.ar           1 S1                 0.0000
     18 ****         0.6022  -4.6284  -3.0031 C.ar           1 S1                 0.0000
     19 ****        -0.1634  -5.3769  -2.0808 C.ar           1 S1                 0.0000
     20 ****        -1.1600  -6.3959  -2.6041 C.3            1 S1                 0.0000
     21 ****         0.0035  -5.1725  -0.6875 C.ar           1 S1                 0.0000
     22 ****        -0.8066  -5.9661   0.3224 C.3            1 S1                 0.0000
     23 ****         0.9347  -4.2189  -0.2256 C.ar           1 S1                 0.0000
     24 ****         1.6912  -3.4806  -1.1530 C.ar           1 S1                 0.0000
     25 ****        -0.9330   3.3068   1.5500 C.3            1 S1                 0.0000
     26 ****        -1.6379   7.5500   3.1756 H              1 S1                 0.0000
     27 ****        -2.9850   6.6073   2.5503 H              1 S1                 0.0000
     28 ****        -1.9096   7.4645   1.4450 H              1 S1                 0.0000
     29 ****        -0.0078   5.9362   2.1112 H              1 S1                 0.0000
     30 ****        -1.0482   5.1847   3.2976 H              1 S1                 0.0000
     31 ****        -1.7252   6.0293  -0.3010 H              1 S1                 0.0000
     32 ****        -0.1767   5.2076  -0.2536 H              1 S1                 0.0000
     33 ****        -2.8787   3.9456  -1.0038 H              1 S1                 0.0000
     34 ****        -1.5595   4.3032  -2.1007 H              1 S1                 0.0000
     35 ****        -2.5608   2.2351   0.6299 H              1 S1                 0.0000
     36 ****        -1.2171   0.4820   1.6565 H              1 S1                 0.0000
     37 ****        -1.3753   0.2229  -0.0639 H              1 S1                 0.0000
     38 ****         0.8086   1.2280  -0.3377 H              1 S1                 0.0000
     39 ****         0.8368  -0.9404   1.6602 H              1 S1                 0.0000
     40 ****         0.6172  -1.1464  -0.0577 H              1 S1                 0.0000
     41 ****         2.8778   0.1624  -0.3418 H              1 S1                 0.0000
     42 ****         2.8879   0.8228   1.8495 H              1 S1                 0.0000
     43 ****         4.2821  -1.8458   0.0781 H              1 S1                 0.0000
     44 ****         3.0030  -2.5832   1.0143 H              1 S1                 0.0000
     45 ****         3.7491  -1.4311  -2.5138 H              1 S1                 0.0000
     46 ****         0.4750  -4.7834  -4.0644 H              1 S1                 0.0000
     47 ****        -0.9090  -7.3944  -2.2458 H              1 S1                 0.0000
     48 ****        -1.1661  -6.4237  -3.6942 H              1 S1                 0.0000
     49 ****        -2.1684  -6.1508  -2.2702 H              1 S1                 0.0000
     50 ****        -0.5422  -5.6958   1.3450 H              1 S1                 0.0000
     51 ****        -0.6263  -7.0347   0.2027 H              1 S1                 0.0000
     52 ****        -1.8722  -5.7769   0.1910 H              1 S1                 0.0000
     53 ****         1.0690  -4.0515   0.8329 H              1 S1                 0.0000
     54 ****         0.1555   3.3628   1.5005 H              1 S1                 0.0000
     55 ****        -1.1917   2.9746   2.5562 H              1 S1                 0.0000
     56 ****        -2.4975   4.5693   1.4175 H              1 S1                 0.0000
     57 ****        -0.2081   2.8334  -0.9151 LP             1 S1                 0.0000
     58 ****        -1.5545   2.0851  -1.4570 LP             1 S1                 0.0000
     59 ****         0.9054   1.3772   1.3114 LP             1 S1                 0.0000
     60 ****         4.2186   0.0117   1.5287 LP             1 S1                 0.0000
     61 ****         3.0226  -0.6578   2.4164 LP             1 S1                 0.0000
     62 ****         2.4924  -2.7501  -4.2634 LP             1 S1                 0.0000
@<TRIPOS>BOND
    1    1    2 1     
    2    1   26 1     
    3    1   27 1     
    4    1   28 1     
    5    2    3 1     
    6    2   29 1     
    7    2   30 1     
    8    3   25 1     
    9    3    4 1     
   10    3   56 1     
   11    4    5 1     
   12    4   31 1     
   13    4   32 1     
   14    5    6 1     
   15    5   33 1     
   16    5   34 1     
   17    6    7 1     
   18    7    8 1     
   19    7   25 1     
   20    7   35 1     
   21    8    9 1     
   22    8   36 1     
   23    8   37 1     
   24    9   10 1     
   25    9   38 1     
   26   10   11 1     
   27   10   39 1     
   28   10   40 1     
   29   11   12 1     
   30   11   13 1     
   31   11   41 1     
   32   12   42 1     
   33   13   14 1     
   34   13   43 1     
   35   13   44 1     
   36   14   24 1     
   37   14   15 1     
   38   15   16 2     
   39   15   45 1     
   40   16   17 1     
   41   17   24 ar    
   42   17   18 ar    
   43   18   19 ar    
   44   18   46 1     
   45   19   20 1     
   46   19   21 ar    
   47   20   47 1     
   48   20   48 1     
   49   20   49 1     
   50   21   22 1     
   51   21   23 ar    
   52   22   50 1     
   53   22   51 1     
   54   22   52 1     
   55   23   24 ar    
   56   23   53 1     
   57   25   54 1     
   58   25   55 1     
   59    6   57 1     
   60    6   58 1     
   61    9   59 1     
   62   12   60 1     
   63   12   61 1     
   64   16   62 1     
@<TRIPOS>SUBSTRUCTURE
      1 S1             1
@<TRIPOS>SET
LONE_PAIRS      STATIC     ATOMS    <user>   **** ""
6 57 58 59 60 61 62
DONOR_HYDROGENS      STATIC     ATOMS    <user>   **** ""
3 56 38 42
ATOM$BLUE        STATIC     ATOMS    COLORGROUP SYSTEM
6 57 58 59 60 61 62
ATOM$RED        STATIC     ATOMS    COLORGROUP SYSTEM
3 56 38 42
