AV-unprocessed.smi:2569|AV-procd|sdf|10103|dock2
  -GOLD-   2272014113D 1   1.00000     0.00000
 Structure written by MMmdl.
 39 41  0  0  0  0  0  0  0  0  1 V2000
  153.7767  142.0669  162.4301 C   0  0  0  0  0  0  0  0  0  0  0  0
  153.1571  141.9437  161.0492 C   0  0  0  0  0  0  0  0  0  0  0  0
  153.4439  140.8024  160.2664 C   0  0  0  0  0  0  0  0  0  0  0  0
  152.8885  140.6505  158.9771 C   0  0  0  0  0  0  0  0  0  0  0  0
  153.0282  139.6295  158.0527 N   0  0  0  0  0  0  0  0  0  0  0  0
  152.2691  140.0676  157.0525 C   0  0  0  0  0  0  0  0  0  0  0  0
  151.6519  141.2528  157.2205 N   0  0  0  0  0  0  0  0  0  0  0  0
  150.7817  141.9249  156.2722 C   0  0  0  0  0  0  0  0  0  0  0  0
  149.6734  140.9990  155.7270 C   0  0  1  0  0  0  0  0  0  0  0  0
  148.5962  141.7710  155.2341 O   0  0  0  0  0  0  0  0  0  0  0  0
  150.1467  140.0670  154.5944 C   0  0  0  0  0  0  0  0  0  0  0  0
  150.3372  138.6956  155.0368 N   0  0  0  0  0  0  0  0  0  0  0  0
  149.3030  137.9693  155.5288 N   0  0  0  0  0  0  0  0  0  0  0  0
  149.7793  136.7949  155.8273 N   0  0  0  0  0  0  0  0  0  0  0  0
  151.1305  136.7141  155.5468 N   0  0  0  0  0  0  0  0  0  0  0  0
  151.4247  137.9143  155.0643 C   0  0  0  0  0  0  0  0  0  0  0  0
  152.7750  138.3532  154.6020 C   0  0  0  0  0  0  0  0  0  0  0  0
  152.0337  141.6809  158.4873 C   0  0  0  0  0  0  0  0  0  0  0  0
  151.7408  142.8208  159.2564 C   0  0  0  0  0  0  0  0  0  0  0  0
  152.3016  142.9555  160.5437 C   0  0  0  0  0  0  0  0  0  0  0  0
  151.9752  144.1881  161.3682 C   0  0  0  0  0  0  0  0  0  0  0  0
  154.3997  141.2037  162.6661 H   0  0  0  0  0  0  0  0  0  0  0  0
  153.0008  142.1372  163.1927 H   0  0  0  0  0  0  0  0  0  0  0  0
  154.4030  142.9573  162.4892 H   0  0  0  0  0  0  0  0  0  0  0  0
  154.0945  140.0310  160.6513 H   0  0  0  0  0  0  0  0  0  0  0  0
  152.1540  139.4939  156.1445 H   0  0  0  0  0  0  0  0  0  0  0  0
  150.3455  142.7994  156.7567 H   0  0  0  0  0  0  0  0  0  0  0  0
  151.4035  142.2993  155.4584 H   0  0  0  0  0  0  0  0  0  0  0  0
  149.2878  140.3924  156.5469 H   0  0  0  0  0  0  0  0  0  0  0  0
  148.9012  142.6534  155.0869 H   0  0  0  0  0  0  0  0  0  0  0  0
  149.4252  140.0662  153.7766 H   0  0  0  0  0  0  0  0  0  0  0  0
  151.0860  140.4320  154.1752 H   0  0  0  0  0  0  0  0  0  0  0  0
  153.5349  137.6375  154.9172 H   0  0  0  0  0  0  0  0  0  0  0  0
  153.0235  139.3276  155.0231 H   0  0  0  0  0  0  0  0  0  0  0  0
  152.7938  138.4226  153.5144 H   0  0  0  0  0  0  0  0  0  0  0  0
  151.0870  143.5831  158.8591 H   0  0  0  0  0  0  0  0  0  0  0  0
  151.3133  144.8649  160.8269 H   0  0  0  0  0  0  0  0  0  0  0  0
  152.8851  144.7358  161.6146 H   0  0  0  0  0  0  0  0  0  0  0  0
  151.4776  143.9058  162.2964 H   0  0  0  0  0  0  0  0  0  0  0  0
  1  2  1  0  0  0  0
  1 22  1  0  0  0  0
  1 23  1  0  0  0  0
  1 24  1  0  0  0  0
  2 20  1  0  0  0  0
  2  3  2  0  0  0  0
  3  4  1  0  0  0  0
  3 25  1  0  0  0  0
  4 18  2  0  0  0  0
  4  5  1  0  0  0  0
  5  6  2  0  0  0  0
  6  7  1  0  0  0  0
  6 26  1  0  0  0  0
  7  8  1  0  0  0  0
  7 18  1  0  0  0  0
  8  9  1  0  0  0  0
  8 27  1  0  0  0  0
  8 28  1  0  0  0  0
  9 10  1  0  0  0  0
  9 11  1  0  0  0  0
  9 29  1  0  0  0  0
 10 30  1  0  0  0  0
 11 12  1  0  0  0  0
 11 31  1  0  0  0  0
 11 32  1  0  0  0  0
 12 16  1  0  0  0  0
 12 13  1  0  0  0  0
 13 14  2  0  0  0  0
 14 15  1  0  0  0  0
 15 16  2  0  0  0  0
 16 17  1  0  0  0  0
 17 33  1  0  0  0  0
 17 34  1  0  0  0  0
 17 35  1  0  0  0  0
 18 19  1  0  0  0  0
 19 20  2  0  0  0  0
 19 36  1  0  0  0  0
 20 21  1  0  0  0  0
 21 37  1  0  0  0  0
 21 38  1  0  0  0  0
 21 39  1  0  0  0  0
M  END
> <s_m_source_file>
AV-unprocessed.smi

> <i_m_source_file_index>
2569

> <i_lp_mmshare_version>
43012

> <i_f3d_flags>
0

> <s_epik_input>
W0NIM11jKFtjSF0xKWMoW0NIM10pW2NIXWMoYzEyKW4oW2NIXW4yKVtDSDJdW0NASF0oW09IXSlbQ0gyXW4zbm5uYzNbQ0gzXQ==

> <s_epik_cmdline>
J2VwaWtfcHl0aG9uJywgJy1waCcsICc3LjAnLCAnLXRuJywgJzgnLCAnLW1hJywgJzIwMCcsICctbWV0YWxfYmluZGluZycsICctaW1hZScsICc8aW5maWxlLm1hZT4nLCAnLW9tYWUnLCAnPG91dGZpbGUubWFlPic=

> <r_lp_tautomer_probability>
1

> <r_epik_Ionization_Penalty>
0.0946713

> <r_epik_Ionization_Penalty_Charging>
0

> <r_epik_Ionization_Penalty_Neutral>
0.0946713

> <r_epik_State_Penalty>
0.0848712

> <r_epik_Charging_Adjusted_Penalty>
0.0848712

> <i_epik_Tot_Q>
0

> <i_epik_Tot_abs_Q>
0

> <r_epik_Metal_State_Penalty>
0.0730911

> <b_epik_Metal_Only>
0

> <s_lp_Force_Field>
OPLS_2005

> <r_lp_Energy>
9.51249

> <b_lp_Chiralities_Consistent>
1

> <s_lp_Variant>
AV-unprocessed.smi:2569-2

> <Gold.Version>
5.8.1

> <Gold.Id.Protein>
6NUR|6NUR_protein|mol2

> <Gold.PLP.Fitness>
47.9174

> <Gold.PLP.PLP>
-43.7909

> <Gold.PLP.part.hbond>
-2.0000

> <Gold.PLP.part.metal>
0.0000

> <Gold.PLP.part.buried>
-3.1675

> <Gold.PLP.part.nonpolar>
-38.1996

> <Gold.PLP.part.repulsive>
0.2549

> <Gold.PLP.ligand.clash>
0.0000

> <Gold.PLP.ligand.torsion>
0.9469

> <Gold.PLP.Chemscore.Hbond>
2.0000

> <Gold.PLP.Chemscore.CHOScore>
0.0000

> <Gold.PLP.Chemscore.Metal>
0.0000

> <Gold.Chemscore.Hbonds>
donor molecule, donor type, donor heavy atom, donor atom, acceptor molecule, acceptor atom, score
      L1  H    10    30       P1  8028  0.73
      P1  H  7997  8010       L1     5  0.65
      P1  H 10752 10765       L1    15  0.23

> <Gold.PLP.Chemscore.Internal.Correction>
0.0203

> <Gold.Rescore>
     Score         DG    S(hbond)    S(metal)    S(lipo)     H(rot)  DE(clash)    DE(int)     intcor
     15.25     -16.50       1.30        0.00     112.44       2.53       0.24       1.01       ----

> <Gold.Chemscore.Fitness>
15.2457

> <Gold.Chemscore.DG>
-16.4979

> <Gold.Chemscore.ZeroCoef>
-5.4800

> <Gold.Chemscore.Hbond>
1.2969

> <Gold.Chemscore.Metal>
0.0000

> <Gold.Chemscore.Lipo>
112.4397

> <Gold.Chemscore.Internal_Hbond>
0.0000

> <Gold.Chemscore.DEClash>
0.2429

> <Gold.Chemscore.DEInternal>
1.0093

> <Gold.Chemscore.Rot>
2.5270

> <Gold.Chemscore.Internal.Correction>
   9.000000E+99

> <Gold.Chemscore.Hbonds>
donor molecule, donor type, donor heavy atom, donor atom, acceptor molecule, acceptor atom, score
      L1  H    10    30       P1  8028  0.70
      P1  H  7997  8010       L1     5  0.03
      P1  H 10752 10765       L1    15  0.04

> <Gold.Chemscore.Hbond.Weighted>
-4.3316

> <Gold.Chemscore.Metal.Weighted>
-0.0000

> <Gold.Chemscore.Lipo.Weighted>
-13.1554

> <Gold.Chemscore.Internal_Hbond.Weighted>
0.0000

> <Gold.Chemscore.DEClash.Weighted>
0.2429

> <Gold.Chemscore.DEInternal.Weighted>
1.0093

> <Gold.Chemscore.Rot.Weighted>
6.4691

> <Gold.Chemscore.Internal.Correction.Weighted>
   9.000000E+99

> <Gold.Protein.RotatedTorsions>
[ 6907 6896 6895 6894 ] final  -73.04 input  -60.11 | X-H torsion
[ 7974 7965 7964 7962 ] final  -97.27 input  175.53 | X-H torsion
[ 8008 7997 7996 7995 ] final   27.28 input   59.86 | X-H torsion
[ 10167 10162 10161 10158 ] final  -72.53 input  -65.29 | X-H torsion
[ 10718 10713 10712 10709 ] final -151.90 input   66.30 | X-H torsion
[ 10763 10752 10751 10750 ] final -175.82 input  -60.55 | X-H torsion
[ 11005 11000 10999 10996 ] final   38.44 input  -57.11 | X-H torsion

> <Gold.Protein.ActiveResidues>
 VAL166  LYS551  ARG553  GLY616  TRP617  ASP618  TYR619  PRO620  LYS621  CYS622 
 ASP623  PHE694  ASN695  SER759  ASP760  ASP761  ALA762  ILE779  LEU786  VAL792 
 PHE793  MET794  SER795  GLU796  ALA797  LYS798  CYS799  TRP800  GLU811  SER814 

> <Gold.Protein.RotatedAtoms>
  150.7146  134.5075  159.5590 H   0  0  0  0  0  0  0  0  0  0  0  0  # atno 6907 bound_to 6896
  152.2659  134.7982  160.0432 H   0  0  0  0  0  0  0  0  0  0  0  0  # atno 6908 bound_to 6896
  151.8679  133.3434  159.3762 H   0  0  0  0  0  0  0  0  0  0  0  0  # atno 6909 bound_to 6896
  145.3360  140.9451  143.2635 H   0  0  0  0  0  0  0  0  0  0  0  0  # atno 7974 bound_to 7965
  155.0405  140.3168  155.4726 H   0  0  0  0  0  0  0  0  0  0  0  0  # atno 8008 bound_to 7997
  156.2856  140.2164  156.5472 H   0  0  0  0  0  0  0  0  0  0  0  0  # atno 8009 bound_to 7997
  154.7294  140.0482  157.0700 H   0  0  0  0  0  0  0  0  0  0  0  0  # atno 8010 bound_to 7997
  140.5185  143.2335  151.7471 H   0  0  0  0  0  0  0  0  0  0  0  0  # atno 10167 bound_to 10162
  156.4654  130.8233  151.2463 H   0  0  0  0  0  0  0  0  0  0  0  0  # atno 10718 bound_to 10713
  154.5798  135.2835  155.0744 H   0  0  0  0  0  0  0  0  0  0  0  0  # atno 10763 bound_to 10752
  154.2085  135.6412  153.5112 H   0  0  0  0  0  0  0  0  0  0  0  0  # atno 10764 bound_to 10752
  153.0084  135.5486  154.6448 H   0  0  0  0  0  0  0  0  0  0  0  0  # atno 10765 bound_to 10752
  140.2126  134.3737  155.8042 H   0  0  0  0  0  0  0  0  0  0  0  0  # atno 11005 bound_to 11000
  144.8827  139.4881  143.6715 LP  0  0  0  0  0  0  0  0  0  0  0  0  # atno 17320 bound_to 7965
  146.3027  139.7477  142.9079 LP  0  0  0  0  0  0  0  0  0  0  0  0  # atno 17321 bound_to 7965
  139.4916  144.4289  151.9894 LP  0  0  0  0  0  0  0  0  0  0  0  0  # atno 17342 bound_to 10162
  140.3385  144.3232  150.5972 LP  0  0  0  0  0  0  0  0  0  0  0  0  # atno 17343 bound_to 10162
  157.7495  131.0093  150.3264 LP  0  0  0  0  0  0  0  0  0  0  0  0  # atno 17370 bound_to 10713
  156.3673  130.3857  149.7203 LP  0  0  0  0  0  0  0  0  0  0  0  0  # atno 17371 bound_to 10713
  141.2226  133.7151  156.8442 LP  0  0  0  0  0  0  0  0  0  0  0  0  # atno 17394 bound_to 11000
  140.1935  134.8948  157.3088 LP  0  0  0  0  0  0  0  0  0  0  0  0  # atno 17395 bound_to 11000

$$$$
