#       Name:                AV-unprocessed.smi:2790
#       Creating user name   scv26
#       Creation time:       Fri Mar 27 15:20:21 2020


#       File generated by GOLD software.
#

@<TRIPOS>MOLECULE
AV-unprocessed.smi:2790
    49    50     1
SMALL
NO_CHARGES


@<TRIPOS>ATOM
      1 ****        -3.7782  -0.5545  -1.4068 C.3            1 S1                 0.0000
      2 ****        -3.5062  -1.0329  -0.0518 N.3            1 S1                 0.0000
      3 ****        -4.7569  -1.1307   0.6923 C.3            1 S1                 0.0000
      4 ****        -2.8125  -2.3417  -0.0336 C.3            1 S1                 0.0000
      5 ****        -1.4437  -2.3517  -0.7244 C.2            1 S1                 0.0000
      6 ****        -1.1933  -3.1891  -1.5908 O.2            1 S1                 0.0000
      7 ****        -0.5687  -1.4189  -0.3246 N.am           1 S1                 0.0000
      8 ****         0.7714  -1.2376  -0.8721 C.3            1 S1                 0.0000
      9 ****         1.4039   0.1090  -0.4372 C.3            1 S1                 0.0000
     10 ****         1.4264   0.1711   1.1091 C.ar           1 S1                 0.0000
     11 ****         0.4939   0.9330   1.8570 C.ar           1 S1                 0.0000
     12 ****         0.5603   0.9169   3.2641 C.ar           1 S1                 0.0000
     13 ****         1.4652   0.1973   3.9574 N.ar           1 S1                 0.0000
     14 ****         2.3412  -0.5468   3.2533 C.ar           1 S1                 0.0000
     15 ****         2.3592  -0.5987   1.8457 C.ar           1 S1                 0.0000
     16 ****         2.8390   0.1873  -1.0344 C.3            1 S1                 0.0000
     17 ****         3.5190   1.5459  -0.7886 C.3            1 S1                 0.0000
     18 ****         2.6951   2.6860  -1.4026 C.3            1 S1                 0.0000
     19 ****         1.2503   2.6628  -0.8861 C.3            1 S1                 0.0000
     20 ****         0.6022   1.2776  -1.0909 C.3            1 S1                 0.0000
     21 ****        -2.8588  -0.3731  -1.9639 H              1 S1                 0.0000
     22 ****        -4.3186   0.3923  -1.3789 H              1 S1                 0.0000
     23 ****        -4.3805  -1.2708  -1.9677 H              1 S1                 0.0000
     24 ****        -4.5711  -1.4421   1.7209 H              1 S1                 0.0000
     25 ****        -5.4403  -1.8496   0.2371 H              1 S1                 0.0000
     26 ****        -5.2593  -0.1635   0.7335 H              1 S1                 0.0000
     27 ****        -2.6579  -2.6550   1.0000 H              1 S1                 0.0000
     28 ****        -3.4468  -3.1002  -0.4965 H              1 S1                 0.0000
     29 ****        -0.8599  -0.7751   0.3973 H              1 S1                 0.0000
     30 ****         1.3908  -2.0707  -0.5363 H              1 S1                 0.0000
     31 ****         0.7320  -1.3016  -1.9611 H              1 S1                 0.0000
     32 ****        -0.2736   1.5272   1.3874 H              1 S1                 0.0000
     33 ****        -0.1393   1.4954   3.8489 H              1 S1                 0.0000
     34 ****         3.0468  -1.1270   3.8294 H              1 S1                 0.0000
     35 ****         3.0788  -1.2364   1.3567 H              1 S1                 0.0000
     36 ****         3.4753  -0.6162  -0.6666 H              1 S1                 0.0000
     37 ****         2.7872   0.0274  -2.1126 H              1 S1                 0.0000
     38 ****         3.6492   1.7145   0.2810 H              1 S1                 0.0000
     39 ****         4.5193   1.5420  -1.2227 H              1 S1                 0.0000
     40 ****         3.1577   3.6474  -1.1776 H              1 S1                 0.0000
     41 ****         2.6940   2.5900  -2.4892 H              1 S1                 0.0000
     42 ****         1.2394   2.9410   0.1672 H              1 S1                 0.0000
     43 ****         0.6643   3.4225  -1.4040 H              1 S1                 0.0000
     44 ****         0.5361   1.1012  -2.1657 H              1 S1                 0.0000
     45 ****        -0.4334   1.2941  -0.7522 H              1 S1                 0.0000
     46 ****        -2.8940  -0.3693   0.3783 LP             1 S1                 0.0000
     47 ****        -1.8836  -3.8659  -1.8463 LP             1 S1                 0.0000
     48 ****        -0.2995  -3.1926  -2.0392 LP             1 S1                 0.0000
     49 ****         1.4858   0.2149   4.9570 LP             1 S1                 0.0000
@<TRIPOS>BOND
    1    1    2 1     
    2    1   21 1     
    3    1   22 1     
    4    1   23 1     
    5    2    3 1     
    6    2    4 1     
    7    3   24 1     
    8    3   25 1     
    9    3   26 1     
   10    4    5 1     
   11    4   27 1     
   12    4   28 1     
   13    5    6 2     
   14    5    7 am    
   15    7    8 1     
   16    7   29 1     
   17    8    9 1     
   18    8   30 1     
   19    8   31 1     
   20    9   20 1     
   21    9   10 1     
   22    9   16 1     
   23   10   15 ar    
   24   10   11 ar    
   25   11   12 ar    
   26   11   32 1     
   27   12   13 ar    
   28   12   33 1     
   29   13   14 ar    
   30   14   15 ar    
   31   14   34 1     
   32   15   35 1     
   33   16   17 1     
   34   16   36 1     
   35   16   37 1     
   36   17   18 1     
   37   17   38 1     
   38   17   39 1     
   39   18   19 1     
   40   18   40 1     
   41   18   41 1     
   42   19   20 1     
   43   19   42 1     
   44   19   43 1     
   45   20   44 1     
   46   20   45 1     
   47    2   46 1     
   48    6   47 1     
   49    6   48 1     
   50   13   49 1     
@<TRIPOS>SUBSTRUCTURE
      1 S1             1
@<TRIPOS>SET
LONE_PAIRS      STATIC     ATOMS    <user>   **** ""
4 46 47 48 49
DONOR_HYDROGENS      STATIC     ATOMS    <user>   **** ""
1 29
ATOM$BLUE        STATIC     ATOMS    COLORGROUP SYSTEM
4 46 47 48 49
ATOM$RED        STATIC     ATOMS    COLORGROUP SYSTEM
1 29
