AV-unprocessed.smi:199|AV-procd|sdf|1573|dock10
  -GOLD-   2262019453D 1   1.00000     0.00000
 Structure written by MMmdl.
 51 55  0  0  0  0  0  0  0  0  1 V2000
  152.9933  138.7420  154.5803 C   0  0  0  0  0  0  0  0  0  0  0  0
  152.0986  138.7475  155.8305 C   0  0  1  0  0  0  0  0  0  0  0  0
  152.5595  139.7088  156.7794 O   0  0  0  0  0  0  0  0  0  0  0  0
  151.5160  140.6165  157.1043 C   0  0  0  0  0  0  0  0  0  0  0  0
  150.2358  139.8337  156.8422 C   0  0  0  0  0  0  0  0  0  0  0  0
  150.5935  139.0225  155.6048 C   0  0  1  0  0  0  0  0  0  0  0  0
  150.3946  139.8404  154.4624 O   0  0  0  0  0  0  0  0  0  0  0  0
  149.7606  137.7295  155.4355 C   0  0  0  0  0  0  0  0  0  0  0  0
  149.4008  137.1032  156.6983 N   0  0  0  0  0  0  0  0  0  0  0  0
  150.0030  136.0092  157.2758 C   0  0  0  0  0  0  0  0  0  0  0  0
  149.4986  135.6378  158.4201 N   0  0  0  0  0  0  0  0  0  0  0  0
  148.4594  136.5333  158.6463 C   0  0  0  0  0  0  0  0  0  0  0  0
  147.4993  136.7068  159.6855 C   0  0  0  0  0  0  0  0  0  0  0  0
  147.4235  135.9089  160.7844 N   0  0  0  0  0  0  0  0  0  0  0  0
  147.4727  136.4612  162.1291 C   0  0  2  0  0  0  0  0  0  0  0  0
  147.6007  135.1950  162.9937 C   0  0  0  0  0  0  0  0  0  0  0  0
  146.7483  134.1958  162.1930 C   0  0  0  0  0  0  0  0  0  0  0  0
  146.2528  135.0803  161.0343 C   0  0  1  0  0  0  0  0  0  0  0  0
  145.1798  136.0527  161.5860 C   0  0  2  0  0  0  0  0  0  0  0  0
  144.2770  136.6748  160.5035 C   0  0  0  0  0  0  0  0  0  0  0  0
  143.3962  137.6115  161.0856 O   0  0  0  0  0  0  0  0  0  0  0  0
  146.0695  137.0704  162.3289 C   0  0  0  0  0  0  0  0  0  0  0  0
  146.6327  137.7476  159.5630 N   0  0  0  0  0  0  0  0  0  0  0  0
  146.6762  138.5452  158.4928 C   0  0  0  0  0  0  0  0  0  0  0  0
  147.5009  138.4910  157.4462 N   0  0  0  0  0  0  0  0  0  0  0  0
  148.3879  137.4633  157.5697 C   0  0  0  0  0  0  0  0  0  0  0  0
  152.6400  138.0148  153.8488 H   0  0  0  0  0  0  0  0  0  0  0  0
  154.0183  138.4789  154.8413 H   0  0  0  0  0  0  0  0  0  0  0  0
  153.0203  139.7200  154.0994 H   0  0  0  0  0  0  0  0  0  0  0  0
  152.2070  137.7818  156.3257 H   0  0  0  0  0  0  0  0  0  0  0  0
  151.5944  140.9648  158.1342 H   0  0  0  0  0  0  0  0  0  0  0  0
  151.5795  141.4832  156.4451 H   0  0  0  0  0  0  0  0  0  0  0  0
  150.0443  139.1692  157.6861 H   0  0  0  0  0  0  0  0  0  0  0  0
  149.3613  140.4730  156.7136 H   0  0  0  0  0  0  0  0  0  0  0  0
  149.8486  140.5718  154.7076 H   0  0  0  0  0  0  0  0  0  0  0  0
  148.8469  137.9366  154.8766 H   0  0  0  0  0  0  0  0  0  0  0  0
  150.3171  136.9982  154.8479 H   0  0  0  0  0  0  0  0  0  0  0  0
  150.8382  135.4953  156.8221 H   0  0  0  0  0  0  0  0  0  0  0  0
  148.2827  137.1699  162.3050 H   0  0  0  0  0  0  0  0  0  0  0  0
  148.6374  134.8595  163.0452 H   0  0  0  0  0  0  0  0  0  0  0  0
  147.2391  135.3429  164.0120 H   0  0  0  0  0  0  0  0  0  0  0  0
  147.3681  133.3802  161.8182 H   0  0  0  0  0  0  0  0  0  0  0  0
  145.9375  133.7609  162.7785 H   0  0  0  0  0  0  0  0  0  0  0  0
  145.9049  134.4832  160.1931 H   0  0  0  0  0  0  0  0  0  0  0  0
  144.5383  135.5229  162.2921 H   0  0  0  0  0  0  0  0  0  0  0  0
  144.8571  137.1731  159.7277 H   0  0  0  0  0  0  0  0  0  0  0  0
  143.6844  135.9005  160.0155 H   0  0  0  0  0  0  0  0  0  0  0  0
  142.6882  137.1417  161.4994 H   0  0  0  0  0  0  0  0  0  0  0  0
  145.8019  137.1737  163.3810 H   0  0  0  0  0  0  0  0  0  0  0  0
  146.0093  138.0597  161.8737 H   0  0  0  0  0  0  0  0  0  0  0  0
  145.9461  139.3410  158.4723 H   0  0  0  0  0  0  0  0  0  0  0  0
  1  2  1  0  0  0  0
  1 27  1  0  0  0  0
  1 28  1  0  0  0  0
  1 29  1  0  0  0  0
  2  6  1  0  0  0  0
  2  3  1  0  0  0  0
  2 30  1  0  0  0  0
  3  4  1  0  0  0  0
  4  5  1  0  0  0  0
  4 31  1  0  0  0  0
  4 32  1  0  0  0  0
  5  6  1  0  0  0  0
  5 33  1  0  0  0  0
  5 34  1  0  0  0  0
  6  7  1  0  0  0  0
  6  8  1  0  0  0  0
  7 35  1  0  0  0  0
  8  9  1  0  0  0  0
  8 36  1  0  0  0  0
  8 37  1  0  0  0  0
  9 26  1  0  0  0  0
  9 10  1  0  0  0  0
 10 11  2  0  0  0  0
 10 38  1  0  0  0  0
 11 12  1  0  0  0  0
 12 26  2  0  0  0  0
 12 13  1  0  0  0  0
 13 14  1  0  0  0  0
 13 23  2  0  0  0  0
 14 18  1  0  0  0  0
 14 15  1  0  0  0  0
 15 22  1  0  0  0  0
 15 16  1  0  0  0  0
 15 39  1  0  0  0  0
 16 17  1  0  0  0  0
 16 40  1  0  0  0  0
 16 41  1  0  0  0  0
 17 18  1  0  0  0  0
 17 42  1  0  0  0  0
 17 43  1  0  0  0  0
 18 19  1  0  0  0  0
 18 44  1  0  0  0  0
 19 20  1  0  0  0  0
 19 22  1  0  0  0  0
 19 45  1  0  0  0  0
 20 21  1  0  0  0  0
 20 46  1  0  0  0  0
 20 47  1  0  0  0  0
 21 48  1  0  0  0  0
 22 49  1  0  0  0  0
 22 50  1  0  0  0  0
 23 24  1  0  0  0  0
 24 25  2  0  0  0  0
 24 51  1  0  0  0  0
 25 26  1  0  0  0  0
M  END
> <s_m_source_file>
AV-unprocessed.smi

> <i_m_source_file_index>
199

> <i_lp_mmshare_version>
43012

> <i_f3d_flags>
0

> <s_epik_input>
W0NIMl0xW0NIMl1PW0NAQEhdKFtDSDNdKVtDQEBdMShbT0hdKVtDSDJdbihbY0hdbjIpYyhjMjMpbltjSF1uYzNOKFtDQEBIXTQ1KVtDQEhdKFtDSDJdW0NIMl00KVtDQEhdKFtDSDJdNSlbQ0gyXVtPSF0=

> <s_epik_cmdline>
J2VwaWtfcHl0aG9uJywgJy1waCcsICc3LjAnLCAnLXRuJywgJzgnLCAnLW1hJywgJzIwMCcsICctbWV0YWxfYmluZGluZycsICctaW1hZScsICc8aW5maWxlLm1hZT4nLCAnLW9tYWUnLCAnPG91dGZpbGUubWFlPic=

> <r_lp_tautomer_probability>
1

> <r_epik_Ionization_Penalty>
0.00583903

> <r_epik_Ionization_Penalty_Charging>
0

> <r_epik_Ionization_Penalty_Neutral>
0.00583903

> <r_epik_State_Penalty>
-0

> <r_epik_Charging_Adjusted_Penalty>
0

> <i_epik_Tot_Q>
0

> <i_epik_Tot_abs_Q>
0

> <r_epik_Metal_State_Penalty>
-0

> <b_epik_Metal_Only>
0

> <s_lp_Force_Field>
OPLS_2005

> <r_lp_Energy>
83.8114

> <b_lp_Chiralities_Consistent>
1

> <s_lp_Variant>
AV-unprocessed.smi:199-14

> <Gold.Version>
5.8.1

> <Gold.Id.Protein>
6NUR|6NUR_protein|mol2

> <Gold.PLP.Fitness>
44.2641

> <Gold.PLP.PLP>
-34.3503

> <Gold.PLP.part.hbond>
-4.0000

> <Gold.PLP.part.metal>
0.0000

> <Gold.PLP.part.buried>
-4.6083

> <Gold.PLP.part.nonpolar>
-26.7066

> <Gold.PLP.part.repulsive>
0.0000

> <Gold.PLP.ligand.clash>
0.0000

> <Gold.PLP.ligand.torsion>
0.7249

> <Gold.PLP.Chemscore.Hbond>
3.7800

> <Gold.PLP.Chemscore.CHOScore>
0.0000

> <Gold.PLP.Chemscore.Metal>
0.0000

> <Gold.Chemscore.Hbonds>
donor molecule, donor type, donor heavy atom, donor atom, acceptor molecule, acceptor atom, score
      P1  H  6896  6909       L1    11  1.00
      P1  H  6934  6947       L1    23  0.79
      P1  H  7989  7998       L1     7  0.75
      P1  H  7997  8008       L1     3  1.00

> <Gold.PLP.Chemscore.Internal.Correction>
0.0237

> <Gold.Rescore>
     Score         DG    S(hbond)    S(metal)    S(lipo)     H(rot)  DE(clash)    DE(int)     intcor
      9.89     -15.80       2.41        0.00      86.64       3.07       1.37       4.55       ----

> <Gold.Chemscore.Fitness>
9.8851

> <Gold.Chemscore.DG>
-15.8008

> <Gold.Chemscore.ZeroCoef>
-5.4800

> <Gold.Chemscore.Hbond>
2.4104

> <Gold.Chemscore.Metal>
0.0000

> <Gold.Chemscore.Lipo>
86.6404

> <Gold.Chemscore.Internal_Hbond>
0.0000

> <Gold.Chemscore.DEClash>
1.3675

> <Gold.Chemscore.DEInternal>
4.5482

> <Gold.Chemscore.Rot>
3.0729

> <Gold.Chemscore.Internal.Correction>
   9.000000E+99

> <Gold.Chemscore.Hbonds>
donor molecule, donor type, donor heavy atom, donor atom, acceptor molecule, acceptor atom, score
      P1  H  6896  6909       L1    11  0.88
      P1  H  6934  6947       L1    23  0.09
      P1  H  7989  7998       L1     7  0.09
      P1  H  7997  8008       L1     3  0.65

> <Gold.Chemscore.Hbond.Weighted>
-8.0506

> <Gold.Chemscore.Metal.Weighted>
-0.0000

> <Gold.Chemscore.Lipo.Weighted>
-10.1369

> <Gold.Chemscore.Internal_Hbond.Weighted>
0.0000

> <Gold.Chemscore.DEClash.Weighted>
1.3675

> <Gold.Chemscore.DEInternal.Weighted>
4.5482

> <Gold.Chemscore.Rot.Weighted>
7.8667

> <Gold.Chemscore.Internal.Correction.Weighted>
   9.000000E+99

> <Gold.Protein.RotatedTorsions>
[ 6907 6896 6895 6894 ] final   39.21 input  -60.11 | X-H torsion
[ 7974 7965 7964 7962 ] final -104.16 input  175.53 | X-H torsion
[ 8008 7997 7996 7995 ] final  -42.52 input   59.86 | X-H torsion
[ 10167 10162 10161 10158 ] final -108.26 input  -65.29 | X-H torsion
[ 10718 10713 10712 10709 ] final -101.12 input   66.30 | X-H torsion
[ 10763 10752 10751 10750 ] final  149.61 input  -60.55 | X-H torsion
[ 11005 11000 10999 10996 ] final -170.32 input  -57.11 | X-H torsion

> <Gold.Protein.ActiveResidues>
 VAL166  LYS551  ARG553  GLY616  TRP617  ASP618  TYR619  PRO620  LYS621  CYS622 
 ASP623  PHE694  ASN695  SER759  ASP760  ASP761  ALA762  ILE779  LEU786  VAL792 
 PHE793  MET794  SER795  GLU796  ALA797  LYS798  CYS799  TRP800  GLU811  SER814 

> <Gold.Protein.RotatedAtoms>
  152.1665  134.8869  160.0537 H   0  0  0  0  0  0  0  0  0  0  0  0  # atno 6907 bound_to 6896
  151.9845  133.3764  159.4128 H   0  0  0  0  0  0  0  0  0  0  0  0  # atno 6908 bound_to 6896
  150.6895  134.3926  159.5127 H   0  0  0  0  0  0  0  0  0  0  0  0  # atno 6909 bound_to 6896
  145.2467  140.9224  143.3119 H   0  0  0  0  0  0  0  0  0  0  0  0  # atno 7974 bound_to 7965
  154.3999  140.1471  156.3369 H   0  0  0  0  0  0  0  0  0  0  0  0  # atno 8008 bound_to 7997
  155.8392  140.3462  155.5600 H   0  0  0  0  0  0  0  0  0  0  0  0  # atno 8009 bound_to 7997
  155.8105  140.0883  157.1897 H   0  0  0  0  0  0  0  0  0  0  0  0  # atno 8010 bound_to 7997
  140.1681  143.4065  152.1375 H   0  0  0  0  0  0  0  0  0  0  0  0  # atno 10167 bound_to 10162
  156.0184  130.5359  150.6917 H   0  0  0  0  0  0  0  0  0  0  0  0  # atno 10718 bound_to 10713
  154.0740  135.2864  155.3303 H   0  0  0  0  0  0  0  0  0  0  0  0  # atno 10763 bound_to 10752
  154.6728  135.5293  153.8163 H   0  0  0  0  0  0  0  0  0  0  0  0  # atno 10764 bound_to 10752
  153.0474  135.6562  154.0920 H   0  0  0  0  0  0  0  0  0  0  0  0  # atno 10765 bound_to 10752
  140.5208  134.5711  157.5047 H   0  0  0  0  0  0  0  0  0  0  0  0  # atno 11005 bound_to 11000
  144.9540  139.4052  143.6388 LP  0  0  0  0  0  0  0  0  0  0  0  0  # atno 17320 bound_to 7965
  146.3314  139.8561  142.8864 LP  0  0  0  0  0  0  0  0  0  0  0  0  # atno 17321 bound_to 7965
  139.5350  144.7200  151.4924 LP  0  0  0  0  0  0  0  0  0  0  0  0  # atno 17342 bound_to 10162
  140.6600  143.8519  150.6877 LP  0  0  0  0  0  0  0  0  0  0  0  0  # atno 17343 bound_to 10162
  157.4597  131.0882  151.0759 LP  0  0  0  0  0  0  0  0  0  0  0  0  # atno 17370 bound_to 10713
  157.1250  130.6078  149.5515 LP  0  0  0  0  0  0  0  0  0  0  0  0  # atno 17371 bound_to 10713
  139.9607  134.7458  156.0244 LP  0  0  0  0  0  0  0  0  0  0  0  0  # atno 17394 bound_to 11000
  141.1335  133.6580  156.3529 LP  0  0  0  0  0  0  0  0  0  0  0  0  # atno 17395 bound_to 11000

$$$$
