AV-unprocessed.smi:304|AV-procd|sdf|2276|dock9
  -GOLD-   2262022173D 1   1.00000     0.00000
 Structure written by MMmdl.
 36 38  0  0  0  0  0  0  0  0  1 V2000
  151.0459  140.0356  154.6517 O   0  0  0  0  0  0  0  0  0  0  0  0
  150.0819  140.8269  155.3188 C   0  0  2  0  0  0  0  0  0  0  0  0
  149.0866  141.3591  154.2762 C   0  0  0  0  0  0  0  0  0  0  0  0
  147.9489  141.8756  154.9461 O   0  0  0  0  0  0  0  0  0  0  0  0
  146.9775  142.3980  154.0542 C   0  0  0  0  0  0  0  0  0  0  0  0
  145.7396  142.6796  154.8439 C   0  0  0  0  0  0  0  0  0  0  0  0
  145.0521  143.8650  154.9057 C   0  0  0  0  0  0  0  0  0  0  0  0
  143.8972  143.8042  155.7397 C   0  0  0  0  0  0  0  0  0  0  0  0
  143.7104  142.5683  156.2986 C   0  0  0  0  0  0  0  0  0  0  0  0
  144.9536  141.4507  155.8084 S   0  0  0  0  0  0  0  0  0  0  0  0
  150.7968  141.9699  156.0655 C   0  0  0  0  0  0  0  0  0  0  0  0
  151.3045  141.5583  157.3625 N   0  0  0  0  0  0  0  0  0  0  0  0
  151.6244  140.3077  157.7462 C   0  0  0  0  0  0  0  0  0  0  0  0
  152.0729  140.1469  158.9879 N   0  0  0  0  0  0  0  0  0  0  0  0
  152.0419  141.4457  159.4663 C   0  0  0  0  0  0  0  0  0  0  0  0
  152.3966  141.9651  160.7318 C   0  0  0  0  0  0  0  0  0  0  0  0
  152.2807  143.3458  160.9959 C   0  0  0  0  0  0  0  0  0  0  0  0
  152.6248  143.8269  162.2142 F   0  0  0  0  0  0  0  0  0  0  0  0
  151.8096  144.2267  159.9998 C   0  0  0  0  0  0  0  0  0  0  0  0
  151.7030  145.5510  160.2613 F   0  0  0  0  0  0  0  0  0  0  0  0
  151.4497  143.7321  158.7317 C   0  0  0  0  0  0  0  0  0  0  0  0
  151.5657  142.3539  158.4731 C   0  0  0  0  0  0  0  0  0  0  0  0
  150.6371  139.2235  154.3932 H   0  0  0  0  0  0  0  0  0  0  0  0
  149.5547  140.2055  156.0443 H   0  0  0  0  0  0  0  0  0  0  0  0
  149.5466  142.1715  153.7111 H   0  0  0  0  0  0  0  0  0  0  0  0
  148.8110  140.5832  153.5597 H   0  0  0  0  0  0  0  0  0  0  0  0
  147.3432  143.3129  153.5852 H   0  0  0  0  0  0  0  0  0  0  0  0
  146.7606  141.6782  153.2639 H   0  0  0  0  0  0  0  0  0  0  0  0
  145.3377  144.7679  154.3866 H   0  0  0  0  0  0  0  0  0  0  0  0
  143.2522  144.6564  155.8964 H   0  0  0  0  0  0  0  0  0  0  0  0
  142.9218  142.2466  156.9627 H   0  0  0  0  0  0  0  0  0  0  0  0
  151.6254  142.3565  155.4709 H   0  0  0  0  0  0  0  0  0  0  0  0
  150.1111  142.8040  156.2205 H   0  0  0  0  0  0  0  0  0  0  0  0
  151.5223  139.4675  157.0746 H   0  0  0  0  0  0  0  0  0  0  0  0
  152.7592  141.3003  161.5015 H   0  0  0  0  0  0  0  0  0  0  0  0
  151.0918  144.4046  157.9663 H   0  0  0  0  0  0  0  0  0  0  0  0
  1  2  1  0  0  0  0
  1 23  1  0  0  0  0
  2  3  1  0  0  0  0
  2 11  1  0  0  0  0
  2 24  1  0  0  0  0
  3  4  1  0  0  0  0
  3 25  1  0  0  0  0
  3 26  1  0  0  0  0
  4  5  1  0  0  0  0
  5  6  1  0  0  0  0
  5 27  1  0  0  0  0
  5 28  1  0  0  0  0
  6 10  1  0  0  0  0
  6  7  2  0  0  0  0
  7  8  1  0  0  0  0
  7 29  1  0  0  0  0
  8  9  2  0  0  0  0
  8 30  1  0  0  0  0
  9 10  1  0  0  0  0
  9 31  1  0  0  0  0
 11 12  1  0  0  0  0
 11 32  1  0  0  0  0
 11 33  1  0  0  0  0
 12 22  1  0  0  0  0
 12 13  1  0  0  0  0
 13 14  2  0  0  0  0
 13 34  1  0  0  0  0
 14 15  1  0  0  0  0
 15 22  2  0  0  0  0
 15 16  1  0  0  0  0
 16 17  2  0  0  0  0
 16 35  1  0  0  0  0
 17 18  1  0  0  0  0
 17 19  1  0  0  0  0
 19 20  1  0  0  0  0
 19 21  2  0  0  0  0
 21 22  1  0  0  0  0
 21 36  1  0  0  0  0
M  END
> <s_m_source_file>
AV-unprocessed.smi

> <i_m_source_file_index>
304

> <i_lp_mmshare_version>
43012

> <i_f3d_flags>
0

> <s_epik_input>
W2NIXTFjKEYpYyhGKVtjSF1jKGMxMiluKFtjSF1uMilbQ0gyXVtDQEhdKFtPSF0pW0NIMl1PW0NIMl1jM1tjSF1bY0hdW2NIXXMz

> <s_epik_cmdline>
J2VwaWtfcHl0aG9uJywgJy1waCcsICc3LjAnLCAnLXRuJywgJzgnLCAnLW1hJywgJzIwMCcsICctbWV0YWxfYmluZGluZycsICctaW1hZScsICc8aW5maWxlLm1hZT4nLCAnLW9tYWUnLCAnPG91dGZpbGUubWFlPic=

> <r_epik_Ionization_Penalty>
0.0152118

> <r_epik_Ionization_Penalty_Charging>
0

> <r_epik_Ionization_Penalty_Neutral>
0.0152118

> <r_epik_State_Penalty>
0.0119413

> <r_epik_Charging_Adjusted_Penalty>
0.0119413

> <i_epik_Tot_Q>
0

> <i_epik_Tot_abs_Q>
0

> <r_epik_Metal_State_Penalty>
1.20623e-05

> <b_epik_Metal_Only>
0

> <s_lp_Force_Field>
OPLS_2005

> <r_lp_Energy>
8.33782

> <b_lp_Chiralities_Consistent>
1

> <s_lp_Variant>
AV-unprocessed.smi:304-1

> <Gold.Version>
5.8.1

> <Gold.Id.Protein>
6NUR|6NUR_protein|mol2

> <Gold.PLP.Fitness>
52.4414

> <Gold.PLP.PLP>
-50.8551

> <Gold.PLP.part.hbond>
-1.0000

> <Gold.PLP.part.metal>
0.0000

> <Gold.PLP.part.buried>
-8.0032

> <Gold.PLP.part.nonpolar>
-41.1724

> <Gold.PLP.part.repulsive>
0.1366

> <Gold.PLP.ligand.clash>
0.0000

> <Gold.PLP.ligand.torsion>
0.7398

> <Gold.PLP.Chemscore.Hbond>
1.0000

> <Gold.PLP.Chemscore.CHOScore>
0.0000

> <Gold.PLP.Chemscore.Metal>
0.0000

> <Gold.Chemscore.Hbonds>
donor molecule, donor type, donor heavy atom, donor atom, acceptor molecule, acceptor atom, score
      P1  H  7989  7998       L1     1  1.00

> <Gold.PLP.Chemscore.Internal.Correction>
0.0658

> <Gold.Rescore>
     Score         DG    S(hbond)    S(metal)    S(lipo)     H(rot)  DE(clash)    DE(int)     intcor
     12.97     -14.03       0.91        0.00     104.91       2.64       0.28       0.79       ----

> <Gold.Chemscore.Fitness>
12.9670

> <Gold.Chemscore.DG>
-14.0341

> <Gold.Chemscore.ZeroCoef>
-5.4800

> <Gold.Chemscore.Hbond>
0.9099

> <Gold.Chemscore.Metal>
0.0000

> <Gold.Chemscore.Lipo>
104.9065

> <Gold.Chemscore.Internal_Hbond>
0.0000

> <Gold.Chemscore.DEClash>
0.2795

> <Gold.Chemscore.DEInternal>
0.7876

> <Gold.Chemscore.Rot>
2.6403

> <Gold.Chemscore.Internal.Correction>
   9.000000E+99

> <Gold.Chemscore.Hbonds>
donor molecule, donor type, donor heavy atom, donor atom, acceptor molecule, acceptor atom, score
      P1  H  7989  7998       L1     1  0.56

> <Gold.Chemscore.Hbond.Weighted>
-3.0392

> <Gold.Chemscore.Metal.Weighted>
-0.0000

> <Gold.Chemscore.Lipo.Weighted>
-12.2741

> <Gold.Chemscore.Internal_Hbond.Weighted>
0.0000

> <Gold.Chemscore.DEClash.Weighted>
0.2795

> <Gold.Chemscore.DEInternal.Weighted>
0.7876

> <Gold.Chemscore.Rot.Weighted>
6.7592

> <Gold.Chemscore.Internal.Correction.Weighted>
   9.000000E+99

> <Gold.Protein.RotatedTorsions>
[ 6907 6896 6895 6894 ] final  166.71 input  -60.11 | X-H torsion
[ 7974 7965 7964 7962 ] final  -39.98 input  175.53 | X-H torsion
[ 8008 7997 7996 7995 ] final  -97.51 input   59.86 | X-H torsion
[ 10167 10162 10161 10158 ] final -108.25 input  -65.29 | X-H torsion
[ 10718 10713 10712 10709 ] final  -74.25 input   66.30 | X-H torsion
[ 10763 10752 10751 10750 ] final  113.64 input  -60.55 | X-H torsion
[ 11005 11000 10999 10996 ] final   39.82 input  -57.11 | X-H torsion

> <Gold.Protein.ActiveResidues>
 VAL166  LYS551  ARG553  GLY616  TRP617  ASP618  TYR619  PRO620  LYS621  CYS622 
 ASP623  PHE694  ASN695  SER759  ASP760  ASP761  ALA762  ILE779  LEU786  VAL792 
 PHE793  MET794  SER795  GLU796  ALA797  LYS798  CYS799  TRP800  GLU811  SER814 

> <Gold.Protein.RotatedAtoms>
  151.8747  133.3483  159.3746 H   0  0  0  0  0  0  0  0  0  0  0  0  # atno 6907 bound_to 6896
  150.7143  134.5078  159.5602 H   0  0  0  0  0  0  0  0  0  0  0  0  # atno 6908 bound_to 6896
  152.2618  134.8027  160.0480 H   0  0  0  0  0  0  0  0  0  0  0  0  # atno 6909 bound_to 6896
  146.0346  140.6687  142.9116 H   0  0  0  0  0  0  0  0  0  0  0  0  # atno 7974 bound_to 7965
  154.7887  140.0462  157.1184 H   0  0  0  0  0  0  0  0  0  0  0  0  # atno 8008 bound_to 7997
  154.9617  140.3078  155.5008 H   0  0  0  0  0  0  0  0  0  0  0  0  # atno 8009 bound_to 7997
  156.2947  140.2269  156.4703 H   0  0  0  0  0  0  0  0  0  0  0  0  # atno 8010 bound_to 7997
  140.1682  143.4064  152.1374 H   0  0  0  0  0  0  0  0  0  0  0  0  # atno 10167 bound_to 10162
  156.0249  130.4412  150.2864 H   0  0  0  0  0  0  0  0  0  0  0  0  # atno 10718 bound_to 10713
  153.4954  135.3649  155.2513 H   0  0  0  0  0  0  0  0  0  0  0  0  # atno 10763 bound_to 10752
  154.8750  135.3987  154.3540 H   0  0  0  0  0  0  0  0  0  0  0  0  # atno 10764 bound_to 10752
  153.4167  135.7079  153.6388 H   0  0  0  0  0  0  0  0  0  0  0  0  # atno 10765 bound_to 10752
  140.1991  134.3892  155.8105 H   0  0  0  0  0  0  0  0  0  0  0  0  # atno 11005 bound_to 11000
  144.7046  140.3798  143.7128 LP  0  0  0  0  0  0  0  0  0  0  0  0  # atno 17320 bound_to 7965
  145.6984  139.1655  143.2607 LP  0  0  0  0  0  0  0  0  0  0  0  0  # atno 17321 bound_to 7965
  139.5350  144.7199  151.4925 LP  0  0  0  0  0  0  0  0  0  0  0  0  # atno 17342 bound_to 10162
  140.6599  143.8520  150.6876 LP  0  0  0  0  0  0  0  0  0  0  0  0  # atno 17343 bound_to 10162
  157.0967  131.0184  151.3101 LP  0  0  0  0  0  0  0  0  0  0  0  0  # atno 17370 bound_to 10713
  157.4811  130.7766  149.7415 LP  0  0  0  0  0  0  0  0  0  0  0  0  # atno 17371 bound_to 10713
  141.2227  133.7085  156.8227 LP  0  0  0  0  0  0  0  0  0  0  0  0  # atno 17394 bound_to 11000
  140.2074  134.8852  157.3237 LP  0  0  0  0  0  0  0  0  0  0  0  0  # atno 17395 bound_to 11000

$$$$
