AV-unprocessed.smi:1465|AV-procd|sdf|5952|dock5
  -GOLD-   22720 6 33D 1   1.00000     0.00000
 Structure written by MMmdl.
 54 55  0  0  0  0  0  0  0  0  2 V2000
  152.1948  142.9283  161.4813 C   0  0  0  0  0  0  0  0  0  0  0  0
  152.9626  141.9209  160.8459 O   0  0  0  0  0  0  0  0  0  0  0  0
  152.7799  141.9071  159.4403 C   0  0  0  0  0  0  0  0  0  0  0  0
  151.4666  141.1805  159.1149 C   0  0  0  0  0  0  0  0  0  0  0  0
  151.5039  140.5877  157.7716 N   0  0  0  0  0  0  0  0  0  0  0  0
  150.4970  140.9868  156.8718 C   0  0  0  0  0  0  0  0  0  0  0  0
  150.4167  140.5028  155.6170 C   0  0  0  0  0  0  0  0  0  0  0  0
  149.3346  140.9499  154.7371 C   0  0  0  0  0  0  0  0  0  0  0  0
  149.4987  141.4114  153.6069 O   0  0  0  0  0  0  0  0  0  0  0  0
  148.1104  140.8156  155.2758 N   0  0  0  0  0  0  0  0  0  0  0  0
  146.8504  141.1970  154.6392 C   0  0  2  0  0  0  0  0  0  0  0  0
  145.6688  140.4916  155.3259 C   0  0  0  0  0  0  0  0  0  0  0  0
  145.6343  138.9840  155.0147 C   0  0  0  0  0  0  0  0  0  0  0  0
  145.6123  138.7364  153.5481 N   0  3  2  0  0  0  0  0  0  0  0  0
  145.4519  137.3019  153.1940 C   0  0  0  0  0  0  0  0  0  0  0  0
  144.2092  137.0246  152.3197 C   0  0  0  0  0  0  0  0  0  0  0  0
  142.9232  137.3535  153.0923 C   0  0  0  0  0  0  0  0  0  0  0  0
  144.1746  135.5724  151.8141 C   0  0  0  0  0  0  0  0  0  0  0  0
  146.7850  139.3518  152.8748 C   0  0  0  0  0  0  0  0  0  0  0  0
  146.8447  140.8677  153.1337 C   0  0  0  0  0  0  0  0  0  0  0  0
  151.4279  139.5384  155.2089 C   0  0  0  0  0  0  0  0  0  0  0  0
  152.3880  139.1469  156.0696 C   0  0  0  0  0  0  0  0  0  0  0  0
  152.4585  139.6685  157.4379 C   0  0  0  0  0  0  0  0  0  0  0  0
  153.3217  139.2985  158.2339 O   0  0  0  0  0  0  0  0  0  0  0  0
  152.3682  142.8976  162.5570 H   0  0  0  0  0  0  0  0  0  0  0  0
  151.1280  142.7799  161.3075 H   0  0  0  0  0  0  0  0  0  0  0  0
  152.4731  143.9210  161.1239 H   0  0  0  0  0  0  0  0  0  0  0  0
  152.7527  142.9291  159.0587 H   0  0  0  0  0  0  0  0  0  0  0  0
  153.6184  141.3983  158.9617 H   0  0  0  0  0  0  0  0  0  0  0  0
  151.2842  140.4049  159.8604 H   0  0  0  0  0  0  0  0  0  0  0  0
  150.6254  141.8691  159.2129 H   0  0  0  0  0  0  0  0  0  0  0  0
  149.7952  141.7008  157.2804 H   0  0  0  0  0  0  0  0  0  0  0  0
  148.0525  140.4368  156.2098 H   0  0  0  0  0  0  0  0  0  0  0  0
  146.7212  142.2735  154.7659 H   0  0  0  0  0  0  0  0  0  0  0  0
  145.7079  140.6512  156.4043 H   0  0  0  0  0  0  0  0  0  0  0  0
  144.7360  140.9449  154.9873 H   0  0  0  0  0  0  0  0  0  0  0  0
  146.4997  138.4869  155.4558 H   0  0  0  0  0  0  0  0  0  0  0  0
  144.7530  138.5527  155.4868 H   0  0  0  0  0  0  0  0  0  0  0  0
  146.3323  136.9616  152.6464 H   0  0  0  0  0  0  0  0  0  0  0  0
  145.4190  136.7092  154.1096 H   0  0  0  0  0  0  0  0  0  0  0  0
  144.2263  137.6814  151.4508 H   0  0  0  0  0  0  0  0  0  0  0  0
  142.8196  136.7262  153.9783 H   0  0  0  0  0  0  0  0  0  0  0  0
  142.0405  137.1985  152.4709 H   0  0  0  0  0  0  0  0  0  0  0  0
  142.9143  138.3941  153.4182 H   0  0  0  0  0  0  0  0  0  0  0  0
  144.1577  134.8636  152.6428 H   0  0  0  0  0  0  0  0  0  0  0  0
  145.0427  135.3425  151.1959 H   0  0  0  0  0  0  0  0  0  0  0  0
  143.2882  135.3908  151.2055 H   0  0  0  0  0  0  0  0  0  0  0  0
  147.7011  138.8698  153.2197 H   0  0  0  0  0  0  0  0  0  0  0  0
  146.7236  139.1804  151.7995 H   0  0  0  0  0  0  0  0  0  0  0  0
  145.9780  141.3402  152.6697 H   0  0  0  0  0  0  0  0  0  0  0  0
  147.7182  141.2967  152.6415 H   0  0  0  0  0  0  0  0  0  0  0  0
  151.4352  139.1170  154.2146 H   0  0  0  0  0  0  0  0  0  0  0  0
  153.1276  138.4298  155.7450 H   0  0  0  0  0  0  0  0  0  0  0  0
  144.7990  139.2101  153.1809 H   0  0  0  0  0  0  0  0  0  0  0  0
  1  2  1  0  0  0  0
  1 25  1  0  0  0  0
  1 26  1  0  0  0  0
  1 27  1  0  0  0  0
  2  3  1  0  0  0  0
  3  4  1  0  0  0  0
  3 28  1  0  0  0  0
  3 29  1  0  0  0  0
  4  5  1  0  0  0  0
  4 30  1  0  0  0  0
  4 31  1  0  0  0  0
  5 23  1  0  0  0  0
  5  6  1  0  0  0  0
  6  7  2  0  0  0  0
  6 32  1  0  0  0  0
  7  8  1  0  0  0  0
  7 21  1  0  0  0  0
  8  9  2  0  0  0  0
  8 10  1  0  0  0  0
 10 11  1  0  0  0  0
 10 33  1  0  0  0  0
 11 20  1  0  0  0  0
 11 12  1  0  0  0  0
 11 34  1  0  0  0  0
 12 13  1  0  0  0  0
 12 35  1  0  0  0  0
 12 36  1  0  0  0  0
 13 14  1  0  0  0  0
 13 37  1  0  0  0  0
 13 38  1  0  0  0  0
 14 15  1  0  0  0  0
 14 19  1  0  0  0  0
 14 54  1  0  0  0  0
 15 16  1  0  0  0  0
 15 39  1  0  0  0  0
 15 40  1  0  0  0  0
 16 17  1  0  0  0  0
 16 18  1  0  0  0  0
 16 41  1  0  0  0  0
 17 42  1  0  0  0  0
 17 43  1  0  0  0  0
 17 44  1  0  0  0  0
 18 45  1  0  0  0  0
 18 46  1  0  0  0  0
 18 47  1  0  0  0  0
 19 20  1  0  0  0  0
 19 48  1  0  0  0  0
 19 49  1  0  0  0  0
 20 50  1  0  0  0  0
 20 51  1  0  0  0  0
 21 22  2  0  0  0  0
 21 52  1  0  0  0  0
 22 23  1  0  0  0  0
 22 53  1  0  0  0  0
 23 24  2  0  0  0  0
M  CHG  1  14   1
M  END
> <s_m_source_file>
AV-unprocessed.smi

> <i_m_source_file_index>
1465

> <i_lp_mmshare_version>
43012

> <i_f3d_flags>
0

> <s_epik_input>
W0NIM11PW0NIMl1bQ0gyXW4xW2NIXWMoW2NIXVtjSF1jMT1PKUMoPU8pW05IXVtDSF0yW0NIMl1bQ0gyXU4oW0NIMl1bQ0gyXTIpW0NIMl1bQ0hdKFtDSDNdKVtDSDNd

> <s_epik_cmdline>
J2VwaWtfcHl0aG9uJywgJy1waCcsICc3LjAnLCAnLXRuJywgJzgnLCAnLW1hJywgJzIwMCcsICctbWV0YWxfYmluZGluZycsICctaW1hZScsICc8aW5maWxlLm1hZT4nLCAnLW9tYWUnLCAnPG91dGZpbGUubWFlPic=

> <r_lp_tautomer_probability>
1

> <r_epik_Ionization_Penalty>
0.00386091

> <r_epik_Ionization_Penalty_Charging>
0.0038603

> <r_epik_Ionization_Penalty_Neutral>
6.13806e-07

> <r_epik_State_Penalty>
0.00275716

> <r_epik_Charging_Adjusted_Penalty>
0.00661746

> <i_epik_Tot_Q>
1

> <i_epik_Tot_abs_Q>
1

> <r_epik_Metal_State_Penalty>
-0

> <b_epik_Metal_Only>
0

> <s_lp_Force_Field>
OPLS_2005

> <r_lp_Energy>
34.4783

> <b_lp_Chiralities_Consistent>
1

> <s_lp_Variant>
AV-unprocessed.smi:1465-2

> <Gold.Version>
5.8.1

> <Gold.Id.Protein>
6NUR|6NUR_protein|mol2

> <Gold.PLP.Fitness>
46.8485

> <Gold.PLP.PLP>
-39.3120

> <Gold.PLP.part.hbond>
-4.0000

> <Gold.PLP.part.metal>
0.0000

> <Gold.PLP.part.buried>
-1.6350

> <Gold.PLP.part.nonpolar>
-36.2647

> <Gold.PLP.part.repulsive>
3.1328

> <Gold.PLP.ligand.clash>
0.0000

> <Gold.PLP.ligand.torsion>
2.2308

> <Gold.PLP.Chemscore.Hbond>
3.9393

> <Gold.PLP.Chemscore.CHOScore>
0.0000

> <Gold.PLP.Chemscore.Metal>
0.0000

> <Gold.Chemscore.Hbonds>
donor molecule, donor type, donor heavy atom, donor atom, acceptor molecule, acceptor atom, score
      L1  H    14    54       P1 10175  2.00
      P1  H  7989  7998       L1     9  0.08
      P1  H  7997  8009       L1    24  0.88
      P1  H  8011  8017       L1     9  0.86

> <Gold.PLP.Chemscore.Internal.Correction>
0.1802

> <Gold.Rescore>
     Score         DG    S(hbond)    S(metal)    S(lipo)     H(rot)  DE(clash)    DE(int)     intcor
     13.59     -20.24       2.41        0.00      96.29       1.78       2.05       4.60       ----

> <Gold.Chemscore.Fitness>
13.5933

> <Gold.Chemscore.DG>
-20.2375

> <Gold.Chemscore.ZeroCoef>
-5.4800

> <Gold.Chemscore.Hbond>
2.4072

> <Gold.Chemscore.Metal>
0.0000

> <Gold.Chemscore.Lipo>
96.2946

> <Gold.Chemscore.Internal_Hbond>
0.0000

> <Gold.Chemscore.DEClash>
2.0465

> <Gold.Chemscore.DEInternal>
4.5977

> <Gold.Chemscore.Rot>
1.7769

> <Gold.Chemscore.Internal.Correction>
   9.000000E+99

> <Gold.Chemscore.Hbonds>
donor molecule, donor type, donor heavy atom, donor atom, acceptor molecule, acceptor atom, score
      L1  H    14    54       P1 10175  1.00
      P1  H  7989  7998       L1     9  0.01
      P1  H  7997  8009       L1    24  0.16
      P1  H  8011  8017       L1     9  0.85

> <Gold.Chemscore.Hbond.Weighted>
-8.0401

> <Gold.Chemscore.Metal.Weighted>
-0.0000

> <Gold.Chemscore.Lipo.Weighted>
-11.2665

> <Gold.Chemscore.Internal_Hbond.Weighted>
0.0000

> <Gold.Chemscore.DEClash.Weighted>
2.0465

> <Gold.Chemscore.DEInternal.Weighted>
4.5977

> <Gold.Chemscore.Rot.Weighted>
4.5490

> <Gold.Chemscore.Internal.Correction.Weighted>
   9.000000E+99

> <Gold.Protein.RotatedTorsions>
[ 6907 6896 6895 6894 ] final -177.49 input  -60.11 | X-H torsion
[ 7974 7965 7964 7962 ] final  129.34 input  175.53 | X-H torsion
[ 8008 7997 7996 7995 ] final  130.64 input   59.86 | X-H torsion
[ 10167 10162 10161 10158 ] final   44.85 input  -65.29 | X-H torsion
[ 10718 10713 10712 10709 ] final  -40.75 input   66.30 | X-H torsion
[ 10763 10752 10751 10750 ] final -139.94 input  -60.55 | X-H torsion
[ 11005 11000 10999 10996 ] final  140.68 input  -57.11 | X-H torsion

> <Gold.Protein.ActiveResidues>
 VAL166  LYS551  ARG553  GLY616  TRP617  ASP618  TYR619  PRO620  LYS621  CYS622 
 ASP623  PHE694  ASN695  SER759  ASP760  ASP761  ALA762  ILE779  LEU786  VAL792 
 PHE793  MET794  SER795  GLU796  ALA797  LYS798  CYS799  TRP800  GLU811  SER814 

> <Gold.Protein.RotatedAtoms>
  151.6218  133.3338  159.3089 H   0  0  0  0  0  0  0  0  0  0  0  0  # atno 6907 bound_to 6896
  150.8102  134.7256  159.6692 H   0  0  0  0  0  0  0  0  0  0  0  0  # atno 6908 bound_to 6896
  152.4198  134.5980  160.0044 H   0  0  0  0  0  0  0  0  0  0  0  0  # atno 6909 bound_to 6896
  145.0297  139.4057  143.5156 H   0  0  0  0  0  0  0  0  0  0  0  0  # atno 7974 bound_to 7965
  156.2958  140.2591  156.2796 H   0  0  0  0  0  0  0  0  0  0  0  0  # atno 8008 bound_to 7997
  154.9615  140.0392  157.2211 H   0  0  0  0  0  0  0  0  0  0  0  0  # atno 8009 bound_to 7997
  154.7942  140.2817  155.5973 H   0  0  0  0  0  0  0  0  0  0  0  0  # atno 8010 bound_to 7997
  140.3301  144.2599  150.6169 H   0  0  0  0  0  0  0  0  0  0  0  0  # atno 10167 bound_to 10162
  156.2779  130.4214  149.8368 H   0  0  0  0  0  0  0  0  0  0  0  0  # atno 10718 bound_to 10713
  154.8594  135.3568  154.5627 H   0  0  0  0  0  0  0  0  0  0  0  0  # atno 10763 bound_to 10752
  153.6242  135.7005  153.5304 H   0  0  0  0  0  0  0  0  0  0  0  0  # atno 10764 bound_to 10752
  153.3104  135.4180  155.1290 H   0  0  0  0  0  0  0  0  0  0  0  0  # atno 10765 bound_to 10752
  140.0345  134.9336  157.0726 H   0  0  0  0  0  0  0  0  0  0  0  0  # atno 11005 bound_to 11000
  146.3497  139.9841  142.8692 LP  0  0  0  0  0  0  0  0  0  0  0  0  # atno 17320 bound_to 7965
  145.1786  140.9756  143.4279 LP  0  0  0  0  0  0  0  0  0  0  0  0  # atno 17321 bound_to 7965
  140.5405  143.2224  151.8093 LP  0  0  0  0  0  0  0  0  0  0  0  0  # atno 17342 bound_to 10162
  139.4858  144.4607  151.9545 LP  0  0  0  0  0  0  0  0  0  0  0  0  # atno 17343 bound_to 10162
  156.5826  130.8472  151.3387 LP  0  0  0  0  0  0  0  0  0  0  0  0  # atno 17370 bound_to 10713
  157.7305  130.9686  150.1835 LP  0  0  0  0  0  0  0  0  0  0  0  0  # atno 17371 bound_to 10713
  140.4171  134.1920  155.7163 LP  0  0  0  0  0  0  0  0  0  0  0  0  # atno 17394 bound_to 11000
  141.1849  133.8333  157.1122 LP  0  0  0  0  0  0  0  0  0  0  0  0  # atno 17395 bound_to 11000

$$$$
