AV-unprocessed.smi:2246|AV-procd|sdf|9083|dock3
  -GOLD-   2272012283D 1   1.00000     0.00000
 Structure written by MMmdl.
 29 30  0  0  0  0  0  0  0  0  1 V2000
  150.6335  143.0783  156.2288 O   0  0  0  0  0  0  0  0  0  0  0  0
  150.9370  142.0065  156.7516 C   0  0  0  0  0  0  0  0  0  0  0  0
  151.1273  140.7173  155.9555 C   0  0  2  0  0  0  0  0  0  0  0  0
  150.0255  140.3853  155.0199 N   0  0  0  0  0  0  0  0  0  0  0  0
  148.9680  141.2605  154.8239 C   0  0  0  0  0  0  0  0  0  0  0  0
  147.9317  141.0074  153.9888 C   0  0  0  0  0  0  0  0  0  0  0  0
  146.6521  142.1534  153.8071 Cl  0  0  0  0  0  0  0  0  0  0  0  0
  147.8891  139.7567  153.2339 C   0  0  0  0  0  0  0  0  0  0  0  0
  146.9992  139.4259  152.4528 O   0  0  0  0  0  0  0  0  0  0  0  0
  148.9736  138.9037  153.4552 N   0  0  0  0  0  0  0  0  0  0  0  0
  150.0448  139.1548  154.3126 C   0  0  0  0  0  0  0  0  0  0  0  0
  150.9432  138.3199  154.4181 O   0  0  0  0  0  0  0  0  0  0  0  0
  151.3811  139.6485  157.0378 C   0  0  0  0  0  0  0  0  0  0  0  0
  151.5323  140.4234  158.3568 C   0  0  0  0  0  0  0  0  0  0  0  0
  151.1601  141.7971  158.0536 N   0  0  0  0  0  0  0  0  0  0  0  0
  151.0734  142.7948  159.1180 C   0  0  0  0  0  0  0  0  0  0  0  0
  152.2285  143.8117  159.0653 C   0  0  0  0  0  0  0  0  0  0  0  0
  152.0722  144.6944  160.0509 F   0  0  0  0  0  0  0  0  0  0  0  0
  153.4089  143.2123  159.2190 F   0  0  0  0  0  0  0  0  0  0  0  0
  152.2176  144.4660  157.9039 F   0  0  0  0  0  0  0  0  0  0  0  0
  148.9820  138.0289  152.9511 H   0  0  0  0  0  0  0  0  0  0  0  0
  152.0536  140.8581  155.3960 H   0  0  0  0  0  0  0  0  0  0  0  0
  148.9626  142.1960  155.3651 H   0  0  0  0  0  0  0  0  0  0  0  0
  150.5649  138.9309  157.1204 H   0  0  0  0  0  0  0  0  0  0  0  0
  152.2786  139.0695  156.8174 H   0  0  0  0  0  0  0  0  0  0  0  0
  150.8927  140.0104  159.1378 H   0  0  0  0  0  0  0  0  0  0  0  0
  152.5637  140.3950  158.7106 H   0  0  0  0  0  0  0  0  0  0  0  0
  150.1205  143.3193  159.0356 H   0  0  0  0  0  0  0  0  0  0  0  0
  151.0596  142.2940  160.0874 H   0  0  0  0  0  0  0  0  0  0  0  0
  1  2  2  0  0  0  0
  2 15  1  0  0  0  0
  2  3  1  0  0  0  0
  3  4  1  0  0  0  0
  3 13  1  0  0  0  0
  3 22  1  0  0  0  0
  4 11  1  0  0  0  0
  4  5  1  0  0  0  0
  5  6  2  0  0  0  0
  5 23  1  0  0  0  0
  6  7  1  0  0  0  0
  6  8  1  0  0  0  0
  8  9  2  0  0  0  0
  8 10  1  0  0  0  0
 10 21  1  0  0  0  0
 10 11  1  0  0  0  0
 11 12  2  0  0  0  0
 13 14  1  0  0  0  0
 13 24  1  0  0  0  0
 13 25  1  0  0  0  0
 14 15  1  0  0  0  0
 14 26  1  0  0  0  0
 14 27  1  0  0  0  0
 15 16  1  0  0  0  0
 16 17  1  0  0  0  0
 16 28  1  0  0  0  0
 16 29  1  0  0  0  0
 17 18  1  0  0  0  0
 17 19  1  0  0  0  0
 17 20  1  0  0  0  0
M  END
> <s_m_source_file>
AV-unprocessed.smi

> <i_m_source_file_index>
2246

> <i_lp_mmshare_version>
43012

> <i_f3d_flags>
0

> <s_epik_input>
RkMoRikoRilbQ0gyXU4xW0NIMl1bQ0gyXVtDQEBIXShDMT1PKW4yW2NIXWMoQ2wpYyg9TylbbkhdYzI9Tw==

> <s_epik_cmdline>
J2VwaWtfcHl0aG9uJywgJy1waCcsICc3LjAnLCAnLXRuJywgJzgnLCAnLW1hJywgJzIwMCcsICctbWV0YWxfYmluZGluZycsICctaW1hZScsICc8aW5maWxlLm1hZT4nLCAnLW9tYWUnLCAnPG91dGZpbGUubWFlPic=

> <r_lp_tautomer_probability>
0.999537

> <r_epik_Ionization_Penalty>
0.0656354

> <r_epik_Ionization_Penalty_Charging>
0.0656354

> <r_epik_Ionization_Penalty_Neutral>
1.30579e-10

> <r_epik_State_Penalty>
0.0572525

> <r_epik_Charging_Adjusted_Penalty>
0.122888

> <i_epik_Tot_Q>
0

> <i_epik_Tot_abs_Q>
0

> <r_epik_Metal_State_Penalty>
2.74286

> <b_epik_Metal_Only>
0

> <s_lp_Force_Field>
OPLS_2005

> <r_lp_Energy>
22.3253

> <b_lp_Chiralities_Consistent>
1

> <s_lp_Variant>
AV-unprocessed.smi:2246-2

> <Gold.Version>
5.8.1

> <Gold.Id.Protein>
6NUR|6NUR_protein|mol2

> <Gold.PLP.Fitness>
48.1442

> <Gold.PLP.PLP>
-42.7193

> <Gold.PLP.part.hbond>
-1.8474

> <Gold.PLP.part.metal>
0.0000

> <Gold.PLP.part.buried>
-4.0176

> <Gold.PLP.part.nonpolar>
-41.9593

> <Gold.PLP.part.repulsive>
5.7922

> <Gold.PLP.ligand.clash>
0.0000

> <Gold.PLP.ligand.torsion>
0.1807

> <Gold.PLP.Chemscore.Hbond>
0.9100

> <Gold.PLP.Chemscore.CHOScore>
0.9838

> <Gold.PLP.Chemscore.Metal>
0.0000

> <Gold.Chemscore.Hbonds>
donor molecule, donor type, donor heavy atom, donor atom, acceptor molecule, acceptor atom, score
      L1  H    10    21       P1  7948  0.89
      L1  C     5    23       P1  8028  0.99

> <Gold.PLP.Chemscore.Internal.Correction>
0.1047

> <Gold.Rescore>
     Score         DG    S(hbond)    S(metal)    S(lipo)     H(rot)  DE(clash)    DE(int)     intcor
      6.51     -11.32       0.96        0.00      54.67       1.46       0.71       4.10       ----

> <Gold.Chemscore.Fitness>
6.5109

> <Gold.Chemscore.DG>
-11.3203

> <Gold.Chemscore.ZeroCoef>
-5.4800

> <Gold.Chemscore.Hbond>
0.9551

> <Gold.Chemscore.Metal>
0.0000

> <Gold.Chemscore.Lipo>
54.6656

> <Gold.Chemscore.Internal_Hbond>
0.0000

> <Gold.Chemscore.DEClash>
0.7119

> <Gold.Chemscore.DEInternal>
4.0976

> <Gold.Chemscore.Rot>
1.4632

> <Gold.Chemscore.Internal.Correction>
   9.000000E+99

> <Gold.Chemscore.Hbonds>
donor molecule, donor type, donor heavy atom, donor atom, acceptor molecule, acceptor atom, score
      L1  H    10    21       P1  7948  0.87

> <Gold.Chemscore.Hbond.Weighted>
-3.1902

> <Gold.Chemscore.Metal.Weighted>
-0.0000

> <Gold.Chemscore.Lipo.Weighted>
-6.3959

> <Gold.Chemscore.Internal_Hbond.Weighted>
0.0000

> <Gold.Chemscore.DEClash.Weighted>
0.7119

> <Gold.Chemscore.DEInternal.Weighted>
4.0976

> <Gold.Chemscore.Rot.Weighted>
3.7458

> <Gold.Chemscore.Internal.Correction.Weighted>
   9.000000E+99

> <Gold.Protein.RotatedTorsions>
[ 6907 6896 6895 6894 ] final  -25.35 input  -60.11 | X-H torsion
[ 7974 7965 7964 7962 ] final -122.71 input  175.53 | X-H torsion
[ 8008 7997 7996 7995 ] final   61.19 input   59.86 | X-H torsion
[ 10167 10162 10161 10158 ] final  155.57 input  -65.29 | X-H torsion
[ 10718 10713 10712 10709 ] final  166.65 input   66.30 | X-H torsion
[ 10763 10752 10751 10750 ] final  -41.40 input  -60.55 | X-H torsion
[ 11005 11000 10999 10996 ] final  130.16 input  -57.11 | X-H torsion

> <Gold.Protein.ActiveResidues>
 VAL166  LYS551  ARG553  GLY616  TRP617  ASP618  TYR619  PRO620  LYS621  CYS622 
 ASP623  PHE694  ASN695  SER759  ASP760  ASP761  ALA762  ILE779  LEU786  VAL792 
 PHE793  MET794  SER795  GLU796  ALA797  LYS798  CYS799  TRP800  GLU811  SER814 

> <Gold.Protein.RotatedAtoms>
  151.1764  135.0341  159.8773 H   0  0  0  0  0  0  0  0  0  0  0  0  # atno 6907 bound_to 6896
  152.5447  134.1112  159.8369 H   0  0  0  0  0  0  0  0  0  0  0  0  # atno 6908 bound_to 6896
  151.1224  133.5048  159.2634 H   0  0  0  0  0  0  0  0  0  0  0  0  # atno 6909 bound_to 6896
  145.0265  140.8032  143.4349 H   0  0  0  0  0  0  0  0  0  0  0  0  # atno 7974 bound_to 7965
  155.5944  140.3493  155.4575 H   0  0  0  0  0  0  0  0  0  0  0  0  # atno 8008 bound_to 7997
  156.0277  140.1267  157.0316 H   0  0  0  0  0  0  0  0  0  0  0  0  # atno 8009 bound_to 7997
  154.4339  140.1050  156.6040 H   0  0  0  0  0  0  0  0  0  0  0  0  # atno 8010 bound_to 7997
  139.4821  144.5086  151.8059 H   0  0  0  0  0  0  0  0  0  0  0  0  # atno 10167 bound_to 10162
  157.0629  131.0345  151.2640 H   0  0  0  0  0  0  0  0  0  0  0  0  # atno 10718 bound_to 10713
  153.9618  135.6738  153.4745 H   0  0  0  0  0  0  0  0  0  0  0  0  # atno 10763 bound_to 10752
  153.0834  135.4911  154.8546 H   0  0  0  0  0  0  0  0  0  0  0  0  # atno 10764 bound_to 10752
  154.7268  135.3129  154.8917 H   0  0  0  0  0  0  0  0  0  0  0  0  # atno 10765 bound_to 10752
  139.9656  134.9591  156.9254 H   0  0  0  0  0  0  0  0  0  0  0  0  # atno 11005 bound_to 11000
  145.1827  139.2343  143.5284 LP  0  0  0  0  0  0  0  0  0  0  0  0  # atno 17320 bound_to 7965
  146.3493  140.1604  142.8591 LP  0  0  0  0  0  0  0  0  0  0  0  0  # atno 17321 bound_to 7965
  140.4587  144.1752  150.5904 LP  0  0  0  0  0  0  0  0  0  0  0  0  # atno 17342 bound_to 10162
  140.4507  143.2488  151.9351 LP  0  0  0  0  0  0  0  0  0  0  0  0  # atno 17343 bound_to 10162
  157.4940  130.7839  149.7537 LP  0  0  0  0  0  0  0  0  0  0  0  0  # atno 17370 bound_to 10713
  155.9973  130.3901  150.2745 LP  0  0  0  0  0  0  0  0  0  0  0  0  # atno 17371 bound_to 10713
  140.5403  134.0726  155.7340 LP  0  0  0  0  0  0  0  0  0  0  0  0  # atno 17394 bound_to 11000
  141.1336  133.9260  157.2483 LP  0  0  0  0  0  0  0  0  0  0  0  0  # atno 17395 bound_to 11000

$$$$
