AV-unprocessed.smi:2042|AV-procd|sdf|8294|dock3
  -GOLD-   2272010563D 1   1.00000     0.00000
 Structure written by MMmdl.
 30 31  0  0  0  0  0  0  0  0  1 V2000
  146.7705  133.0843  153.8675 O   0  0  0  0  0  0  0  0  0  0  0  0
  147.6364  132.6637  153.1038 C   0  0  0  0  0  0  0  0  0  0  0  0
  147.4413  132.3814  151.8004 N   0  0  0  0  0  0  0  0  0  0  0  0
  146.2399  132.4400  151.0428 C   0  0  0  0  0  0  0  0  0  0  0  0
  146.1493  132.1552  149.6585 C   0  0  0  0  0  0  0  0  0  0  0  0
  144.8989  132.2707  149.0209 C   0  0  0  0  0  0  0  0  0  0  0  0
  143.7872  132.6718  149.7865 C   0  0  0  0  0  0  0  0  0  0  0  0
  143.8608  132.9575  151.1033 N   0  0  0  0  0  0  0  0  0  0  0  0
  145.0630  132.8454  151.7075 C   0  0  0  0  0  0  0  0  0  0  0  0
  148.9001  132.4776  153.5257 N   0  0  0  0  0  0  0  0  0  0  0  0
  149.4510  132.6868  154.8657 C   0  0  2  0  0  0  0  0  0  0  0  0
  150.3726  133.9205  154.8960 C   0  0  0  0  0  0  0  0  0  0  0  0
  151.1922  133.8910  156.1920 C   0  0  0  0  0  0  0  0  0  0  0  0
  151.4288  132.1203  156.6033 S   0  0  0  0  0  0  0  0  0  0  0  0
  152.7978  131.7107  156.2551 O   0  0  0  0  0  0  0  0  0  0  0  0
  150.8795  131.8652  157.9436 O   0  0  0  0  0  0  0  0  0  0  0  0
  150.2713  131.4754  155.3382 C   0  0  0  0  0  0  0  0  0  0  0  0
  148.2669  132.1275  151.2778 H   0  0  0  0  0  0  0  0  0  0  0  0
  147.0064  131.8665  149.0709 H   0  0  0  0  0  0  0  0  0  0  0  0
  144.7958  132.0609  147.9665 H   0  0  0  0  0  0  0  0  0  0  0  0
  142.8145  132.7712  149.3276 H   0  0  0  0  0  0  0  0  0  0  0  0
  145.0847  133.0861  152.7606 H   0  0  0  0  0  0  0  0  0  0  0  0
  149.5627  132.1786  152.8247 H   0  0  0  0  0  0  0  0  0  0  0  0
  148.6455  132.8681  155.5798 H   0  0  0  0  0  0  0  0  0  0  0  0
  151.0595  133.8775  154.0493 H   0  0  0  0  0  0  0  0  0  0  0  0
  149.8098  134.8497  154.8008 H   0  0  0  0  0  0  0  0  0  0  0  0
  152.1568  134.3898  156.0975 H   0  0  0  0  0  0  0  0  0  0  0  0
  150.6391  134.3542  157.0094 H   0  0  0  0  0  0  0  0  0  0  0  0
  149.6592  130.6792  155.7620 H   0  0  0  0  0  0  0  0  0  0  0  0
  150.8673  131.0602  154.5245 H   0  0  0  0  0  0  0  0  0  0  0  0
  1  2  2  0  0  0  0
  2  3  1  0  0  0  0
  2 10  1  0  0  0  0
  3  4  1  0  0  0  0
  3 18  1  0  0  0  0
  4  9  1  0  0  0  0
  4  5  2  0  0  0  0
  5  6  1  0  0  0  0
  5 19  1  0  0  0  0
  6  7  2  0  0  0  0
  6 20  1  0  0  0  0
  7  8  1  0  0  0  0
  7 21  1  0  0  0  0
  8  9  2  0  0  0  0
  9 22  1  0  0  0  0
 10 11  1  0  0  0  0
 10 23  1  0  0  0  0
 11 17  1  0  0  0  0
 11 12  1  0  0  0  0
 11 24  1  0  0  0  0
 12 13  1  0  0  0  0
 12 25  1  0  0  0  0
 12 26  1  0  0  0  0
 13 14  1  0  0  0  0
 13 27  1  0  0  0  0
 13 28  1  0  0  0  0
 14 15  2  0  0  0  0
 14 16  2  0  0  0  0
 14 17  1  0  0  0  0
 17 29  1  0  0  0  0
 17 30  1  0  0  0  0
M  END
> <s_m_source_file>
AV-unprocessed.smi

> <i_m_source_file_index>
2042

> <i_lp_mmshare_version>
43012

> <i_f3d_flags>
0

> <s_epik_input>
Tz1TMSg9TylbQ0gyXVtDSDJdW0NASF0oW0NIMl0xKVtOSF1DKD1PKVtOSF1jMltjSF1bY0hdW2NIXW5bY0hdMg==

> <s_epik_cmdline>
J2VwaWtfcHl0aG9uJywgJy1waCcsICc3LjAnLCAnLXRuJywgJzgnLCAnLW1hJywgJzIwMCcsICctbWV0YWxfYmluZGluZycsICctaW1hZScsICc8aW5maWxlLm1hZT4nLCAnLW9tYWUnLCAnPG91dGZpbGUubWFlPic=

> <r_epik_Ionization_Penalty>
0.00421056

> <r_epik_Ionization_Penalty_Charging>
0

> <r_epik_Ionization_Penalty_Neutral>
0.00421056

> <r_epik_State_Penalty>
0.00300625

> <r_epik_Charging_Adjusted_Penalty>
0.00300625

> <i_epik_Tot_Q>
0

> <i_epik_Tot_abs_Q>
0

> <r_epik_Metal_State_Penalty>
-0

> <b_epik_Metal_Only>
0

> <s_lp_Force_Field>
OPLS_2005

> <r_lp_Energy>
18.6302

> <b_lp_Chiralities_Consistent>
1

> <s_lp_Variant>
AV-unprocessed.smi:2042-1

> <Gold.Version>
5.8.1

> <Gold.Id.Protein>
6NUR|6NUR_protein|mol2

> <Gold.PLP.Fitness>
37.3238

> <Gold.PLP.PLP>
-28.5709

> <Gold.PLP.part.hbond>
-2.0000

> <Gold.PLP.part.metal>
0.0000

> <Gold.PLP.part.buried>
-3.1277

> <Gold.PLP.part.nonpolar>
-23.8710

> <Gold.PLP.part.repulsive>
0.2899

> <Gold.PLP.ligand.clash>
0.0000

> <Gold.PLP.ligand.torsion>
0.1118

> <Gold.PLP.Chemscore.Hbond>
1.9920

> <Gold.PLP.Chemscore.CHOScore>
1.0000

> <Gold.PLP.Chemscore.Metal>
0.0000

> <Gold.Chemscore.Hbonds>
donor molecule, donor type, donor heavy atom, donor atom, acceptor molecule, acceptor atom, score
      L1  H     3    18       P1 10747  0.90
      P1  H  6896  6909       L1    16  1.00
      L1  C     7    21       P1 10186  1.00

> <Gold.PLP.Chemscore.Internal.Correction>
0.0005

> <Gold.Rescore>
     Score         DG    S(hbond)    S(metal)    S(lipo)     H(rot)  DE(clash)    DE(int)     intcor
     16.40     -18.21       1.97        0.00      74.37       1.00       0.29       1.53       ----

> <Gold.Chemscore.Fitness>
16.3986

> <Gold.Chemscore.DG>
-18.2119

> <Gold.Chemscore.ZeroCoef>
-5.4800

> <Gold.Chemscore.Hbond>
1.9734

> <Gold.Chemscore.Metal>
0.0000

> <Gold.Chemscore.Lipo>
74.3654

> <Gold.Chemscore.Internal_Hbond>
0.0000

> <Gold.Chemscore.DEClash>
0.2868

> <Gold.Chemscore.DEInternal>
1.5266

> <Gold.Chemscore.Rot>
1.0000

> <Gold.Chemscore.Internal.Correction>
   9.000000E+99

> <Gold.Chemscore.Hbonds>
donor molecule, donor type, donor heavy atom, donor atom, acceptor molecule, acceptor atom, score
      L1  H     3    18       P1 10747  0.88
      P1  H  6896  6909       L1    16  0.75

> <Gold.Chemscore.Hbond.Weighted>
-6.5912

> <Gold.Chemscore.Metal.Weighted>
-0.0000

> <Gold.Chemscore.Lipo.Weighted>
-8.7008

> <Gold.Chemscore.Internal_Hbond.Weighted>
0.0000

> <Gold.Chemscore.DEClash.Weighted>
0.2868

> <Gold.Chemscore.DEInternal.Weighted>
1.5266

> <Gold.Chemscore.Rot.Weighted>
2.5600

> <Gold.Chemscore.Internal.Correction.Weighted>
   9.000000E+99

> <Gold.Protein.RotatedTorsions>
[ 6907 6896 6895 6894 ] final  -43.35 input  -60.11 | X-H torsion
[ 7974 7965 7964 7962 ] final  171.75 input  175.53 | X-H torsion
[ 8008 7997 7996 7995 ] final  141.68 input   59.86 | X-H torsion
[ 10167 10162 10161 10158 ] final  141.32 input  -65.29 | X-H torsion
[ 10718 10713 10712 10709 ] final    1.50 input   66.30 | X-H torsion
[ 10763 10752 10751 10750 ] final  176.60 input  -60.55 | X-H torsion
[ 11005 11000 10999 10996 ] final   75.75 input  -57.11 | X-H torsion

> <Gold.Protein.ActiveResidues>
 VAL166  LYS551  ARG553  GLY616  TRP617  ASP618  TYR619  PRO620  LYS621  CYS622 
 ASP623  PHE694  ASN695  SER759  ASP760  ASP761  ALA762  ILE779  LEU786  VAL792 
 PHE793  MET794  SER795  GLU796  ALA797  LYS798  CYS799  TRP800  GLU811  SER814 

> <Gold.Protein.RotatedAtoms>
  150.9449  134.8855  159.7635 H   0  0  0  0  0  0  0  0  0  0  0  0  # atno 6907 bound_to 6896
  152.5096  134.3889  159.9387 H   0  0  0  0  0  0  0  0  0  0  0  0  # atno 6908 bound_to 6896
  151.3908  133.3749  159.2755 H   0  0  0  0  0  0  0  0  0  0  0  0  # atno 6909 bound_to 6896
  144.7286  139.9397  143.6428 H   0  0  0  0  0  0  0  0  0  0  0  0  # atno 7974 bound_to 7965
  156.2962  140.2309  156.4604 H   0  0  0  0  0  0  0  0  0  0  0  0  # atno 8008 bound_to 7997
  154.8023  140.0448  157.1303 H   0  0  0  0  0  0  0  0  0  0  0  0  # atno 8009 bound_to 7997
  154.9519  140.3043  155.5075 H   0  0  0  0  0  0  0  0  0  0  0  0  # atno 8010 bound_to 7997
  139.5024  144.6179  151.6121 H   0  0  0  0  0  0  0  0  0  0  0  0  # atno 10167 bound_to 10162
  156.8491  130.5547  149.5671 H   0  0  0  0  0  0  0  0  0  0  0  0  # atno 10718 bound_to 10713
  154.4832  135.2776  155.1554 H   0  0  0  0  0  0  0  0  0  0  0  0  # atno 10763 bound_to 10752
  154.3256  135.6201  153.5531 H   0  0  0  0  0  0  0  0  0  0  0  0  # atno 10764 bound_to 10752
  152.9878  135.5753  154.5238 H   0  0  0  0  0  0  0  0  0  0  0  0  # atno 10765 bound_to 10752
  139.9329  134.7543  156.1309 H   0  0  0  0  0  0  0  0  0  0  0  0  # atno 11005 bound_to 11000
  146.0794  139.3782  143.0474 LP  0  0  0  0  0  0  0  0  0  0  0  0  # atno 17320 bound_to 7965
  145.7861  140.9835  143.1073 LP  0  0  0  0  0  0  0  0  0  0  0  0  # atno 17321 bound_to 7965
  140.5872  143.9843  150.6303 LP  0  0  0  0  0  0  0  0  0  0  0  0  # atno 17342 bound_to 10162
  140.3011  143.3259  152.0970 LP  0  0  0  0  0  0  0  0  0  0  0  0  # atno 17343 bound_to 10162
  156.0838  130.5842  150.9611 LP  0  0  0  0  0  0  0  0  0  0  0  0  # atno 17370 bound_to 10713
  157.6313  131.0920  150.8435 LP  0  0  0  0  0  0  0  0  0  0  0  0  # atno 17371 bound_to 10713
  141.0928  133.6707  156.2579 LP  0  0  0  0  0  0  0  0  0  0  0  0  # atno 17394 bound_to 11000
  140.6152  134.5418  157.5539 LP  0  0  0  0  0  0  0  0  0  0  0  0  # atno 17395 bound_to 11000

$$$$
