AV-unprocessed.smi:1962|AV-procd|sdf|7925|dock7
  -GOLD-   2272010 93D 1   1.00000     0.00000
 Structure written by MMmdl.
 35 36  0  0  0  0  0  0  0  0  2 V2000
  153.0564  142.6069  162.3767 C   0  0  0  0  0  0  0  0  0  0  0  0
  153.1748  141.6849  161.1553 C   0  0  1  0  0  0  0  0  0  0  0  0
  153.3226  142.5048  159.8460 C   0  0  0  0  0  0  0  0  0  0  0  0
  152.1876  143.3739  159.5430 N   0  0  0  0  0  0  0  0  0  0  0  0
  151.4478  143.4608  158.3781 C   0  0  0  0  0  0  0  0  0  0  0  0
  150.4818  144.4054  158.5741 C   0  0  0  0  0  0  0  0  0  0  0  0
  150.7012  144.8397  159.9106 C   0  0  0  0  0  0  0  0  0  0  0  0
  151.7105  144.2135  160.4918 N   0  0  0  0  0  0  0  0  0  0  0  0
  154.3371  140.8081  161.3403 N   0  5  0  0  0  0  0  0  0  0  0  0
  154.6925  139.7773  160.5136 C   0  0  0  0  0  0  0  0  0  0  0  0
  154.8353  139.8437  159.2864 O   0  0  0  0  0  0  0  0  0  0  0  0
  154.9425  138.4317  161.1106 C   0  0  0  0  0  0  0  0  0  0  0  0
  155.0035  138.3035  162.3996 N   0  0  0  0  0  0  0  0  0  0  0  0
  155.2166  137.0855  163.0109 N   0  0  0  0  0  0  0  0  0  0  0  0
  154.9920  137.0790  164.4548 C   0  0  0  0  0  0  0  0  0  0  0  0
  155.6264  135.9628  162.3707 C   0  0  0  0  0  0  0  0  0  0  0  0
  155.7876  134.8767  162.9280 O   0  0  0  0  0  0  0  0  0  0  0  0
  155.9264  136.1013  160.8762 C   0  0  0  0  0  0  0  0  0  0  0  0
  155.0916  137.2148  160.2138 C   0  0  0  0  0  0  0  0  0  0  0  0
  152.1909  143.2636  162.2875 H   0  0  0  0  0  0  0  0  0  0  0  0
  153.9399  143.2365  162.4897 H   0  0  0  0  0  0  0  0  0  0  0  0
  152.9365  142.0311  163.2953 H   0  0  0  0  0  0  0  0  0  0  0  0
  152.2436  141.1192  161.0945 H   0  0  0  0  0  0  0  0  0  0  0  0
  154.2070  143.1394  159.9128 H   0  0  0  0  0  0  0  0  0  0  0  0
  153.4935  141.8369  158.9997 H   0  0  0  0  0  0  0  0  0  0  0  0
  151.6756  142.8542  157.5139 H   0  0  0  0  0  0  0  0  0  0  0  0
  149.7328  144.7351  157.8698 H   0  0  0  0  0  0  0  0  0  0  0  0
  150.1570  145.5825  160.4747 H   0  0  0  0  0  0  0  0  0  0  0  0
  154.1732  136.4056  164.7110 H   0  0  0  0  0  0  0  0  0  0  0  0
  154.7361  138.0701  164.8329 H   0  0  0  0  0  0  0  0  0  0  0  0
  155.8866  136.7478  164.9838 H   0  0  0  0  0  0  0  0  0  0  0  0
  156.9877  136.3313  160.7756 H   0  0  0  0  0  0  0  0  0  0  0  0
  155.7609  135.1503  160.3687 H   0  0  0  0  0  0  0  0  0  0  0  0
  154.1019  136.8361  159.9560 H   0  0  0  0  0  0  0  0  0  0  0  0
  155.5741  137.4817  159.2731 H   0  0  0  0  0  0  0  0  0  0  0  0
  1  2  1  0  0  0  0
  1 20  1  0  0  0  0
  1 21  1  0  0  0  0
  1 22  1  0  0  0  0
  2  3  1  0  0  0  0
  2  9  1  0  0  0  0
  2 23  1  0  0  0  0
  3  4  1  0  0  0  0
  3 24  1  0  0  0  0
  3 25  1  0  0  0  0
  4  8  1  0  0  0  0
  4  5  1  0  0  0  0
  5  6  2  0  0  0  0
  5 26  1  0  0  0  0
  6  7  1  0  0  0  0
  6 27  1  0  0  0  0
  7  8  2  0  0  0  0
  7 28  1  0  0  0  0
  9 10  1  0  0  0  0
 10 11  2  0  0  0  0
 10 12  1  0  0  0  0
 12 19  1  0  0  0  0
 12 13  2  0  0  0  0
 13 14  1  0  0  0  0
 14 15  1  0  0  0  0
 14 16  1  0  0  0  0
 15 29  1  0  0  0  0
 15 30  1  0  0  0  0
 15 31  1  0  0  0  0
 16 17  2  0  0  0  0
 16 18  1  0  0  0  0
 18 19  1  0  0  0  0
 18 32  1  0  0  0  0
 18 33  1  0  0  0  0
 19 34  1  0  0  0  0
 19 35  1  0  0  0  0
M  CHG  1   9  -1
M  END
> <s_m_source_file>
AV-unprocessed.smi

> <i_m_source_file_index>
1962

> <i_lp_mmshare_version>
43012

> <i_f3d_flags>
0

> <s_epik_input>
bjFbY0hdW2NIXVtjSF1uMVtDSDJdW0NAQEhdKFtDSDNdKVtOSF1DKD1PKUMyPU5OKFtDSDNdKUMoPU8pW0NIMl1bQ0gyXTI=

> <s_epik_cmdline>
J2VwaWtfcHl0aG9uJywgJy1waCcsICc3LjAnLCAnLXRuJywgJzgnLCAnLW1hJywgJzIwMCcsICctbWV0YWxfYmluZGluZycsICctaW1hZScsICc8aW5maWxlLm1hZT4nLCAnLW9tYWUnLCAnPG91dGZpbGUubWFlPic=

> <r_lp_tautomer_probability>
1

> <r_epik_Ionization_Penalty>
5.21086

> <r_epik_Ionization_Penalty_Charging>
5.21084

> <r_epik_Ionization_Penalty_Neutral>
2.41961e-05

> <r_epik_State_Penalty>
5.21075

> <r_epik_Charging_Adjusted_Penalty>
10.4216

> <i_epik_Tot_Q>
-1

> <i_epik_Tot_abs_Q>
1

> <r_epik_Metal_State_Penalty>
1.27477

> <b_epik_Metal_Only>
1

> <s_epik_Chemistry_Notes>
This compound has an imine and may undergo hydrolysis.

> <s_lp_Force_Field>
OPLS_2005

> <r_lp_Energy>
25.3594

> <b_lp_Chiralities_Consistent>
1

> <s_lp_Variant>
AV-unprocessed.smi:1962-4

> <Gold.Version>
5.8.1

> <Gold.Id.Protein>
6NUR|6NUR_protein|mol2

> <Gold.PLP.Fitness>
47.6600

> <Gold.PLP.PLP>
-45.8521

> <Gold.PLP.part.hbond>
-1.0000

> <Gold.PLP.part.metal>
0.0000

> <Gold.PLP.part.buried>
-6.0624

> <Gold.PLP.part.nonpolar>
-37.8297

> <Gold.PLP.part.repulsive>
0.0937

> <Gold.PLP.ligand.clash>
0.0000

> <Gold.PLP.ligand.torsion>
0.6111

> <Gold.PLP.Chemscore.Hbond>
1.0000

> <Gold.PLP.Chemscore.CHOScore>
0.0000

> <Gold.PLP.Chemscore.Metal>
0.0000

> <Gold.Chemscore.Hbonds>
donor molecule, donor type, donor heavy atom, donor atom, acceptor molecule, acceptor atom, score
      P1  H  7997  8009       L1    11  1.00

> <Gold.PLP.Chemscore.Internal.Correction>
0.0300

> <Gold.Rescore>
     Score         DG    S(hbond)    S(metal)    S(lipo)     H(rot)  DE(clash)    DE(int)     intcor
     14.24     -16.05       0.98        0.00      95.04       1.50       0.08       1.74       ----

> <Gold.Chemscore.Fitness>
14.2384

> <Gold.Chemscore.DG>
-16.0545

> <Gold.Chemscore.ZeroCoef>
-5.4800

> <Gold.Chemscore.Hbond>
0.9839

> <Gold.Chemscore.Metal>
0.0000

> <Gold.Chemscore.Lipo>
95.0354

> <Gold.Chemscore.Internal_Hbond>
0.0000

> <Gold.Chemscore.DEClash>
0.0811

> <Gold.Chemscore.DEInternal>
1.7351

> <Gold.Chemscore.Rot>
1.4964

> <Gold.Chemscore.Internal.Correction>
   9.000000E+99

> <Gold.Chemscore.Hbonds>
donor molecule, donor type, donor heavy atom, donor atom, acceptor molecule, acceptor atom, score
      P1  H  7997  8009       L1    11  0.92

> <Gold.Chemscore.Hbond.Weighted>
-3.2862

> <Gold.Chemscore.Metal.Weighted>
-0.0000

> <Gold.Chemscore.Lipo.Weighted>
-11.1191

> <Gold.Chemscore.Internal_Hbond.Weighted>
0.0000

> <Gold.Chemscore.DEClash.Weighted>
0.0811

> <Gold.Chemscore.DEInternal.Weighted>
1.7351

> <Gold.Chemscore.Rot.Weighted>
3.8309

> <Gold.Chemscore.Internal.Correction.Weighted>
   9.000000E+99

> <Gold.Protein.RotatedTorsions>
[ 6907 6896 6895 6894 ] final  -42.45 input  -60.11 | X-H torsion
[ 7974 7965 7964 7962 ] final -157.24 input  175.53 | X-H torsion
[ 8008 7997 7996 7995 ] final  104.37 input   59.86 | X-H torsion
[ 10167 10162 10161 10158 ] final -124.55 input  -65.29 | X-H torsion
[ 10718 10713 10712 10709 ] final  -33.34 input   66.30 | X-H torsion
[ 10763 10752 10751 10750 ] final   89.56 input  -60.55 | X-H torsion
[ 11005 11000 10999 10996 ] final   -0.19 input  -57.11 | X-H torsion

> <Gold.Protein.ActiveResidues>
 VAL166  LYS551  ARG553  GLY616  TRP617  ASP618  TYR619  PRO620  LYS621  CYS622 
 ASP623  PHE694  ASN695  SER759  ASP760  ASP761  ALA762  ILE779  LEU786  VAL792 
 PHE793  MET794  SER795  GLU796  ALA797  LYS798  CYS799  TRP800  GLU811  SER814 

> <Gold.Protein.RotatedAtoms>
  150.9551  134.8947  159.7696 H   0  0  0  0  0  0  0  0  0  0  0  0  # atno 6907 bound_to 6896
  152.5135  134.3751  159.9341 H   0  0  0  0  0  0  0  0  0  0  0  0  # atno 6908 bound_to 6896
  151.3765  133.3796  159.2740 H   0  0  0  0  0  0  0  0  0  0  0  0  # atno 6909 bound_to 6896
  144.7557  140.3997  143.6014 H   0  0  0  0  0  0  0  0  0  0  0  0  # atno 7974 bound_to 7965
  156.1566  140.3149  155.8737 H   0  0  0  0  0  0  0  0  0  0  0  0  # atno 8008 bound_to 7997
  155.3865  140.0491  157.3059 H   0  0  0  0  0  0  0  0  0  0  0  0  # atno 8009 bound_to 7997
  154.5107  140.2163  155.9173 H   0  0  0  0  0  0  0  0  0  0  0  0  # atno 8010 bound_to 7997
  139.9915  143.5635  152.2340 H   0  0  0  0  0  0  0  0  0  0  0  0  # atno 10167 bound_to 10162
  156.3639  130.4328  149.7601 H   0  0  0  0  0  0  0  0  0  0  0  0  # atno 10718 bound_to 10713
  153.1884  135.4466  155.0118 H   0  0  0  0  0  0  0  0  0  0  0  0  # atno 10763 bound_to 10752
  154.8075  135.3280  154.7396 H   0  0  0  0  0  0  0  0  0  0  0  0  # atno 10764 bound_to 10752
  153.7852  135.6974  153.4936 H   0  0  0  0  0  0  0  0  0  0  0  0  # atno 10765 bound_to 10752
  140.6335  133.9554  155.8287 H   0  0  0  0  0  0  0  0  0  0  0  0  # atno 11005 bound_to 11000
  145.6787  139.1614  143.2713 LP  0  0  0  0  0  0  0  0  0  0  0  0  # atno 17320 bound_to 7965
  146.1564  140.6851  142.9298 LP  0  0  0  0  0  0  0  0  0  0  0  0  # atno 17321 bound_to 7965
  139.6336  144.7647  151.2484 LP  0  0  0  0  0  0  0  0  0  0  0  0  # atno 17342 bound_to 10162
  140.7453  143.6436  150.8312 LP  0  0  0  0  0  0  0  0  0  0  0  0  # atno 17343 bound_to 10162
  156.4754  130.8016  151.3033 LP  0  0  0  0  0  0  0  0  0  0  0  0  # atno 17370 bound_to 10713
  157.7476  131.0022  150.2993 LP  0  0  0  0  0  0  0  0  0  0  0  0  # atno 17371 bound_to 10713
  141.0658  134.0278  157.3595 LP  0  0  0  0  0  0  0  0  0  0  0  0  # atno 17394 bound_to 11000
  139.9107  135.0189  156.7679 LP  0  0  0  0  0  0  0  0  0  0  0  0  # atno 17395 bound_to 11000

$$$$
