#       Name:                AV-unprocessed.smi:2083
#       Creating user name   scv26
#       Creation time:       Fri Mar 27 11:22:04 2020


#       File generated by GOLD software.
#

@<TRIPOS>MOLECULE
AV-unprocessed.smi:2083
    50    51     1
SMALL
NO_CHARGES


@<TRIPOS>ATOM
      1 ****        -5.8196   6.3531   0.2847 C.3            1 S1                 0.0000
      2 ****        -5.0454   5.0798   0.2778 C.2            1 S1                 0.0000
      3 ****        -3.7070   4.8056   0.2887 C.2            1 S1                 0.0000
      4 ****        -3.6694   3.3859   0.2704 C.2            1 S1                 0.0000
      5 ****        -2.4288   2.6954   0.2742 N.am           1 S1                 0.0000
      6 ****        -2.2015   1.3691   0.2764 C.2            1 S1                 0.0000
      7 ****        -3.1478   0.5727   0.2718 O.2            1 S1                 0.0000
      8 ****        -0.8722   1.0767   0.2849 N.pl3          1 S1                -1.0000
      9 ****        -0.3220  -0.2777   0.3049 C.3            1 S1                 0.0000
     10 ****         1.2277  -0.2334   0.5016 C.3            1 S1                 0.0000
     11 ****         1.6558   0.3265   1.8793 C.3            1 S1                 0.0000
     12 ****         1.9555  -1.5192   0.2223 N.4            1 S1                 1.0000
     13 ****         1.5901  -2.7082   1.0490 C.3            1 S1                 0.0000
     14 ****         2.6421  -3.8171   0.8931 C.3            1 S1                 0.0000
     15 ****         2.8205  -4.2023  -0.5816 C.3            1 S1                 0.0000
     16 ****         3.1667  -2.9616  -1.4234 C.3            1 S1                 0.0000
     17 ****         3.3318  -3.3192  -2.9073 C.3            1 S1                 0.0000
     18 ****         2.1024  -1.8642  -1.2212 C.3            1 S1                 0.0000
     19 ****        -4.8779   2.8431   0.2496 N.2            1 S1                 0.0000
     20 ****        -5.7655   3.9257   0.2540 O.3            1 S1                 0.0000
     21 ****        -5.1829   7.1942   0.5591 H              1 S1                 0.0000
     22 ****        -6.6409   6.3040   0.9998 H              1 S1                 0.0000
     23 ****        -6.2396   6.5537  -0.7010 H              1 S1                 0.0000
     24 ****        -2.8876   5.5088   0.3067 H              1 S1                 0.0000
     25 ****        -1.6060   3.2794   0.2804 H              1 S1                 0.0000
     26 ****        -0.7614  -0.8897   1.0938 H              1 S1                 0.0000
     27 ****        -0.5438  -0.7976  -0.6273 H              1 S1                 0.0000
     28 ****         1.6174   0.4770  -0.2295 H              1 S1                 0.0000
     29 ****         1.3246   1.3566   2.0240 H              1 S1                 0.0000
     30 ****         2.7423   0.3367   1.9685 H              1 S1                 0.0000
     31 ****         1.2681  -0.2583   2.7149 H              1 S1                 0.0000
     32 ****         1.5176  -2.4364   2.1015 H              1 S1                 0.0000
     33 ****         0.6132  -3.0928   0.7521 H              1 S1                 0.0000
     34 ****         3.5947  -3.4787   1.3026 H              1 S1                 0.0000
     35 ****         2.3489  -4.6921   1.4739 H              1 S1                 0.0000
     36 ****         3.6048  -4.9543  -0.6751 H              1 S1                 0.0000
     37 ****         1.9031  -4.6607  -0.9539 H              1 S1                 0.0000
     38 ****         4.1234  -2.5719  -1.0717 H              1 S1                 0.0000
     39 ****         2.4048  -3.7124  -3.3261 H              1 S1                 0.0000
     40 ****         4.1058  -4.0749  -3.0454 H              1 S1                 0.0000
     41 ****         3.6178  -2.4452  -3.4931 H              1 S1                 0.0000
     42 ****         1.1455  -2.1962  -1.6265 H              1 S1                 0.0000
     43 ****         2.3933  -0.9760  -1.7838 H              1 S1                 0.0000
     44 ****         2.8994  -1.3045   0.5085 H              1 S1                 0.0000
     45 ****        -4.0879   0.9134   0.2664 LP             1 S1                 0.0000
     46 ****        -2.9727  -0.4118   0.2734 LP             1 S1                 0.0000
     47 ****        -0.2274   1.8410   0.2769 LP             1 S1                 0.0000
     48 ****        -5.1067   1.8698   0.2341 LP             1 S1                 0.0000
     49 ****        -6.3322   3.8996  -0.5695 LP             1 S1                 0.0000
     50 ****        -6.3509   3.8776   1.0632 LP             1 S1                 0.0000
@<TRIPOS>BOND
    1    1    2 1     
    2    1   21 1     
    3    1   22 1     
    4    1   23 1     
    5    2   20 1     
    6    2    3 2     
    7    3    4 1     
    8    3   24 1     
    9    4    5 1     
   10    4   19 2     
   11    5    6 am    
   12    5   25 1     
   13    6    7 2     
   14    6    8 1     
   15    8    9 1     
   16    9   10 1     
   17    9   26 1     
   18    9   27 1     
   19   10   11 1     
   20   10   12 1     
   21   10   28 1     
   22   11   29 1     
   23   11   30 1     
   24   11   31 1     
   25   12   18 1     
   26   12   13 1     
   27   12   44 1     
   28   13   14 1     
   29   13   32 1     
   30   13   33 1     
   31   14   15 1     
   32   14   34 1     
   33   14   35 1     
   34   15   16 1     
   35   15   36 1     
   36   15   37 1     
   37   16   17 1     
   38   16   18 1     
   39   16   38 1     
   40   17   39 1     
   41   17   40 1     
   42   17   41 1     
   43   18   42 1     
   44   18   43 1     
   45   19   20 1     
   46    7   45 1     
   47    7   46 1     
   48    8   47 1     
   49   19   48 1     
   50   20   49 1     
   51   20   50 1     
@<TRIPOS>SUBSTRUCTURE
      1 S1             1
@<TRIPOS>SET
LONE_PAIRS      STATIC     ATOMS    <user>   **** ""
6 45 46 47 48 49 50
DONOR_HYDROGENS      STATIC     ATOMS    <user>   **** ""
2 25 44
ATOM$BLUE        STATIC     ATOMS    COLORGROUP SYSTEM
6 45 46 47 48 49 50
ATOM$RED        STATIC     ATOMS    COLORGROUP SYSTEM
2 25 44
