AV-unprocessed.smi:61|AV-procd|sdf|598|dock8
  -GOLD-   2262016493D 1   1.00000     0.00000
 Structure written by MMmdl.
 28 29  0  0  0  0  0  0  0  0  1 V2000
  152.4971  138.9601  155.0702 N   0  0  0  0  0  0  0  0  0  0  0  0
  151.9288  139.9749  155.8008 C   0  0  0  0  0  0  0  0  0  0  0  0
  150.9728  140.6819  155.1974 N   0  0  0  0  0  0  0  0  0  0  0  0
  150.4158  141.6792  155.9169 C   0  0  0  0  0  0  0  0  0  0  0  0
  150.8215  141.9596  157.2373 C   0  0  0  0  0  0  0  0  0  0  0  0
  151.8457  141.1467  157.7787 C   0  0  0  0  0  0  0  0  0  0  0  0
  152.3084  141.3584  159.0945 N   0  0  0  0  0  0  0  0  0  0  0  0
  152.9813  140.2397  159.7467 C   0  0  0  0  0  0  0  0  0  0  0  0
  154.1327  140.8425  160.5597 C   0  0  0  0  0  0  0  0  0  0  0  0
  153.7011  142.2880  160.7868 C   0  0  0  0  0  0  0  0  0  0  0  0
  152.9459  142.6124  159.4929 C   0  0  2  0  0  0  0  0  0  0  0  0
  151.9774  143.8135  159.5815 C   0  0  0  0  0  0  0  0  0  0  0  0
  150.9743  143.6113  160.5563 O   0  0  0  0  0  0  0  0  0  0  0  0
  152.3920  140.1500  157.0397 N   0  0  0  0  0  0  0  0  0  0  0  0
  153.2265  138.3893  155.4718 H   0  0  0  0  0  0  0  0  0  0  0  0
  152.1544  138.7428  154.1459 H   0  0  0  0  0  0  0  0  0  0  0  0
  149.6422  142.2593  155.4358 H   0  0  0  0  0  0  0  0  0  0  0  0
  150.3702  142.7653  157.7973 H   0  0  0  0  0  0  0  0  0  0  0  0
  152.2674  139.7436  160.4050 H   0  0  0  0  0  0  0  0  0  0  0  0
  153.3544  139.5011  159.0359 H   0  0  0  0  0  0  0  0  0  0  0  0
  154.3239  140.3030  161.4876 H   0  0  0  0  0  0  0  0  0  0  0  0
  155.0484  140.8251  159.9668 H   0  0  0  0  0  0  0  0  0  0  0  0
  153.0414  142.3336  161.6540 H   0  0  0  0  0  0  0  0  0  0  0  0
  154.5408  142.9598  160.9661 H   0  0  0  0  0  0  0  0  0  0  0  0
  153.6939  142.8421  158.7325 H   0  0  0  0  0  0  0  0  0  0  0  0
  152.5345  144.7098  159.8552 H   0  0  0  0  0  0  0  0  0  0  0  0
  151.5030  144.0244  158.6240 H   0  0  0  0  0  0  0  0  0  0  0  0
  150.7860  144.4402  160.9692 H   0  0  0  0  0  0  0  0  0  0  0  0
  1  2  1  0  0  0  0
  1 15  1  0  0  0  0
  1 16  1  0  0  0  0
  2 14  1  0  0  0  0
  2  3  2  0  0  0  0
  3  4  1  0  0  0  0
  4  5  2  0  0  0  0
  4 17  1  0  0  0  0
  5  6  1  0  0  0  0
  5 18  1  0  0  0  0
  6  7  1  0  0  0  0
  6 14  2  0  0  0  0
  7 11  1  0  0  0  0
  7  8  1  0  0  0  0
  8  9  1  0  0  0  0
  8 19  1  0  0  0  0
  8 20  1  0  0  0  0
  9 10  1  0  0  0  0
  9 21  1  0  0  0  0
  9 22  1  0  0  0  0
 10 11  1  0  0  0  0
 10 23  1  0  0  0  0
 10 24  1  0  0  0  0
 11 12  1  0  0  0  0
 11 25  1  0  0  0  0
 12 13  1  0  0  0  0
 12 26  1  0  0  0  0
 12 27  1  0  0  0  0
 13 28  1  0  0  0  0
M  END
> <s_m_source_file>
AV-unprocessed.smi

> <i_m_source_file_index>
61

> <i_lp_mmshare_version>
43012

> <i_f3d_flags>
0

> <s_epik_input>
W05IMl1jMW5bY0hdW2NIXWMobjEpTjJbQ0gyXVtDSDJdW0NIMl1bQ0BIXTJbQ0gyXVtPSF0=

> <s_epik_cmdline>
J2VwaWtfcHl0aG9uJywgJy1waCcsICc3LjAnLCAnLXRuJywgJzgnLCAnLW1hJywgJzIwMCcsICctbWV0YWxfYmluZGluZycsICctaW1hZScsICc8aW5maWxlLm1hZT4nLCAnLW9tYWUnLCAnPG91dGZpbGUubWFlPic=

> <r_lp_tautomer_probability>
1

> <r_epik_Ionization_Penalty>
0.76024

> <r_epik_Ionization_Penalty_Charging>
0

> <r_epik_Ionization_Penalty_Neutral>
0.76024

> <r_epik_State_Penalty>
0.587668

> <r_epik_Charging_Adjusted_Penalty>
0.587668

> <i_epik_Tot_Q>
0

> <i_epik_Tot_abs_Q>
0

> <r_epik_Metal_State_Penalty>
0.307814

> <b_epik_Metal_Only>
0

> <s_lp_Force_Field>
OPLS_2005

> <r_lp_Energy>
26.7573

> <b_lp_Chiralities_Consistent>
1

> <s_lp_Variant>
AV-unprocessed.smi:61-4

> <Gold.Version>
5.8.1

> <Gold.Id.Protein>
6NUR|6NUR_protein|mol2

> <Gold.PLP.Fitness>
39.0339

> <Gold.PLP.PLP>
-30.9556

> <Gold.PLP.part.hbond>
-2.9564

> <Gold.PLP.part.metal>
0.0000

> <Gold.PLP.part.buried>
-3.6546

> <Gold.PLP.part.nonpolar>
-23.1913

> <Gold.PLP.part.repulsive>
0.2702

> <Gold.PLP.ligand.clash>
0.0000

> <Gold.PLP.ligand.torsion>
0.3069

> <Gold.PLP.Chemscore.Hbond>
1.8550

> <Gold.PLP.Chemscore.CHOScore>
0.9273

> <Gold.PLP.Chemscore.Metal>
0.0000

> <Gold.Chemscore.Hbonds>
donor molecule, donor type, donor heavy atom, donor atom, acceptor molecule, acceptor atom, score
      P1  H  7989  7998       L1     3  0.88
      P1  H  7997  8009       L1    14  1.00
      L1  C     4    17       P1  8028  0.87

> <Gold.PLP.Chemscore.Internal.Correction>
0.3450

> <Gold.Rescore>
     Score         DG    S(hbond)    S(metal)    S(lipo)     H(rot)  DE(clash)    DE(int)     intcor
     11.40     -11.78       1.08        0.00      65.91       1.96       0.00       0.38       ----

> <Gold.Chemscore.Fitness>
11.3962

> <Gold.Chemscore.DG>
-11.7777

> <Gold.Chemscore.ZeroCoef>
-5.4800

> <Gold.Chemscore.Hbond>
1.0761

> <Gold.Chemscore.Metal>
0.0000

> <Gold.Chemscore.Lipo>
65.9073

> <Gold.Chemscore.Internal_Hbond>
0.0000

> <Gold.Chemscore.DEClash>
0.0021

> <Gold.Chemscore.DEInternal>
0.3793

> <Gold.Chemscore.Rot>
1.9561

> <Gold.Chemscore.Internal.Correction>
   9.000000E+99

> <Gold.Chemscore.Hbonds>
donor molecule, donor type, donor heavy atom, donor atom, acceptor molecule, acceptor atom, score
      P1  H  7989  7998       L1     3  0.34
      P1  H  7997  8009       L1    14  0.23

> <Gold.Chemscore.Hbond.Weighted>
-3.5942

> <Gold.Chemscore.Metal.Weighted>
-0.0000

> <Gold.Chemscore.Lipo.Weighted>
-7.7112

> <Gold.Chemscore.Internal_Hbond.Weighted>
0.0000

> <Gold.Chemscore.DEClash.Weighted>
0.0021

> <Gold.Chemscore.DEInternal.Weighted>
0.3793

> <Gold.Chemscore.Rot.Weighted>
5.0077

> <Gold.Chemscore.Internal.Correction.Weighted>
   9.000000E+99

> <Gold.Protein.RotatedTorsions>
[ 6907 6896 6895 6894 ] final  128.53 input  -60.11 | X-H torsion
[ 7974 7965 7964 7962 ] final -150.47 input  175.53 | X-H torsion
[ 8008 7997 7996 7995 ] final  176.82 input   59.86 | X-H torsion
[ 10167 10162 10161 10158 ] final  -61.81 input  -65.29 | X-H torsion
[ 10718 10713 10712 10709 ] final  -13.80 input   66.30 | X-H torsion
[ 10763 10752 10751 10750 ] final  -87.58 input  -60.55 | X-H torsion
[ 11005 11000 10999 10996 ] final -110.59 input  -57.11 | X-H torsion

> <Gold.Protein.ActiveResidues>
 VAL166  LYS551  ARG553  GLY616  TRP617  ASP618  TYR619  PRO620  LYS621  CYS622 
 ASP623  PHE694  ASN695  SER759  ASP760  ASP761  ALA762  ILE779  LEU786  VAL792 
 PHE793  MET794  SER795  GLU796  ALA797  LYS798  CYS799  TRP800  GLU811  SER814 

> <Gold.Protein.RotatedAtoms>
  152.3711  133.6420  159.6087 H   0  0  0  0  0  0  0  0  0  0  0  0  # atno 6907 bound_to 6896
  150.7669  133.9269  159.3424 H   0  0  0  0  0  0  0  0  0  0  0  0  # atno 6908 bound_to 6896
  151.7091  135.0917  160.0316 H   0  0  0  0  0  0  0  0  0  0  0  0  # atno 6909 bound_to 6896
  144.7906  140.4928  143.5775 H   0  0  0  0  0  0  0  0  0  0  0  0  # atno 7974 bound_to 7965
  156.0723  140.1374  156.9813 H   0  0  0  0  0  0  0  0  0  0  0  0  # atno 8008 bound_to 7997
  154.4539  140.0969  156.6750 H   0  0  0  0  0  0  0  0  0  0  0  0  # atno 8009 bound_to 7997
  155.5208  140.3456  155.4408 H   0  0  0  0  0  0  0  0  0  0  0  0  # atno 8010 bound_to 7997
  140.5981  143.2355  151.5990 H   0  0  0  0  0  0  0  0  0  0  0  0  # atno 10167 bound_to 10162
  156.6250  130.4886  149.6150 H   0  0  0  0  0  0  0  0  0  0  0  0  # atno 10718 bound_to 10713
  154.6352  135.5408  153.7726 H   0  0  0  0  0  0  0  0  0  0  0  0  # atno 10763 bound_to 10752
  153.0305  135.6445  154.1242 H   0  0  0  0  0  0  0  0  0  0  0  0  # atno 10764 bound_to 10752
  154.1169  135.2923  155.3197 H   0  0  0  0  0  0  0  0  0  0  0  0  # atno 10765 bound_to 10752
  141.0783  133.9264  157.2344 H   0  0  0  0  0  0  0  0  0  0  0  0  # atno 11005 bound_to 11000
  145.5805  139.1488  143.3238 LP  0  0  0  0  0  0  0  0  0  0  0  0  # atno 17320 bound_to 7965
  146.2156  140.5935  142.9040 LP  0  0  0  0  0  0  0  0  0  0  0  0  # atno 17321 bound_to 7965
  139.5272  144.3023  152.1063 LP  0  0  0  0  0  0  0  0  0  0  0  0  # atno 17342 bound_to 10162
  140.2199  144.4477  150.6346 LP  0  0  0  0  0  0  0  0  0  0  0  0  # atno 17343 bound_to 10162
  156.2280  130.6777  151.1435 LP  0  0  0  0  0  0  0  0  0  0  0  0  # atno 17370 bound_to 10713
  157.7216  131.0677  150.6109 LP  0  0  0  0  0  0  0  0  0  0  0  0  # atno 17371 bound_to 10713
  139.9595  135.0157  156.9223 LP  0  0  0  0  0  0  0  0  0  0  0  0  # atno 17394 bound_to 11000
  140.5525  134.0613  155.7373 LP  0  0  0  0  0  0  0  0  0  0  0  0  # atno 17395 bound_to 11000

$$$$
