AV-unprocessed.smi:1842|AV-procd|sdf|7499|dock8
  -GOLD-   22720 9203D 1   1.00000     0.00000
 Structure written by MMmdl.
 38 39  0  0  0  0  0  0  0  0  1 V2000
  151.1503  140.5613  155.3196 O   0  0  0  0  0  0  0  0  0  0  0  0
  150.4255  141.3611  155.9113 C   0  0  0  0  0  0  0  0  0  0  0  0
  151.0197  142.3198  156.9445 C   0  0  0  0  0  0  0  0  0  0  0  0
  151.4049  141.5962  158.2474 C   0  0  0  0  0  0  0  0  0  0  0  0
  152.1434  142.5027  159.2478 C   0  0  0  0  0  0  0  0  0  0  0  0
  152.6417  141.7883  160.5078 C   0  0  0  0  0  0  0  0  0  0  0  0
  152.8731  142.9062  161.5298 C   0  0  0  0  0  0  0  0  0  0  0  0
  151.9725  144.0742  161.0996 C   0  0  0  0  0  0  0  0  0  0  0  0
  151.2685  143.6240  159.8142 C   0  0  0  0  0  0  0  0  0  0  0  0
  149.1044  141.4576  155.6989 N   0  0  0  0  0  0  0  0  0  0  0  0
  148.3473  140.6851  154.7186 C   0  0  0  0  0  0  0  0  0  0  0  0
  147.6795  141.5747  153.6517 C   0  0  0  0  0  0  0  0  0  0  0  0
  146.5672  142.3377  154.1868 N   0  0  0  0  0  0  0  0  0  0  0  0
  145.8154  143.3007  153.5270 C   0  0  0  0  0  0  0  0  0  0  0  0
  144.8711  143.7447  154.4251 C   0  0  0  0  0  0  0  0  0  0  0  0
  145.0230  143.0731  155.6362 N   0  0  0  0  0  0  0  0  0  0  0  0
  146.0474  142.2585  155.4198 C   0  0  0  0  0  0  0  0  0  0  0  0
  151.8922  142.8192  156.5204 H   0  0  0  0  0  0  0  0  0  0  0  0
  150.2859  143.0988  157.1536 H   0  0  0  0  0  0  0  0  0  0  0  0
  150.5029  141.2122  158.7264 H   0  0  0  0  0  0  0  0  0  0  0  0
  152.0207  140.7249  158.0177 H   0  0  0  0  0  0  0  0  0  0  0  0
  152.9986  142.9619  158.7490 H   0  0  0  0  0  0  0  0  0  0  0  0
  151.8722  141.1101  160.8798 H   0  0  0  0  0  0  0  0  0  0  0  0
  153.5422  141.1999  160.3301 H   0  0  0  0  0  0  0  0  0  0  0  0
  152.6548  142.5713  162.5444 H   0  0  0  0  0  0  0  0  0  0  0  0
  153.9171  143.2209  161.5077 H   0  0  0  0  0  0  0  0  0  0  0  0
  151.2510  144.3381  161.8736 H   0  0  0  0  0  0  0  0  0  0  0  0
  152.5815  144.9584  160.9073 H   0  0  0  0  0  0  0  0  0  0  0  0
  151.1300  144.4423  159.1069 H   0  0  0  0  0  0  0  0  0  0  0  0
  150.2802  143.2337  160.0622 H   0  0  0  0  0  0  0  0  0  0  0  0
  148.5887  142.1405  156.2351 H   0  0  0  0  0  0  0  0  0  0  0  0
  149.0039  139.9564  154.2411 H   0  0  0  0  0  0  0  0  0  0  0  0
  147.5879  140.1120  155.2512 H   0  0  0  0  0  0  0  0  0  0  0  0
  148.4015  142.2644  153.2123 H   0  0  0  0  0  0  0  0  0  0  0  0
  147.3068  140.9563  152.8345 H   0  0  0  0  0  0  0  0  0  0  0  0
  146.0076  143.5809  152.5017 H   0  0  0  0  0  0  0  0  0  0  0  0
  144.0996  144.4892  154.2940 H   0  0  0  0  0  0  0  0  0  0  0  0
  146.4258  141.5839  156.1742 H   0  0  0  0  0  0  0  0  0  0  0  0
  1  2  2  0  0  0  0
  2  3  1  0  0  0  0
  2 10  1  0  0  0  0
  3  4  1  0  0  0  0
  3 18  1  0  0  0  0
  3 19  1  0  0  0  0
  4  5  1  0  0  0  0
  4 20  1  0  0  0  0
  4 21  1  0  0  0  0
  5  9  1  0  0  0  0
  5  6  1  0  0  0  0
  5 22  1  0  0  0  0
  6  7  1  0  0  0  0
  6 23  1  0  0  0  0
  6 24  1  0  0  0  0
  7  8  1  0  0  0  0
  7 25  1  0  0  0  0
  7 26  1  0  0  0  0
  8  9  1  0  0  0  0
  8 27  1  0  0  0  0
  8 28  1  0  0  0  0
  9 29  1  0  0  0  0
  9 30  1  0  0  0  0
 10 11  1  0  0  0  0
 10 31  1  0  0  0  0
 11 12  1  0  0  0  0
 11 32  1  0  0  0  0
 11 33  1  0  0  0  0
 12 13  1  0  0  0  0
 12 34  1  0  0  0  0
 12 35  1  0  0  0  0
 13 17  1  0  0  0  0
 13 14  1  0  0  0  0
 14 15  2  0  0  0  0
 14 36  1  0  0  0  0
 15 16  1  0  0  0  0
 15 37  1  0  0  0  0
 16 17  2  0  0  0  0
 17 38  1  0  0  0  0
M  END
> <s_m_source_file>
AV-unprocessed.smi

> <i_m_source_file_index>
1842

> <i_lp_mmshare_version>
43012

> <i_f3d_flags>
0

> <s_epik_input>
W0NIMl0xW0NIMl1bQ0gyXVtDSDJdW0NIXTFbQ0gyXVtDSDJdQyg9TylbTkhdW0NIMl1bQ0gyXW4yW2NIXVtjSF1uW2NIXTI=

> <s_epik_cmdline>
J2VwaWtfcHl0aG9uJywgJy1waCcsICc3LjAnLCAnLXRuJywgJzgnLCAnLW1hJywgJzIwMCcsICctbWV0YWxfYmluZGluZycsICctaW1hZScsICc8aW5maWxlLm1hZT4nLCAnLW9tYWUnLCAnPG91dGZpbGUubWFlPic=

> <r_lp_tautomer_probability>
1

> <r_epik_Ionization_Penalty>
0.595716

> <r_epik_Ionization_Penalty_Charging>
0.595716

> <r_epik_Ionization_Penalty_Neutral>
2.42503e-08

> <r_epik_State_Penalty>
0.60967

> <r_epik_Charging_Adjusted_Penalty>
1.20539

> <i_epik_Tot_Q>
0

> <i_epik_Tot_abs_Q>
0

> <r_epik_Metal_State_Penalty>
0.299956

> <b_epik_Metal_Only>
0

> <s_lp_Force_Field>
OPLS_2005

> <r_lp_Energy>
23.0444

> <b_lp_Chiralities_Consistent>
1

> <s_lp_Variant>
AV-unprocessed.smi:1842-2

> <Gold.Version>
5.8.1

> <Gold.Id.Protein>
6NUR|6NUR_protein|mol2

> <Gold.PLP.Fitness>
45.2333

> <Gold.PLP.PLP>
-42.8239

> <Gold.PLP.part.hbond>
-1.2712

> <Gold.PLP.part.metal>
0.0000

> <Gold.PLP.part.buried>
-7.2046

> <Gold.PLP.part.nonpolar>
-33.5245

> <Gold.PLP.part.repulsive>
0.2867

> <Gold.PLP.ligand.clash>
0.0000

> <Gold.PLP.ligand.torsion>
0.2339

> <Gold.PLP.Chemscore.Hbond>
0.9440

> <Gold.PLP.Chemscore.CHOScore>
0.0000

> <Gold.PLP.Chemscore.Metal>
0.0000

> <Gold.Chemscore.Hbonds>
donor molecule, donor type, donor heavy atom, donor atom, acceptor molecule, acceptor atom, score
      P1  H  7989  7998       L1     1  0.91

> <Gold.PLP.Chemscore.Internal.Correction>
0.0453

> <Gold.Rescore>
     Score         DG    S(hbond)    S(metal)    S(lipo)     H(rot)  DE(clash)    DE(int)     intcor
     13.97     -14.29       0.86        0.00      97.83       2.15       0.08       0.24       ----

> <Gold.Chemscore.Fitness>
13.9651

> <Gold.Chemscore.DG>
-14.2875

> <Gold.Chemscore.ZeroCoef>
-5.4800

> <Gold.Chemscore.Hbond>
0.8565

> <Gold.Chemscore.Metal>
0.0000

> <Gold.Chemscore.Lipo>
97.8348

> <Gold.Chemscore.Internal_Hbond>
0.0000

> <Gold.Chemscore.DEClash>
0.0786

> <Gold.Chemscore.DEInternal>
0.2438

> <Gold.Chemscore.Rot>
2.1484

> <Gold.Chemscore.Internal.Correction>
   9.000000E+99

> <Gold.Chemscore.Hbonds>
donor molecule, donor type, donor heavy atom, donor atom, acceptor molecule, acceptor atom, score
      P1  H  7989  7998       L1     1  0.86

> <Gold.Chemscore.Hbond.Weighted>
-2.8608

> <Gold.Chemscore.Metal.Weighted>
-0.0000

> <Gold.Chemscore.Lipo.Weighted>
-11.4467

> <Gold.Chemscore.Internal_Hbond.Weighted>
0.0000

> <Gold.Chemscore.DEClash.Weighted>
0.0786

> <Gold.Chemscore.DEInternal.Weighted>
0.2438

> <Gold.Chemscore.Rot.Weighted>
5.5000

> <Gold.Chemscore.Internal.Correction.Weighted>
   9.000000E+99

> <Gold.Protein.RotatedTorsions>
[ 6907 6896 6895 6894 ] final -106.59 input  -60.11 | X-H torsion
[ 7974 7965 7964 7962 ] final   45.07 input  175.53 | X-H torsion
[ 8008 7997 7996 7995 ] final   81.99 input   59.86 | X-H torsion
[ 10167 10162 10161 10158 ] final -100.48 input  -65.29 | X-H torsion
[ 10718 10713 10712 10709 ] final  137.74 input   66.30 | X-H torsion
[ 10763 10752 10751 10750 ] final -153.54 input  -60.55 | X-H torsion
[ 11005 11000 10999 10996 ] final -160.00 input  -57.11 | X-H torsion

> <Gold.Protein.ActiveResidues>
 VAL166  LYS551  ARG553  GLY616  TRP617  ASP618  TYR619  PRO620  LYS621  CYS622 
 ASP623  PHE694  ASN695  SER759  ASP760  ASP761  ALA762  ILE779  LEU786  VAL792 
 PHE793  MET794  SER795  GLU796  ALA797  LYS798  CYS799  TRP800  GLU811  SER814 

> <Gold.Protein.RotatedAtoms>
  150.7397  133.9954  159.3620 H   0  0  0  0  0  0  0  0  0  0  0  0  # atno 6907 bound_to 6896
  151.7904  135.0735  160.0396 H   0  0  0  0  0  0  0  0  0  0  0  0  # atno 6908 bound_to 6896
  152.3211  133.5818  159.5781 H   0  0  0  0  0  0  0  0  0  0  0  0  # atno 6909 bound_to 6896
  146.0513  139.5005  142.9717 H   0  0  0  0  0  0  0  0  0  0  0  0  # atno 7974 bound_to 7965
  155.9046  140.3431  155.6052 H   0  0  0  0  0  0  0  0  0  0  0  0  # atno 8008 bound_to 7997
  155.7460  140.0814  157.2242 H   0  0  0  0  0  0  0  0  0  0  0  0  # atno 8009 bound_to 7997
  154.4048  140.1562  156.2657 H   0  0  0  0  0  0  0  0  0  0  0  0  # atno 8010 bound_to 7997
  140.2514  143.3470  152.0711 H   0  0  0  0  0  0  0  0  0  0  0  0  # atno 10167 bound_to 10162
  157.4328  131.1050  151.0231 H   0  0  0  0  0  0  0  0  0  0  0  0  # atno 10718 bound_to 10713
  154.7920  135.3210  154.7754 H   0  0  0  0  0  0  0  0  0  0  0  0  # atno 10763 bound_to 10752
  153.8441  135.6868  153.4804 H   0  0  0  0  0  0  0  0  0  0  0  0  # atno 10764 bound_to 10752
  153.1595  135.4666  154.9692 H   0  0  0  0  0  0  0  0  0  0  0  0  # atno 10765 bound_to 10752
  140.6363  134.4598  157.5232 H   0  0  0  0  0  0  0  0  0  0  0  0  # atno 11005 bound_to 11000
  145.6720  141.0214  143.1652 LP  0  0  0  0  0  0  0  0  0  0  0  0  # atno 17320 bound_to 7965
  144.7124  139.8321  143.7410 LP  0  0  0  0  0  0  0  0  0  0  0  0  # atno 17321 bound_to 7965
  139.5045  144.6776  151.6088 LP  0  0  0  0  0  0  0  0  0  0  0  0  # atno 17342 bound_to 10162
  140.6037  143.9562  150.6404 LP  0  0  0  0  0  0  0  0  0  0  0  0  # atno 17343 bound_to 10162
  157.1121  130.6026  149.5484 LP  0  0  0  0  0  0  0  0  0  0  0  0  # atno 17370 bound_to 10713
  155.9919  130.4976  150.7320 LP  0  0  0  0  0  0  0  0  0  0  0  0  # atno 17371 bound_to 10713
  139.9097  134.8372  156.1574 LP  0  0  0  0  0  0  0  0  0  0  0  0  # atno 17394 bound_to 11000
  141.0639  133.6828  156.2006 LP  0  0  0  0  0  0  0  0  0  0  0  0  # atno 17395 bound_to 11000

$$$$
