AV-unprocessed.smi:3024|AV-procd|sdf|11503|dock2
  -GOLD-   2272016443D 1   1.00000     0.00000
 Structure written by MMmdl.
 31 32  0  0  0  0  0  0  0  0  1 V2000
  145.4834  138.0994  153.5577 O   0  0  0  0  0  0  0  0  0  0  0  0
  146.4629  137.4233  153.2448 C   0  0  0  0  0  0  0  0  0  0  0  0
  146.3779  136.1805  152.7498 N   0  0  0  0  0  0  0  0  0  0  0  0
  145.1357  135.4487  152.5284 C   0  0  0  0  0  0  0  0  0  0  0  0
  145.2136  134.5743  151.2661 C   0  0  2  0  0  0  0  0  0  0  0  0
  144.0461  133.6003  151.1192 C   0  0  0  0  0  0  0  0  0  0  0  0
  144.6190  132.4787  150.2658 C   0  0  0  0  0  0  0  0  0  0  0  0
  146.1324  132.7095  150.3102 C   0  0  0  0  0  0  0  0  0  0  0  0
  146.3269  133.6961  151.3133 O   0  0  0  0  0  0  0  0  0  0  0  0
  147.7428  137.8252  153.3278 N   0  0  0  0  0  0  0  0  0  0  0  0
  148.2493  139.0647  153.8035 C   0  0  0  0  0  0  0  0  0  0  0  0
  147.3914  140.1836  153.7793 C   0  0  0  0  0  0  0  0  0  0  0  0
  147.8728  141.4278  154.2287 C   0  0  0  0  0  0  0  0  0  0  0  0
  149.2051  141.5073  154.6781 C   0  0  0  0  0  0  0  0  0  0  0  0
  150.0449  140.4508  154.6931 N   0  0  0  0  0  0  0  0  0  0  0  0
  149.5758  139.2595  154.2625 C   0  0  0  0  0  0  0  0  0  0  0  0
  147.2349  135.7017  152.5151 H   0  0  0  0  0  0  0  0  0  0  0  0
  144.8744  134.8482  153.4015 H   0  0  0  0  0  0  0  0  0  0  0  0
  144.3392  136.1837  152.4115 H   0  0  0  0  0  0  0  0  0  0  0  0
  145.2875  135.1981  150.3729 H   0  0  0  0  0  0  0  0  0  0  0  0
  143.7606  133.2038  152.0945 H   0  0  0  0  0  0  0  0  0  0  0  0
  143.1654  134.0647  150.6750 H   0  0  0  0  0  0  0  0  0  0  0  0
  144.3483  131.5042  150.6734 H   0  0  0  0  0  0  0  0  0  0  0  0
  144.2518  132.5274  149.2400 H   0  0  0  0  0  0  0  0  0  0  0  0
  146.6895  131.8009  150.5401 H   0  0  0  0  0  0  0  0  0  0  0  0
  146.4894  133.0954  149.3544 H   0  0  0  0  0  0  0  0  0  0  0  0
  148.4324  137.1904  152.9535 H   0  0  0  0  0  0  0  0  0  0  0  0
  146.3750  140.0916  153.4253 H   0  0  0  0  0  0  0  0  0  0  0  0
  147.2372  142.3008  154.2278 H   0  0  0  0  0  0  0  0  0  0  0  0
  149.6084  142.4457  155.0288 H   0  0  0  0  0  0  0  0  0  0  0  0
  150.3006  138.4605  154.2729 H   0  0  0  0  0  0  0  0  0  0  0  0
  1  2  2  0  0  0  0
  2  3  1  0  0  0  0
  2 10  1  0  0  0  0
  3  4  1  0  0  0  0
  3 17  1  0  0  0  0
  4  5  1  0  0  0  0
  4 18  1  0  0  0  0
  4 19  1  0  0  0  0
  5  9  1  0  0  0  0
  5  6  1  0  0  0  0
  5 20  1  0  0  0  0
  6  7  1  0  0  0  0
  6 21  1  0  0  0  0
  6 22  1  0  0  0  0
  7  8  1  0  0  0  0
  7 23  1  0  0  0  0
  7 24  1  0  0  0  0
  8  9  1  0  0  0  0
  8 25  1  0  0  0  0
  8 26  1  0  0  0  0
 10 11  1  0  0  0  0
 10 27  1  0  0  0  0
 11 16  1  0  0  0  0
 11 12  2  0  0  0  0
 12 13  1  0  0  0  0
 12 28  1  0  0  0  0
 13 14  2  0  0  0  0
 13 29  1  0  0  0  0
 14 15  1  0  0  0  0
 14 30  1  0  0  0  0
 15 16  2  0  0  0  0
 16 31  1  0  0  0  0
M  END
> <s_m_source_file>
AV-unprocessed.smi

> <i_m_source_file_index>
3024

> <i_lp_mmshare_version>
43012

> <i_f3d_flags>
0

> <s_epik_input>
W2NIXTFuW2NIXVtjSF1bY0hdYzFbTkhdQyg9TylbTkhdW0NIMl1bQ0BASF0yW0NIMl1bQ0gyXVtDSDJdTzI=

> <s_epik_cmdline>
J2VwaWtfcHl0aG9uJywgJy1waCcsICc3LjAnLCAnLXRuJywgJzgnLCAnLW1hJywgJzIwMCcsICctbWV0YWxfYmluZGluZycsICctaW1hZScsICc8aW5maWxlLm1hZT4nLCAnLW9tYWUnLCAnPG91dGZpbGUubWFlPic=

> <r_epik_Ionization_Penalty>
0.00471982

> <r_epik_Ionization_Penalty_Charging>
0

> <r_epik_Ionization_Penalty_Neutral>
0.00471982

> <r_epik_State_Penalty>
0.00339234

> <r_epik_Charging_Adjusted_Penalty>
0.00339234

> <i_epik_Tot_Q>
0

> <i_epik_Tot_abs_Q>
0

> <r_epik_Metal_State_Penalty>
-0

> <b_epik_Metal_Only>
0

> <s_lp_Force_Field>
OPLS_2005

> <r_lp_Energy>
19.771

> <b_lp_Chiralities_Consistent>
1

> <s_lp_Variant>
AV-unprocessed.smi:3024-1

> <Gold.Version>
5.8.1

> <Gold.Id.Protein>
6NUR|6NUR_protein|mol2

> <Gold.PLP.Fitness>
37.7889

> <Gold.PLP.PLP>
-27.4150

> <Gold.PLP.part.hbond>
-2.8213

> <Gold.PLP.part.metal>
0.0000

> <Gold.PLP.part.buried>
-3.3226

> <Gold.PLP.part.nonpolar>
-22.5228

> <Gold.PLP.part.repulsive>
0.5072

> <Gold.PLP.ligand.clash>
0.0000

> <Gold.PLP.ligand.torsion>
0.3131

> <Gold.PLP.Chemscore.Hbond>
2.6640

> <Gold.PLP.Chemscore.CHOScore>
1.0000

> <Gold.PLP.Chemscore.Metal>
0.0000

> <Gold.Chemscore.Hbonds>
donor molecule, donor type, donor heavy atom, donor atom, acceptor molecule, acceptor atom, score
      L1  H     3    17       P1  7948  0.72
      L1  H    10    27       P1  7948  1.00
      P1  H  7989  7998       L1    15  0.93
      L1  C    14    30       P1  8028  1.00

> <Gold.PLP.Chemscore.Internal.Correction>
0.0082

> <Gold.Rescore>
     Score         DG    S(hbond)    S(metal)    S(lipo)     H(rot)  DE(clash)    DE(int)     intcor
     15.42     -17.27       2.09        0.00      68.32       1.24       0.22       1.62       ----

> <Gold.Chemscore.Fitness>
15.4237

> <Gold.Chemscore.DG>
-17.2673

> <Gold.Chemscore.ZeroCoef>
-5.4800

> <Gold.Chemscore.Hbond>
2.0854

> <Gold.Chemscore.Metal>
0.0000

> <Gold.Chemscore.Lipo>
68.3244

> <Gold.Chemscore.Internal_Hbond>
0.0000

> <Gold.Chemscore.DEClash>
0.2238

> <Gold.Chemscore.DEInternal>
1.6199

> <Gold.Chemscore.Rot>
1.2390

> <Gold.Chemscore.Internal.Correction>
   9.000000E+99

> <Gold.Chemscore.Hbonds>
donor molecule, donor type, donor heavy atom, donor atom, acceptor molecule, acceptor atom, score
      L1  H     3    17       P1  7948  0.72
      L1  H    10    27       P1  7948  0.90
      P1  H  7989  7998       L1    15  0.31

> <Gold.Chemscore.Hbond.Weighted>
-6.9651

> <Gold.Chemscore.Metal.Weighted>
-0.0000

> <Gold.Chemscore.Lipo.Weighted>
-7.9940

> <Gold.Chemscore.Internal_Hbond.Weighted>
0.0000

> <Gold.Chemscore.DEClash.Weighted>
0.2238

> <Gold.Chemscore.DEInternal.Weighted>
1.6199

> <Gold.Chemscore.Rot.Weighted>
3.1718

> <Gold.Chemscore.Internal.Correction.Weighted>
   9.000000E+99

> <Gold.Protein.RotatedTorsions>
[ 6907 6896 6895 6894 ] final -178.40 input  -60.11 | X-H torsion
[ 7974 7965 7964 7962 ] final   64.17 input  175.53 | X-H torsion
[ 8008 7997 7996 7995 ] final -159.13 input   59.86 | X-H torsion
[ 10167 10162 10161 10158 ] final   99.36 input  -65.29 | X-H torsion
[ 10718 10713 10712 10709 ] final  -95.57 input   66.30 | X-H torsion
[ 10763 10752 10751 10750 ] final  100.58 input  -60.55 | X-H torsion
[ 11005 11000 10999 10996 ] final   10.85 input  -57.11 | X-H torsion

> <Gold.Protein.ActiveResidues>
 VAL166  LYS551  ARG553  GLY616  TRP617  ASP618  TYR619  PRO620  LYS621  CYS622 
 ASP623  PHE694  ASN695  SER759  ASP760  ASP761  ALA762  ILE779  LEU786  VAL792 
 PHE793  MET794  SER795  GLU796  ALA797  LYS798  CYS799  TRP800  GLU811  SER814 

> <Gold.Protein.RotatedAtoms>
  151.6366  133.3328  159.3120 H   0  0  0  0  0  0  0  0  0  0  0  0  # atno 6907 bound_to 6896
  150.8029  134.7139  159.6629 H   0  0  0  0  0  0  0  0  0  0  0  0  # atno 6908 bound_to 6896
  152.4123  134.6107  160.0076 H   0  0  0  0  0  0  0  0  0  0  0  0  # atno 6909 bound_to 6896
  145.8533  139.3268  143.0862 H   0  0  0  0  0  0  0  0  0  0  0  0  # atno 7974 bound_to 7965
  155.7580  140.0835  157.2169 H   0  0  0  0  0  0  0  0  0  0  0  0  # atno 8008 bound_to 7997
  154.4006  140.1548  156.2856 H   0  0  0  0  0  0  0  0  0  0  0  0  # atno 8009 bound_to 7997
  155.8867  140.3417  155.5929 H   0  0  0  0  0  0  0  0  0  0  0  0  # atno 8010 bound_to 7997
  139.7624  144.6950  151.0273 H   0  0  0  0  0  0  0  0  0  0  0  0  # atno 10167 bound_to 10162
  156.0046  130.5115  150.6096 H   0  0  0  0  0  0  0  0  0  0  0  0  # atno 10718 bound_to 10713
  153.3158  135.4074  155.1374 H   0  0  0  0  0  0  0  0  0  0  0  0  # atno 10763 bound_to 10752
  154.8588  135.3575  154.5663 H   0  0  0  0  0  0  0  0  0  0  0  0  # atno 10764 bound_to 10752
  153.6094  135.7068  153.5412 H   0  0  0  0  0  0  0  0  0  0  0  0  # atno 10765 bound_to 10752
  140.5099  134.0662  155.7815 H   0  0  0  0  0  0  0  0  0  0  0  0  # atno 11005 bound_to 11000
  145.9332  140.9033  143.0345 LP  0  0  0  0  0  0  0  0  0  0  0  0  # atno 17320 bound_to 7965
  144.6728  140.1447  143.7434 LP  0  0  0  0  0  0  0  0  0  0  0  0  # atno 17321 bound_to 7965
  140.7808  143.4682  151.0183 LP  0  0  0  0  0  0  0  0  0  0  0  0  # atno 17342 bound_to 10162
  139.8367  143.7618  152.3180 LP  0  0  0  0  0  0  0  0  0  0  0  0  # atno 17343 bound_to 10162
  157.3931  131.0798  151.1376 LP  0  0  0  0  0  0  0  0  0  0  0  0  # atno 17370 bound_to 10713
  157.2061  130.6417  149.5757 LP  0  0  0  0  0  0  0  0  0  0  0  0  # atno 17371 bound_to 10713
  141.1391  133.9170  157.2367 LP  0  0  0  0  0  0  0  0  0  0  0  0  # atno 17394 bound_to 11000
  139.9665  135.0140  156.9400 LP  0  0  0  0  0  0  0  0  0  0  0  0  # atno 17395 bound_to 11000

$$$$
