AV-unprocessed.smi:2090|AV-procd|sdf|8533|dock4
  -GOLD-   2272011253D 1   1.00000     0.00000
 Structure written by MMmdl.
 42 43  0  0  0  0  0  0  0  0  2 V2000
  153.6053  137.6655  156.9194 C   0  0  0  0  0  0  0  0  0  0  0  0
  152.6503  138.3656  156.0144 C   0  0  0  0  0  0  0  0  0  0  0  0
  151.6150  137.9291  155.2364 C   0  0  0  0  0  0  0  0  0  0  0  0
  151.1356  139.1265  154.6417 C   0  0  0  0  0  0  0  0  0  0  0  0
  150.0352  139.1061  153.7471 N   0  0  0  0  0  0  0  0  0  0  0  0
  148.7497  138.8452  154.0394 C   0  0  0  0  0  0  0  0  0  0  0  0
  148.3134  138.5920  155.1629 O   0  0  0  0  0  0  0  0  0  0  0  0
  147.9784  138.8876  152.9431 N   0  0  0  0  0  0  0  0  0  0  0  0
  146.5402  138.6443  152.9299 C   0  0  0  0  0  0  0  0  0  0  0  0
  146.0831  138.0288  151.5929 C   0  0  0  0  0  0  0  0  0  0  0  0
  146.1066  136.5445  151.6127 N   0  3  2  0  0  0  0  0  0  0  0  0
  145.4746  135.9601  150.4016 C   0  0  0  0  0  0  0  0  0  0  0  0
  145.6331  134.4295  150.3712 C   0  0  0  0  0  0  0  0  0  0  0  0
  145.0776  133.7617  151.6419 C   0  0  2  0  0  0  0  0  0  0  0  0
  143.5394  133.7407  151.6800 C   0  0  0  0  0  0  0  0  0  0  0  0
  145.6959  134.4318  152.8824 C   0  0  0  0  0  0  0  0  0  0  0  0
  145.5401  135.9635  152.8589 C   0  0  0  0  0  0  0  0  0  0  0  0
  151.8169  140.1966  155.0214 N   0  0  0  0  0  0  0  0  0  0  0  0
  152.7920  139.7142  155.9023 O   0  0  0  0  0  0  0  0  0  0  0  0
  153.3331  136.6166  157.0376 H   0  0  0  0  0  0  0  0  0  0  0  0
  153.6104  138.1262  157.9074 H   0  0  0  0  0  0  0  0  0  0  0  0
  154.6184  137.7092  156.5196 H   0  0  0  0  0  0  0  0  0  0  0  0
  151.2600  136.9162  155.1165 H   0  0  0  0  0  0  0  0  0  0  0  0
  150.2532  139.3023  152.7814 H   0  0  0  0  0  0  0  0  0  0  0  0
  148.4150  139.1064  152.0591 H   0  0  0  0  0  0  0  0  0  0  0  0
  146.2661  137.9959  153.7640 H   0  0  0  0  0  0  0  0  0  0  0  0
  146.0505  139.6013  153.1061 H   0  0  0  0  0  0  0  0  0  0  0  0
  145.0859  138.3805  151.3238 H   0  0  0  0  0  0  0  0  0  0  0  0
  146.7532  138.3797  150.8071 H   0  0  0  0  0  0  0  0  0  0  0  0
  144.4205  136.2380  150.3675 H   0  0  0  0  0  0  0  0  0  0  0  0
  145.9374  136.3791  149.5071 H   0  0  0  0  0  0  0  0  0  0  0  0
  145.1471  134.0201  149.4847 H   0  0  0  0  0  0  0  0  0  0  0  0
  146.6920  134.1865  150.2736 H   0  0  0  0  0  0  0  0  0  0  0  0
  145.3998  132.7195  151.6344 H   0  0  0  0  0  0  0  0  0  0  0  0
  143.1135  134.7435  151.6947 H   0  0  0  0  0  0  0  0  0  0  0  0
  143.1781  133.2172  152.5657 H   0  0  0  0  0  0  0  0  0  0  0  0
  143.1353  133.2240  150.8089 H   0  0  0  0  0  0  0  0  0  0  0  0
  145.2529  134.0242  153.7917 H   0  0  0  0  0  0  0  0  0  0  0  0
  146.7578  134.1862  152.9283 H   0  0  0  0  0  0  0  0  0  0  0  0
  146.0454  136.3765  153.7308 H   0  0  0  0  0  0  0  0  0  0  0  0
  144.4893  136.2416  152.9487 H   0  0  0  0  0  0  0  0  0  0  0  0
  147.0795  136.2755  151.5767 H   0  0  0  0  0  0  0  0  0  0  0  0
  1  2  1  0  0  0  0
  1 20  1  0  0  0  0
  1 21  1  0  0  0  0
  1 22  1  0  0  0  0
  2 19  1  0  0  0  0
  2  3  2  0  0  0  0
  3  4  1  0  0  0  0
  3 23  1  0  0  0  0
  4  5  1  0  0  0  0
  4 18  2  0  0  0  0
  5  6  1  0  0  0  0
  5 24  1  0  0  0  0
  6  7  2  0  0  0  0
  6  8  1  0  0  0  0
  8  9  1  0  0  0  0
  8 25  1  0  0  0  0
  9 10  1  0  0  0  0
  9 26  1  0  0  0  0
  9 27  1  0  0  0  0
 10 11  1  0  0  0  0
 10 28  1  0  0  0  0
 10 29  1  0  0  0  0
 11 17  1  0  0  0  0
 11 12  1  0  0  0  0
 11 42  1  0  0  0  0
 12 13  1  0  0  0  0
 12 30  1  0  0  0  0
 12 31  1  0  0  0  0
 13 14  1  0  0  0  0
 13 32  1  0  0  0  0
 13 33  1  0  0  0  0
 14 15  1  0  0  0  0
 14 16  1  0  0  0  0
 14 34  1  0  0  0  0
 15 35  1  0  0  0  0
 15 36  1  0  0  0  0
 15 37  1  0  0  0  0
 16 17  1  0  0  0  0
 16 38  1  0  0  0  0
 16 39  1  0  0  0  0
 17 40  1  0  0  0  0
 17 41  1  0  0  0  0
 18 19  1  0  0  0  0
M  CHG  1  11   1
M  END
> <s_m_source_file>
AV-unprocessed.smi

> <i_m_source_file_index>
2090

> <i_lp_mmshare_version>
43012

> <i_f3d_flags>
0

> <s_epik_input>
W0NIM11jMVtjSF1jKG5vMSlbTkhdQyg9TylbTkhdW0NIMl1bQ0gyXU4yW0NIMl1bQ0gyXVtDSF0oW0NIM10pW0NIMl1bQ0gyXTI=

> <s_epik_cmdline>
J2VwaWtfcHl0aG9uJywgJy1waCcsICc3LjAnLCAnLXRuJywgJzgnLCAnLW1hJywgJzIwMCcsICctbWV0YWxfYmluZGluZycsICctaW1hZScsICc8aW5maWxlLm1hZT4nLCAnLW9tYWUnLCAnPG91dGZpbGUubWFlPic=

> <r_epik_Ionization_Penalty>
0.00176265

> <r_epik_Ionization_Penalty_Charging>
0.00172695

> <r_epik_Ionization_Penalty_Neutral>
3.56992e-05

> <r_epik_State_Penalty>
0.00116803

> <r_epik_Charging_Adjusted_Penalty>
0.00289498

> <i_epik_Tot_Q>
1

> <i_epik_Tot_abs_Q>
1

> <r_epik_Metal_State_Penalty>
0.0215312

> <b_epik_Metal_Only>
0

> <s_lp_Force_Field>
OPLS_2005

> <r_lp_Energy>
14.8541

> <b_lp_Chiralities_Consistent>
1

> <s_lp_Variant>
AV-unprocessed.smi:2090-2

> <Gold.Version>
5.8.1

> <Gold.Id.Protein>
6NUR|6NUR_protein|mol2

> <Gold.PLP.Fitness>
44.9444

> <Gold.PLP.PLP>
-30.9624

> <Gold.PLP.part.hbond>
-6.0000

> <Gold.PLP.part.metal>
0.0000

> <Gold.PLP.part.buried>
-1.6458

> <Gold.PLP.part.nonpolar>
-24.0720

> <Gold.PLP.part.repulsive>
0.3162

> <Gold.PLP.ligand.clash>
0.0000

> <Gold.PLP.ligand.torsion>
1.1167

> <Gold.PLP.Chemscore.Hbond>
5.4000

> <Gold.PLP.Chemscore.CHOScore>
0.0000

> <Gold.PLP.Chemscore.Metal>
0.0000

> <Gold.Chemscore.Hbonds>
donor molecule, donor type, donor heavy atom, donor atom, acceptor molecule, acceptor atom, score
      L1  H     5    24       P1  7957  0.93
      L1  H     8    25       P1  7957  1.00
      L1  H    11    42       P1  7948  2.00
      P1  H  7989  7998       L1    18  0.48
      P1  H  7997  8010       L1    19  1.00

> <Gold.PLP.Chemscore.Internal.Correction>
0.0153

> <Gold.Rescore>
     Score         DG    S(hbond)    S(metal)    S(lipo)     H(rot)  DE(clash)    DE(int)     intcor
     18.50     -20.94       3.66        0.00      62.14       1.57       1.30       1.14       ----

> <Gold.Chemscore.Fitness>
18.4960

> <Gold.Chemscore.DG>
-20.9414

> <Gold.Chemscore.ZeroCoef>
-5.4800

> <Gold.Chemscore.Hbond>
3.6557

> <Gold.Chemscore.Metal>
0.0000

> <Gold.Chemscore.Lipo>
62.1352

> <Gold.Chemscore.Internal_Hbond>
0.0000

> <Gold.Chemscore.DEClash>
1.3039

> <Gold.Chemscore.DEInternal>
1.1415

> <Gold.Chemscore.Rot>
1.5697

> <Gold.Chemscore.Internal.Correction>
   9.000000E+99

> <Gold.Chemscore.Hbonds>
donor molecule, donor type, donor heavy atom, donor atom, acceptor molecule, acceptor atom, score
      L1  H     5    24       P1  7957  0.70
      L1  H     8    25       P1  7957  0.94
      L1  H    11    42       P1  7948  1.00
      P1  H  7989  7998       L1    18  0.03
      P1  H  7997  8010       L1    19  0.78

> <Gold.Chemscore.Hbond.Weighted>
-12.2100

> <Gold.Chemscore.Metal.Weighted>
-0.0000

> <Gold.Chemscore.Lipo.Weighted>
-7.2698

> <Gold.Chemscore.Internal_Hbond.Weighted>
0.0000

> <Gold.Chemscore.DEClash.Weighted>
1.3039

> <Gold.Chemscore.DEInternal.Weighted>
1.1415

> <Gold.Chemscore.Rot.Weighted>
4.0185

> <Gold.Chemscore.Internal.Correction.Weighted>
   9.000000E+99

> <Gold.Protein.RotatedTorsions>
[ 6907 6896 6895 6894 ] final  -24.38 input  -60.11 | X-H torsion
[ 7974 7965 7964 7962 ] final   19.10 input  175.53 | X-H torsion
[ 8008 7997 7996 7995 ] final   90.49 input   59.86 | X-H torsion
[ 10167 10162 10161 10158 ] final -140.37 input  -65.29 | X-H torsion
[ 10718 10713 10712 10709 ] final  -43.04 input   66.30 | X-H torsion
[ 10763 10752 10751 10750 ] final  118.83 input  -60.55 | X-H torsion
[ 11005 11000 10999 10996 ] final    8.63 input  -57.11 | X-H torsion

> <Gold.Protein.ActiveResidues>
 VAL166  LYS551  ARG553  GLY616  TRP617  ASP618  TYR619  PRO620  LYS621  CYS622 
 ASP623  PHE694  ASN695  SER759  ASP760  ASP761  ALA762  ILE779  LEU786  VAL792 
 PHE793  MET794  SER795  GLU796  ALA797  LYS798  CYS799  TRP800  GLU811  SER814 

> <Gold.Protein.RotatedAtoms>
  151.1903  135.0399  159.8829 H   0  0  0  0  0  0  0  0  0  0  0  0  # atno 6907 bound_to 6896
  152.5440  134.0963  159.8309 H   0  0  0  0  0  0  0  0  0  0  0  0  # atno 6908 bound_to 6896
  151.1091  133.5139  159.2638 H   0  0  0  0  0  0  0  0  0  0  0  0  # atno 6909 bound_to 6896
  146.2161  139.8362  142.8650 H   0  0  0  0  0  0  0  0  0  0  0  0  # atno 7974 bound_to 7965
  156.0125  140.3349  155.6955 H   0  0  0  0  0  0  0  0  0  0  0  0  # atno 8008 bound_to 7997
  155.6137  140.0668  157.2716 H   0  0  0  0  0  0  0  0  0  0  0  0  # atno 8009 bound_to 7997
  154.4286  140.1789  156.1287 H   0  0  0  0  0  0  0  0  0  0  0  0  # atno 8010 bound_to 7997
  139.8288  143.7475  152.2666 H   0  0  0  0  0  0  0  0  0  0  0  0  # atno 10167 bound_to 10162
  156.2532  130.4190  149.8626 H   0  0  0  0  0  0  0  0  0  0  0  0  # atno 10718 bound_to 10713
  153.5737  135.3497  155.2847 H   0  0  0  0  0  0  0  0  0  0  0  0  # atno 10763 bound_to 10752
  154.8678  135.4165  154.2697 H   0  0  0  0  0  0  0  0  0  0  0  0  # atno 10764 bound_to 10752
  153.3468  135.7053  153.6891 H   0  0  0  0  0  0  0  0  0  0  0  0  # atno 10765 bound_to 10752
  140.5349  134.0431  155.7885 H   0  0  0  0  0  0  0  0  0  0  0  0  # atno 11005 bound_to 11000
  145.2946  141.0177  143.3643 LP  0  0  0  0  0  0  0  0  0  0  0  0  # atno 17320 bound_to 7965
  144.9051  139.4599  143.6614 LP  0  0  0  0  0  0  0  0  0  0  0  0  # atno 17321 bound_to 7965
  139.7676  144.7487  151.0272 LP  0  0  0  0  0  0  0  0  0  0  0  0  # atno 17342 bound_to 10162
  140.7808  143.4681  151.0184 LP  0  0  0  0  0  0  0  0  0  0  0  0  # atno 17343 bound_to 10162
  156.6168  130.8609  151.3466 LP  0  0  0  0  0  0  0  0  0  0  0  0  # atno 17370 bound_to 10713
  157.7222  130.9574  150.1486 LP  0  0  0  0  0  0  0  0  0  0  0  0  # atno 17371 bound_to 10713
  141.1260  133.9381  157.2633 LP  0  0  0  0  0  0  0  0  0  0  0  0  # atno 17394 bound_to 11000
  139.9535  135.0170  156.9061 LP  0  0  0  0  0  0  0  0  0  0  0  0  # atno 17395 bound_to 11000

$$$$
