AV-unprocessed.smi:48|AV-procd|sdf|462|dock10
  -GOLD-   2262016333D 1   1.00000     0.00000
 Structure written by MMmdl.
 30 32  0  0  0  0  0  0  0  0  1 V2000
  150.8238  137.2414  153.8316 O   0  0  0  0  0  0  0  0  0  0  0  0
  151.7034  138.0680  154.5635 C   0  0  0  0  0  0  0  0  0  0  0  0
  151.1843  139.5137  154.5728 C   0  0  2  0  0  0  0  0  0  0  0  0
  151.8772  140.2674  155.5600 O   0  0  0  0  0  0  0  0  0  0  0  0
  151.1085  141.3705  155.9270 C   0  0  2  0  0  0  0  0  0  0  0  0
  151.2449  141.5521  157.4036 N   0  0  0  0  0  0  0  0  0  0  0  0
  151.0629  140.6228  158.3640 C   0  0  0  0  0  0  0  0  0  0  0  0
  151.2314  141.0060  159.6289 N   0  0  0  0  0  0  0  0  0  0  0  0
  151.5520  142.3442  159.4718 C   0  0  0  0  0  0  0  0  0  0  0  0
  151.8573  143.3729  160.3958 C   0  0  0  0  0  0  0  0  0  0  0  0
  151.8810  143.0635  162.0932 Cl  0  0  0  0  0  0  0  0  0  0  0  0
  152.1318  144.6097  159.9170 N   0  0  0  0  0  0  0  0  0  0  0  0
  152.1063  144.8217  158.5955 C   0  0  0  0  0  0  0  0  0  0  0  0
  151.8399  143.9562  157.6107 N   0  0  0  0  0  0  0  0  0  0  0  0
  151.5636  142.7095  158.0955 C   0  0  0  0  0  0  0  0  0  0  0  0
  149.6494  141.0809  155.5345 C   0  0  1  0  0  0  0  0  0  0  0  0
  149.2131  141.9756  154.5272 O   0  0  0  0  0  0  0  0  0  0  0  0
  149.7312  139.6389  155.0337 C   0  0  1  0  0  0  0  0  0  0  0  0
  148.8003  139.3407  154.0096 O   0  0  0  0  0  0  0  0  0  0  0  0
  151.3065  139.9898  153.5977 H   0  0  0  0  0  0  0  0  0  0  0  0
  151.5100  142.2860  155.4891 H   0  0  0  0  0  0  0  0  0  0  0  0
  148.9818  141.1685  156.3929 H   0  0  0  0  0  0  0  0  0  0  0  0
  149.5531  138.9598  155.8677 H   0  0  0  0  0  0  0  0  0  0  0  0
  151.3202  136.7880  153.1676 H   0  0  0  0  0  0  0  0  0  0  0  0
  151.7466  137.6783  155.5809 H   0  0  0  0  0  0  0  0  0  0  0  0
  152.7117  138.0108  154.1518 H   0  0  0  0  0  0  0  0  0  0  0  0
  150.7935  139.6052  158.1215 H   0  0  0  0  0  0  0  0  0  0  0  0
  152.3339  145.8293  158.2805 H   0  0  0  0  0  0  0  0  0  0  0  0
  149.2839  142.8584  154.8564 H   0  0  0  0  0  0  0  0  0  0  0  0
  147.9768  139.1106  154.4115 H   0  0  0  0  0  0  0  0  0  0  0  0
  1  2  1  0  0  0  0
  1 24  1  0  0  0  0
  2  3  1  0  0  0  0
  2 25  1  0  0  0  0
  2 26  1  0  0  0  0
  3 20  1  0  0  0  0
  3 18  1  0  0  0  0
  3  4  1  0  0  0  0
  4  5  1  0  0  0  0
  5 21  1  0  0  0  0
  5  6  1  0  0  0  0
  5 16  1  0  0  0  0
  6 15  1  0  0  0  0
  6  7  1  0  0  0  0
  7  8  2  0  0  0  0
  7 27  1  0  0  0  0
  8  9  1  0  0  0  0
  9 15  2  0  0  0  0
  9 10  1  0  0  0  0
 10 11  1  0  0  0  0
 10 12  2  0  0  0  0
 12 13  1  0  0  0  0
 13 14  2  0  0  0  0
 13 28  1  0  0  0  0
 14 15  1  0  0  0  0
 16 22  1  0  0  0  0
 16 17  1  0  0  0  0
 16 18  1  0  0  0  0
 17 29  1  0  0  0  0
 18 23  1  0  0  0  0
 18 19  1  0  0  0  0
 19 30  1  0  0  0  0
M  END
> <s_m_source_file>
AV-unprocessed.smi

> <i_m_source_file_index>
48

> <i_lp_mmshare_version>
43012

> <i_f3d_flags>
0

> <s_epik_input>
W09IXVtDSDJdW0NASF0xT1tDQEhdKFtDQEhdKFtPSF0pW0NAQEhdMVtPSF0pbihbY0hdbjIpYyhjMjMpbltjSF1uYzNDbA==

> <s_epik_cmdline>
J2VwaWtfcHl0aG9uJywgJy1waCcsICc3LjAnLCAnLXRuJywgJzgnLCAnLW1hJywgJzIwMCcsICctbWV0YWxfYmluZGluZycsICctaW1hZScsICc8aW5maWxlLm1hZT4nLCAnLW9tYWUnLCAnPG91dGZpbGUubWFlPic=

> <r_lp_tautomer_probability>
1

> <r_epik_Ionization_Penalty>
3.45505e-06

> <r_epik_Ionization_Penalty_Charging>
0

> <r_epik_Ionization_Penalty_Neutral>
3.45505e-06

> <r_epik_State_Penalty>
-0

> <r_epik_Charging_Adjusted_Penalty>
0

> <i_epik_Tot_Q>
0

> <i_epik_Tot_abs_Q>
0

> <r_epik_Metal_State_Penalty>
-0

> <b_epik_Metal_Only>
0

> <s_epik_Chemistry_Notes>
This compound contains an acetal/aminal-like group ( X-CH(R)-Y where X, Y are N, S, or O) that may be acid/base labile, releasing an aldehyde.

> <s_lp_Force_Field>
OPLS_2005

> <r_lp_Energy>
36.5243

> <b_lp_Chiralities_Consistent>
1

> <s_lp_Variant>
AV-unprocessed.smi:48-16

> <Gold.Version>
5.8.1

> <Gold.Id.Protein>
6NUR|6NUR_protein|mol2

> <Gold.PLP.Fitness>
44.6509

> <Gold.PLP.PLP>
-39.0320

> <Gold.PLP.part.hbond>
-4.1648

> <Gold.PLP.part.metal>
0.0000

> <Gold.PLP.part.buried>
-5.1970

> <Gold.PLP.part.nonpolar>
-29.0835

> <Gold.PLP.part.repulsive>
0.1849

> <Gold.PLP.ligand.clash>
0.0000

> <Gold.PLP.ligand.torsion>
0.1853

> <Gold.PLP.Chemscore.Hbond>
1.9913

> <Gold.PLP.Chemscore.CHOScore>
0.0000

> <Gold.PLP.Chemscore.Metal>
0.0000

> <Gold.Chemscore.Hbonds>
donor molecule, donor type, donor heavy atom, donor atom, acceptor molecule, acceptor atom, score
      L1  H     1    24       P1  7949  0.86
      L1  H    17    29       P1  8028  0.94
      P1  H  8011  8017       L1    17  0.10

> <Gold.PLP.Chemscore.Internal.Correction>
0.0159

> <Gold.Rescore>
     Score         DG    S(hbond)    S(metal)    S(lipo)     H(rot)  DE(clash)    DE(int)     intcor
      7.13      -8.44       1.65        0.00      61.30       3.80       1.17       0.13       ----

> <Gold.Chemscore.Fitness>
7.1322

> <Gold.Chemscore.DG>
-8.4403

> <Gold.Chemscore.ZeroCoef>
-5.4800

> <Gold.Chemscore.Hbond>
1.6528

> <Gold.Chemscore.Metal>
0.0000

> <Gold.Chemscore.Lipo>
61.3022

> <Gold.Chemscore.Internal_Hbond>
0.0000

> <Gold.Chemscore.DEClash>
1.1747

> <Gold.Chemscore.DEInternal>
0.1334

> <Gold.Chemscore.Rot>
3.8017

> <Gold.Chemscore.Internal.Correction>
   9.000000E+99

> <Gold.Chemscore.Hbonds>
donor molecule, donor type, donor heavy atom, donor atom, acceptor molecule, acceptor atom, score
      L1  H     1    24       P1  7949  0.63
      L1  H    17    29       P1  8028  0.90
      P1  H  8011  8017       L1    17  0.02

> <Gold.Chemscore.Hbond.Weighted>
-5.5203

> <Gold.Chemscore.Metal.Weighted>
-0.0000

> <Gold.Chemscore.Lipo.Weighted>
-7.1724

> <Gold.Chemscore.Internal_Hbond.Weighted>
0.0000

> <Gold.Chemscore.DEClash.Weighted>
1.1747

> <Gold.Chemscore.DEInternal.Weighted>
0.1334

> <Gold.Chemscore.Rot.Weighted>
9.7324

> <Gold.Chemscore.Internal.Correction.Weighted>
   9.000000E+99

> <Gold.Protein.RotatedTorsions>
[ 6907 6896 6895 6894 ] final -110.84 input  -60.11 | X-H torsion
[ 7974 7965 7964 7962 ] final  -50.59 input  175.53 | X-H torsion
[ 8008 7997 7996 7995 ] final -151.61 input   59.86 | X-H torsion
[ 10167 10162 10161 10158 ] final  -74.08 input  -65.29 | X-H torsion
[ 10718 10713 10712 10709 ] final  -51.73 input   66.30 | X-H torsion
[ 10763 10752 10751 10750 ] final  143.50 input  -60.55 | X-H torsion
[ 11005 11000 10999 10996 ] final  -40.35 input  -57.11 | X-H torsion

> <Gold.Protein.ActiveResidues>
 VAL166  LYS551  ARG553  GLY616  TRP617  ASP618  TYR619  PRO620  LYS621  CYS622 
 ASP623  PHE694  ASN695  SER759  ASP760  ASP761  ALA762  ILE779  LEU786  VAL792 
 PHE793  MET794  SER795  GLU796  ALA797  LYS798  CYS799  TRP800  GLU811  SER814 

> <Gold.Protein.RotatedAtoms>
  150.7651  133.9323  159.3430 H   0  0  0  0  0  0  0  0  0  0  0  0  # atno 6907 bound_to 6896
  151.7223  135.0890  160.0295 H   0  0  0  0  0  0  0  0  0  0  0  0  # atno 6908 bound_to 6896
  152.3642  133.6298  159.6074 H   0  0  0  0  0  0  0  0  0  0  0  0  # atno 6909 bound_to 6896
  145.9282  140.7773  142.9613 H   0  0  0  0  0  0  0  0  0  0  0  0  # atno 7974 bound_to 7965
  155.6421  140.0703  157.2615 H   0  0  0  0  0  0  0  0  0  0  0  0  # atno 8008 bound_to 7997
  154.4181  140.1748  156.1634 H   0  0  0  0  0  0  0  0  0  0  0  0  # atno 8009 bound_to 7997
  155.9846  140.3350  155.6699 H   0  0  0  0  0  0  0  0  0  0  0  0  # atno 8010 bound_to 7997
  140.5057  143.2353  151.7678 H   0  0  0  0  0  0  0  0  0  0  0  0  # atno 10167 bound_to 10162
  156.1684  130.4149  149.9685 H   0  0  0  0  0  0  0  0  0  0  0  0  # atno 10718 bound_to 10713
  153.9734  135.2948  155.3425 H   0  0  0  0  0  0  0  0  0  0  0  0  # atno 10763 bound_to 10752
  154.7310  135.5068  153.8966 H   0  0  0  0  0  0  0  0  0  0  0  0  # atno 10764 bound_to 10752
  153.0889  135.6702  154.0006 H   0  0  0  0  0  0  0  0  0  0  0  0  # atno 10765 bound_to 10752
  141.0168  133.6881  156.2310 H   0  0  0  0  0  0  0  0  0  0  0  0  # atno 11005 bound_to 11000
  144.6761  140.2085  143.7379 LP  0  0  0  0  0  0  0  0  0  0  0  0  # atno 17320 bound_to 7965
  145.8461  139.2153  143.1799 LP  0  0  0  0  0  0  0  0  0  0  0  0  # atno 17321 bound_to 7965
  139.4883  144.4461  151.9709 LP  0  0  0  0  0  0  0  0  0  0  0  0  # atno 17342 bound_to 10162
  140.3551  144.3041  150.5942 LP  0  0  0  0  0  0  0  0  0  0  0  0  # atno 17343 bound_to 10162
  156.7493  130.9109  151.3636 LP  0  0  0  0  0  0  0  0  0  0  0  0  # atno 17370 bound_to 10713
  157.6785  130.9117  150.0208 LP  0  0  0  0  0  0  0  0  0  0  0  0  # atno 17371 bound_to 10713
  140.6640  134.4937  157.5584 LP  0  0  0  0  0  0  0  0  0  0  0  0  # atno 17394 bound_to 11000
  139.9122  134.8321  156.1489 LP  0  0  0  0  0  0  0  0  0  0  0  0  # atno 17395 bound_to 11000

$$$$
