AV-unprocessed.smi:232|AV-procd|sdf|1778|dock7
  -GOLD-   2262020323D 1   1.00000     0.00000
 Structure written by MMmdl.
 52 55  0  0  0  0  0  0  0  0  1 V2000
  150.8561  139.3996  158.2984 C   0  0  0  0  0  0  0  0  0  0  0  0
  152.2020  140.0556  158.6329 C   0  0  0  0  0  0  0  0  0  0  0  0
  152.0549  141.4735  159.2268 C   0  0  1  0  0  0  0  0  0  0  0  0
  153.4048  142.1246  159.5886 C   0  0  0  0  0  0  0  0  0  0  0  0
  153.3877  143.5069  158.9269 C   0  0  0  0  0  0  0  0  0  0  0  0
  151.9194  143.7500  158.5767 C   0  0  2  0  0  0  0  0  0  0  0  0
  151.1682  144.4553  159.7250 C   0  0  0  0  0  0  0  0  0  0  0  0
  151.4147  142.4094  158.3015 N   0  0  0  0  0  0  0  0  0  0  0  0
  150.0986  142.2949  157.9780 C   0  0  0  0  0  0  0  0  0  0  0  0
  149.1441  142.5796  158.9041 N   0  0  0  0  0  0  0  0  0  0  0  0
  147.8485  142.4887  158.5918 C   0  0  0  0  0  0  0  0  0  0  0  0
  147.2931  142.1392  157.4307 N   0  0  0  0  0  0  0  0  0  0  0  0
  148.2440  141.8489  156.4977 C   0  0  0  0  0  0  0  0  0  0  0  0
  149.6545  141.8997  156.6843 C   0  0  0  0  0  0  0  0  0  0  0  0
  150.2980  141.5232  155.5108 N   0  0  0  0  0  0  0  0  0  0  0  0
  149.3255  141.2623  154.6807 C   0  0  0  0  0  0  0  0  0  0  0  0
  148.0596  141.4277  155.1926 N   0  0  0  0  0  0  0  0  0  0  0  0
  146.8071  141.1918  154.4985 C   0  0  0  0  0  0  0  0  0  0  0  0
  145.6023  141.8734  155.1807 C   0  0  2  0  0  0  0  0  0  0  0  0
  144.4423  141.1749  154.7754 O   0  0  0  0  0  0  0  0  0  0  0  0
  145.4385  143.3708  154.8367 C   0  0  1  0  0  0  0  0  0  0  0  0
  145.5383  143.7014  153.3458 C   0  0  0  0  0  0  0  0  0  0  0  0
  144.7749  145.0104  153.2152 C   0  0  0  0  0  0  0  0  0  0  0  0
  143.9637  145.0950  154.5103 C   0  0  0  0  0  0  0  0  0  0  0  0
  144.1237  143.8246  155.1224 O   0  0  0  0  0  0  0  0  0  0  0  0
  151.0056  138.4144  157.8563 H   0  0  0  0  0  0  0  0  0  0  0  0
  150.2940  140.0022  157.5843 H   0  0  0  0  0  0  0  0  0  0  0  0
  150.2392  139.2711  159.1879 H   0  0  0  0  0  0  0  0  0  0  0  0
  152.7568  139.4217  159.3257 H   0  0  0  0  0  0  0  0  0  0  0  0
  152.7953  140.0890  157.7195 H   0  0  0  0  0  0  0  0  0  0  0  0
  151.4489  141.4189  160.1326 H   0  0  0  0  0  0  0  0  0  0  0  0
  153.4947  142.2150  160.6717 H   0  0  0  0  0  0  0  0  0  0  0  0
  154.2606  141.5472  159.2376 H   0  0  0  0  0  0  0  0  0  0  0  0
  153.8175  144.2864  159.5569 H   0  0  0  0  0  0  0  0  0  0  0  0
  153.9739  143.4698  158.0076 H   0  0  0  0  0  0  0  0  0  0  0  0
  151.8689  144.3705  157.6825 H   0  0  0  0  0  0  0  0  0  0  0  0
  151.6136  145.4268  159.9396 H   0  0  0  0  0  0  0  0  0  0  0  0
  151.1923  143.8705  160.6450 H   0  0  0  0  0  0  0  0  0  0  0  0
  150.1228  144.6301  159.4693 H   0  0  0  0  0  0  0  0  0  0  0  0
  147.1585  142.7316  159.3863 H   0  0  0  0  0  0  0  0  0  0  0  0
  149.5056  140.9320  153.6679 H   0  0  0  0  0  0  0  0  0  0  0  0
  146.9098  141.5409  153.4701 H   0  0  0  0  0  0  0  0  0  0  0  0
  146.6492  140.1136  154.4446 H   0  0  0  0  0  0  0  0  0  0  0  0
  145.6885  141.7618  156.2625 H   0  0  0  0  0  0  0  0  0  0  0  0
  144.4208  141.1528  153.8311 H   0  0  0  0  0  0  0  0  0  0  0  0
  146.1570  143.9717  155.3982 H   0  0  0  0  0  0  0  0  0  0  0  0
  146.5689  143.7771  152.9979 H   0  0  0  0  0  0  0  0  0  0  0  0
  145.0409  142.9293  152.7569 H   0  0  0  0  0  0  0  0  0  0  0  0
  145.4520  145.8610  153.1311 H   0  0  0  0  0  0  0  0  0  0  0  0
  144.1324  145.0022  152.3340 H   0  0  0  0  0  0  0  0  0  0  0  0
  144.3688  145.8638  155.1700 H   0  0  0  0  0  0  0  0  0  0  0  0
  142.9107  145.3155  154.3343 H   0  0  0  0  0  0  0  0  0  0  0  0
  1  2  1  0  0  0  0
  1 26  1  0  0  0  0
  1 27  1  0  0  0  0
  1 28  1  0  0  0  0
  2  3  1  0  0  0  0
  2 29  1  0  0  0  0
  2 30  1  0  0  0  0
  3  8  1  0  0  0  0
  3  4  1  0  0  0  0
  3 31  1  0  0  0  0
  4  5  1  0  0  0  0
  4 32  1  0  0  0  0
  4 33  1  0  0  0  0
  5  6  1  0  0  0  0
  5 34  1  0  0  0  0
  5 35  1  0  0  0  0
  6  7  1  0  0  0  0
  6  8  1  0  0  0  0
  6 36  1  0  0  0  0
  7 37  1  0  0  0  0
  7 38  1  0  0  0  0
  7 39  1  0  0  0  0
  8  9  1  0  0  0  0
  9 14  1  0  0  0  0
  9 10  2  0  0  0  0
 10 11  1  0  0  0  0
 11 12  2  0  0  0  0
 11 40  1  0  0  0  0
 12 13  1  0  0  0  0
 13 17  1  0  0  0  0
 13 14  2  0  0  0  0
 14 15  1  0  0  0  0
 15 16  2  0  0  0  0
 16 17  1  0  0  0  0
 16 41  1  0  0  0  0
 17 18  1  0  0  0  0
 18 19  1  0  0  0  0
 18 42  1  0  0  0  0
 18 43  1  0  0  0  0
 19 20  1  0  0  0  0
 19 21  1  0  0  0  0
 19 44  1  0  0  0  0
 20 45  1  0  0  0  0
 21 25  1  0  0  0  0
 21 22  1  0  0  0  0
 21 46  1  0  0  0  0
 22 23  1  0  0  0  0
 22 47  1  0  0  0  0
 22 48  1  0  0  0  0
 23 24  1  0  0  0  0
 23 49  1  0  0  0  0
 23 50  1  0  0  0  0
 24 25  1  0  0  0  0
 24 51  1  0  0  0  0
 24 52  1  0  0  0  0
M  END
> <s_m_source_file>
AV-unprocessed.smi

> <i_m_source_file_index>
232

> <i_lp_mmshare_version>
43012

> <i_f3d_flags>
0

> <s_epik_input>
W0NIM11bQ0gyXVtDQEBIXTFbQ0gyXVtDSDJdW0NAQEhdKFtDSDNdKU4xYyhuW2NIXW4yKWMoYzIzKW5bY0hdbjNbQ0gyXVtDQEhdKFtPSF0pW0NAQEhdNFtDSDJdW0NIMl1bQ0gyXU80

> <s_epik_cmdline>
J2VwaWtfcHl0aG9uJywgJy1waCcsICc3LjAnLCAnLXRuJywgJzgnLCAnLW1hJywgJzIwMCcsICctbWV0YWxfYmluZGluZycsICctaW1hZScsICc8aW5maWxlLm1hZT4nLCAnLW9tYWUnLCAnPG91dGZpbGUubWFlPic=

> <r_lp_tautomer_probability>
1

> <r_epik_Ionization_Penalty>
0.00258048

> <r_epik_Ionization_Penalty_Charging>
0

> <r_epik_Ionization_Penalty_Neutral>
0.00258048

> <r_epik_State_Penalty>
0.00168551

> <r_epik_Charging_Adjusted_Penalty>
0.00168551

> <i_epik_Tot_Q>
0

> <i_epik_Tot_abs_Q>
0

> <r_epik_Metal_State_Penalty>
-0

> <b_epik_Metal_Only>
0

> <s_lp_Force_Field>
OPLS_2005

> <r_lp_Energy>
52.3854

> <b_lp_Chiralities_Consistent>
1

> <s_lp_Variant>
AV-unprocessed.smi:232-12

> <Gold.Version>
5.8.1

> <Gold.Id.Protein>
6NUR|6NUR_protein|mol2

> <Gold.PLP.Fitness>
48.8179

> <Gold.PLP.PLP>
-45.4452

> <Gold.PLP.part.hbond>
-2.2488

> <Gold.PLP.part.metal>
0.0000

> <Gold.PLP.part.buried>
-4.7956

> <Gold.PLP.part.nonpolar>
-38.7431

> <Gold.PLP.part.repulsive>
0.5403

> <Gold.PLP.ligand.clash>
0.0000

> <Gold.PLP.ligand.torsion>
0.8667

> <Gold.PLP.Chemscore.Hbond>
0.9120

> <Gold.PLP.Chemscore.CHOScore>
0.6841

> <Gold.PLP.Chemscore.Metal>
0.0000

> <Gold.Chemscore.Hbonds>
donor molecule, donor type, donor heavy atom, donor atom, acceptor molecule, acceptor atom, score
      L1  H    20    45       P1 10175  0.91
      L1  C    16    41       P1  7957  0.68

> <Gold.PLP.Chemscore.Internal.Correction>
0.3180

> <Gold.Rescore>
     Score         DG    S(hbond)    S(metal)    S(lipo)     H(rot)  DE(clash)    DE(int)     intcor
     11.53     -15.33       0.91        0.00     111.22       2.43       0.27       3.53       ----

> <Gold.Chemscore.Fitness>
11.5333

> <Gold.Chemscore.DG>
-15.3317

> <Gold.Chemscore.ZeroCoef>
-5.4800

> <Gold.Chemscore.Hbond>
0.9131

> <Gold.Chemscore.Metal>
0.0000

> <Gold.Chemscore.Lipo>
111.2175

> <Gold.Chemscore.Internal_Hbond>
0.0000

> <Gold.Chemscore.DEClash>
0.2733

> <Gold.Chemscore.DEInternal>
3.5251

> <Gold.Chemscore.Rot>
2.4260

> <Gold.Chemscore.Internal.Correction>
   9.000000E+99

> <Gold.Chemscore.Hbonds>
donor molecule, donor type, donor heavy atom, donor atom, acceptor molecule, acceptor atom, score
      L1  H    20    45       P1 10175  0.49

> <Gold.Chemscore.Hbond.Weighted>
-3.0499

> <Gold.Chemscore.Metal.Weighted>
-0.0000

> <Gold.Chemscore.Lipo.Weighted>
-13.0124

> <Gold.Chemscore.Internal_Hbond.Weighted>
0.0000

> <Gold.Chemscore.DEClash.Weighted>
0.2733

> <Gold.Chemscore.DEInternal.Weighted>
3.5251

> <Gold.Chemscore.Rot.Weighted>
6.2107

> <Gold.Chemscore.Internal.Correction.Weighted>
   9.000000E+99

> <Gold.Protein.RotatedTorsions>
[ 6907 6896 6895 6894 ] final   -2.16 input  -60.11 | X-H torsion
[ 7974 7965 7964 7962 ] final   -4.27 input  175.53 | X-H torsion
[ 8008 7997 7996 7995 ] final -156.53 input   59.86 | X-H torsion
[ 10167 10162 10161 10158 ] final  174.91 input  -65.29 | X-H torsion
[ 10718 10713 10712 10709 ] final  100.72 input   66.30 | X-H torsion
[ 10763 10752 10751 10750 ] final   96.34 input  -60.55 | X-H torsion
[ 11005 11000 10999 10996 ] final -168.24 input  -57.11 | X-H torsion

> <Gold.Protein.ActiveResidues>
 VAL166  LYS551  ARG553  GLY616  TRP617  ASP618  TYR619  PRO620  LYS621  CYS622 
 ASP623  PHE694  ASN695  SER759  ASP760  ASP761  ALA762  ILE779  LEU786  VAL792 
 PHE793  MET794  SER795  GLU796  ALA797  LYS798  CYS799  TRP800  GLU811  SER814 

> <Gold.Protein.RotatedAtoms>
  151.5343  135.1068  159.9910 H   0  0  0  0  0  0  0  0  0  0  0  0  # atno 6907 bound_to 6896
  152.4564  133.7728  159.6818 H   0  0  0  0  0  0  0  0  0  0  0  0  # atno 6908 bound_to 6896
  150.8509  133.7723  159.3050 H   0  0  0  0  0  0  0  0  0  0  0  0  # atno 6909 bound_to 6896
  146.2375  140.1847  142.8332 H   0  0  0  0  0  0  0  0  0  0  0  0  # atno 7974 bound_to 7965
  155.7186  140.0787  157.2340 H   0  0  0  0  0  0  0  0  0  0  0  0  # atno 8008 bound_to 7997
  154.4048  140.1617  156.2430 H   0  0  0  0  0  0  0  0  0  0  0  0  # atno 8009 bound_to 7997
  155.9217  140.3397  155.6181 H   0  0  0  0  0  0  0  0  0  0  0  0  # atno 8010 bound_to 7997
  139.5158  144.3093  152.0307 H   0  0  0  0  0  0  0  0  0  0  0  0  # atno 10167 bound_to 10162
  157.6847  131.0706  150.5144 H   0  0  0  0  0  0  0  0  0  0  0  0  # atno 10718 bound_to 10713
  153.2638  135.4222  155.0921 H   0  0  0  0  0  0  0  0  0  0  0  0  # atno 10763 bound_to 10752
  154.8430  135.3455  154.6340 H   0  0  0  0  0  0  0  0  0  0  0  0  # atno 10764 bound_to 10752
  153.6760  135.7041  153.5189 H   0  0  0  0  0  0  0  0  0  0  0  0  # atno 10765 bound_to 10752
  140.5442  134.5492  157.5107 H   0  0  0  0  0  0  0  0  0  0  0  0  # atno 11005 bound_to 11000
  144.9906  140.8543  143.5341 LP  0  0  0  0  0  0  0  0  0  0  0  0  # atno 17320 bound_to 7965
  145.1852  139.2330  143.5271 LP  0  0  0  0  0  0  0  0  0  0  0  0  # atno 17321 bound_to 7965
  140.2538  144.4141  150.6211 LP  0  0  0  0  0  0  0  0  0  0  0  0  # atno 17342 bound_to 10162
  140.6206  143.2176  151.6702 LP  0  0  0  0  0  0  0  0  0  0  0  0  # atno 17343 bound_to 10162
  156.5459  130.4219  149.6131 LP  0  0  0  0  0  0  0  0  0  0  0  0  # atno 17370 bound_to 10713
  156.2944  130.7142  151.1999 LP  0  0  0  0  0  0  0  0  0  0  0  0  # atno 17371 bound_to 10713
  139.9488  134.7654  156.0497 LP  0  0  0  0  0  0  0  0  0  0  0  0  # atno 17394 bound_to 11000
  141.1209  133.6613  156.3213 LP  0  0  0  0  0  0  0  0  0  0  0  0  # atno 17395 bound_to 11000

$$$$
