AV-unprocessed.smi:2183|AV-procd|sdf|8866|dock3
  -GOLD-   2272012 63D 1   1.00000     0.00000
 Structure written by MMmdl.
 40 42  0  0  0  0  0  0  0  0  1 V2000
  151.5817  137.0274  154.5766 O   0  0  0  0  0  0  0  0  0  0  0  0
  152.0589  138.3314  154.3115 C   0  0  0  0  0  0  0  0  0  0  0  0
  151.7758  139.3213  155.4062 C   0  0  0  0  0  0  0  0  0  0  0  0
  152.4936  139.3909  156.5302 N   0  0  0  0  0  0  0  0  0  0  0  0
  151.8919  140.4275  157.2154 C   0  0  0  0  0  0  0  0  0  0  0  0
  152.1918  140.9914  158.4763 C   0  0  0  0  0  0  0  0  0  0  0  0
  151.4275  142.0649  158.9784 C   0  0  0  0  0  0  0  0  0  0  0  0
  150.3538  142.5879  158.2290 C   0  0  0  0  0  0  0  0  0  0  0  0
  150.0377  142.0401  156.9707 C   0  0  0  0  0  0  0  0  0  0  0  0
  150.8047  140.9692  156.4734 C   0  0  0  0  0  0  0  0  0  0  0  0
  150.7629  140.2183  155.3021 N   0  0  0  0  0  0  0  0  0  0  0  0
  149.8206  140.3836  154.2030 C   0  0  0  0  0  0  0  0  0  0  0  0
  148.3604  140.1069  154.6175 C   0  0  1  0  0  0  0  0  0  0  0  0
  148.3123  139.0487  155.5539 O   0  0  0  0  0  0  0  0  0  0  0  0
  147.6837  141.3362  155.2411 C   0  0  0  0  0  0  0  0  0  0  0  0
  147.1717  142.1603  154.2018 O   0  0  0  0  0  0  0  0  0  0  0  0
  146.1576  143.0422  154.5079 C   0  0  0  0  0  0  0  0  0  0  0  0
  145.6702  143.8463  153.4567 C   0  0  0  0  0  0  0  0  0  0  0  0
  144.6334  144.7729  153.6784 C   0  0  0  0  0  0  0  0  0  0  0  0
  144.0699  144.9043  154.9612 C   0  0  0  0  0  0  0  0  0  0  0  0
  142.7969  146.0362  155.2355 Cl  0  0  0  0  0  0  0  0  0  0  0  0
  144.5474  144.1094  156.0199 C   0  0  0  0  0  0  0  0  0  0  0  0
  145.5851  143.1833  155.7978 C   0  0  0  0  0  0  0  0  0  0  0  0
  150.8572  136.8488  153.9972 H   0  0  0  0  0  0  0  0  0  0  0  0
  153.1357  138.2783  154.1496 H   0  0  0  0  0  0  0  0  0  0  0  0
  151.6049  138.6780  153.3837 H   0  0  0  0  0  0  0  0  0  0  0  0
  153.0118  140.5971  159.0580 H   0  0  0  0  0  0  0  0  0  0  0  0
  151.6658  142.4886  159.9432 H   0  0  0  0  0  0  0  0  0  0  0  0
  149.7725  143.4096  158.6211 H   0  0  0  0  0  0  0  0  0  0  0  0
  149.2150  142.4379  156.3960 H   0  0  0  0  0  0  0  0  0  0  0  0
  149.9170  141.3982  153.8149 H   0  0  0  0  0  0  0  0  0  0  0  0
  150.1158  139.7246  153.3863 H   0  0  0  0  0  0  0  0  0  0  0  0
  147.7834  139.7933  153.7476 H   0  0  0  0  0  0  0  0  0  0  0  0
  148.7036  138.2825  155.1634 H   0  0  0  0  0  0  0  0  0  0  0  0
  146.8630  141.0126  155.8838 H   0  0  0  0  0  0  0  0  0  0  0  0
  148.3982  141.8877  155.8549 H   0  0  0  0  0  0  0  0  0  0  0  0
  146.0959  143.7516  152.4684 H   0  0  0  0  0  0  0  0  0  0  0  0
  144.2708  145.3810  152.8628 H   0  0  0  0  0  0  0  0  0  0  0  0
  144.1171  144.2077  157.0058 H   0  0  0  0  0  0  0  0  0  0  0  0
  145.9223  142.5912  156.6348 H   0  0  0  0  0  0  0  0  0  0  0  0
  1  2  1  0  0  0  0
  1 24  1  0  0  0  0
  2  3  1  0  0  0  0
  2 25  1  0  0  0  0
  2 26  1  0  0  0  0
  3 11  1  0  0  0  0
  3  4  2  0  0  0  0
  4  5  1  0  0  0  0
  5 10  2  0  0  0  0
  5  6  1  0  0  0  0
  6  7  2  0  0  0  0
  6 27  1  0  0  0  0
  7  8  1  0  0  0  0
  7 28  1  0  0  0  0
  8  9  2  0  0  0  0
  8 29  1  0  0  0  0
  9 10  1  0  0  0  0
  9 30  1  0  0  0  0
 10 11  1  0  0  0  0
 11 12  1  0  0  0  0
 12 13  1  0  0  0  0
 12 31  1  0  0  0  0
 12 32  1  0  0  0  0
 13 14  1  0  0  0  0
 13 15  1  0  0  0  0
 13 33  1  0  0  0  0
 14 34  1  0  0  0  0
 15 16  1  0  0  0  0
 15 35  1  0  0  0  0
 15 36  1  0  0  0  0
 16 17  1  0  0  0  0
 17 23  1  0  0  0  0
 17 18  2  0  0  0  0
 18 19  1  0  0  0  0
 18 37  1  0  0  0  0
 19 20  2  0  0  0  0
 19 38  1  0  0  0  0
 20 21  1  0  0  0  0
 20 22  1  0  0  0  0
 22 23  2  0  0  0  0
 22 39  1  0  0  0  0
 23 40  1  0  0  0  0
M  END
> <s_m_source_file>
AV-unprocessed.smi

> <i_m_source_file_index>
2183

> <i_lp_mmshare_version>
43012

> <i_f3d_flags>
0

> <s_epik_input>
W2NIXTFbY0hdW2NIXVtjSF1jKGMxMiluKGMobjIpW0NIMl1bT0hdKVtDSDJdW0NASF0oW09IXSlbQ0gyXU9jM1tjSF1bY0hdYyhDbClbY0hdW2NIXTM=

> <s_epik_cmdline>
J2VwaWtfcHl0aG9uJywgJy1waCcsICc3LjAnLCAnLXRuJywgJzgnLCAnLW1hJywgJzIwMCcsICctbWV0YWxfYmluZGluZycsICctaW1hZScsICc8aW5maWxlLm1hZT4nLCAnLW9tYWUnLCAnPG91dGZpbGUubWFlPic=

> <r_lp_tautomer_probability>
1

> <r_epik_Ionization_Penalty>
0.0586933

> <r_epik_Ionization_Penalty_Charging>
0

> <r_epik_Ionization_Penalty_Neutral>
0.0586933

> <r_epik_State_Penalty>
0.0507031

> <r_epik_Charging_Adjusted_Penalty>
0.0507031

> <i_epik_Tot_Q>
0

> <i_epik_Tot_abs_Q>
0

> <r_epik_Metal_State_Penalty>
5.29335e-05

> <b_epik_Metal_Only>
0

> <s_lp_Force_Field>
OPLS_2005

> <r_lp_Energy>
14.4391

> <b_lp_Chiralities_Consistent>
1

> <s_lp_Variant>
AV-unprocessed.smi:2183-2

> <Gold.Version>
5.8.1

> <Gold.Id.Protein>
6NUR|6NUR_protein|mol2

> <Gold.PLP.Fitness>
47.3900

> <Gold.PLP.PLP>
-43.0480

> <Gold.PLP.part.hbond>
-2.0000

> <Gold.PLP.part.metal>
0.0000

> <Gold.PLP.part.buried>
-2.2236

> <Gold.PLP.part.nonpolar>
-38.7861

> <Gold.PLP.part.repulsive>
0.1576

> <Gold.PLP.ligand.clash>
0.0000

> <Gold.PLP.ligand.torsion>
0.9221

> <Gold.PLP.Chemscore.Hbond>
1.9913

> <Gold.PLP.Chemscore.CHOScore>
0.0000

> <Gold.PLP.Chemscore.Metal>
0.0000

> <Gold.Chemscore.Hbonds>
donor molecule, donor type, donor heavy atom, donor atom, acceptor molecule, acceptor atom, score
      P1  H  7997  8010       L1     4  0.96
      P1  H 10752 10765       L1     1  1.00

> <Gold.PLP.Chemscore.Internal.Correction>
0.2123

> <Gold.Rescore>
     Score         DG    S(hbond)    S(metal)    S(lipo)     H(rot)  DE(clash)    DE(int)     intcor
     10.13     -14.04       1.19        0.00     105.71       3.04       1.69       2.22       ----

> <Gold.Chemscore.Fitness>
10.1315

> <Gold.Chemscore.DG>
-14.0392

> <Gold.Chemscore.ZeroCoef>
-5.4800

> <Gold.Chemscore.Hbond>
1.1866

> <Gold.Chemscore.Metal>
0.0000

> <Gold.Chemscore.Lipo>
105.7067

> <Gold.Chemscore.Internal_Hbond>
0.0000

> <Gold.Chemscore.DEClash>
1.6857

> <Gold.Chemscore.DEInternal>
2.2221

> <Gold.Chemscore.Rot>
3.0358

> <Gold.Chemscore.Internal.Correction>
   9.000000E+99

> <Gold.Chemscore.Hbonds>
donor molecule, donor type, donor heavy atom, donor atom, acceptor molecule, acceptor atom, score
      P1  H  7997  8010       L1     4  0.24
      P1  H 10752 10765       L1     1  0.43

> <Gold.Chemscore.Hbond.Weighted>
-3.9632

> <Gold.Chemscore.Metal.Weighted>
-0.0000

> <Gold.Chemscore.Lipo.Weighted>
-12.3677

> <Gold.Chemscore.Internal_Hbond.Weighted>
0.0000

> <Gold.Chemscore.DEClash.Weighted>
1.6857

> <Gold.Chemscore.DEInternal.Weighted>
2.2221

> <Gold.Chemscore.Rot.Weighted>
7.7716

> <Gold.Chemscore.Internal.Correction.Weighted>
   9.000000E+99

> <Gold.Protein.RotatedTorsions>
[ 6907 6896 6895 6894 ] final  -83.54 input  -60.11 | X-H torsion
[ 7974 7965 7964 7962 ] final   13.24 input  175.53 | X-H torsion
[ 8008 7997 7996 7995 ] final   89.15 input   59.86 | X-H torsion
[ 10167 10162 10161 10158 ] final   43.11 input  -65.29 | X-H torsion
[ 10718 10713 10712 10709 ] final   47.89 input   66.30 | X-H torsion
[ 10763 10752 10751 10750 ] final  153.68 input  -60.55 | X-H torsion
[ 11005 11000 10999 10996 ] final  120.15 input  -57.11 | X-H torsion

> <Gold.Protein.ActiveResidues>
 VAL166  LYS551  ARG553  GLY616  TRP617  ASP618  TYR619  PRO620  LYS621  CYS622 
 ASP623  PHE694  ASN695  SER759  ASP760  ASP761  ALA762  ILE779  LEU786  VAL792 
 PHE793  MET794  SER795  GLU796  ALA797  LYS798  CYS799  TRP800  GLU811  SER814 

> <Gold.Protein.RotatedAtoms>
  150.6884  134.3497  159.4903 H   0  0  0  0  0  0  0  0  0  0  0  0  # atno 6907 bound_to 6896
  152.1340  134.9111  160.0566 H   0  0  0  0  0  0  0  0  0  0  0  0  # atno 6908 bound_to 6896
  152.0270  133.3887  159.4318 H   0  0  0  0  0  0  0  0  0  0  0  0  # atno 6909 bound_to 6896
  146.2333  139.9217  142.8509 H   0  0  0  0  0  0  0  0  0  0  0  0  # atno 7974 bound_to 7965
  155.9965  140.3364  155.6803 H   0  0  0  0  0  0  0  0  0  0  0  0  # atno 8008 bound_to 7997
  155.6349  140.0689  157.2655 H   0  0  0  0  0  0  0  0  0  0  0  0  # atno 8009 bound_to 7997
  154.4235  140.1753  156.1499 H   0  0  0  0  0  0  0  0  0  0  0  0  # atno 8010 bound_to 7997
  140.3477  144.2390  150.6149 H   0  0  0  0  0  0  0  0  0  0  0  0  # atno 10167 bound_to 10162
  157.4631  130.8208  149.7907 H   0  0  0  0  0  0  0  0  0  0  0  0  # atno 10718 bound_to 10713
  154.1400  135.2821  155.3163 H   0  0  0  0  0  0  0  0  0  0  0  0  # atno 10763 bound_to 10752
  154.6293  135.5440  153.7666 H   0  0  0  0  0  0  0  0  0  0  0  0  # atno 10764 bound_to 10752
  153.0253  135.6458  154.1548 H   0  0  0  0  0  0  0  0  0  0  0  0  # atno 10765 bound_to 10752
  139.9174  134.9633  156.7763 H   0  0  0  0  0  0  0  0  0  0  0  0  # atno 11005 bound_to 11000
  145.2130  140.9903  143.4089 LP  0  0  0  0  0  0  0  0  0  0  0  0  # atno 17320 bound_to 7965
  144.9675  139.3915  143.6325 LP  0  0  0  0  0  0  0  0  0  0  0  0  # atno 17321 bound_to 7965
  140.5249  143.2257  151.8330 LP  0  0  0  0  0  0  0  0  0  0  0  0  # atno 17342 bound_to 10162
  139.4831  144.4792  151.9329 LP  0  0  0  0  0  0  0  0  0  0  0  0  # atno 17343 bound_to 10162
  156.0037  130.3866  150.2508 LP  0  0  0  0  0  0  0  0  0  0  0  0  # atno 17370 bound_to 10713
  157.0686  131.0110  151.3198 LP  0  0  0  0  0  0  0  0  0  0  0  0  # atno 17371 bound_to 10713
  140.6580  133.9671  155.7789 LP  0  0  0  0  0  0  0  0  0  0  0  0  # atno 17394 bound_to 11000
  141.0663  134.0272  157.3589 LP  0  0  0  0  0  0  0  0  0  0  0  0  # atno 17395 bound_to 11000

$$$$
