AV-unprocessed.smi:1919|AV-procd|sdf|7774|dock3
  -GOLD-   22720 9523D 1   1.00000     0.00000
 Structure written by MMmdl.
 36 38  0  0  0  0  0  0  0  0  1 V2000
  153.3787  139.4147  154.7367 O   0  0  0  0  0  0  0  0  0  0  0  0
  152.2823  138.6914  155.2584 C   0  0  0  0  0  0  0  0  0  0  0  0
  150.9417  139.2461  154.8672 C   0  0  0  0  0  0  0  0  0  0  0  0
  150.0822  138.5876  154.0853 N   0  0  0  0  0  0  0  0  0  0  0  0
  149.0176  139.4619  153.9940 C   0  0  0  0  0  0  0  0  0  0  0  0
  147.7883  139.3449  153.3067 C   0  0  0  0  0  0  0  0  0  0  0  0
  146.8393  140.3869  153.3590 C   0  0  0  0  0  0  0  0  0  0  0  0
  147.1054  141.5585  154.0970 C   0  0  0  0  0  0  0  0  0  0  0  0
  148.3241  141.6950  154.7895 C   0  0  0  0  0  0  0  0  0  0  0  0
  149.2671  140.6512  154.7344 C   0  0  0  0  0  0  0  0  0  0  0  0
  150.5301  140.4692  155.2879 N   0  0  0  0  0  0  0  0  0  0  0  0
  151.2342  141.4204  156.1375 C   0  0  0  0  0  0  0  0  0  0  0  0
  150.7078  141.4223  157.5866 C   0  0  1  0  0  0  0  0  0  0  0  0
  150.9454  140.1664  158.1924 O   0  0  0  0  0  0  0  0  0  0  0  0
  151.3022  142.5690  158.3884 C   0  0  0  0  0  0  0  0  0  0  0  0
  151.3641  143.8716  157.8456 C   0  0  0  0  0  0  0  0  0  0  0  0
  151.9119  144.9288  158.5981 C   0  0  0  0  0  0  0  0  0  0  0  0
  152.3980  144.6906  159.8979 C   0  0  0  0  0  0  0  0  0  0  0  0
  152.3334  143.3952  160.4461 C   0  0  0  0  0  0  0  0  0  0  0  0
  152.7964  143.1657  161.6974 F   0  0  0  0  0  0  0  0  0  0  0  0
  151.7862  142.3377  159.6939 C   0  0  0  0  0  0  0  0  0  0  0  0
  153.1458  139.7359  153.8794 H   0  0  0  0  0  0  0  0  0  0  0  0
  152.3632  137.6602  154.9158 H   0  0  0  0  0  0  0  0  0  0  0  0
  152.3578  138.6821  156.3457 H   0  0  0  0  0  0  0  0  0  0  0  0
  147.5760  138.4516  152.7384 H   0  0  0  0  0  0  0  0  0  0  0  0
  145.9029  140.2865  152.8301 H   0  0  0  0  0  0  0  0  0  0  0  0
  146.3734  142.3522  154.1310 H   0  0  0  0  0  0  0  0  0  0  0  0
  148.5309  142.5907  155.3562 H   0  0  0  0  0  0  0  0  0  0  0  0
  152.3040  141.2133  156.1148 H   0  0  0  0  0  0  0  0  0  0  0  0
  151.1115  142.4120  155.6999 H   0  0  0  0  0  0  0  0  0  0  0  0
  149.6247  141.5511  157.5645 H   0  0  0  0  0  0  0  0  0  0  0  0
  151.8758  140.0704  158.3273 H   0  0  0  0  0  0  0  0  0  0  0  0
  150.9903  144.0646  156.8505 H   0  0  0  0  0  0  0  0  0  0  0  0
  151.9583  145.9229  158.1783 H   0  0  0  0  0  0  0  0  0  0  0  0
  152.8177  145.5013  160.4752 H   0  0  0  0  0  0  0  0  0  0  0  0
  151.7390  141.3480  160.1242 H   0  0  0  0  0  0  0  0  0  0  0  0
  1  2  1  0  0  0  0
  1 22  1  0  0  0  0
  2  3  1  0  0  0  0
  2 23  1  0  0  0  0
  2 24  1  0  0  0  0
  3 11  1  0  0  0  0
  3  4  2  0  0  0  0
  4  5  1  0  0  0  0
  5 10  2  0  0  0  0
  5  6  1  0  0  0  0
  6  7  2  0  0  0  0
  6 25  1  0  0  0  0
  7  8  1  0  0  0  0
  7 26  1  0  0  0  0
  8  9  2  0  0  0  0
  8 27  1  0  0  0  0
  9 10  1  0  0  0  0
  9 28  1  0  0  0  0
 10 11  1  0  0  0  0
 11 12  1  0  0  0  0
 12 13  1  0  0  0  0
 12 29  1  0  0  0  0
 12 30  1  0  0  0  0
 13 14  1  0  0  0  0
 13 15  1  0  0  0  0
 13 31  1  0  0  0  0
 14 32  1  0  0  0  0
 15 21  1  0  0  0  0
 15 16  2  0  0  0  0
 16 17  1  0  0  0  0
 16 33  1  0  0  0  0
 17 18  2  0  0  0  0
 17 34  1  0  0  0  0
 18 19  1  0  0  0  0
 18 35  1  0  0  0  0
 19 20  1  0  0  0  0
 19 21  2  0  0  0  0
 21 36  1  0  0  0  0
M  END
> <s_m_source_file>
AV-unprocessed.smi

> <i_m_source_file_index>
1919

> <i_lp_mmshare_version>
43012

> <i_f3d_flags>
0

> <s_epik_input>
W2NIXTFbY0hdW2NIXVtjSF1jKGMxMiluKGMobjIpW0NIMl1bT0hdKVtDSDJdW0NASF0oW09IXSljM1tjSF1bY0hdW2NIXWMoRilbY0hdMw==

> <s_epik_cmdline>
J2VwaWtfcHl0aG9uJywgJy1waCcsICc3LjAnLCAnLXRuJywgJzgnLCAnLW1hJywgJzIwMCcsICctbWV0YWxfYmluZGluZycsICctaW1hZScsICc8aW5maWxlLm1hZT4nLCAnLW9tYWUnLCAnPG91dGZpbGUubWFlPic=

> <r_epik_Ionization_Penalty>
0.0634732

> <r_epik_Ionization_Penalty_Charging>
0

> <r_epik_Ionization_Penalty_Neutral>
0.0634732

> <r_epik_State_Penalty>
0.0551572

> <r_epik_Charging_Adjusted_Penalty>
0.0551572

> <i_epik_Tot_Q>
0

> <i_epik_Tot_abs_Q>
0

> <r_epik_Metal_State_Penalty>
5.78034e-05

> <b_epik_Metal_Only>
0

> <s_lp_Force_Field>
OPLS_2005

> <r_lp_Energy>
10.9494

> <b_lp_Chiralities_Consistent>
1

> <s_lp_Variant>
AV-unprocessed.smi:1919-2

> <Gold.Version>
5.8.1

> <Gold.Id.Protein>
6NUR|6NUR_protein|mol2

> <Gold.PLP.Fitness>
51.4961

> <Gold.PLP.PLP>
-49.6081

> <Gold.PLP.part.hbond>
-1.7559

> <Gold.PLP.part.metal>
0.0000

> <Gold.PLP.part.buried>
-0.8903

> <Gold.PLP.part.nonpolar>
-46.7690

> <Gold.PLP.part.repulsive>
0.2382

> <Gold.PLP.ligand.clash>
0.0000

> <Gold.PLP.ligand.torsion>
0.5811

> <Gold.PLP.Chemscore.Hbond>
1.0000

> <Gold.PLP.Chemscore.CHOScore>
0.0000

> <Gold.PLP.Chemscore.Metal>
0.0000

> <Gold.Chemscore.Hbonds>
donor molecule, donor type, donor heavy atom, donor atom, acceptor molecule, acceptor atom, score
      P1  H  7997  8009       L1     1  1.00

> <Gold.PLP.Chemscore.Internal.Correction>
0.0502

> <Gold.Rescore>
     Score         DG    S(hbond)    S(metal)    S(lipo)     H(rot)  DE(clash)    DE(int)     intcor
     16.22     -16.92       0.99        0.00     129.75       2.75       0.24       0.46       ----

> <Gold.Chemscore.Fitness>
16.2215

> <Gold.Chemscore.DG>
-16.9223

> <Gold.Chemscore.ZeroCoef>
-5.4800

> <Gold.Chemscore.Hbond>
0.9883

> <Gold.Chemscore.Metal>
0.0000

> <Gold.Chemscore.Lipo>
129.7542

> <Gold.Chemscore.Internal_Hbond>
0.0000

> <Gold.Chemscore.DEClash>
0.2379

> <Gold.Chemscore.DEInternal>
0.4629

> <Gold.Chemscore.Rot>
2.7500

> <Gold.Chemscore.Internal.Correction>
   9.000000E+99

> <Gold.Chemscore.Hbonds>
donor molecule, donor type, donor heavy atom, donor atom, acceptor molecule, acceptor atom, score
      P1  H  7997  8009       L1     1  0.95

> <Gold.Chemscore.Hbond.Weighted>
-3.3010

> <Gold.Chemscore.Metal.Weighted>
-0.0000

> <Gold.Chemscore.Lipo.Weighted>
-15.1812

> <Gold.Chemscore.Internal_Hbond.Weighted>
0.0000

> <Gold.Chemscore.DEClash.Weighted>
0.2379

> <Gold.Chemscore.DEInternal.Weighted>
0.4629

> <Gold.Chemscore.Rot.Weighted>
7.0399

> <Gold.Chemscore.Internal.Correction.Weighted>
   9.000000E+99

> <Gold.Protein.RotatedTorsions>
[ 6907 6896 6895 6894 ] final   46.17 input  -60.11 | X-H torsion
[ 7974 7965 7964 7962 ] final -160.38 input  175.53 | X-H torsion
[ 8008 7997 7996 7995 ] final -112.92 input   59.86 | X-H torsion
[ 10167 10162 10161 10158 ] final  -10.26 input  -65.29 | X-H torsion
[ 10718 10713 10712 10709 ] final  -19.30 input   66.30 | X-H torsion
[ 10763 10752 10751 10750 ] final -157.40 input  -60.55 | X-H torsion
[ 11005 11000 10999 10996 ] final -120.20 input  -57.11 | X-H torsion

> <Gold.Protein.ActiveResidues>
 VAL166  LYS551  ARG553  GLY616  TRP617  ASP618  TYR619  PRO620  LYS621  CYS622 
 ASP623  PHE694  ASN695  SER759  ASP760  ASP761  ALA762  ILE779  LEU786  VAL792 
 PHE793  MET794  SER795  GLU796  ALA797  LYS798  CYS799  TRP800  GLU811  SER814 

> <Gold.Protein.RotatedAtoms>
  152.2532  134.8111  160.0442 H   0  0  0  0  0  0  0  0  0  0  0  0  # atno 6907 bound_to 6896
  151.8784  133.3485  159.3766 H   0  0  0  0  0  0  0  0  0  0  0  0  # atno 6908 bound_to 6896
  150.7091  134.4970  159.5587 H   0  0  0  0  0  0  0  0  0  0  0  0  # atno 6909 bound_to 6896
  144.7429  140.3550  143.6108 H   0  0  0  0  0  0  0  0  0  0  0  0  # atno 7974 bound_to 7965
  155.0127  140.0393  157.2406 H   0  0  0  0  0  0  0  0  0  0  0  0  # atno 8008 bound_to 7997
  154.7446  140.2755  155.6321 H   0  0  0  0  0  0  0  0  0  0  0  0  # atno 8009 bound_to 7997
  156.2872  140.2659  156.2183 H   0  0  0  0  0  0  0  0  0  0  0  0  # atno 8010 bound_to 7997
  140.7109  143.5767  150.9034 H   0  0  0  0  0  0  0  0  0  0  0  0  # atno 10167 bound_to 10162
  156.5476  130.4693  149.6468 H   0  0  0  0  0  0  0  0  0  0  0  0  # atno 10718 bound_to 10713
  154.7639  135.3125  154.8325 H   0  0  0  0  0  0  0  0  0  0  0  0  # atno 10763 bound_to 10752
  153.9078  135.6809  153.4756 H   0  0  0  0  0  0  0  0  0  0  0  0  # atno 10764 bound_to 10752
  153.1242  135.4808  154.9178 H   0  0  0  0  0  0  0  0  0  0  0  0  # atno 10765 bound_to 10752
  141.0160  134.0194  157.3348 H   0  0  0  0  0  0  0  0  0  0  0  0  # atno 11005 bound_to 11000
  145.7237  139.1717  143.2470 LP  0  0  0  0  0  0  0  0  0  0  0  0  # atno 17320 bound_to 7965
  146.1258  140.7250  142.9436 LP  0  0  0  0  0  0  0  0  0  0  0  0  # atno 17321 bound_to 7965
  139.9493  143.6290  152.3033 LP  0  0  0  0  0  0  0  0  0  0  0  0  # atno 17342 bound_to 10162
  139.6803  144.7656  151.1620 LP  0  0  0  0  0  0  0  0  0  0  0  0  # atno 17343 bound_to 10162
  156.2914  130.7126  151.1976 LP  0  0  0  0  0  0  0  0  0  0  0  0  # atno 17370 bound_to 10713
  157.7394  131.0530  150.5236 LP  0  0  0  0  0  0  0  0  0  0  0  0  # atno 17371 bound_to 10713
  139.9117  135.0191  156.7720 LP  0  0  0  0  0  0  0  0  0  0  0  0  # atno 17394 bound_to 11000
  140.6653  133.9608  155.7827 LP  0  0  0  0  0  0  0  0  0  0  0  0  # atno 17395 bound_to 11000

$$$$
