#       Name:                AV-unprocessed.smi:437
#       Creating user name   scv26
#       Creation time:       Thu Mar 26 22:52:52 2020


#       File generated by GOLD software.
#

@<TRIPOS>MOLECULE
AV-unprocessed.smi:437
    56    57     1
SMALL
NO_CHARGES


@<TRIPOS>ATOM
      1 ****        -5.7132   2.2953   1.6171 C.3            1 S1                 0.0000
      2 ****        -5.0404   0.9519   1.5299 C.2            1 S1                 0.0000
      3 ****        -3.7487   0.9509   1.4837 N.2            1 S1                 0.0000
      4 ****        -3.0326  -0.2275   1.4003 N.am           1 S1                 0.0000
      5 ****        -1.5751  -0.0391   1.3402 C.3            1 S1                 0.0000
      6 ****        -1.0108  -0.0970  -0.0884 C.2            1 S1                 0.0000
      7 ****        -1.7713  -0.0802  -1.0600 O.2            1 S1                 0.0000
      8 ****         0.3344  -0.1549  -0.1631 N.am           1 S1                 0.0000
      9 ****         1.0932  -0.2138  -1.2744 C.2            1 S1                 0.0000
     10 ****         0.6723  -0.2423  -2.4329 O.2            1 S1                 0.0000
     11 ****         2.3977  -0.2338  -0.9641 N.am           1 S1                 0.0000
     12 ****         3.5003  -0.2891  -1.9255 C.3            1 S1                 0.0000
     13 ****         3.7865   1.1064  -2.5232 C.3            1 S1                 0.0000
     14 ****         4.4042   2.0641  -1.4905 C.3            1 S1                 0.0000
     15 ****         5.6720   1.4632  -0.8659 C.3            1 S1                 0.0000
     16 ****         5.3925   0.0829  -0.2502 C.3            1 S1                 0.0000
     17 ****         4.7758  -0.8864  -1.2806 C.3            1 S1                 0.0000
     18 ****         4.5422  -2.2815  -0.6755 C.3            1 S1                 0.0000
     19 ****        -3.5877  -1.4736   1.3753 C.2            1 S1                 0.0000
     20 ****        -2.9086  -2.4997   1.3144 O.2            1 S1                 0.0000
     21 ****        -5.0515  -1.4647   1.4228 C.2            1 S1                 0.0000
     22 ****        -5.6739  -2.7486   1.3847 C.1            1 S1                 0.0000
     23 ****        -6.1969  -3.7810   1.3563 N.1            1 S1                 0.0000
     24 ****        -5.7659  -0.3138   1.4965 C.2            1 S1                 0.0000
     25 ****        -7.2860  -0.2492   1.5499 C.3            1 S1                 0.0000
     26 ****        -6.3040   2.3732   2.5299 H              1 S1                 0.0000
     27 ****        -6.3790   2.4510   0.7679 H              1 S1                 0.0000
     28 ****        -4.9908   3.1131   1.6230 H              1 S1                 0.0000
     29 ****        -1.3049   0.9267   1.7714 H              1 S1                 0.0000
     30 ****        -1.0726  -0.7854   1.9584 H              1 S1                 0.0000
     31 ****         0.8292  -0.1496   0.7165 H              1 S1                 0.0000
     32 ****         2.6543  -0.2059   0.0117 H              1 S1                 0.0000
     33 ****         3.2013  -0.9517  -2.7399 H              1 S1                 0.0000
     34 ****         4.4750   0.9987  -3.3622 H              1 S1                 0.0000
     35 ****         2.8764   1.5411  -2.9380 H              1 S1                 0.0000
     36 ****         4.6406   3.0172  -1.9642 H              1 S1                 0.0000
     37 ****         3.6770   2.2826  -0.7076 H              1 S1                 0.0000
     38 ****         6.4463   1.3725  -1.6287 H              1 S1                 0.0000
     39 ****         6.0662   2.1370  -0.1046 H              1 S1                 0.0000
     40 ****         6.3216  -0.3330   0.1408 H              1 S1                 0.0000
     41 ****         4.7240   0.1941   0.6045 H              1 S1                 0.0000
     42 ****         5.5075  -1.0118  -2.0803 H              1 S1                 0.0000
     43 ****         3.8589  -2.2462   0.1733 H              1 S1                 0.0000
     44 ****         5.4787  -2.7158  -0.3250 H              1 S1                 0.0000
     45 ****         4.1207  -2.9631  -1.4148 H              1 S1                 0.0000
     46 ****        -7.7428  -1.2380   1.5336 H              1 S1                 0.0000
     47 ****        -7.6747   0.3056   0.6955 H              1 S1                 0.0000
     48 ****        -7.6160   0.2483   2.4622 H              1 S1                 0.0000
     49 ****        -3.2574   1.8215   1.5089 LP             1 S1                 0.0000
     50 ****        -2.7602  -0.0287  -0.9201 LP             1 S1                 0.0000
     51 ****        -1.3988  -0.1181  -1.9873 LP             1 S1                 0.0000
     52 ****        -0.3121  -0.2216  -2.6079 LP             1 S1                 0.0000
     53 ****         1.3152  -0.2861  -3.1975 LP             1 S1                 0.0000
     54 ****        -1.9111  -2.4378   1.2812 LP             1 S1                 0.0000
     55 ****        -3.3549  -3.3944   1.2981 LP             1 S1                 0.0000
     56 ****        -6.6487  -4.6728   1.3318 LP             1 S1                 0.0000
@<TRIPOS>BOND
    1    1    2 1     
    2    1   26 1     
    3    1   27 1     
    4    1   28 1     
    5    2   24 1     
    6    2    3 2     
    7    3    4 1     
    8    4    5 1     
    9    4   19 am    
   10    5    6 1     
   11    5   29 1     
   12    5   30 1     
   13    6    7 2     
   14    6    8 1     
   15    8    9 1     
   16    8   31 1     
   17    9   10 2     
   18    9   11 1     
   19   11   12 1     
   20   11   32 1     
   21   12   17 1     
   22   12   13 1     
   23   12   33 1     
   24   13   14 1     
   25   13   34 1     
   26   13   35 1     
   27   14   15 1     
   28   14   36 1     
   29   14   37 1     
   30   15   16 1     
   31   15   38 1     
   32   15   39 1     
   33   16   17 1     
   34   16   40 1     
   35   16   41 1     
   36   17   18 1     
   37   17   42 1     
   38   18   43 1     
   39   18   44 1     
   40   18   45 1     
   41   19   20 2     
   42   19   21 1     
   43   21   22 1     
   44   21   24 2     
   45   22   23 3     
   46   24   25 1     
   47   25   46 1     
   48   25   47 1     
   49   25   48 1     
   50    3   49 1     
   51    7   50 1     
   52    7   51 1     
   53   10   52 1     
   54   10   53 1     
   55   20   54 1     
   56   20   55 1     
   57   23   56 1     
@<TRIPOS>SUBSTRUCTURE
      1 S1             1
@<TRIPOS>SET
LONE_PAIRS      STATIC     ATOMS    <user>   **** ""
8 49 50 51 52 53 54 55 56
DONOR_HYDROGENS      STATIC     ATOMS    <user>   **** ""
2 31 32
ATOM$BLUE        STATIC     ATOMS    COLORGROUP SYSTEM
8 49 50 51 52 53 54 55 56
ATOM$RED        STATIC     ATOMS    COLORGROUP SYSTEM
2 31 32
