#       Name:                AV-unprocessed.smi:2703
#       Creating user name   scv26
#       Creation time:       Fri Mar 27 14:48:03 2020


#       File generated by GOLD software.
#

@<TRIPOS>MOLECULE
AV-unprocessed.smi:2703
    47    49     1
SMALL
NO_CHARGES


@<TRIPOS>ATOM
      1 ****        -2.8845   5.1471   3.2475 C.3            1 S1                 0.0000
      2 ****        -2.4900   4.0286   2.2992 C.ar           1 S1                 0.0000
      3 ****        -2.6061   4.2360   0.9063 C.ar           1 S1                 0.0000
      4 ****        -2.2523   3.2209  -0.0093 C.ar           1 S1                 0.0000
      5 ****        -2.2897   3.2078  -1.3930 N.2            1 S1                 0.0000
      6 ****        -1.8418   1.9849  -1.6607 C.2            1 S1                 0.0000
      7 ****        -1.5152   1.2035  -0.6134 N.pl3          1 S1                 0.0000
      8 ****        -1.0128  -0.1582  -0.6674 C.3            1 S1                 0.0000
      9 ****         0.4581  -0.2274  -1.1187 C.3            1 S1                 0.0000
     10 ****         1.2683   0.4897  -0.2072 O.3            1 S1                 0.0000
     11 ****         0.9623  -1.6765  -1.2137 C.3            1 S1                 0.0000
     12 ****         2.6228  -1.7756  -1.9451 S.3            1 S1                 0.0000
     13 ****         3.0373  -3.4923  -2.1423 C.ar           1 S1                 0.0000
     14 ****         2.2372  -4.5243  -1.6035 C.ar           1 S1                 0.0000
     15 ****         2.6101  -5.8643  -1.7908 C.ar           1 S1                 0.0000
     16 ****         3.7783  -6.1474  -2.5135 C.ar           1 S1                 0.0000
     17 ****         4.5464  -5.0870  -3.0312 C.ar           1 S1                 0.0000
     18 ****         4.1822  -3.7806  -2.8484 N.pl3          1 S1                 1.0000
     19 ****         4.9180  -2.8468  -3.3430 O.2            1 S1                -1.0000
     20 ****        -1.7733   1.9823   0.5102 C.ar           1 S1                 0.0000
     21 ****        -1.6513   1.7653   1.8943 C.ar           1 S1                 0.0000
     22 ****        -2.0111   2.7895   2.7954 C.ar           1 S1                 0.0000
     23 ****        -1.8802   2.5433   4.2882 C.3            1 S1                 0.0000
     24 ****        -3.2470   6.0206   2.7049 H              1 S1                 0.0000
     25 ****        -2.0288   5.4578   3.8473 H              1 S1                 0.0000
     26 ****        -3.6779   4.8174   3.9185 H              1 S1                 0.0000
     27 ****        -2.9708   5.1795   0.5276 H              1 S1                 0.0000
     28 ****        -1.7434   1.6353  -2.6781 H              1 S1                 0.0000
     29 ****        -1.1337  -0.6195   0.3135 H              1 S1                 0.0000
     30 ****        -1.6434  -0.7224  -1.3557 H              1 S1                 0.0000
     31 ****         0.5511   0.2450  -2.0976 H              1 S1                 0.0000
     32 ****         2.1591   0.4743  -0.5236 H              1 S1                 0.0000
     33 ****         0.9728  -2.1408  -0.2269 H              1 S1                 0.0000
     34 ****         0.2848  -2.2593  -1.8385 H              1 S1                 0.0000
     35 ****         1.3405  -4.3046  -1.0456 H              1 S1                 0.0000
     36 ****         2.0081  -6.6642  -1.3851 H              1 S1                 0.0000
     37 ****         4.0870  -7.1703  -2.6710 H              1 S1                 0.0000
     38 ****         5.4566  -5.2276  -3.5962 H              1 S1                 0.0000
     39 ****        -1.2833   0.8182   2.2597 H              1 S1                 0.0000
     40 ****        -1.4671   1.5554   4.4943 H              1 S1                 0.0000
     41 ****        -2.8557   2.6059   4.7710 H              1 S1                 0.0000
     42 ****        -1.2202   3.2822   4.7428 H              1 S1                 0.0000
     43 ****        -2.5776   3.9278  -2.0244 LP             1 S1                 0.0000
     44 ****         1.2228   0.0606   0.6949 LP             1 S1                 0.0000
     45 ****         0.9490   1.4351  -0.1431 LP             1 S1                 0.0000
     46 ****         4.6613  -1.8885  -3.2173 LP             1 S1                 0.0000
     47 ****         5.7461  -3.0799  -3.8529 LP             1 S1                 0.0000
@<TRIPOS>BOND
    1    1    2 1     
    2    1   24 1     
    3    1   25 1     
    4    1   26 1     
    5    2   22 ar    
    6    2    3 ar    
    7    3    4 ar    
    8    3   27 1     
    9    4   20 ar    
   10    4    5 1     
   11    5    6 2     
   12    6    7 1     
   13    6   28 1     
   14    7    8 1     
   15    7   20 1     
   16    8    9 1     
   17    8   29 1     
   18    8   30 1     
   19    9   10 1     
   20    9   11 1     
   21    9   31 1     
   22   10   32 1     
   23   11   12 1     
   24   11   33 1     
   25   11   34 1     
   26   12   13 1     
   27   13   18 ar    
   28   13   14 ar    
   29   14   15 ar    
   30   14   35 1     
   31   15   16 ar    
   32   15   36 1     
   33   16   17 ar    
   34   16   37 1     
   35   17   18 ar    
   36   17   38 1     
   37   18   19 1     
   38   20   21 ar    
   39   21   22 ar    
   40   21   39 1     
   41   22   23 1     
   42   23   40 1     
   43   23   41 1     
   44   23   42 1     
   45    5   43 1     
   46   10   44 1     
   47   10   45 1     
   48   19   46 1     
   49   19   47 1     
@<TRIPOS>SUBSTRUCTURE
      1 S1             1
@<TRIPOS>SET
LONE_PAIRS      STATIC     ATOMS    <user>   **** ""
5 43 44 45 46 47
DONOR_HYDROGENS      STATIC     ATOMS    <user>   **** ""
1 32
ATOM$BLUE        STATIC     ATOMS    COLORGROUP SYSTEM
5 43 44 45 46 47
ATOM$RED        STATIC     ATOMS    COLORGROUP SYSTEM
1 32
