AV-unprocessed.smi:2446|AV-procd|sdf|9641|dock6
  -GOLD-   2272013273D 1   1.00000     0.00000
 Structure written by MMmdl.
 39 40  0  0  0  0  0  0  0  0  1 V2000
  148.0739  132.8795  151.9849 C   0  0  0  0  0  0  0  0  0  0  0  0
  146.6145  133.0296  151.5910 C   0  0  0  0  0  0  0  0  0  0  0  0
  145.9418  131.9602  150.9616 C   0  0  0  0  0  0  0  0  0  0  0  0
  144.6478  132.0115  150.5845 N   0  0  0  0  0  0  0  0  0  0  0  0
  143.9656  133.1486  150.8308 C   0  0  0  0  0  0  0  0  0  0  0  0
  144.5369  134.2766  151.4515 C   0  0  0  0  0  0  0  0  0  0  0  0
  145.8996  134.2279  151.8329 C   0  0  0  0  0  0  0  0  0  0  0  0
  146.5734  135.3018  152.4794 N   0  0  0  0  0  0  0  0  0  0  0  0
  146.1299  136.1300  153.4454 C   0  0  0  0  0  0  0  0  0  0  0  0
  145.0200  136.0694  153.9695 O   0  0  0  0  0  0  0  0  0  0  0  0
  147.0139  137.0793  153.8037 N   0  0  0  0  0  0  0  0  0  0  0  0
  146.8681  138.1364  154.8106 C   0  0  2  0  0  0  0  0  0  0  0  0
  146.5117  139.4703  154.1274 C   0  0  0  0  0  0  0  0  0  0  0  0
  147.6953  140.0535  153.3373 C   0  0  0  0  0  0  0  0  0  0  0  0
  148.9420  140.2012  154.2229 C   0  0  0  0  0  0  0  0  0  0  0  0
  149.3377  138.8615  154.8784 C   0  0  1  0  0  0  0  0  0  0  0  0
  150.5995  138.9975  155.7553 C   0  0  0  0  0  0  0  0  0  0  0  0
  151.6607  139.3173  155.0143 F   0  0  0  0  0  0  0  0  0  0  0  0
  150.4154  139.9447  156.6750 F   0  0  0  0  0  0  0  0  0  0  0  0
  150.8442  137.8483  156.3851 F   0  0  0  0  0  0  0  0  0  0  0  0
  148.1429  138.2859  155.6718 C   0  0  0  0  0  0  0  0  0  0  0  0
  148.4453  131.8807  151.7541 H   0  0  0  0  0  0  0  0  0  0  0  0
  148.2000  133.0460  153.0551 H   0  0  0  0  0  0  0  0  0  0  0  0
  148.6890  133.6012  151.4470 H   0  0  0  0  0  0  0  0  0  0  0  0
  146.4551  131.0327  150.7547 H   0  0  0  0  0  0  0  0  0  0  0  0
  142.9285  133.1585  150.5299 H   0  0  0  0  0  0  0  0  0  0  0  0
  143.9180  135.1419  151.6306 H   0  0  0  0  0  0  0  0  0  0  0  0
  147.4847  135.5209  152.1050 H   0  0  0  0  0  0  0  0  0  0  0  0
  147.9005  137.0627  153.3205 H   0  0  0  0  0  0  0  0  0  0  0  0
  146.0329  137.8769  155.4633 H   0  0  0  0  0  0  0  0  0  0  0  0
  145.6512  139.3405  153.4699 H   0  0  0  0  0  0  0  0  0  0  0  0
  146.2046  140.1895  154.8878 H   0  0  0  0  0  0  0  0  0  0  0  0
  147.9250  139.4114  152.4862 H   0  0  0  0  0  0  0  0  0  0  0  0
  147.4201  141.0236  152.9229 H   0  0  0  0  0  0  0  0  0  0  0  0
  149.7674  140.5833  153.6217 H   0  0  0  0  0  0  0  0  0  0  0  0
  148.7522  140.9488  154.9942 H   0  0  0  0  0  0  0  0  0  0  0  0
  149.5774  138.1599  154.0781 H   0  0  0  0  0  0  0  0  0  0  0  0
  147.9222  138.9439  156.5132 H   0  0  0  0  0  0  0  0  0  0  0  0
  148.4148  137.3263  156.1112 H   0  0  0  0  0  0  0  0  0  0  0  0
  1  2  1  0  0  0  0
  1 22  1  0  0  0  0
  1 23  1  0  0  0  0
  1 24  1  0  0  0  0
  2  7  1  0  0  0  0
  2  3  2  0  0  0  0
  3  4  1  0  0  0  0
  3 25  1  0  0  0  0
  4  5  2  0  0  0  0
  5  6  1  0  0  0  0
  5 26  1  0  0  0  0
  6  7  2  0  0  0  0
  6 27  1  0  0  0  0
  7  8  1  0  0  0  0
  8  9  1  0  0  0  0
  8 28  1  0  0  0  0
  9 10  2  0  0  0  0
  9 11  1  0  0  0  0
 11 12  1  0  0  0  0
 11 29  1  0  0  0  0
 12 21  1  0  0  0  0
 12 13  1  0  0  0  0
 12 30  1  0  0  0  0
 13 14  1  0  0  0  0
 13 31  1  0  0  0  0
 13 32  1  0  0  0  0
 14 15  1  0  0  0  0
 14 33  1  0  0  0  0
 14 34  1  0  0  0  0
 15 16  1  0  0  0  0
 15 35  1  0  0  0  0
 15 36  1  0  0  0  0
 16 17  1  0  0  0  0
 16 21  1  0  0  0  0
 16 37  1  0  0  0  0
 17 18  1  0  0  0  0
 17 19  1  0  0  0  0
 17 20  1  0  0  0  0
 21 38  1  0  0  0  0
 21 39  1  0  0  0  0
M  END
> <s_m_source_file>
AV-unprocessed.smi

> <i_m_source_file_index>
2446

> <i_lp_mmshare_version>
43012

> <i_f3d_flags>
0

> <s_epik_input>
W0NIM11jMVtjSF1uW2NIXVtjSF1jMVtOSF1DKD1PKVtOSF1bQ0BASF0yW0NIMl1bQ0gyXVtDSDJdW0NAQEhdKEMoRikoRilGKVtDSDJdMg==

> <s_epik_cmdline>
J2VwaWtfcHl0aG9uJywgJy1waCcsICc3LjAnLCAnLXRuJywgJzgnLCAnLW1hJywgJzIwMCcsICctbWV0YWxfYmluZGluZycsICctaW1hZScsICc8aW5maWxlLm1hZT4nLCAnLW9tYWUnLCAnPG91dGZpbGUubWFlPic=

> <r_epik_Ionization_Penalty>
0.20168

> <r_epik_Ionization_Penalty_Charging>
0

> <r_epik_Ionization_Penalty_Neutral>
0.20168

> <r_epik_State_Penalty>
0.191514

> <r_epik_Charging_Adjusted_Penalty>
0.191514

> <i_epik_Tot_Q>
0

> <i_epik_Tot_abs_Q>
0

> <r_epik_Metal_State_Penalty>
0.142371

> <b_epik_Metal_Only>
0

> <s_lp_Force_Field>
OPLS_2005

> <r_lp_Energy>
25.5489

> <b_lp_Chiralities_Consistent>
1

> <s_lp_Variant>
AV-unprocessed.smi:2446-1

> <Gold.Version>
5.8.1

> <Gold.Id.Protein>
6NUR|6NUR_protein|mol2

> <Gold.PLP.Fitness>
35.5832

> <Gold.PLP.PLP>
-25.6353

> <Gold.PLP.part.hbond>
-2.0000

> <Gold.PLP.part.metal>
0.0000

> <Gold.PLP.part.buried>
2.1362

> <Gold.PLP.part.nonpolar>
-25.2488

> <Gold.PLP.part.repulsive>
0.1744

> <Gold.PLP.ligand.clash>
0.0000

> <Gold.PLP.ligand.torsion>
0.6441

> <Gold.PLP.Chemscore.Hbond>
1.9280

> <Gold.PLP.Chemscore.CHOScore>
1.8106

> <Gold.PLP.Chemscore.Metal>
0.0000

> <Gold.Chemscore.Hbonds>
donor molecule, donor type, donor heavy atom, donor atom, acceptor molecule, acceptor atom, score
      L1  H     8    28       P1  7948  1.00
      L1  H    11    29       P1  7948  0.91
      L1  C     3    25       P1 10747  0.81
      L1  C     5    26       P1 10186  1.00

> <Gold.PLP.Chemscore.Internal.Correction>
0.0204

> <Gold.Rescore>
     Score         DG    S(hbond)    S(metal)    S(lipo)     H(rot)  DE(clash)    DE(int)     intcor
     14.84     -17.67       1.92        0.00      71.15       1.00       2.27       0.56       ----

> <Gold.Chemscore.Fitness>
14.8439

> <Gold.Chemscore.DG>
-17.6713

> <Gold.Chemscore.ZeroCoef>
-5.4800

> <Gold.Chemscore.Hbond>
1.9243

> <Gold.Chemscore.Metal>
0.0000

> <Gold.Chemscore.Lipo>
71.1452

> <Gold.Chemscore.Internal_Hbond>
0.0000

> <Gold.Chemscore.DEClash>
2.2682

> <Gold.Chemscore.DEInternal>
0.5592

> <Gold.Chemscore.Rot>
1.0000

> <Gold.Chemscore.Internal.Correction>
   9.000000E+99

> <Gold.Chemscore.Hbonds>
donor molecule, donor type, donor heavy atom, donor atom, acceptor molecule, acceptor atom, score
      L1  H     8    28       P1  7948  0.99
      L1  H    11    29       P1  7948  0.87

> <Gold.Chemscore.Hbond.Weighted>
-6.4273

> <Gold.Chemscore.Metal.Weighted>
-0.0000

> <Gold.Chemscore.Lipo.Weighted>
-8.3240

> <Gold.Chemscore.Internal_Hbond.Weighted>
0.0000

> <Gold.Chemscore.DEClash.Weighted>
2.2682

> <Gold.Chemscore.DEInternal.Weighted>
0.5592

> <Gold.Chemscore.Rot.Weighted>
2.5600

> <Gold.Chemscore.Internal.Correction.Weighted>
   9.000000E+99

> <Gold.Protein.RotatedTorsions>
[ 6907 6896 6895 6894 ] final   67.92 input  -60.11 | X-H torsion
[ 7974 7965 7964 7962 ] final  135.24 input  175.53 | X-H torsion
[ 8008 7997 7996 7995 ] final -151.56 input   59.86 | X-H torsion
[ 10167 10162 10161 10158 ] final -130.36 input  -65.29 | X-H torsion
[ 10718 10713 10712 10709 ] final -175.59 input   66.30 | X-H torsion
[ 10763 10752 10751 10750 ] final  -22.89 input  -60.55 | X-H torsion
[ 11005 11000 10999 10996 ] final  175.41 input  -57.11 | X-H torsion

> <Gold.Protein.ActiveResidues>
 VAL166  LYS551  ARG553  GLY616  TRP617  ASP618  TYR619  PRO620  LYS621  CYS622 
 ASP623  PHE694  ASN695  SER759  ASP760  ASP761  ALA762  ILE779  LEU786  VAL792 
 PHE793  MET794  SER795  GLU796  ALA797  LYS798  CYS799  TRP800  GLU811  SER814 

> <Gold.Protein.RotatedAtoms>
  152.4585  134.5238  159.9790 H   0  0  0  0  0  0  0  0  0  0  0  0  # atno 6907 bound_to 6896
  151.5293  133.3446  159.2923 H   0  0  0  0  0  0  0  0  0  0  0  0  # atno 6908 bound_to 6896
  150.8538  134.7901  159.7092 H   0  0  0  0  0  0  0  0  0  0  0  0  # atno 6909 bound_to 6896
  144.9683  139.4634  143.5445 H   0  0  0  0  0  0  0  0  0  0  0  0  # atno 7974 bound_to 7965
  155.6413  140.0702  157.2617 H   0  0  0  0  0  0  0  0  0  0  0  0  # atno 8008 bound_to 7997
  154.4183  140.1750  156.1625 H   0  0  0  0  0  0  0  0  0  0  0  0  # atno 8009 bound_to 7997
  155.9853  140.3350  155.6705 H   0  0  0  0  0  0  0  0  0  0  0  0  # atno 8010 bound_to 7997
  139.9302  143.6281  152.2531 H   0  0  0  0  0  0  0  0  0  0  0  0  # atno 10167 bound_to 10162
  156.8021  130.9556  151.3118 H   0  0  0  0  0  0  0  0  0  0  0  0  # atno 10718 bound_to 10713
  153.6592  135.6977  153.5183 H   0  0  0  0  0  0  0  0  0  0  0  0  # atno 10763 bound_to 10752
  153.2645  135.4234  155.0926 H   0  0  0  0  0  0  0  0  0  0  0  0  # atno 10764 bound_to 10752
  154.8456  135.3563  154.6136 H   0  0  0  0  0  0  0  0  0  0  0  0  # atno 10765 bound_to 10752
  140.3619  134.7105  157.4336 H   0  0  0  0  0  0  0  0  0  0  0  0  # atno 11005 bound_to 11000
  146.3374  139.8878  142.8814 LP  0  0  0  0  0  0  0  0  0  0  0  0  # atno 17320 bound_to 7965
  145.2597  141.0073  143.3833 LP  0  0  0  0  0  0  0  0  0  0  0  0  # atno 17321 bound_to 7965
  139.6789  144.7657  151.1645 LP  0  0  0  0  0  0  0  0  0  0  0  0  # atno 17342 bound_to 10162
  140.7639  143.5754  150.8951 LP  0  0  0  0  0  0  0  0  0  0  0  0  # atno 17343 bound_to 10162
  157.6548  130.8915  149.9707 LP  0  0  0  0  0  0  0  0  0  0  0  0  # atno 17370 bound_to 10713
  156.1095  130.3651  150.0074 LP  0  0  0  0  0  0  0  0  0  0  0  0  # atno 17371 bound_to 10713
  140.0620  134.5982  155.8738 LP  0  0  0  0  0  0  0  0  0  0  0  0  # atno 17394 bound_to 11000
  141.1981  133.6600  156.5777 LP  0  0  0  0  0  0  0  0  0  0  0  0  # atno 17395 bound_to 11000

$$$$
