AV-unprocessed.smi:122|AV-procd|sdf|1142|dock4
  -GOLD-   2262018273D 1   1.00000     0.00000
 Structure written by MMmdl.
 48 50  0  0  0  0  0  0  0  0  1 V2000
  147.4784  134.6157  159.1640 C   0  0  0  0  0  0  0  0  0  0  0  0
  148.2615  136.2446  159.5101 S   0  0  0  0  0  0  0  0  0  0  0  0
  147.3896  137.2875  158.9482 O   0  0  0  0  0  0  0  0  0  0  0  0
  148.6534  136.3000  160.9266 O   0  0  0  0  0  0  0  0  0  0  0  0
  149.7118  136.1992  158.5604 N   0  0  0  0  0  0  0  0  0  0  0  0
  149.6391  135.5306  157.2410 C   0  0  0  0  0  0  0  0  0  0  0  0
  151.0341  135.3378  156.6198 C   0  0  0  0  0  0  0  0  0  0  0  0
  151.7189  136.6303  156.5826 N   0  0  0  0  0  0  0  0  0  0  0  0
  151.9893  137.3642  155.4772 C   0  0  0  0  0  0  0  0  0  0  0  0
  151.7095  136.9656  154.3448 O   0  0  0  0  0  0  0  0  0  0  0  0
  152.6724  138.7377  155.6443 C   0  0  0  0  0  0  0  0  0  0  0  0
  151.7487  139.8132  156.0707 N   0  0  0  0  0  0  0  0  0  0  0  0
  150.7149  140.2112  155.1869 C   0  0  0  0  0  0  0  0  0  0  0  0
  150.5669  139.6685  154.0910 O   0  0  0  0  0  0  0  0  0  0  0  0
  149.8674  141.2997  155.6594 C   0  0  0  0  0  0  0  0  0  0  0  0
  148.8698  141.7526  154.8814 F   0  0  0  0  0  0  0  0  0  0  0  0
  150.0727  141.8660  156.8663 C   0  0  0  0  0  0  0  0  0  0  0  0
  151.0722  141.4567  157.7269 N   0  0  0  0  0  0  0  0  0  0  0  0
  151.2650  142.1884  159.0353 C   0  0  1  0  0  0  0  0  0  0  0  0
  152.6141  142.9247  159.1396 C   0  0  0  0  0  0  0  0  0  0  0  0
  152.1975  144.3686  159.3672 C   0  0  0  0  0  0  0  0  0  0  0  0
  150.7764  144.2315  159.9022 C   0  0  0  0  0  0  0  0  0  0  0  0
  150.2522  143.1376  159.1662 O   0  0  0  0  0  0  0  0  0  0  0  0
  151.9593  140.4304  157.3275 C   0  0  0  0  0  0  0  0  0  0  0  0
  152.8983  140.0863  158.0472 O   0  0  0  0  0  0  0  0  0  0  0  0
  151.9609  137.1062  157.9441 C   0  0  0  0  0  0  0  0  0  0  0  0
  150.6057  137.3784  158.6220 C   0  0  0  0  0  0  0  0  0  0  0  0
  146.5008  134.5783  159.6440 H   0  0  0  0  0  0  0  0  0  0  0  0
  148.0977  133.8115  159.5589 H   0  0  0  0  0  0  0  0  0  0  0  0
  147.3573  134.4907  158.0883 H   0  0  0  0  0  0  0  0  0  0  0  0
  149.1560  134.5594  157.3470 H   0  0  0  0  0  0  0  0  0  0  0  0
  149.0111  136.1279  156.5784 H   0  0  0  0  0  0  0  0  0  0  0  0
  151.6152  134.6397  157.2244 H   0  0  0  0  0  0  0  0  0  0  0  0
  150.9419  134.8622  155.6449 H   0  0  0  0  0  0  0  0  0  0  0  0
  153.4947  138.6357  156.3540 H   0  0  0  0  0  0  0  0  0  0  0  0
  153.1558  139.0084  154.7042 H   0  0  0  0  0  0  0  0  0  0  0  0
  149.4208  142.6738  157.1654 H   0  0  0  0  0  0  0  0  0  0  0  0
  151.1553  141.4372  159.8190 H   0  0  0  0  0  0  0  0  0  0  0  0
  153.1566  142.5332  160.0007 H   0  0  0  0  0  0  0  0  0  0  0  0
  153.2340  142.7936  158.2522 H   0  0  0  0  0  0  0  0  0  0  0  0
  152.8588  144.8998  160.0520 H   0  0  0  0  0  0  0  0  0  0  0  0
  152.1874  144.9112  158.4218 H   0  0  0  0  0  0  0  0  0  0  0  0
  150.7823  143.9874  160.9656 H   0  0  0  0  0  0  0  0  0  0  0  0
  150.1827  145.1344  159.7586 H   0  0  0  0  0  0  0  0  0  0  0  0
  152.5168  136.3520  158.5033 H   0  0  0  0  0  0  0  0  0  0  0  0
  152.5758  138.0067  157.9732 H   0  0  0  0  0  0  0  0  0  0  0  0
  150.1099  138.2201  158.1368 H   0  0  0  0  0  0  0  0  0  0  0  0
  150.7696  137.6642  159.6598 H   0  0  0  0  0  0  0  0  0  0  0  0
  1  2  1  0  0  0  0
  1 28  1  0  0  0  0
  1 29  1  0  0  0  0
  1 30  1  0  0  0  0
  2  3  2  0  0  0  0
  2  4  2  0  0  0  0
  2  5  1  0  0  0  0
  5 27  1  0  0  0  0
  5  6  1  0  0  0  0
  6  7  1  0  0  0  0
  6 31  1  0  0  0  0
  6 32  1  0  0  0  0
  7  8  1  0  0  0  0
  7 33  1  0  0  0  0
  7 34  1  0  0  0  0
  8  9  1  0  0  0  0
  8 26  1  0  0  0  0
  9 10  2  0  0  0  0
  9 11  1  0  0  0  0
 11 12  1  0  0  0  0
 11 35  1  0  0  0  0
 11 36  1  0  0  0  0
 12 24  1  0  0  0  0
 12 13  1  0  0  0  0
 13 14  2  0  0  0  0
 13 15  1  0  0  0  0
 15 16  1  0  0  0  0
 15 17  2  0  0  0  0
 17 18  1  0  0  0  0
 17 37  1  0  0  0  0
 18 19  1  0  0  0  0
 18 24  1  0  0  0  0
 19 23  1  0  0  0  0
 19 20  1  0  0  0  0
 19 38  1  0  0  0  0
 20 21  1  0  0  0  0
 20 39  1  0  0  0  0
 20 40  1  0  0  0  0
 21 22  1  0  0  0  0
 21 41  1  0  0  0  0
 21 42  1  0  0  0  0
 22 23  1  0  0  0  0
 22 43  1  0  0  0  0
 22 44  1  0  0  0  0
 24 25  2  0  0  0  0
 26 27  1  0  0  0  0
 26 45  1  0  0  0  0
 26 46  1  0  0  0  0
 27 47  1  0  0  0  0
 27 48  1  0  0  0  0
M  END
> <s_m_source_file>
AV-unprocessed.smi

> <i_m_source_file_index>
122

> <i_lp_mmshare_version>
43012

> <i_f3d_flags>
0

> <s_epik_input>
W0NIM11TKD1PKSg9TylOMVtDSDJdW0NIMl1OKFtDSDJdW0NIMl0xKUMoPU8pW0NIMl1uMmMoPU8pYyhGKVtjSF1uKGMyPU8pW0NAQEhdM1tDSDJdW0NIMl1bQ0gyXU8z

> <s_epik_cmdline>
J2VwaWtfcHl0aG9uJywgJy1waCcsICc3LjAnLCAnLXRuJywgJzgnLCAnLW1hJywgJzIwMCcsICctbWV0YWxfYmluZGluZycsICctaW1hZScsICc8aW5maWxlLm1hZT4nLCAnLW9tYWUnLCAnPG91dGZpbGUubWFlPic=

> <r_lp_tautomer_probability>
1

> <r_epik_Ionization_Penalty>
4.55442e-09

> <r_epik_Ionization_Penalty_Charging>
4.02834e-09

> <r_epik_Ionization_Penalty_Neutral>
5.2608e-10

> <r_epik_State_Penalty>
-0

> <r_epik_Charging_Adjusted_Penalty>
4.02834e-09

> <i_epik_Tot_Q>
0

> <i_epik_Tot_abs_Q>
0

> <r_epik_Metal_State_Penalty>
-0

> <b_epik_Metal_Only>
0

> <s_epik_Chemistry_Notes>
This compound contains an acetal/aminal-like group ( X-CH(R)-Y where X, Y are N, S, or O) that may be acid/base labile, releasing an aldehyde.

> <s_lp_Force_Field>
OPLS_2005

> <r_lp_Energy>
38.4276

> <b_lp_Chiralities_Consistent>
1

> <s_lp_Variant>
AV-unprocessed.smi:122-2

> <Gold.Version>
5.8.1

> <Gold.Id.Protein>
6NUR|6NUR_protein|mol2

> <Gold.PLP.Fitness>
59.5054

> <Gold.PLP.PLP>
-45.2424

> <Gold.PLP.part.hbond>
-5.7011

> <Gold.PLP.part.metal>
0.0000

> <Gold.PLP.part.buried>
-2.0546

> <Gold.PLP.part.nonpolar>
-38.5222

> <Gold.PLP.part.repulsive>
0.5133

> <Gold.PLP.ligand.clash>
0.0000

> <Gold.PLP.ligand.torsion>
0.7983

> <Gold.PLP.Chemscore.Hbond>
4.0844

> <Gold.PLP.Chemscore.CHOScore>
0.9167

> <Gold.PLP.Chemscore.Metal>
0.0000

> <Gold.Chemscore.Hbonds>
donor molecule, donor type, donor heavy atom, donor atom, acceptor molecule, acceptor atom, score
      P1  H  6896  6908       L1     5  0.78
      P1  H  6931  6943       L1     4  0.55
      P1  H  7989  7998       L1    14  0.35
      P1  H  7997  8010       L1    25  1.00
      P1  H 10752 10764       L1    10  0.90
      L1  C    17    37       P1  8028  0.75

> <Gold.PLP.Chemscore.Internal.Correction>
0.8564

> <Gold.Rescore>
     Score         DG    S(hbond)    S(metal)    S(lipo)     H(rot)  DE(clash)    DE(int)     intcor
     14.78     -18.06       2.84        0.00      71.50       2.06       0.04       3.24       ----

> <Gold.Chemscore.Fitness>
14.7813

> <Gold.Chemscore.DG>
-18.0597

> <Gold.Chemscore.ZeroCoef>
-5.4800

> <Gold.Chemscore.Hbond>
2.8435

> <Gold.Chemscore.Metal>
0.0000

> <Gold.Chemscore.Lipo>
71.5024

> <Gold.Chemscore.Internal_Hbond>
0.0000

> <Gold.Chemscore.DEClash>
0.0355

> <Gold.Chemscore.DEInternal>
3.2428

> <Gold.Chemscore.Rot>
2.0639

> <Gold.Chemscore.Internal.Correction>
   9.000000E+99

> <Gold.Chemscore.Hbonds>
donor molecule, donor type, donor heavy atom, donor atom, acceptor molecule, acceptor atom, score
      P1  H  6896  6908       L1     5  0.02
      P1  H  6931  6943       L1     4  0.54
      P1  H  7989  7998       L1    14  0.01
      P1  H  7997  8010       L1    25  0.52
      P1  H 10752 10764       L1    10  0.18

> <Gold.Chemscore.Hbond.Weighted>
-9.4974

> <Gold.Chemscore.Metal.Weighted>
-0.0000

> <Gold.Chemscore.Lipo.Weighted>
-8.3658

> <Gold.Chemscore.Internal_Hbond.Weighted>
0.0000

> <Gold.Chemscore.DEClash.Weighted>
0.0355

> <Gold.Chemscore.DEInternal.Weighted>
3.2428

> <Gold.Chemscore.Rot.Weighted>
5.2836

> <Gold.Chemscore.Internal.Correction.Weighted>
   9.000000E+99

> <Gold.Protein.RotatedTorsions>
[ 6907 6896 6895 6894 ] final -166.58 input  -60.11 | X-H torsion
[ 7974 7965 7964 7962 ] final  108.30 input  175.53 | X-H torsion
[ 8008 7997 7996 7995 ] final   43.89 input   59.86 | X-H torsion
[ 10167 10162 10161 10158 ] final   -3.97 input  -65.29 | X-H torsion
[ 10718 10713 10712 10709 ] final  -43.48 input   66.30 | X-H torsion
[ 10763 10752 10751 10750 ] final  -82.62 input  -60.55 | X-H torsion
[ 11005 11000 10999 10996 ] final  102.89 input  -57.11 | X-H torsion

> <Gold.Protein.ActiveResidues>
 VAL166  LYS551  ARG553  GLY616  TRP617  ASP618  TYR619  PRO620  LYS621  CYS622 
 ASP623  PHE694  ASN695  SER759  ASP760  ASP761  ALA762  ILE779  LEU786  VAL792 
 PHE793  MET794  SER795  GLU796  ALA797  LYS798  CYS799  TRP800  GLU811  SER814 

> <Gold.Protein.RotatedAtoms>
  151.4458  133.3631  159.2787 H   0  0  0  0  0  0  0  0  0  0  0  0  # atno 6907 bound_to 6896
  150.9125  134.8544  159.7446 H   0  0  0  0  0  0  0  0  0  0  0  0  # atno 6908 bound_to 6896
  152.4940  134.4389  159.9589 H   0  0  0  0  0  0  0  0  0  0  0  0  # atno 6909 bound_to 6896
  145.2824  139.2628  143.3908 H   0  0  0  0  0  0  0  0  0  0  0  0  # atno 7974 bound_to 7965
  155.3101  140.3390  155.4244 H   0  0  0  0  0  0  0  0  0  0  0  0  # atno 8008 bound_to 7997
  156.1959  140.1715  156.8036 H   0  0  0  0  0  0  0  0  0  0  0  0  # atno 8009 bound_to 7997
  154.5499  140.0708  156.8634 H   0  0  0  0  0  0  0  0  0  0  0  0  # atno 8010 bound_to 7997
  140.6910  143.6478  150.8377 H   0  0  0  0  0  0  0  0  0  0  0  0  # atno 10167 bound_to 10162
  156.2486  130.4186  149.8676 H   0  0  0  0  0  0  0  0  0  0  0  0  # atno 10718 bound_to 10713
  154.5779  135.5585  153.7157 H   0  0  0  0  0  0  0  0  0  0  0  0  # atno 10763 bound_to 10752
  153.0071  135.6313  154.2023 H   0  0  0  0  0  0  0  0  0  0  0  0  # atno 10764 bound_to 10752
  154.1964  135.2880  155.2985 H   0  0  0  0  0  0  0  0  0  0  0  0  # atno 10765 bound_to 10752
  139.8780  134.9242  156.5127 H   0  0  0  0  0  0  0  0  0  0  0  0  # atno 11005 bound_to 11000
  146.3212  140.3295  142.8639 LP  0  0  0  0  0  0  0  0  0  0  0  0  # atno 17320 bound_to 7965
  144.9241  140.7902  143.5730 LP  0  0  0  0  0  0  0  0  0  0  0  0  # atno 17321 bound_to 7965
  140.0191  143.5561  152.2808 LP  0  0  0  0  0  0  0  0  0  0  0  0  # atno 17342 bound_to 10162
  139.6313  144.7644  151.2530 LP  0  0  0  0  0  0  0  0  0  0  0  0  # atno 17343 bound_to 10162
  156.6233  130.8635  151.3480 LP  0  0  0  0  0  0  0  0  0  0  0  0  # atno 17370 bound_to 10713
  157.7205  130.9552  150.1420 LP  0  0  0  0  0  0  0  0  0  0  0  0  # atno 17371 bound_to 10713
  140.8508  133.8133  155.9167 LP  0  0  0  0  0  0  0  0  0  0  0  0  # atno 17394 bound_to 11000
  140.9146  134.2218  157.4965 LP  0  0  0  0  0  0  0  0  0  0  0  0  # atno 17395 bound_to 11000

$$$$
