AV-unprocessed.smi:1871|AV-procd|sdf|7601|dock3
  -GOLD-   22720 9313D 1   1.00000     0.00000
 Structure written by MMmdl.
 41 43  0  0  0  0  0  0  0  0  2 V2000
  145.2244  142.0027  154.2956 O   0  0  0  0  0  0  0  0  0  0  0  0
  146.4633  142.4578  153.7997 C   0  0  0  0  0  0  0  0  0  0  0  0
  147.6085  141.6282  154.2822 C   0  0  0  0  0  0  0  0  0  0  0  0
  148.6258  142.0742  155.0727 N   0  3  0  0  0  0  0  0  0  0  0  0
  149.5244  141.0362  155.3203 C   0  0  0  0  0  0  0  0  0  0  0  0
  150.7014  141.0064  156.0620 C   0  0  0  0  0  0  0  0  0  0  0  0
  151.3870  139.7748  156.1117 C   0  0  0  0  0  0  0  0  0  0  0  0
  150.8986  138.6350  155.4403 C   0  0  0  0  0  0  0  0  0  0  0  0
  149.7043  138.6779  154.6909 C   0  0  0  0  0  0  0  0  0  0  0  0
  149.0327  139.8995  154.6474 C   0  0  0  0  0  0  0  0  0  0  0  0
  147.8518  140.3100  154.0186 N   0  0  0  0  0  0  0  0  0  0  0  0
  147.0998  139.3327  153.2150 C   0  0  0  0  0  0  0  0  0  0  0  0
  145.9570  138.6593  154.0016 C   0  0  2  0  0  0  0  0  0  0  0  0
  146.3414  138.4851  155.3513 O   0  0  0  0  0  0  0  0  0  0  0  0
  145.5348  137.3533  153.3478 C   0  0  0  0  0  0  0  0  0  0  0  0
  144.2549  137.2178  152.7687 C   0  0  0  0  0  0  0  0  0  0  0  0
  143.8703  136.0007  152.1743 C   0  0  0  0  0  0  0  0  0  0  0  0
  144.7558  134.9048  152.1447 C   0  0  0  0  0  0  0  0  0  0  0  0
  144.3165  133.7374  151.5627 O   0  0  0  0  0  0  0  0  0  0  0  0
  145.0366  133.1875  150.5490 C   0  0  0  0  0  0  0  0  0  0  0  0
  146.1400  132.5668  151.0337 F   0  0  0  0  0  0  0  0  0  0  0  0
  144.2902  132.2541  149.9108 F   0  0  0  0  0  0  0  0  0  0  0  0
  146.0332  135.0379  152.7396 C   0  0  0  0  0  0  0  0  0  0  0  0
  146.4191  136.2549  153.3341 C   0  0  0  0  0  0  0  0  0  0  0  0
  144.8441  141.4131  153.6623 H   0  0  0  0  0  0  0  0  0  0  0  0
  146.4362  142.4319  152.7101 H   0  0  0  0  0  0  0  0  0  0  0  0
  146.6053  143.4991  154.0863 H   0  0  0  0  0  0  0  0  0  0  0  0
  151.0780  141.8785  156.5762 H   0  0  0  0  0  0  0  0  0  0  0  0
  152.3059  139.7029  156.6755 H   0  0  0  0  0  0  0  0  0  0  0  0
  151.4511  137.7084  155.5011 H   0  0  0  0  0  0  0  0  0  0  0  0
  149.3396  137.7998  154.1789 H   0  0  0  0  0  0  0  0  0  0  0  0
  146.7137  139.8422  152.3313 H   0  0  0  0  0  0  0  0  0  0  0  0
  147.8004  138.5833  152.8475 H   0  0  0  0  0  0  0  0  0  0  0  0
  145.0934  139.3251  154.0130 H   0  0  0  0  0  0  0  0  0  0  0  0
  146.0484  139.2353  155.8457 H   0  0  0  0  0  0  0  0  0  0  0  0
  143.5612  138.0458  152.7815 H   0  0  0  0  0  0  0  0  0  0  0  0
  142.8874  135.9082  151.7358 H   0  0  0  0  0  0  0  0  0  0  0  0
  145.3340  133.9356  149.8137 H   0  0  0  0  0  0  0  0  0  0  0  0
  146.7261  134.2100  152.7538 H   0  0  0  0  0  0  0  0  0  0  0  0
  147.3973  136.3387  153.7845 H   0  0  0  0  0  0  0  0  0  0  0  0
  148.6988  143.0248  155.4113 H   0  0  0  0  0  0  0  0  0  0  0  0
  1  2  1  0  0  0  0
  1 25  1  0  0  0  0
  2  3  1  0  0  0  0
  2 26  1  0  0  0  0
  2 27  1  0  0  0  0
  3 11  1  0  0  0  0
  3  4  2  0  0  0  0
  4  5  1  0  0  0  0
  4 41  1  0  0  0  0
  5 10  2  0  0  0  0
  5  6  1  0  0  0  0
  6  7  2  0  0  0  0
  6 28  1  0  0  0  0
  7  8  1  0  0  0  0
  7 29  1  0  0  0  0
  8  9  2  0  0  0  0
  8 30  1  0  0  0  0
  9 10  1  0  0  0  0
  9 31  1  0  0  0  0
 10 11  1  0  0  0  0
 11 12  1  0  0  0  0
 12 13  1  0  0  0  0
 12 32  1  0  0  0  0
 12 33  1  0  0  0  0
 13 14  1  0  0  0  0
 13 15  1  0  0  0  0
 13 34  1  0  0  0  0
 14 35  1  0  0  0  0
 15 24  1  0  0  0  0
 15 16  2  0  0  0  0
 16 17  1  0  0  0  0
 16 36  1  0  0  0  0
 17 18  2  0  0  0  0
 17 37  1  0  0  0  0
 18 19  1  0  0  0  0
 18 23  1  0  0  0  0
 19 20  1  0  0  0  0
 20 21  1  0  0  0  0
 20 22  1  0  0  0  0
 20 38  1  0  0  0  0
 23 24  2  0  0  0  0
 23 39  1  0  0  0  0
 24 40  1  0  0  0  0
M  CHG  1   4   1
M  END
> <s_m_source_file>
AV-unprocessed.smi

> <i_m_source_file_index>
1871

> <i_lp_mmshare_version>
43012

> <i_f3d_flags>
0

> <s_epik_input>
W2NIXTFbY0hdW2NIXVtjSF1jKGMxMiluKGMobjIpW0NIMl1bT0hdKVtDSDJdW0NASF0oW09IXSljM1tjSF1bY0hdYyhPW0NIXShGKUYpW2NIXVtjSF0z

> <s_epik_cmdline>
J2VwaWtfcHl0aG9uJywgJy1waCcsICc3LjAnLCAnLXRuJywgJzgnLCAnLW1hJywgJzIwMCcsICctbWV0YWxfYmluZGluZycsICctaW1hZScsICc8aW5maWxlLm1hZT4nLCAnLW9tYWUnLCAnPG91dGZpbGUubWFlPic=

> <r_lp_tautomer_probability>
1

> <r_epik_Ionization_Penalty>
1.35642

> <r_epik_Ionization_Penalty_Charging>
1.35557

> <r_epik_Ionization_Penalty_Neutral>
0.000856035

> <r_epik_State_Penalty>
1.43401

> <r_epik_Charging_Adjusted_Penalty>
2.78958

> <i_epik_Tot_Q>
1

> <i_epik_Tot_abs_Q>
1

> <r_epik_Metal_State_Penalty>
5.47166

> <b_epik_Metal_Only>
0

> <s_lp_Force_Field>
OPLS_2005

> <r_lp_Energy>
13.1026

> <b_lp_Chiralities_Consistent>
1

> <s_lp_Variant>
AV-unprocessed.smi:1871-3

> <Gold.Version>
5.8.1

> <Gold.Id.Protein>
6NUR|6NUR_protein|mol2

> <Gold.PLP.Fitness>
52.9127

> <Gold.PLP.PLP>
-45.3701

> <Gold.PLP.part.hbond>
-2.0000

> <Gold.PLP.part.metal>
0.0000

> <Gold.PLP.part.buried>
-3.1647

> <Gold.PLP.part.nonpolar>
-41.2619

> <Gold.PLP.part.repulsive>
0.3172

> <Gold.PLP.ligand.clash>
0.0000

> <Gold.PLP.ligand.torsion>
0.7804

> <Gold.PLP.Chemscore.Hbond>
3.0000

> <Gold.PLP.Chemscore.CHOScore>
0.0000

> <Gold.PLP.Chemscore.Metal>
0.0000

> <Gold.Chemscore.Hbonds>
donor molecule, donor type, donor heavy atom, donor atom, acceptor molecule, acceptor atom, score
      L1  H     1    25       P1 10175  0.95
      L1  H     4    41       P1  8028  2.00

> <Gold.PLP.Chemscore.Internal.Correction>
0.1034

> <Gold.Rescore>
     Score         DG    S(hbond)    S(metal)    S(lipo)     H(rot)  DE(clash)    DE(int)     intcor
     11.38     -12.66       1.78        0.00      84.24       3.37       0.08       1.20       ----

> <Gold.Chemscore.Fitness>
11.3765

> <Gold.Chemscore.DG>
-12.6622

> <Gold.Chemscore.ZeroCoef>
-5.4800

> <Gold.Chemscore.Hbond>
1.7793

> <Gold.Chemscore.Metal>
0.0000

> <Gold.Chemscore.Lipo>
84.2397

> <Gold.Chemscore.Internal_Hbond>
0.0000

> <Gold.Chemscore.DEClash>
0.0834

> <Gold.Chemscore.DEInternal>
1.2023

> <Gold.Chemscore.Rot>
3.3659

> <Gold.Chemscore.Internal.Correction>
   9.000000E+99

> <Gold.Chemscore.Hbonds>
donor molecule, donor type, donor heavy atom, donor atom, acceptor molecule, acceptor atom, score
      L1  H     1    25       P1 10175  0.22
      L1  H     4    41       P1  8028  1.00

> <Gold.Chemscore.Hbond.Weighted>
-5.9428

> <Gold.Chemscore.Metal.Weighted>
-0.0000

> <Gold.Chemscore.Lipo.Weighted>
-9.8560

> <Gold.Chemscore.Internal_Hbond.Weighted>
0.0000

> <Gold.Chemscore.DEClash.Weighted>
0.0834

> <Gold.Chemscore.DEInternal.Weighted>
1.2023

> <Gold.Chemscore.Rot.Weighted>
8.6167

> <Gold.Chemscore.Internal.Correction.Weighted>
   9.000000E+99

> <Gold.Protein.RotatedTorsions>
[ 6907 6896 6895 6894 ] final  -59.81 input  -60.11 | X-H torsion
[ 7974 7965 7964 7962 ] final -169.14 input  175.53 | X-H torsion
[ 8008 7997 7996 7995 ] final  147.94 input   59.86 | X-H torsion
[ 10167 10162 10161 10158 ] final  -59.06 input  -65.29 | X-H torsion
[ 10718 10713 10712 10709 ] final  128.78 input   66.30 | X-H torsion
[ 10763 10752 10751 10750 ] final  -24.48 input  -60.55 | X-H torsion
[ 11005 11000 10999 10996 ] final   21.37 input  -57.11 | X-H torsion

> <Gold.Protein.ActiveResidues>
 VAL166  LYS551  ARG553  GLY616  TRP617  ASP618  TYR619  PRO620  LYS621  CYS622 
 ASP623  PHE694  ASN695  SER759  ASP760  ASP761  ALA762  ILE779  LEU786  VAL792 
 PHE793  MET794  SER795  GLU796  ALA797  LYS798  CYS799  TRP800  GLU811  SER814 

> <Gold.Protein.RotatedAtoms>
  150.7903  134.6920  159.6501 H   0  0  0  0  0  0  0  0  0  0  0  0  # atno 6907 bound_to 6896
  152.4007  134.6288  160.0080 H   0  0  0  0  0  0  0  0  0  0  0  0  # atno 6908 bound_to 6896
  151.6560  133.3282  159.3199 H   0  0  0  0  0  0  0  0  0  0  0  0  # atno 6909 bound_to 6896
  144.7190  140.2266  143.6309 H   0  0  0  0  0  0  0  0  0  0  0  0  # atno 7974 bound_to 7965
  156.2808  140.2142  156.5618 H   0  0  0  0  0  0  0  0  0  0  0  0  # atno 8008 bound_to 7997
  154.7207  140.0504  157.0659 H   0  0  0  0  0  0  0  0  0  0  0  0  # atno 8009 bound_to 7997
  155.0483  140.3153  155.4704 H   0  0  0  0  0  0  0  0  0  0  0  0  # atno 8010 bound_to 7997
  140.6159  143.2402  151.5599 H   0  0  0  0  0  0  0  0  0  0  0  0  # atno 10167 bound_to 10162
  157.5214  131.1098  150.9148 H   0  0  0  0  0  0  0  0  0  0  0  0  # atno 10718 bound_to 10713
  153.6845  135.6965  153.5108 H   0  0  0  0  0  0  0  0  0  0  0  0  # atno 10763 bound_to 10752
  153.2459  135.4290  155.0746 H   0  0  0  0  0  0  0  0  0  0  0  0  # atno 10764 bound_to 10752
  154.8390  135.3519  154.6388 H   0  0  0  0  0  0  0  0  0  0  0  0  # atno 10765 bound_to 10752
  140.3924  134.1805  155.7663 H   0  0  0  0  0  0  0  0  0  0  0  0  # atno 11005 bound_to 11000
  145.8451  139.2148  143.1805 LP  0  0  0  0  0  0  0  0  0  0  0  0  # atno 17320 bound_to 7965
  146.0312  140.8256  142.9875 LP  0  0  0  0  0  0  0  0  0  0  0  0  # atno 17321 bound_to 7965
  139.5398  144.2679  152.1327 LP  0  0  0  0  0  0  0  0  0  0  0  0  # atno 17342 bound_to 10162
  140.1889  144.4772  150.6489 LP  0  0  0  0  0  0  0  0  0  0  0  0  # atno 17343 bound_to 10162
  156.9757  130.5508  149.5293 LP  0  0  0  0  0  0  0  0  0  0  0  0  # atno 17370 bound_to 10713
  156.0356  130.5444  150.8645 LP  0  0  0  0  0  0  0  0  0  0  0  0  # atno 17371 bound_to 10713
  141.1886  133.8256  157.0988 LP  0  0  0  0  0  0  0  0  0  0  0  0  # atno 17394 bound_to 11000
  140.0397  134.9860  157.0938 LP  0  0  0  0  0  0  0  0  0  0  0  0  # atno 17395 bound_to 11000

$$$$
