#       Name:                AV-unprocessed.smi:3
#       Creating user name   scv26
#       Creation time:       Thu Mar 26 15:14:14 2020


#       File generated by GOLD software.
#

@<TRIPOS>MOLECULE
AV-unprocessed.smi:3
    37    39     1
SMALL
NO_CHARGES


@<TRIPOS>ATOM
      1 ****        -0.6166   2.3478   0.3318 C.3            1 S1                 0.0000
      2 ****        -0.2395   1.2162  -0.5037 N.pl3          1 S1                 0.0000
      3 ****         1.1296   1.1809  -1.0235 C.3            1 S1                 0.0000
      4 ****         2.1466   0.7754   0.0430 C.3            1 S1                 0.0000
      5 ****         2.3034  -0.6994   0.4445 C.3            1 S1                 0.0000
      6 ****         3.8062  -0.4563   0.6142 C.3            1 S1                 0.0000
      7 ****         4.6780  -1.4815   0.1939 O.3            1 S1                 0.0000
      8 ****         3.6380   0.7466  -0.3198 C.3            1 S1                 0.0000
      9 ****        -1.0686   0.0676  -0.5546 C.ar           1 S1                 0.0000
     10 ****        -0.5960  -1.0179  -1.2294 N.ar           1 S1                 0.0000
     11 ****        -1.2794  -2.1634  -1.3476 C.ar           1 S1                 0.0000
     12 ****        -2.4905  -2.3365  -0.8144 N.pl3          1 S1                 1.0000
     13 ****        -3.0136  -1.2844  -0.1378 C.ar           1 S1                 0.0000
     14 ****        -4.2359  -1.2049   0.4948 N.pl3          1 S1                 0.0000
     15 ****        -4.3917   0.0448   1.0646 C.2            1 S1                 0.0000
     16 ****        -3.2708   0.7935   0.8097 C.2            1 S1                 0.0000
     17 ****        -2.3659  -0.0316   0.0418 C.ar           1 S1                 0.0000
     18 ****         2.0316   1.3786   0.9461 H              1 S1                 0.0000
     19 ****         4.0572  -0.1457   1.6299 H              1 S1                 0.0000
     20 ****        -4.9363  -1.9308   0.5506 H              1 S1                 0.0000
     21 ****        -1.5049   2.8378  -0.0668 H              1 S1                 0.0000
     22 ****         0.1795   3.0924   0.3643 H              1 S1                 0.0000
     23 ****        -0.8072   2.0277   1.3563 H              1 S1                 0.0000
     24 ****         1.2100   0.5401  -1.9015 H              1 S1                 0.0000
     25 ****         1.3692   2.1796  -1.3900 H              1 S1                 0.0000
     26 ****         1.7779  -0.9737   1.3596 H              1 S1                 0.0000
     27 ****         2.0792  -1.3924  -0.3681 H              1 S1                 0.0000
     28 ****         4.6637  -2.1487   0.8630 H              1 S1                 0.0000
     29 ****         3.8177   0.4997  -1.3678 H              1 S1                 0.0000
     30 ****         4.1918   1.6366  -0.0194 H              1 S1                 0.0000
     31 ****        -0.8599  -2.9976  -1.8906 H              1 S1                 0.0000
     32 ****        -5.2906   0.3019   1.6064 H              1 S1                 0.0000
     33 ****        -3.1083   1.8110   1.1301 H              1 S1                 0.0000
     34 ****        -3.0046  -3.2122  -0.9097 H              1 S1                 0.0000
     35 ****         5.6050  -1.1218   0.0876 LP             1 S1                 0.0000
     36 ****         4.3662  -1.8618  -0.6768 LP             1 S1                 0.0000
     37 ****         0.3057  -0.9560  -1.6574 LP             1 S1                 0.0000
@<TRIPOS>BOND
    1    1    2 1     
    2    1   21 1     
    3    1   22 1     
    4    1   23 1     
    5    2    3 1     
    6    2    9 1     
    7    3    4 1     
    8    3   24 1     
    9    3   25 1     
   10    4   18 1     
   11    4    8 1     
   12    4    5 1     
   13    5    6 1     
   14    5   26 1     
   15    5   27 1     
   16    6   19 1     
   17    6    7 1     
   18    6    8 1     
   19    7   28 1     
   20    8   29 1     
   21    8   30 1     
   22    9   17 ar    
   23    9   10 ar    
   24   10   11 ar    
   25   11   12 ar    
   26   11   31 1     
   27   12   13 ar    
   28   12   34 1     
   29   13   17 ar    
   30   13   14 1     
   31   14   20 1     
   32   14   15 1     
   33   15   16 2     
   34   15   32 1     
   35   16   17 1     
   36   16   33 1     
   37    7   35 1     
   38    7   36 1     
   39   10   37 1     
@<TRIPOS>SUBSTRUCTURE
      1 S1             1
@<TRIPOS>SET
LONE_PAIRS      STATIC     ATOMS    <user>   **** ""
3 35 36 37
DONOR_HYDROGENS      STATIC     ATOMS    <user>   **** ""
3 28 34 20
ATOM$BLUE        STATIC     ATOMS    COLORGROUP SYSTEM
3 35 36 37
ATOM$RED        STATIC     ATOMS    COLORGROUP SYSTEM
3 28 34 20
