AV-unprocessed.smi:1074|AV-procd|sdf|4692|dock7
  -GOLD-   22720 3213D 1   1.00000     0.00000
 Structure written by MMmdl.
 44 45  0  0  0  0  0  0  0  0  1 V2000
  143.8284  132.4340  148.9394 C   0  0  0  0  0  0  0  0  0  0  0  0
  143.4282  133.3102  150.0296 N   0  0  0  0  0  0  0  0  0  0  0  0
  143.9861  133.3039  151.2493 C   0  0  0  0  0  0  0  0  0  0  0  0
  144.9054  132.5446  151.5558 O   0  0  0  0  0  0  0  0  0  0  0  0
  143.4120  134.3068  152.2681 C   0  0  2  0  0  0  0  0  0  0  0  0
  143.5001  135.7730  151.7830 C   0  0  0  0  0  0  0  0  0  0  0  0
  144.9086  136.3847  151.9068 C   0  0  0  0  0  0  0  0  0  0  0  0
  145.4656  136.2373  153.3362 C   0  0  2  0  0  0  0  0  0  0  0  0
  146.8270  136.7574  153.4153 N   0  0  0  0  0  0  0  0  0  0  0  0
  147.3530  137.4011  154.4671 C   0  0  0  0  0  0  0  0  0  0  0  0
  146.7226  137.6470  155.4946 O   0  0  0  0  0  0  0  0  0  0  0  0
  148.6334  137.7369  154.2323 N   0  0  0  0  0  0  0  0  0  0  0  0
  149.5737  138.3770  155.0865 C   0  0  0  0  0  0  0  0  0  0  0  0
  149.6891  138.1541  156.4802 C   0  0  0  0  0  0  0  0  0  0  0  0
  150.6794  138.8481  157.2012 C   0  0  0  0  0  0  0  0  0  0  0  0
  151.5260  139.7402  156.5140 C   0  0  0  0  0  0  0  0  0  0  0  0
  152.4959  140.4135  157.2282 O   0  0  0  0  0  0  0  0  0  0  0  0
  152.3958  140.4364  158.6480 C   0  0  0  0  0  0  0  0  0  0  0  0
  151.4236  139.9574  155.1797 N   0  0  0  0  0  0  0  0  0  0  0  0
  150.4722  139.2891  154.4947 C   0  0  0  0  0  0  0  0  0  0  0  0
  145.4533  134.7643  153.7804 C   0  0  0  0  0  0  0  0  0  0  0  0
  144.0440  134.1538  153.6710 C   0  0  0  0  0  0  0  0  0  0  0  0
  143.2054  132.6212  148.0650 H   0  0  0  0  0  0  0  0  0  0  0  0
  143.7150  131.3864  149.2209 H   0  0  0  0  0  0  0  0  0  0  0  0
  144.8684  132.6095  148.6617 H   0  0  0  0  0  0  0  0  0  0  0  0
  142.6765  133.9598  149.8483 H   0  0  0  0  0  0  0  0  0  0  0  0
  142.3512  134.0712  152.3706 H   0  0  0  0  0  0  0  0  0  0  0  0
  143.1579  135.8499  150.7500 H   0  0  0  0  0  0  0  0  0  0  0  0
  142.8057  136.3765  152.3690 H   0  0  0  0  0  0  0  0  0  0  0  0
  145.5857  135.9158  151.1929 H   0  0  0  0  0  0  0  0  0  0  0  0
  144.8662  137.4390  151.6307 H   0  0  0  0  0  0  0  0  0  0  0  0
  144.8286  136.8005  154.0211 H   0  0  0  0  0  0  0  0  0  0  0  0
  147.4153  136.6058  152.6093 H   0  0  0  0  0  0  0  0  0  0  0  0
  148.9849  137.4992  153.3163 H   0  0  0  0  0  0  0  0  0  0  0  0
  149.0540  137.4665  157.0147 H   0  0  0  0  0  0  0  0  0  0  0  0
  150.7895  138.6955  158.2648 H   0  0  0  0  0  0  0  0  0  0  0  0
  153.2307  141.0036  159.0590 H   0  0  0  0  0  0  0  0  0  0  0  0
  152.4411  139.4301  159.0669 H   0  0  0  0  0  0  0  0  0  0  0  0
  151.4744  140.9201  158.9757 H   0  0  0  0  0  0  0  0  0  0  0  0
  150.4287  139.4907  153.4342 H   0  0  0  0  0  0  0  0  0  0  0  0
  146.1585  134.1874  153.1813 H   0  0  0  0  0  0  0  0  0  0  0  0
  145.8009  134.6863  154.8112 H   0  0  0  0  0  0  0  0  0  0  0  0
  143.3948  134.6361  154.4029 H   0  0  0  0  0  0  0  0  0  0  0  0
  144.0794  133.1013  153.9557 H   0  0  0  0  0  0  0  0  0  0  0  0
  1  2  1  0  0  0  0
  1 23  1  0  0  0  0
  1 24  1  0  0  0  0
  1 25  1  0  0  0  0
  2  3  1  0  0  0  0
  2 26  1  0  0  0  0
  3  4  2  0  0  0  0
  3  5  1  0  0  0  0
  5 22  1  0  0  0  0
  5  6  1  0  0  0  0
  5 27  1  0  0  0  0
  6  7  1  0  0  0  0
  6 28  1  0  0  0  0
  6 29  1  0  0  0  0
  7  8  1  0  0  0  0
  7 30  1  0  0  0  0
  7 31  1  0  0  0  0
  8  9  1  0  0  0  0
  8 21  1  0  0  0  0
  8 32  1  0  0  0  0
  9 10  1  0  0  0  0
  9 33  1  0  0  0  0
 10 11  2  0  0  0  0
 10 12  1  0  0  0  0
 12 13  1  0  0  0  0
 12 34  1  0  0  0  0
 13 20  1  0  0  0  0
 13 14  2  0  0  0  0
 14 15  1  0  0  0  0
 14 35  1  0  0  0  0
 15 16  2  0  0  0  0
 15 36  1  0  0  0  0
 16 17  1  0  0  0  0
 16 19  1  0  0  0  0
 17 18  1  0  0  0  0
 18 37  1  0  0  0  0
 18 38  1  0  0  0  0
 18 39  1  0  0  0  0
 19 20  2  0  0  0  0
 20 40  1  0  0  0  0
 21 22  1  0  0  0  0
 21 41  1  0  0  0  0
 21 42  1  0  0  0  0
 22 43  1  0  0  0  0
 22 44  1  0  0  0  0
M  END
> <s_m_source_file>
AV-unprocessed.smi

> <i_m_source_file_index>
1074

> <i_lp_mmshare_version>
43012

> <i_f3d_flags>
0

> <s_epik_input>
W0NIM11bTkhdQyg9TylbQ0BASF0xW0NIMl1bQ0gyXVtDQEhdKFtDSDJdW0NIMl0xKVtOSF1DKD1PKVtOSF1jMltjSF1bY0hdYyhPW0NIM10pbltjSF0y

> <s_epik_cmdline>
J2VwaWtfcHl0aG9uJywgJy1waCcsICc3LjAnLCAnLXRuJywgJzgnLCAnLW1hJywgJzIwMCcsICctbWV0YWxfYmluZGluZycsICctaW1hZScsICc8aW5maWxlLm1hZT4nLCAnLW9tYWUnLCAnPG91dGZpbGUubWFlPic=

> <r_lp_tautomer_probability>
1

> <r_epik_Ionization_Penalty>
9.85099e-05

> <r_epik_Ionization_Penalty_Charging>
0

> <r_epik_Ionization_Penalty_Neutral>
9.85099e-05

> <r_epik_State_Penalty>
-0

> <r_epik_Charging_Adjusted_Penalty>
0

> <i_epik_Tot_Q>
0

> <i_epik_Tot_abs_Q>
0

> <r_epik_Metal_State_Penalty>
-0

> <b_epik_Metal_Only>
0

> <s_lp_Force_Field>
OPLS_2005

> <r_lp_Energy>
10.6819

> <b_lp_Chiralities_Consistent>
1

> <s_lp_Variant>
AV-unprocessed.smi:1074-2

> <Gold.Version>
5.8.1

> <Gold.Id.Protein>
6NUR|6NUR_protein|mol2

> <Gold.PLP.Fitness>
38.5949

> <Gold.PLP.PLP>
-25.4701

> <Gold.PLP.part.hbond>
-5.0000

> <Gold.PLP.part.metal>
0.0000

> <Gold.PLP.part.buried>
-0.8707

> <Gold.PLP.part.nonpolar>
-19.6038

> <Gold.PLP.part.repulsive>
0.2162

> <Gold.PLP.ligand.clash>
0.0065

> <Gold.PLP.ligand.torsion>
0.8391

> <Gold.PLP.Chemscore.Hbond>
3.9220

> <Gold.PLP.Chemscore.CHOScore>
0.9972

> <Gold.PLP.Chemscore.Metal>
0.0000

> <Gold.Chemscore.Hbonds>
donor molecule, donor type, donor heavy atom, donor atom, acceptor molecule, acceptor atom, score
      L1  H     2    26       P1 10186  1.00
      L1  H     9    33       P1  7948  1.00
      L1  H    12    34       P1  7948  0.96
      P1  H  7989  7998       L1    19  0.15
      P1  H  7997  8008       L1    17  0.91
      L1  C    20    40       P1  7957  1.00

> <Gold.PLP.Chemscore.Internal.Correction>
0.0517

> <Gold.Rescore>
     Score         DG    S(hbond)    S(metal)    S(lipo)     H(rot)  DE(clash)    DE(int)     intcor
     20.06     -20.96       3.79        0.00      59.76       1.62       0.07       0.83       ----

> <Gold.Chemscore.Fitness>
20.0579

> <Gold.Chemscore.DG>
-20.9592

> <Gold.Chemscore.ZeroCoef>
-5.4800

> <Gold.Chemscore.Hbond>
3.7863

> <Gold.Chemscore.Metal>
0.0000

> <Gold.Chemscore.Lipo>
59.7647

> <Gold.Chemscore.Internal_Hbond>
0.0000

> <Gold.Chemscore.DEClash>
0.0696

> <Gold.Chemscore.DEInternal>
0.8317

> <Gold.Chemscore.Rot>
1.6248

> <Gold.Chemscore.Internal.Correction>
   9.000000E+99

> <Gold.Chemscore.Hbonds>
donor molecule, donor type, donor heavy atom, donor atom, acceptor molecule, acceptor atom, score
      L1  H     2    26       P1 10186  0.98
      L1  H     9    33       P1  7948  0.97
      L1  H    12    34       P1  7948  0.92
      P1  H  7997  8008       L1    17  0.57

> <Gold.Chemscore.Hbond.Weighted>
-12.6462

> <Gold.Chemscore.Metal.Weighted>
-0.0000

> <Gold.Chemscore.Lipo.Weighted>
-6.9925

> <Gold.Chemscore.Internal_Hbond.Weighted>
0.0000

> <Gold.Chemscore.DEClash.Weighted>
0.0696

> <Gold.Chemscore.DEInternal.Weighted>
0.8317

> <Gold.Chemscore.Rot.Weighted>
4.1595

> <Gold.Chemscore.Internal.Correction.Weighted>
   9.000000E+99

> <Gold.Protein.RotatedTorsions>
[ 6907 6896 6895 6894 ] final  -26.78 input  -60.11 | X-H torsion
[ 7974 7965 7964 7962 ] final -100.33 input  175.53 | X-H torsion
[ 8008 7997 7996 7995 ] final  -64.59 input   59.86 | X-H torsion
[ 10167 10162 10161 10158 ] final   72.53 input  -65.29 | X-H torsion
[ 10718 10713 10712 10709 ] final  174.68 input   66.30 | X-H torsion
[ 10763 10752 10751 10750 ] final  143.59 input  -60.55 | X-H torsion
[ 11005 11000 10999 10996 ] final -166.72 input  -57.11 | X-H torsion

> <Gold.Protein.ActiveResidues>
 VAL166  LYS551  ARG553  GLY616  TRP617  ASP618  TYR619  PRO620  LYS621  CYS622 
 ASP623  PHE694  ASN695  SER759  ASP760  ASP761  ALA762  ILE779  LEU786  VAL792 
 PHE793  MET794  SER795  GLU796  ALA797  LYS798  CYS799  TRP800  GLU811  SER814 

> <Gold.Protein.RotatedAtoms>
  151.1561  135.0251  159.8689 H   0  0  0  0  0  0  0  0  0  0  0  0  # atno 6907 bound_to 6896
  152.5452  134.1333  159.8458 H   0  0  0  0  0  0  0  0  0  0  0  0  # atno 6908 bound_to 6896
  151.1423  133.4917  159.2629 H   0  0  0  0  0  0  0  0  0  0  0  0  # atno 6909 bound_to 6896
  145.2960  140.9365  143.2851 H   0  0  0  0  0  0  0  0  0  0  0  0  # atno 7974 bound_to 7965
  154.4621  140.0950  156.6920 H   0  0  0  0  0  0  0  0  0  0  0  0  # atno 8008 bound_to 7997
  155.4965  140.3472  155.4345 H   0  0  0  0  0  0  0  0  0  0  0  0  # atno 8009 bound_to 7997
  156.0889  140.1392  156.9607 H   0  0  0  0  0  0  0  0  0  0  0  0  # atno 8010 bound_to 7997
  140.0343  144.5440  150.7483 H   0  0  0  0  0  0  0  0  0  0  0  0  # atno 10167 bound_to 10162
  156.9460  131.0016  151.2958 H   0  0  0  0  0  0  0  0  0  0  0  0  # atno 10718 bound_to 10713
  153.9749  135.2947  155.3424 H   0  0  0  0  0  0  0  0  0  0  0  0  # atno 10763 bound_to 10752
  154.7301  135.5071  153.8954 H   0  0  0  0  0  0  0  0  0  0  0  0  # atno 10764 bound_to 10752
  153.0882  135.6700  154.0019 H   0  0  0  0  0  0  0  0  0  0  0  0  # atno 10765 bound_to 10752
  140.5613  134.5330  157.5143 H   0  0  0  0  0  0  0  0  0  0  0  0  # atno 11005 bound_to 11000
  144.9133  139.4501  143.6576 LP  0  0  0  0  0  0  0  0  0  0  0  0  # atno 17320 bound_to 7965
  146.3168  139.7953  142.8977 LP  0  0  0  0  0  0  0  0  0  0  0  0  # atno 17321 bound_to 7965
  140.7288  143.2666  151.4025 LP  0  0  0  0  0  0  0  0  0  0  0  0  # atno 17342 bound_to 10162
  139.6055  144.1206  152.2244 LP  0  0  0  0  0  0  0  0  0  0  0  0  # atno 17343 bound_to 10162
  157.5753  130.8339  149.8448 LP  0  0  0  0  0  0  0  0  0  0  0  0  # atno 17370 bound_to 10713
  156.0383  130.3745  150.1501 LP  0  0  0  0  0  0  0  0  0  0  0  0  # atno 17371 bound_to 10713
  139.9406  134.7793  156.0687 LP  0  0  0  0  0  0  0  0  0  0  0  0  # atno 17394 bound_to 11000
  141.1113  133.6642  156.2985 LP  0  0  0  0  0  0  0  0  0  0  0  0  # atno 17395 bound_to 11000

$$$$
