#       Name:                AV-unprocessed.smi:8
#       Creating user name   scv26
#       Creation time:       Thu Mar 26 15:16:26 2020


#       File generated by GOLD software.
#

@<TRIPOS>MOLECULE
AV-unprocessed.smi:8
    40    41     1
SMALL
NO_CHARGES


@<TRIPOS>ATOM
      1 ****        -3.8643   3.2621  -0.6629 C.3            1 S1                 0.0000
      2 ****        -3.5270   2.2945  -1.8075 C.3            1 S1                 0.0000
      3 ****        -2.9351   1.0632  -1.3449 N.am           1 S1                 0.0000
      4 ****        -1.5654   0.8480  -1.3500 C.2            1 S1                 0.0000
      5 ****        -0.9805  -0.2898  -0.8966 C.2            1 S1                 0.0000
      6 ****         0.5267  -0.4927  -0.9430 C.3            1 S1                 0.0000
      7 ****         1.1323  -0.5540   0.3819 N.pl3          1 S1                 0.0000
      8 ****         2.5181  -0.7335   0.5101 C.ar           1 S1                 0.0000
      9 ****         3.3157  -0.4872  -0.5541 N.ar           1 S1                 0.0000
     10 ****         4.6394  -0.6489  -0.4400 C.ar           1 S1                 0.0000
     11 ****         5.2302  -1.0470   0.6960 N.pl3          1 S1                 1.0000
     12 ****         4.4714  -1.3039   1.7888 C.ar           1 S1                 0.0000
     13 ****         3.0708  -1.1553   1.7384 C.ar           1 S1                 0.0000
     14 ****         2.2149  -1.4425   2.9585 C.3            1 S1                 0.0000
     15 ****        -1.8252  -1.3742  -0.3825 C.2            1 S1                 0.0000
     16 ****        -1.4173  -2.4538   0.0425 O.2            1 S1                 0.0000
     17 ****        -3.1981  -1.1116  -0.3914 N.am           1 S1                 0.0000
     18 ****        -3.7977   0.0627  -0.8439 C.2            1 S1                 0.0000
     19 ****        -5.0215   0.1871  -0.7928 O.2            1 S1                 0.0000
     20 ****        -3.8094  -1.8328  -0.0370 H              1 S1                 0.0000
     21 ****        -4.2687   4.1959  -1.0537 H              1 S1                 0.0000
     22 ****        -2.9761   3.5041  -0.0785 H              1 S1                 0.0000
     23 ****        -4.6063   2.8397   0.0151 H              1 S1                 0.0000
     24 ****        -4.4001   2.0394  -2.4118 H              1 S1                 0.0000
     25 ****        -2.8048   2.7447  -2.4901 H              1 S1                 0.0000
     26 ****        -0.9276   1.6326  -1.7322 H              1 S1                 0.0000
     27 ****         0.7452  -1.4137  -1.4852 H              1 S1                 0.0000
     28 ****         0.9786   0.3231  -1.5083 H              1 S1                 0.0000
     29 ****         0.5502  -0.8753   1.1424 H              1 S1                 0.0000
     30 ****         5.2862  -0.4572  -1.2837 H              1 S1                 0.0000
     31 ****         5.0125  -1.6206   2.6686 H              1 S1                 0.0000
     32 ****         2.8274  -1.7504   3.8065 H              1 S1                 0.0000
     33 ****         1.5052  -2.2423   2.7454 H              1 S1                 0.0000
     34 ****         1.6563  -0.5528   3.2503 H              1 S1                 0.0000
     35 ****         6.2432  -1.1589   0.7463 H              1 S1                 0.0000
     36 ****         2.9187  -0.1860  -1.4211 LP             1 S1                 0.0000
     37 ****        -0.4363  -2.6475   0.0557 LP             1 S1                 0.0000
     38 ****        -2.0666  -3.1378   0.3749 LP             1 S1                 0.0000
     39 ****        -5.4523   1.0297  -1.1161 LP             1 S1                 0.0000
     40 ****        -5.5846  -0.5543  -0.4280 LP             1 S1                 0.0000
@<TRIPOS>BOND
    1    1    2 1     
    2    1   21 1     
    3    1   22 1     
    4    1   23 1     
    5    2    3 1     
    6    2   24 1     
    7    2   25 1     
    8    3   18 1     
    9    3    4 1     
   10    4    5 2     
   11    4   26 1     
   12    5    6 1     
   13    5   15 1     
   14    6    7 1     
   15    6   27 1     
   16    6   28 1     
   17    7    8 1     
   18    7   29 1     
   19    8   13 ar    
   20    8    9 ar    
   21    9   10 ar    
   22   10   11 ar    
   23   10   30 1     
   24   11   12 ar    
   25   11   35 1     
   26   12   13 ar    
   27   12   31 1     
   28   13   14 1     
   29   14   32 1     
   30   14   33 1     
   31   14   34 1     
   32   15   16 2     
   33   15   17 1     
   34   17   20 1     
   35   17   18 1     
   36   18   19 2     
   37    9   36 1     
   38   16   37 1     
   39   16   38 1     
   40   19   39 1     
   41   19   40 1     
@<TRIPOS>SUBSTRUCTURE
      1 S1             1
@<TRIPOS>SET
LONE_PAIRS      STATIC     ATOMS    <user>   **** ""
5 36 37 38 39 40
DONOR_HYDROGENS      STATIC     ATOMS    <user>   **** ""
3 29 35 20
ATOM$BLUE        STATIC     ATOMS    COLORGROUP SYSTEM
5 36 37 38 39 40
ATOM$RED        STATIC     ATOMS    COLORGROUP SYSTEM
3 29 35 20
