AV-unprocessed.smi:2004|AV-procd|sdf|8122|dock3
  -GOLD-   2272010353D 1   1.00000     0.00000
 Structure written by MMmdl.
 39 41  0  0  0  0  0  0  0  0  1 V2000
  151.1825  136.6605  159.1911 O   0  0  0  0  0  0  0  0  0  0  0  0
  151.8769  137.8780  159.3816 C   0  0  1  0  0  0  0  0  0  0  0  0
  153.1477  137.5898  160.1952 C   0  0  0  0  0  0  0  0  0  0  0  0
  153.7001  136.3580  159.7613 O   0  0  0  0  0  0  0  0  0  0  0  0
  155.0422  136.1757  160.1819 C   0  0  0  0  0  0  0  0  0  0  0  0
  155.1284  135.8655  161.6639 C   0  0  0  0  0  0  0  0  0  0  0  0
  154.7811  136.8490  162.6142 C   0  0  0  0  0  0  0  0  0  0  0  0
  154.8741  136.5677  163.9914 C   0  0  0  0  0  0  0  0  0  0  0  0
  155.3195  135.3036  164.4239 C   0  0  0  0  0  0  0  0  0  0  0  0
  155.6751  134.3220  163.4785 C   0  0  0  0  0  0  0  0  0  0  0  0
  155.5825  134.6030  162.1012 C   0  0  0  0  0  0  0  0  0  0  0  0
  152.2003  138.4894  158.0045 C   0  0  0  0  0  0  0  0  0  0  0  0
  151.7952  139.8803  157.9064 N   0  0  0  0  0  0  0  0  0  0  0  0
  150.8922  140.4080  157.0572 C   0  0  0  0  0  0  0  0  0  0  0  0
  150.6706  141.7169  157.1396 N   0  0  0  0  0  0  0  0  0  0  0  0
  151.5302  142.0817  158.1619 C   0  0  0  0  0  0  0  0  0  0  0  0
  151.7788  143.3452  158.7443 C   0  0  0  0  0  0  0  0  0  0  0  0
  152.7151  143.4775  159.7913 C   0  0  0  0  0  0  0  0  0  0  0  0
  153.4154  142.3516  160.2714 C   0  0  0  0  0  0  0  0  0  0  0  0
  153.1846  141.0824  159.7068 C   0  0  0  0  0  0  0  0  0  0  0  0
  152.2498  140.9547  158.6624 C   0  0  0  0  0  0  0  0  0  0  0  0
  150.7582  136.6889  158.3469 H   0  0  0  0  0  0  0  0  0  0  0  0
  151.2378  138.5672  159.9352 H   0  0  0  0  0  0  0  0  0  0  0  0
  153.8677  138.4055  160.1059 H   0  0  0  0  0  0  0  0  0  0  0  0
  152.8939  137.4962  161.2524 H   0  0  0  0  0  0  0  0  0  0  0  0
  155.4988  135.3662  159.6098 H   0  0  0  0  0  0  0  0  0  0  0  0
  155.6213  137.0795  159.9867 H   0  0  0  0  0  0  0  0  0  0  0  0
  154.4417  137.8219  162.2893 H   0  0  0  0  0  0  0  0  0  0  0  0
  154.6045  137.3222  164.7156 H   0  0  0  0  0  0  0  0  0  0  0  0
  155.3912  135.0875  165.4797 H   0  0  0  0  0  0  0  0  0  0  0  0
  156.0202  133.3535  163.8096 H   0  0  0  0  0  0  0  0  0  0  0  0
  155.8599  133.8451  161.3832 H   0  0  0  0  0  0  0  0  0  0  0  0
  153.2720  138.4359  157.8098 H   0  0  0  0  0  0  0  0  0  0  0  0
  151.7103  137.9239  157.2101 H   0  0  0  0  0  0  0  0  0  0  0  0
  150.3655  139.7956  156.3398 H   0  0  0  0  0  0  0  0  0  0  0  0
  151.2478  144.2142  158.3848 H   0  0  0  0  0  0  0  0  0  0  0  0
  152.8964  144.4482  160.2289 H   0  0  0  0  0  0  0  0  0  0  0  0
  154.1299  142.4631  161.0740 H   0  0  0  0  0  0  0  0  0  0  0  0
  153.7182  140.2175  160.0718 H   0  0  0  0  0  0  0  0  0  0  0  0
  1  2  1  0  0  0  0
  1 22  1  0  0  0  0
  2  3  1  0  0  0  0
  2 12  1  0  0  0  0
  2 23  1  0  0  0  0
  3  4  1  0  0  0  0
  3 24  1  0  0  0  0
  3 25  1  0  0  0  0
  4  5  1  0  0  0  0
  5  6  1  0  0  0  0
  5 26  1  0  0  0  0
  5 27  1  0  0  0  0
  6 11  1  0  0  0  0
  6  7  2  0  0  0  0
  7  8  1  0  0  0  0
  7 28  1  0  0  0  0
  8  9  2  0  0  0  0
  8 29  1  0  0  0  0
  9 10  1  0  0  0  0
  9 30  1  0  0  0  0
 10 11  2  0  0  0  0
 10 31  1  0  0  0  0
 11 32  1  0  0  0  0
 12 13  1  0  0  0  0
 12 33  1  0  0  0  0
 12 34  1  0  0  0  0
 13 21  1  0  0  0  0
 13 14  1  0  0  0  0
 14 15  2  0  0  0  0
 14 35  1  0  0  0  0
 15 16  1  0  0  0  0
 16 21  2  0  0  0  0
 16 17  1  0  0  0  0
 17 18  2  0  0  0  0
 17 36  1  0  0  0  0
 18 19  1  0  0  0  0
 18 37  1  0  0  0  0
 19 20  2  0  0  0  0
 19 38  1  0  0  0  0
 20 21  1  0  0  0  0
 20 39  1  0  0  0  0
M  END
> <s_m_source_file>
AV-unprocessed.smi

> <i_m_source_file_index>
2004

> <i_lp_mmshare_version>
43012

> <i_f3d_flags>
0

> <s_epik_input>
W2NIXTFbY0hdW2NIXVtjSF1jKGMxMiluKFtjSF1uMilbQ0gyXVtDQEhdKFtPSF0pW0NIMl1PW0NIMl1jM1tjSF1bY0hdW2NIXVtjSF1bY0hdMw==

> <s_epik_cmdline>
J2VwaWtfcHl0aG9uJywgJy1waCcsICc3LjAnLCAnLXRuJywgJzgnLCAnLW1hJywgJzIwMCcsICctbWV0YWxfYmluZGluZycsICctaW1hZScsICc8aW5maWxlLm1hZT4nLCAnLW9tYWUnLCAnPG91dGZpbGUubWFlPic=

> <r_epik_Ionization_Penalty>
0.0713119

> <r_epik_Ionization_Penalty_Charging>
0

> <r_epik_Ionization_Penalty_Neutral>
0.0713119

> <r_epik_State_Penalty>
0.06259

> <r_epik_Charging_Adjusted_Penalty>
0.06259

> <i_epik_Tot_Q>
0

> <i_epik_Tot_abs_Q>
0

> <r_epik_Metal_State_Penalty>
6.60119e-05

> <b_epik_Metal_Only>
0

> <s_lp_Force_Field>
OPLS_2005

> <r_lp_Energy>
14.5219

> <b_lp_Chiralities_Consistent>
1

> <s_lp_Variant>
AV-unprocessed.smi:2004-2

> <Gold.Version>
5.8.1

> <Gold.Id.Protein>
6NUR|6NUR_protein|mol2

> <Gold.PLP.Fitness>
47.4575

> <Gold.PLP.PLP>
-45.0546

> <Gold.PLP.part.hbond>
-2.0000

> <Gold.PLP.part.metal>
0.0000

> <Gold.PLP.part.buried>
-4.4015

> <Gold.PLP.part.nonpolar>
-39.0897

> <Gold.PLP.part.repulsive>
0.0583

> <Gold.PLP.ligand.clash>
0.0000

> <Gold.PLP.ligand.torsion>
1.0725

> <Gold.PLP.Chemscore.Hbond>
1.4643

> <Gold.PLP.Chemscore.CHOScore>
0.0000

> <Gold.PLP.Chemscore.Metal>
0.0000

> <Gold.Chemscore.Hbonds>
donor molecule, donor type, donor heavy atom, donor atom, acceptor molecule, acceptor atom, score
      P1  H  6896  6908       L1     1  0.61
      P1  H  6896  6909       L1     4  0.58

> <Gold.PLP.Chemscore.Internal.Correction>
0.1550

> <Gold.Rescore>
     Score         DG    S(hbond)    S(metal)    S(lipo)     H(rot)  DE(clash)    DE(int)     intcor
     16.20     -17.80       0.97        0.00     128.52       2.33       0.20       1.41       ----

> <Gold.Chemscore.Fitness>
16.1984

> <Gold.Chemscore.DG>
-17.8005

> <Gold.Chemscore.ZeroCoef>
-5.4800

> <Gold.Chemscore.Hbond>
0.9718

> <Gold.Chemscore.Metal>
0.0000

> <Gold.Chemscore.Lipo>
128.5154

> <Gold.Chemscore.Internal_Hbond>
0.0000

> <Gold.Chemscore.DEClash>
0.1970

> <Gold.Chemscore.DEInternal>
1.4052

> <Gold.Chemscore.Rot>
2.3288

> <Gold.Chemscore.Internal.Correction>
   9.000000E+99

> <Gold.Chemscore.Hbonds>
donor molecule, donor type, donor heavy atom, donor atom, acceptor molecule, acceptor atom, score
      P1  H  6896  6908       L1     1  0.21
      P1  H  6896  6909       L1     4  0.44

> <Gold.Chemscore.Hbond.Weighted>
-3.2459

> <Gold.Chemscore.Metal.Weighted>
-0.0000

> <Gold.Chemscore.Lipo.Weighted>
-15.0363

> <Gold.Chemscore.Internal_Hbond.Weighted>
0.0000

> <Gold.Chemscore.DEClash.Weighted>
0.1970

> <Gold.Chemscore.DEInternal.Weighted>
1.4052

> <Gold.Chemscore.Rot.Weighted>
5.9616

> <Gold.Chemscore.Internal.Correction.Weighted>
   9.000000E+99

> <Gold.Protein.RotatedTorsions>
[ 6907 6896 6895 6894 ] final -169.58 input  -60.11 | X-H torsion
[ 7974 7965 7964 7962 ] final   17.09 input  175.53 | X-H torsion
[ 8008 7997 7996 7995 ] final -156.07 input   59.86 | X-H torsion
[ 10167 10162 10161 10158 ] final   75.79 input  -65.29 | X-H torsion
[ 10718 10713 10712 10709 ] final   40.42 input   66.30 | X-H torsion
[ 10763 10752 10751 10750 ] final  -82.67 input  -60.55 | X-H torsion
[ 11005 11000 10999 10996 ] final   61.92 input  -57.11 | X-H torsion

> <Gold.Protein.ActiveResidues>
 VAL166  LYS551  ARG553  GLY616  TRP617  ASP618  TYR619  PRO620  LYS621  CYS622 
 ASP623  PHE694  ASN695  SER759  ASP760  ASP761  ALA762  ILE779  LEU786  VAL792 
 PHE793  MET794  SER795  GLU796  ALA797  LYS798  CYS799  TRP800  GLU811  SER814 

> <Gold.Protein.RotatedAtoms>
  151.4939  133.3519  159.2857 H   0  0  0  0  0  0  0  0  0  0  0  0  # atno 6907 bound_to 6896
  150.8817  134.8211  159.7240 H   0  0  0  0  0  0  0  0  0  0  0  0  # atno 6908 bound_to 6896
  152.4767  134.4837  159.9725 H   0  0  0  0  0  0  0  0  0  0  0  0  # atno 6909 bound_to 6896
  146.2229  139.8653  142.8597 H   0  0  0  0  0  0  0  0  0  0  0  0  # atno 7974 bound_to 7965
  155.7116  140.0779  157.2368 H   0  0  0  0  0  0  0  0  0  0  0  0  # atno 8008 bound_to 7997
  154.4057  140.1629  156.2356 H   0  0  0  0  0  0  0  0  0  0  0  0  # atno 8009 bound_to 7997
  155.9277  140.3393  155.6227 H   0  0  0  0  0  0  0  0  0  0  0  0  # atno 8010 bound_to 7997
  139.9992  144.5699  150.7752 H   0  0  0  0  0  0  0  0  0  0  0  0  # atno 10167 bound_to 10162
  157.3820  130.7759  149.7200 H   0  0  0  0  0  0  0  0  0  0  0  0  # atno 10718 bound_to 10713
  154.5786  135.5583  153.7163 H   0  0  0  0  0  0  0  0  0  0  0  0  # atno 10763 bound_to 10752
  153.0073  135.6314  154.2015 H   0  0  0  0  0  0  0  0  0  0  0  0  # atno 10764 bound_to 10752
  154.1955  135.2880  155.2988 H   0  0  0  0  0  0  0  0  0  0  0  0  # atno 10765 bound_to 10752
  140.0128  134.6271  155.9755 H   0  0  0  0  0  0  0  0  0  0  0  0  # atno 11005 bound_to 11000
  145.2663  141.0094  143.3797 LP  0  0  0  0  0  0  0  0  0  0  0  0  # atno 17320 bound_to 7965
  144.9259  139.4356  143.6519 LP  0  0  0  0  0  0  0  0  0  0  0  0  # atno 17321 bound_to 7965
  140.7425  143.2833  151.3534 LP  0  0  0  0  0  0  0  0  0  0  0  0  # atno 17342 bound_to 10162
  139.6284  144.0768  152.2455 LP  0  0  0  0  0  0  0  0  0  0  0  0  # atno 17343 bound_to 10162
  155.9778  130.4059  150.3690 LP  0  0  0  0  0  0  0  0  0  0  0  0  # atno 17370 bound_to 10713
  157.1795  131.0388  151.2755 LP  0  0  0  0  0  0  0  0  0  0  0  0  # atno 17371 bound_to 10713
  141.1722  133.6538  156.4695 LP  0  0  0  0  0  0  0  0  0  0  0  0  # atno 17394 bound_to 11000
  140.4525  134.6916  157.5046 LP  0  0  0  0  0  0  0  0  0  0  0  0  # atno 17395 bound_to 11000

$$$$
