AV-unprocessed.smi:1433|AV-procd|sdf|5848|dock4
  -GOLD-   22720 5513D 1   1.00000     0.00000
 Structure written by MMmdl.
 45 46  0  0  0  0  0  0  0  0  2 V2000
  151.7969  137.7386  153.6730 C   0  0  0  0  0  0  0  0  0  0  0  0
  151.1996  137.5574  155.0799 C   0  0  1  0  0  0  0  0  0  0  0  0
  149.7537  138.0715  155.2077 C   0  0  0  0  0  0  0  0  0  0  0  0
  148.7847  137.1790  154.5152 N   0  3  2  0  0  0  0  0  0  0  0  0
  147.3873  137.7238  154.5394 C   0  0  1  0  0  0  0  0  0  0  0  0
  147.2451  138.8691  153.5095 C   0  0  0  0  0  0  0  0  0  0  0  0
  146.2872  136.6495  154.3049 C   0  0  0  0  0  0  0  0  0  0  0  0
  146.4012  136.0036  153.0017 N   0  0  0  0  0  0  0  0  0  0  0  0
  145.3692  135.5389  152.2803 C   0  0  0  0  0  0  0  0  0  0  0  0
  144.2049  135.5466  152.6789 O   0  0  0  0  0  0  0  0  0  0  0  0
  145.6995  135.0086  150.8856 C   0  0  0  0  0  0  0  0  0  0  0  0
  145.1698  133.6682  150.7081 N   0  0  0  0  0  0  0  0  0  0  0  0
  145.8642  132.4854  150.5596 C   0  0  0  0  0  0  0  0  0  0  0  0
  144.9425  131.4852  150.4398 C   0  0  0  0  0  0  0  0  0  0  0  0
  143.6944  132.1627  150.5284 C   0  0  0  0  0  0  0  0  0  0  0  0
  143.8331  133.4686  150.6921 N   0  0  0  0  0  0  0  0  0  0  0  0
  148.9460  135.7899  155.0231 C   0  0  0  0  0  0  0  0  0  0  0  0
  150.4016  135.3086  154.8778 C   0  0  2  0  0  0  0  0  0  0  0  0
  150.6078  133.9194  155.4918 C   0  0  0  0  0  0  0  0  0  0  0  0
  151.2797  136.2112  155.5400 O   0  0  0  0  0  0  0  0  0  0  0  0
  151.8478  138.7952  153.4089 H   0  0  0  0  0  0  0  0  0  0  0  0
  151.2066  137.2425  152.9031 H   0  0  0  0  0  0  0  0  0  0  0  0
  152.8106  137.3400  153.6274 H   0  0  0  0  0  0  0  0  0  0  0  0
  151.8192  138.1424  155.7604 H   0  0  0  0  0  0  0  0  0  0  0  0
  149.4858  138.1306  156.2640 H   0  0  0  0  0  0  0  0  0  0  0  0
  149.7094  139.0884  154.8219 H   0  0  0  0  0  0  0  0  0  0  0  0
  147.2207  138.1387  155.5349 H   0  0  0  0  0  0  0  0  0  0  0  0
  146.2505  139.3146  153.5311 H   0  0  0  0  0  0  0  0  0  0  0  0
  147.4211  138.5087  152.4955 H   0  0  0  0  0  0  0  0  0  0  0  0
  147.9382  139.6881  153.6923 H   0  0  0  0  0  0  0  0  0  0  0  0
  146.3475  135.8754  155.0706 H   0  0  0  0  0  0  0  0  0  0  0  0
  145.2867  137.0797  154.3670 H   0  0  0  0  0  0  0  0  0  0  0  0
  147.3239  135.9540  152.5928 H   0  0  0  0  0  0  0  0  0  0  0  0
  145.2884  135.6695  150.1207 H   0  0  0  0  0  0  0  0  0  0  0  0
  146.7806  134.9823  150.7417 H   0  0  0  0  0  0  0  0  0  0  0  0
  146.9439  132.4547  150.5541 H   0  0  0  0  0  0  0  0  0  0  0  0
  145.1309  130.4299  150.3084 H   0  0  0  0  0  0  0  0  0  0  0  0
  142.6987  131.7473  150.4807 H   0  0  0  0  0  0  0  0  0  0  0  0
  148.6289  135.7439  156.0664 H   0  0  0  0  0  0  0  0  0  0  0  0
  148.3240  135.0961  154.4587 H   0  0  0  0  0  0  0  0  0  0  0  0
  150.6631  135.2501  153.8210 H   0  0  0  0  0  0  0  0  0  0  0  0
  149.9635  133.1794  155.0160 H   0  0  0  0  0  0  0  0  0  0  0  0
  150.3831  133.9217  156.5589 H   0  0  0  0  0  0  0  0  0  0  0  0
  151.6394  133.5883  155.3697 H   0  0  0  0  0  0  0  0  0  0  0  0
  149.0559  137.1475  153.5428 H   0  0  0  0  0  0  0  0  0  0  0  0
  1  2  1  0  0  0  0
  1 21  1  0  0  0  0
  1 22  1  0  0  0  0
  1 23  1  0  0  0  0
  2 20  1  0  0  0  0
  2  3  1  0  0  0  0
  2 24  1  0  0  0  0
  3  4  1  0  0  0  0
  3 25  1  0  0  0  0
  3 26  1  0  0  0  0
  4  5  1  0  0  0  0
  4 17  1  0  0  0  0
  4 45  1  0  0  0  0
  5  6  1  0  0  0  0
  5  7  1  0  0  0  0
  5 27  1  0  0  0  0
  6 28  1  0  0  0  0
  6 29  1  0  0  0  0
  6 30  1  0  0  0  0
  7  8  1  0  0  0  0
  7 31  1  0  0  0  0
  7 32  1  0  0  0  0
  8  9  1  0  0  0  0
  8 33  1  0  0  0  0
  9 10  2  0  0  0  0
  9 11  1  0  0  0  0
 11 12  1  0  0  0  0
 11 34  1  0  0  0  0
 11 35  1  0  0  0  0
 12 16  1  0  0  0  0
 12 13  1  0  0  0  0
 13 14  2  0  0  0  0
 13 36  1  0  0  0  0
 14 15  1  0  0  0  0
 14 37  1  0  0  0  0
 15 16  2  0  0  0  0
 15 38  1  0  0  0  0
 17 18  1  0  0  0  0
 17 39  1  0  0  0  0
 17 40  1  0  0  0  0
 18 19  1  0  0  0  0
 18 20  1  0  0  0  0
 18 41  1  0  0  0  0
 19 42  1  0  0  0  0
 19 43  1  0  0  0  0
 19 44  1  0  0  0  0
M  CHG  1   4   1
M  END
> <s_m_source_file>
AV-unprocessed.smi

> <i_m_source_file_index>
1433

> <i_lp_mmshare_version>
43012

> <i_f3d_flags>
0

> <s_epik_input>
W0NIM11bQ0BASF0xW0NIMl1OKFtDSDJdW0NASF0oTzEpW0NIM10pW0NASF0oW0NIM10pW0NIMl1bTkhdQyg9TylbQ0gyXW4yW2NIXVtjSF1bY0hdbjI=

> <s_epik_cmdline>
J2VwaWtfcHl0aG9uJywgJy1waCcsICc3LjAnLCAnLXRuJywgJzgnLCAnLW1hJywgJzIwMCcsICctbWV0YWxfYmluZGluZycsICctaW1hZScsICc8aW5maWxlLm1hZT4nLCAnLW9tYWUnLCAnPG91dGZpbGUubWFlPic=

> <r_lp_tautomer_probability>
1

> <r_epik_Ionization_Penalty>
0.748405

> <r_epik_Ionization_Penalty_Charging>
0.748396

> <r_epik_Ionization_Penalty_Neutral>
8.54426e-06

> <r_epik_State_Penalty>
0.775162

> <r_epik_Charging_Adjusted_Penalty>
1.52356

> <i_epik_Tot_Q>
1

> <i_epik_Tot_abs_Q>
1

> <r_epik_Metal_State_Penalty>
0.775167

> <b_epik_Metal_Only>
0

> <s_lp_Force_Field>
OPLS_2005

> <r_lp_Energy>
21.4141

> <b_lp_Chiralities_Consistent>
1

> <s_lp_Variant>
AV-unprocessed.smi:1433-14

> <Gold.Version>
5.8.1

> <Gold.Id.Protein>
6NUR|6NUR_protein|mol2

> <Gold.PLP.Fitness>
43.8710

> <Gold.PLP.PLP>
-27.3382

> <Gold.PLP.part.hbond>
-3.0000

> <Gold.PLP.part.metal>
0.0000

> <Gold.PLP.part.buried>
-3.3725

> <Gold.PLP.part.nonpolar>
-22.3404

> <Gold.PLP.part.repulsive>
0.3404

> <Gold.PLP.ligand.clash>
0.0000

> <Gold.PLP.ligand.torsion>
0.7232

> <Gold.PLP.Chemscore.Hbond>
4.0000

> <Gold.PLP.Chemscore.CHOScore>
1.9742

> <Gold.PLP.Chemscore.Metal>
0.0000

> <Gold.Chemscore.Hbonds>
donor molecule, donor type, donor heavy atom, donor atom, acceptor molecule, acceptor atom, score
      L1  H     4    45       P1  7948  1.95
      L1  H     8    33       P1  7948  1.00
      P1  H 10752 10764       L1    20  1.00
      L1  C    13    36       P1 10747  0.84
      L1  C    15    38       P1 10952  1.00

> <Gold.PLP.Chemscore.Internal.Correction>
0.0565

> <Gold.Rescore>
     Score         DG    S(hbond)    S(metal)    S(lipo)     H(rot)  DE(clash)    DE(int)     intcor
     15.31     -16.28       1.97        0.00      76.98       1.87       0.13       0.84       ----

> <Gold.Chemscore.Fitness>
15.3137

> <Gold.Chemscore.DG>
-16.2798

> <Gold.Chemscore.ZeroCoef>
-5.4800

> <Gold.Chemscore.Hbond>
1.9669

> <Gold.Chemscore.Metal>
0.0000

> <Gold.Chemscore.Lipo>
76.9786

> <Gold.Chemscore.Internal_Hbond>
0.0000

> <Gold.Chemscore.DEClash>
0.1261

> <Gold.Chemscore.DEInternal>
0.8401

> <Gold.Chemscore.Rot>
1.8657

> <Gold.Chemscore.Internal.Correction>
   9.000000E+99

> <Gold.Chemscore.Hbonds>
donor molecule, donor type, donor heavy atom, donor atom, acceptor molecule, acceptor atom, score
      L1  H     4    45       P1  7948  0.93
      L1  H     8    33       P1  7948  1.00
      P1  H 10752 10764       L1    20  0.14

> <Gold.Chemscore.Hbond.Weighted>
-6.5695

> <Gold.Chemscore.Metal.Weighted>
-0.0000

> <Gold.Chemscore.Lipo.Weighted>
-9.0065

> <Gold.Chemscore.Internal_Hbond.Weighted>
0.0000

> <Gold.Chemscore.DEClash.Weighted>
0.1261

> <Gold.Chemscore.DEInternal.Weighted>
0.8401

> <Gold.Chemscore.Rot.Weighted>
4.7761

> <Gold.Chemscore.Internal.Correction.Weighted>
   9.000000E+99

> <Gold.Protein.RotatedTorsions>
[ 6907 6896 6895 6894 ] final   80.38 input  -60.11 | X-H torsion
[ 7974 7965 7964 7962 ] final  -33.01 input  175.53 | X-H torsion
[ 8008 7997 7996 7995 ] final   88.92 input   59.86 | X-H torsion
[ 10167 10162 10161 10158 ] final  -40.17 input  -65.29 | X-H torsion
[ 10718 10713 10712 10709 ] final  169.96 input   66.30 | X-H torsion
[ 10763 10752 10751 10750 ] final  -39.28 input  -60.55 | X-H torsion
[ 11005 11000 10999 10996 ] final  102.98 input  -57.11 | X-H torsion

> <Gold.Protein.ActiveResidues>
 VAL166  LYS551  ARG553  GLY616  TRP617  ASP618  TYR619  PRO620  LYS621  CYS622 
 ASP623  PHE694  ASN695  SER759  ASP760  ASP761  ALA762  ILE779  LEU786  VAL792 
 PHE793  MET794  SER795  GLU796  ALA797  LYS798  CYS799  TRP800  GLU811  SER814 

> <Gold.Protein.RotatedAtoms>
  152.5233  134.3366  159.9201 H   0  0  0  0  0  0  0  0  0  0  0  0  # atno 6907 bound_to 6896
  151.3315  133.3992  159.2671 H   0  0  0  0  0  0  0  0  0  0  0  0  # atno 6908 bound_to 6896
  150.9876  134.9236  159.7939 H   0  0  0  0  0  0  0  0  0  0  0  0  # atno 6909 bound_to 6896
  146.0945  140.5863  142.8849 H   0  0  0  0  0  0  0  0  0  0  0  0  # atno 7974 bound_to 7965
  155.9936  140.3366  155.6777 H   0  0  0  0  0  0  0  0  0  0  0  0  # atno 8008 bound_to 7997
  155.6386  140.0693  157.2644 H   0  0  0  0  0  0  0  0  0  0  0  0  # atno 8009 bound_to 7997
  154.4227  140.1746  156.1537 H   0  0  0  0  0  0  0  0  0  0  0  0  # atno 8010 bound_to 7997
  140.7042  143.3169  151.2886 H   0  0  0  0  0  0  0  0  0  0  0  0  # atno 10167 bound_to 10162
  157.0150  131.0215  151.2792 H   0  0  0  0  0  0  0  0  0  0  0  0  # atno 10718 bound_to 10713
  153.9268  135.6776  153.4746 H   0  0  0  0  0  0  0  0  0  0  0  0  # atno 10763 bound_to 10752
  153.1000  135.4832  154.8847 H   0  0  0  0  0  0  0  0  0  0  0  0  # atno 10764 bound_to 10752
  154.7449  135.3170  154.8619 H   0  0  0  0  0  0  0  0  0  0  0  0  # atno 10765 bound_to 10752
  139.8781  134.9245  156.5140 H   0  0  0  0  0  0  0  0  0  0  0  0  # atno 11005 bound_to 11000
  144.7384  140.4875  143.6886 LP  0  0  0  0  0  0  0  0  0  0  0  0  # atno 17320 bound_to 7965
  145.5976  139.1501  143.3147 LP  0  0  0  0  0  0  0  0  0  0  0  0  # atno 17321 bound_to 7965
  139.6611  144.0188  152.2693 LP  0  0  0  0  0  0  0  0  0  0  0  0  # atno 17342 bound_to 10162
  139.9755  144.6464  150.7949 LP  0  0  0  0  0  0  0  0  0  0  0  0  # atno 17343 bound_to 10162
  157.5292  130.8047  149.7897 LP  0  0  0  0  0  0  0  0  0  0  0  0  # atno 17370 bound_to 10713
  156.0122  130.3828  150.2226 LP  0  0  0  0  0  0  0  0  0  0  0  0  # atno 17371 bound_to 10713
  140.8499  133.8140  155.9158 LP  0  0  0  0  0  0  0  0  0  0  0  0  # atno 17394 bound_to 11000
  140.9154  134.2208  157.4960 LP  0  0  0  0  0  0  0  0  0  0  0  0  # atno 17395 bound_to 11000

$$$$
