AV-unprocessed.smi:2457|AV-procd|sdf|9706|dock1
  -GOLD-   2272013343D 1   1.00000     0.00000
 Structure written by MMmdl.
 40 41  0  0  0  0  0  0  0  0  1 V2000
  145.1041  142.5033  157.6579 C   0  0  0  0  0  0  0  0  0  0  0  0
  145.5402  142.6080  156.2307 C   0  0  0  0  0  0  0  0  0  0  0  0
  145.1289  143.5360  155.3068 C   0  0  0  0  0  0  0  0  0  0  0  0
  145.8873  143.2905  153.7579 S   0  0  0  0  0  0  0  0  0  0  0  0
  146.7487  141.9107  154.4321 C   0  0  0  0  0  0  0  0  0  0  0  0
  147.7200  141.0864  153.6424 C   0  0  2  0  0  0  0  0  0  0  0  0
  147.1108  139.7538  153.1844 C   0  0  0  0  0  0  0  0  0  0  0  0
  149.0850  140.9141  154.3464 C   0  0  0  0  0  0  0  0  0  0  0  0
  149.3858  141.9964  155.2799 N   0  0  0  0  0  0  0  0  0  0  0  0
  150.3524  141.9643  156.2069 C   0  0  0  0  0  0  0  0  0  0  0  0
  151.0805  140.9928  156.4102 O   0  0  0  0  0  0  0  0  0  0  0  0
  150.4454  143.1260  156.8681 N   0  0  0  0  0  0  0  0  0  0  0  0
  151.4349  143.4302  157.8974 C   0  0  1  0  0  0  0  0  0  0  0  0
  151.0988  144.7754  158.5747 C   0  0  0  0  0  0  0  0  0  0  0  0
  152.1393  145.1798  159.6313 C   0  0  0  0  0  0  0  0  0  0  0  0
  152.2418  144.1575  160.7720 C   0  0  0  0  0  0  0  0  0  0  0  0
  152.7783  142.5384  160.1563 S   0  0  0  0  0  0  0  0  0  0  0  0
  151.4836  142.2758  158.9127 C   0  0  0  0  0  0  0  0  0  0  0  0
  146.4655  141.6937  155.7202 N   0  0  0  0  0  0  0  0  0  0  0  0
  144.3544  143.2561  157.9027 H   0  0  0  0  0  0  0  0  0  0  0  0
  145.9452  142.6423  158.3374 H   0  0  0  0  0  0  0  0  0  0  0  0
  144.6682  141.5257  157.8657 H   0  0  0  0  0  0  0  0  0  0  0  0
  144.4276  144.3459  155.4420 H   0  0  0  0  0  0  0  0  0  0  0  0
  147.9119  141.6494  152.7283 H   0  0  0  0  0  0  0  0  0  0  0  0
  146.2019  139.9169  152.6046 H   0  0  0  0  0  0  0  0  0  0  0  0
  146.8553  139.1212  154.0351 H   0  0  0  0  0  0  0  0  0  0  0  0
  147.8083  139.1995  152.5562 H   0  0  0  0  0  0  0  0  0  0  0  0
  149.0835  139.9865  154.9195 H   0  0  0  0  0  0  0  0  0  0  0  0
  149.8867  140.8215  153.6119 H   0  0  0  0  0  0  0  0  0  0  0  0
  148.8409  142.8413  155.1875 H   0  0  0  0  0  0  0  0  0  0  0  0
  149.8004  143.8638  156.6259 H   0  0  0  0  0  0  0  0  0  0  0  0
  152.4171  143.5061  157.4268 H   0  0  0  0  0  0  0  0  0  0  0  0
  151.0414  145.5624  157.8216 H   0  0  0  0  0  0  0  0  0  0  0  0
  150.1110  144.7236  159.0347 H   0  0  0  0  0  0  0  0  0  0  0  0
  153.1148  145.3055  159.1599 H   0  0  0  0  0  0  0  0  0  0  0  0
  151.8720  146.1530  160.0442 H   0  0  0  0  0  0  0  0  0  0  0  0
  152.9552  144.4997  161.5219 H   0  0  0  0  0  0  0  0  0  0  0  0
  151.2792  144.0474  161.2725 H   0  0  0  0  0  0  0  0  0  0  0  0
  150.5237  142.1684  159.4195 H   0  0  0  0  0  0  0  0  0  0  0  0
  151.6851  141.3318  158.4052 H   0  0  0  0  0  0  0  0  0  0  0  0
  1  2  1  0  0  0  0
  1 20  1  0  0  0  0
  1 21  1  0  0  0  0
  1 22  1  0  0  0  0
  2 19  1  0  0  0  0
  2  3  2  0  0  0  0
  3  4  1  0  0  0  0
  3 23  1  0  0  0  0
  4  5  1  0  0  0  0
  5  6  1  0  0  0  0
  5 19  2  0  0  0  0
  6  7  1  0  0  0  0
  6  8  1  0  0  0  0
  6 24  1  0  0  0  0
  7 25  1  0  0  0  0
  7 26  1  0  0  0  0
  7 27  1  0  0  0  0
  8  9  1  0  0  0  0
  8 28  1  0  0  0  0
  8 29  1  0  0  0  0
  9 10  1  0  0  0  0
  9 30  1  0  0  0  0
 10 11  2  0  0  0  0
 10 12  1  0  0  0  0
 12 13  1  0  0  0  0
 12 31  1  0  0  0  0
 13 18  1  0  0  0  0
 13 14  1  0  0  0  0
 13 32  1  0  0  0  0
 14 15  1  0  0  0  0
 14 33  1  0  0  0  0
 14 34  1  0  0  0  0
 15 16  1  0  0  0  0
 15 35  1  0  0  0  0
 15 36  1  0  0  0  0
 16 17  1  0  0  0  0
 16 37  1  0  0  0  0
 16 38  1  0  0  0  0
 17 18  1  0  0  0  0
 18 39  1  0  0  0  0
 18 40  1  0  0  0  0
M  END
> <s_m_source_file>
AV-unprocessed.smi

> <i_m_source_file_index>
2457

> <i_lp_mmshare_version>
43012

> <i_f3d_flags>
0

> <s_epik_input>
W0NIM11jMVtjSF1zYyhuMSlbQ0BIXShbQ0gzXSlbQ0gyXVtOSF1DKD1PKVtOSF1bQ0BASF0yW0NIMl1bQ0gyXVtDSDJdU1tDSDJdMg==

> <s_epik_cmdline>
J2VwaWtfcHl0aG9uJywgJy1waCcsICc3LjAnLCAnLXRuJywgJzgnLCAnLW1hJywgJzIwMCcsICctbWV0YWxfYmluZGluZycsICctaW1hZScsICc8aW5maWxlLm1hZT4nLCAnLW9tYWUnLCAnPG91dGZpbGUubWFlPic=

> <r_epik_Ionization_Penalty>
0.00154805

> <r_epik_Ionization_Penalty_Charging>
0

> <r_epik_Ionization_Penalty_Neutral>
0.00154805

> <r_epik_State_Penalty>
0.00100357

> <r_epik_Charging_Adjusted_Penalty>
0.00100357

> <i_epik_Tot_Q>
0

> <i_epik_Tot_abs_Q>
0

> <r_epik_Metal_State_Penalty>
-0

> <b_epik_Metal_Only>
0

> <s_lp_Force_Field>
OPLS_2005

> <r_lp_Energy>
-7.39809

> <b_lp_Chiralities_Consistent>
1

> <s_lp_Variant>
AV-unprocessed.smi:2457-3

> <Gold.Version>
5.8.1

> <Gold.Id.Protein>
6NUR|6NUR_protein|mol2

> <Gold.PLP.Fitness>
49.1375

> <Gold.PLP.PLP>
-45.2312

> <Gold.PLP.part.hbond>
-1.9569

> <Gold.PLP.part.metal>
0.0000

> <Gold.PLP.part.buried>
-6.8188

> <Gold.PLP.part.nonpolar>
-37.8869

> <Gold.PLP.part.repulsive>
0.3515

> <Gold.PLP.ligand.clash>
0.0000

> <Gold.PLP.ligand.torsion>
0.8919

> <Gold.PLP.Chemscore.Hbond>
1.8480

> <Gold.PLP.Chemscore.CHOScore>
0.0000

> <Gold.PLP.Chemscore.Metal>
0.0000

> <Gold.Chemscore.Hbonds>
donor molecule, donor type, donor heavy atom, donor atom, acceptor molecule, acceptor atom, score
      L1  H     9    30       P1  8028  0.83
      L1  H    12    31       P1  8028  1.00

> <Gold.PLP.Chemscore.Internal.Correction>
0.1461

> <Gold.Rescore>
     Score         DG    S(hbond)    S(metal)    S(lipo)     H(rot)  DE(clash)    DE(int)     intcor
     19.11     -21.23       1.86        0.00     113.49       1.46       0.09       2.04       ----

> <Gold.Chemscore.Fitness>
19.1056

> <Gold.Chemscore.DG>
-21.2277

> <Gold.Chemscore.ZeroCoef>
-5.4800

> <Gold.Chemscore.Hbond>
1.8595

> <Gold.Chemscore.Metal>
0.0000

> <Gold.Chemscore.Lipo>
113.4927

> <Gold.Chemscore.Internal_Hbond>
0.0000

> <Gold.Chemscore.DEClash>
0.0858

> <Gold.Chemscore.DEInternal>
2.0362

> <Gold.Chemscore.Rot>
1.4616

> <Gold.Chemscore.Internal.Correction>
   9.000000E+99

> <Gold.Chemscore.Hbonds>
donor molecule, donor type, donor heavy atom, donor atom, acceptor molecule, acceptor atom, score
      L1  H     9    30       P1  8028  0.83
      L1  H    12    31       P1  8028  0.95

> <Gold.Chemscore.Hbond.Weighted>
-6.2106

> <Gold.Chemscore.Metal.Weighted>
-0.0000

> <Gold.Chemscore.Lipo.Weighted>
-13.2786

> <Gold.Chemscore.Internal_Hbond.Weighted>
0.0000

> <Gold.Chemscore.DEClash.Weighted>
0.0858

> <Gold.Chemscore.DEInternal.Weighted>
2.0362

> <Gold.Chemscore.Rot.Weighted>
3.7416

> <Gold.Chemscore.Internal.Correction.Weighted>
   9.000000E+99

> <Gold.Protein.RotatedTorsions>
[ 6907 6896 6895 6894 ] final  113.45 input  -60.11 | X-H torsion
[ 7974 7965 7964 7962 ] final  158.86 input  175.53 | X-H torsion
[ 8008 7997 7996 7995 ] final -133.79 input   59.86 | X-H torsion
[ 10167 10162 10161 10158 ] final   64.97 input  -65.29 | X-H torsion
[ 10718 10713 10712 10709 ] final   -8.66 input   66.30 | X-H torsion
[ 10763 10752 10751 10750 ] final   -7.78 input  -60.55 | X-H torsion
[ 11005 11000 10999 10996 ] final  -19.00 input  -57.11 | X-H torsion

> <Gold.Protein.ActiveResidues>
 VAL166  LYS551  ARG553  GLY616  TRP617  ASP618  TYR619  PRO620  LYS621  CYS622 
 ASP623  PHE694  ASN695  SER759  ASP760  ASP761  ALA762  ILE779  LEU786  VAL792 
 PHE793  MET794  SER795  GLU796  ALA797  LYS798  CYS799  TRP800  GLU811  SER814 

> <Gold.Protein.RotatedAtoms>
  152.4860  133.8373  159.7134 H   0  0  0  0  0  0  0  0  0  0  0  0  # atno 6907 bound_to 6896
  150.8946  133.7188  159.2902 H   0  0  0  0  0  0  0  0  0  0  0  0  # atno 6908 bound_to 6896
  151.4649  135.1045  159.9787 H   0  0  0  0  0  0  0  0  0  0  0  0  # atno 6909 bound_to 6896
  144.7822  139.7536  143.6255 H   0  0  0  0  0  0  0  0  0  0  0  0  # atno 7974 bound_to 7965
  155.3514  140.0477  157.3046 H   0  0  0  0  0  0  0  0  0  0  0  0  # atno 8008 bound_to 7997
  154.5225  140.2230  155.8913 H   0  0  0  0  0  0  0  0  0  0  0  0  # atno 8009 bound_to 7997
  156.1705  140.3097  155.8971 H   0  0  0  0  0  0  0  0  0  0  0  0  # atno 8010 bound_to 7997
  140.1164  144.4771  150.6947 H   0  0  0  0  0  0  0  0  0  0  0  0  # atno 10167 bound_to 10162
  156.6993  130.5088  149.5921 H   0  0  0  0  0  0  0  0  0  0  0  0  # atno 10718 bound_to 10713
  153.4312  135.7012  153.6229 H   0  0  0  0  0  0  0  0  0  0  0  0  # atno 10763 bound_to 10752
  153.4643  135.3729  155.2356 H   0  0  0  0  0  0  0  0  0  0  0  0  # atno 10764 bound_to 10752
  154.8725  135.4027  154.3696 H   0  0  0  0  0  0  0  0  0  0  0  0  # atno 10765 bound_to 10752
  140.8324  133.7987  155.9772 H   0  0  0  0  0  0  0  0  0  0  0  0  # atno 11005 bound_to 11000
  146.2036  139.5346  142.9727 LP  0  0  0  0  0  0  0  0  0  0  0  0  # atno 17320 bound_to 7965
  145.6018  141.0354  143.2014 LP  0  0  0  0  0  0  0  0  0  0  0  0  # atno 17321 bound_to 7965
  140.6897  143.2369  151.5165 LP  0  0  0  0  0  0  0  0  0  0  0  0  # atno 17342 bound_to 10162
  139.5592  144.2199  152.1663 LP  0  0  0  0  0  0  0  0  0  0  0  0  # atno 17343 bound_to 10162
  156.1740  130.6456  151.0872 LP  0  0  0  0  0  0  0  0  0  0  0  0  # atno 17370 bound_to 10713
  157.6979  131.0787  150.6912 LP  0  0  0  0  0  0  0  0  0  0  0  0  # atno 17371 bound_to 10713
  140.8984  134.2409  157.5055 LP  0  0  0  0  0  0  0  0  0  0  0  0  # atno 17394 bound_to 11000
  139.8704  134.9695  156.4668 LP  0  0  0  0  0  0  0  0  0  0  0  0  # atno 17395 bound_to 11000

$$$$
