AV-unprocessed.smi:629|AV-procd|sdf|3116|dock6
  -GOLD-   22720 0 43D 1   1.00000     0.00000
 Structure written by MMmdl.
 31 32  0  0  0  0  0  0  0  0  1 V2000
  145.9579  142.8288  155.7889 C   0  0  0  0  0  0  0  0  0  0  0  0
  147.2944  142.6085  155.2593 N   0  0  0  0  0  0  0  0  0  0  0  0
  147.6268  141.5960  154.4441 C   0  0  0  0  0  0  0  0  0  0  0  0
  146.8208  140.7516  154.0533 O   0  0  0  0  0  0  0  0  0  0  0  0
  149.0869  141.5281  153.9902 C   0  0  0  0  0  0  0  0  0  0  0  0
  149.9930  141.2418  155.1454 C   0  0  0  0  0  0  0  0  0  0  0  0
  151.0192  140.4067  155.0264 N   0  0  0  0  0  0  0  0  0  0  0  0
  151.6029  140.4262  156.3011 O   0  0  0  0  0  0  0  0  0  0  0  0
  150.8369  141.2591  157.0456 C   0  0  0  0  0  0  0  0  0  0  0  0
  151.2334  141.5362  158.4579 C   0  0  0  0  0  0  0  0  0  0  0  0
  152.2337  142.7005  158.5801 C   0  0  1  0  0  0  0  0  0  0  0  0
  151.7963  143.9283  157.8216 C   0  0  0  0  0  0  0  0  0  0  0  0
  151.7813  145.0248  158.5760 C   0  0  0  0  0  0  0  0  0  0  0  0
  152.2025  144.7526  159.9928 C   0  0  0  0  0  0  0  0  0  0  0  0
  152.3889  143.2197  160.0336 C   0  0  0  0  0  0  0  0  0  0  0  0
  149.8266  141.8055  156.3741 N   0  0  0  0  0  0  0  0  0  0  0  0
  145.9624  143.6849  156.4632 H   0  0  0  0  0  0  0  0  0  0  0  0
  145.6109  141.9577  156.3463 H   0  0  0  0  0  0  0  0  0  0  0  0
  145.2510  143.0322  154.9837 H   0  0  0  0  0  0  0  0  0  0  0  0
  148.0145  143.2608  155.5350 H   0  0  0  0  0  0  0  0  0  0  0  0
  149.2043  140.7486  153.2359 H   0  0  0  0  0  0  0  0  0  0  0  0
  149.3688  142.4703  153.5183 H   0  0  0  0  0  0  0  0  0  0  0  0
  150.3412  141.7224  159.0577 H   0  0  0  0  0  0  0  0  0  0  0  0
  151.6833  140.6241  158.8521 H   0  0  0  0  0  0  0  0  0  0  0  0
  153.2131  142.3933  158.2097 H   0  0  0  0  0  0  0  0  0  0  0  0
  151.5430  143.8947  156.7720 H   0  0  0  0  0  0  0  0  0  0  0  0
  151.5138  146.0136  158.2335 H   0  0  0  0  0  0  0  0  0  0  0  0
  153.1324  145.2786  160.2100 H   0  0  0  0  0  0  0  0  0  0  0  0
  151.4384  145.0879  160.6945 H   0  0  0  0  0  0  0  0  0  0  0  0
  151.6318  142.7817  160.6852 H   0  0  0  0  0  0  0  0  0  0  0  0
  153.3602  142.9493  160.4497 H   0  0  0  0  0  0  0  0  0  0  0  0
  1  2  1  0  0  0  0
  1 17  1  0  0  0  0
  1 18  1  0  0  0  0
  1 19  1  0  0  0  0
  2  3  1  0  0  0  0
  2 20  1  0  0  0  0
  3  4  2  0  0  0  0
  3  5  1  0  0  0  0
  5  6  1  0  0  0  0
  5 21  1  0  0  0  0
  5 22  1  0  0  0  0
  6 16  1  0  0  0  0
  6  7  2  0  0  0  0
  7  8  1  0  0  0  0
  8  9  1  0  0  0  0
  9 10  1  0  0  0  0
  9 16  2  0  0  0  0
 10 11  1  0  0  0  0
 10 23  1  0  0  0  0
 10 24  1  0  0  0  0
 11 15  1  0  0  0  0
 11 12  1  0  0  0  0
 11 25  1  0  0  0  0
 12 13  2  0  0  0  0
 12 26  1  0  0  0  0
 13 14  1  0  0  0  0
 13 27  1  0  0  0  0
 14 15  1  0  0  0  0
 14 28  1  0  0  0  0
 14 29  1  0  0  0  0
 15 30  1  0  0  0  0
 15 31  1  0  0  0  0
M  END
> <s_m_source_file>
AV-unprocessed.smi

> <i_m_source_file_index>
629

> <i_lp_mmshare_version>
43012

> <i_f3d_flags>
0

> <s_epik_input>
W0NIM11bTkhdQyg9TylbQ0gyXWMxbm9jKG4xKVtDSDJdW0NAQEhdMltDSF09W0NIXVtDSDJdW0NIMl0y

> <s_epik_cmdline>
J2VwaWtfcHl0aG9uJywgJy1waCcsICc3LjAnLCAnLXRuJywgJzgnLCAnLW1hJywgJzIwMCcsICctbWV0YWxfYmluZGluZycsICctaW1hZScsICc8aW5maWxlLm1hZT4nLCAnLW9tYWUnLCAnPG91dGZpbGUubWFlPic=

> <r_lp_tautomer_probability>
1

> <r_epik_Ionization_Penalty>
1.02915e-07

> <r_epik_Ionization_Penalty_Charging>
0

> <r_epik_Ionization_Penalty_Neutral>
1.02915e-07

> <r_epik_State_Penalty>
-0

> <r_epik_Charging_Adjusted_Penalty>
0

> <i_epik_Tot_Q>
0

> <i_epik_Tot_abs_Q>
0

> <r_epik_Metal_State_Penalty>
-0

> <b_epik_Metal_Only>
0

> <s_lp_Force_Field>
OPLS_2005

> <r_lp_Energy>
15.6904

> <b_lp_Chiralities_Consistent>
1

> <s_lp_Variant>
AV-unprocessed.smi:629-2

> <Gold.Version>
5.8.1

> <Gold.Id.Protein>
6NUR|6NUR_protein|mol2

> <Gold.PLP.Fitness>
39.9574

> <Gold.PLP.PLP>
-35.4488

> <Gold.PLP.part.hbond>
-2.0000

> <Gold.PLP.part.metal>
0.0000

> <Gold.PLP.part.buried>
-4.5165

> <Gold.PLP.part.nonpolar>
-29.4614

> <Gold.PLP.part.repulsive>
0.3265

> <Gold.PLP.ligand.clash>
0.0000

> <Gold.PLP.ligand.torsion>
0.7556

> <Gold.PLP.Chemscore.Hbond>
2.0000

> <Gold.PLP.Chemscore.CHOScore>
0.0000

> <Gold.PLP.Chemscore.Metal>
0.0000

> <Gold.Chemscore.Hbonds>
donor molecule, donor type, donor heavy atom, donor atom, acceptor molecule, acceptor atom, score
      L1  H     2    20       P1  8028  1.00
      P1  H  7989  7998       L1     7  1.00

> <Gold.PLP.Chemscore.Internal.Correction>
0.0200

> <Gold.Rescore>
     Score         DG    S(hbond)    S(metal)    S(lipo)     H(rot)  DE(clash)    DE(int)     intcor
     11.53     -13.75       1.08        0.00      81.08       1.89       0.17       2.05       ----

> <Gold.Chemscore.Fitness>
11.5287

> <Gold.Chemscore.DG>
-13.7523

> <Gold.Chemscore.ZeroCoef>
-5.4800

> <Gold.Chemscore.Hbond>
1.0834

> <Gold.Chemscore.Metal>
0.0000

> <Gold.Chemscore.Lipo>
81.0784

> <Gold.Chemscore.Internal_Hbond>
0.0000

> <Gold.Chemscore.DEClash>
0.1710

> <Gold.Chemscore.DEInternal>
2.0526

> <Gold.Chemscore.Rot>
1.8877

> <Gold.Chemscore.Internal.Correction>
   9.000000E+99

> <Gold.Chemscore.Hbonds>
donor molecule, donor type, donor heavy atom, donor atom, acceptor molecule, acceptor atom, score
      L1  H     2    20       P1  8028  0.69
      P1  H  7989  7998       L1     7  0.29

> <Gold.Chemscore.Hbond.Weighted>
-3.6186

> <Gold.Chemscore.Metal.Weighted>
-0.0000

> <Gold.Chemscore.Lipo.Weighted>
-9.4862

> <Gold.Chemscore.Internal_Hbond.Weighted>
0.0000

> <Gold.Chemscore.DEClash.Weighted>
0.1710

> <Gold.Chemscore.DEInternal.Weighted>
2.0526

> <Gold.Chemscore.Rot.Weighted>
4.8325

> <Gold.Chemscore.Internal.Correction.Weighted>
   9.000000E+99

> <Gold.Protein.RotatedTorsions>
[ 6907 6896 6895 6894 ] final  141.44 input  -60.11 | X-H torsion
[ 7974 7965 7964 7962 ] final    6.99 input  175.53 | X-H torsion
[ 8008 7997 7996 7995 ] final  127.61 input   59.86 | X-H torsion
[ 10167 10162 10161 10158 ] final  126.21 input  -65.29 | X-H torsion
[ 10718 10713 10712 10709 ] final   71.85 input   66.30 | X-H torsion
[ 10763 10752 10751 10750 ] final -124.79 input  -60.55 | X-H torsion
[ 11005 11000 10999 10996 ] final   59.83 input  -57.11 | X-H torsion

> <Gold.Protein.ActiveResidues>
 VAL166  LYS551  ARG553  GLY616  TRP617  ASP618  TYR619  PRO620  LYS621  CYS622 
 ASP623  PHE694  ASN695  SER759  ASP760  ASP761  ALA762  ILE779  LEU786  VAL792 
 PHE793  MET794  SER795  GLU796  ALA797  LYS798  CYS799  TRP800  GLU811  SER814 

> <Gold.Protein.RotatedAtoms>
  152.2310  133.5058  159.5215 H   0  0  0  0  0  0  0  0  0  0  0  0  # atno 6907 bound_to 6896
  150.7037  134.1217  159.4046 H   0  0  0  0  0  0  0  0  0  0  0  0  # atno 6908 bound_to 6896
  151.9138  135.0327  160.0567 H   0  0  0  0  0  0  0  0  0  0  0  0  # atno 6909 bound_to 6896
  146.2430  140.0150  142.8403 H   0  0  0  0  0  0  0  0  0  0  0  0  # atno 7974 bound_to 7965
  156.2895  140.2664  156.2301 H   0  0  0  0  0  0  0  0  0  0  0  0  # atno 8008 bound_to 7997
  155.0081  140.0387  157.2406 H   0  0  0  0  0  0  0  0  0  0  0  0  # atno 8009 bound_to 7997
  154.7542  140.2749  155.6272 H   0  0  0  0  0  0  0  0  0  0  0  0  # atno 8010 bound_to 7997
  139.5643  144.6902  151.3953 H   0  0  0  0  0  0  0  0  0  0  0  0  # atno 10167 bound_to 10162
  157.6472  130.9549  150.0847 H   0  0  0  0  0  0  0  0  0  0  0  0  # atno 10718 bound_to 10713
  154.8728  135.4051  154.3164 H   0  0  0  0  0  0  0  0  0  0  0  0  # atno 10763 bound_to 10752
  153.3999  135.7017  153.6439 H   0  0  0  0  0  0  0  0  0  0  0  0  # atno 10764 bound_to 10752
  153.5186  135.3692  155.2592 H   0  0  0  0  0  0  0  0  0  0  0  0  # atno 10765 bound_to 10752
  140.0275  134.6061  155.9553 H   0  0  0  0  0  0  0  0  0  0  0  0  # atno 11005 bound_to 11000
  145.1293  140.9508  143.4554 LP  0  0  0  0  0  0  0  0  0  0  0  0  # atno 17320 bound_to 7965
  145.0404  139.3265  143.5980 LP  0  0  0  0  0  0  0  0  0  0  0  0  # atno 17321 bound_to 7965
  140.6926  143.7825  150.7278 LP  0  0  0  0  0  0  0  0  0  0  0  0  # atno 17342 bound_to 10162
  140.1312  143.4524  152.2253 LP  0  0  0  0  0  0  0  0  0  0  0  0  # atno 17343 bound_to 10162
  156.1813  130.3650  149.9031 LP  0  0  0  0  0  0  0  0  0  0  0  0  # atno 17370 bound_to 10713
  156.6983  130.8923  151.3596 LP  0  0  0  0  0  0  0  0  0  0  0  0  # atno 17371 bound_to 10713
  141.1811  133.6547  156.5025 LP  0  0  0  0  0  0  0  0  0  0  0  0  # atno 17394 bound_to 11000
  140.4282  134.7126  157.4927 LP  0  0  0  0  0  0  0  0  0  0  0  0  # atno 17395 bound_to 11000

$$$$
