AV-unprocessed.smi:2021|AV-procd|sdf|8186|dock3
  -GOLD-   2272010443D 1   1.00000     0.00000
 Structure written by MMmdl.
 40 41  0  0  0  0  0  0  0  0  2 V2000
  152.4774  144.2652  158.3190 C   0  0  0  0  0  0  0  0  0  0  0  0
  151.5983  143.5997  159.3917 C   0  0  0  0  0  0  0  0  0  0  0  0
  152.1403  143.9310  160.7909 C   0  0  0  0  0  0  0  0  0  0  0  0
  151.4969  142.0703  159.1846 C   0  0  0  0  0  0  0  0  0  0  0  0
  150.9588  141.6425  157.8926 N   0  0  0  0  0  0  0  0  0  0  0  0
  149.8474  142.4945  157.4848 C   0  0  0  0  0  0  0  0  0  0  0  0
  149.2627  142.0673  156.1289 C   0  0  0  0  0  0  0  0  0  0  0  0
  148.8578  140.7050  156.1990 O   0  0  0  0  0  0  0  0  0  0  0  0
  149.9270  139.8234  156.5351 C   0  0  2  0  0  0  0  0  0  0  0  0
  149.3868  138.3869  156.5729 C   0  0  0  0  0  0  0  0  0  0  0  0
  148.6392  138.1468  157.8004 N   0  0  0  0  0  0  0  0  0  0  0  0
  148.5848  136.9784  158.4527 C   0  0  0  0  0  0  0  0  0  0  0  0
  149.2030  136.0040  158.0177 O   0  0  0  0  0  0  0  0  0  0  0  0
  147.8197  137.0104  159.5678 N   0  5  0  0  0  0  0  0  0  0  0  0
  147.3190  135.8703  160.0719 C   0  0  0  0  0  0  0  0  0  0  0  0
  147.1075  134.7815  159.3148 N   0  0  0  0  0  0  0  0  0  0  0  0
  146.5812  133.7135  160.0289 N   0  0  0  0  0  0  0  0  0  0  0  0
  146.4002  134.0289  161.3110 C   0  0  0  0  0  0  0  0  0  0  0  0
  146.8526  135.6593  161.7620 S   0  0  0  0  0  0  0  0  0  0  0  0
  150.5137  140.2509  157.8957 C   0  0  0  0  0  0  0  0  0  0  0  0
  153.5040  143.9010  158.3684 H   0  0  0  0  0  0  0  0  0  0  0  0
  152.5043  145.3470  158.4512 H   0  0  0  0  0  0  0  0  0  0  0  0
  152.1091  144.0702  157.3127 H   0  0  0  0  0  0  0  0  0  0  0  0
  150.5983  144.0318  159.3323 H   0  0  0  0  0  0  0  0  0  0  0  0
  153.1415  143.5241  160.9355 H   0  0  0  0  0  0  0  0  0  0  0  0
  151.4965  143.5193  161.5687 H   0  0  0  0  0  0  0  0  0  0  0  0
  152.1927  145.0085  160.9482 H   0  0  0  0  0  0  0  0  0  0  0  0
  152.4670  141.6027  159.3597 H   0  0  0  0  0  0  0  0  0  0  0  0
  150.8455  141.6693  159.9625 H   0  0  0  0  0  0  0  0  0  0  0  0
  149.0609  142.4636  158.2404 H   0  0  0  0  0  0  0  0  0  0  0  0
  150.1785  143.5317  157.4221 H   0  0  0  0  0  0  0  0  0  0  0  0
  148.3995  142.6834  155.8766 H   0  0  0  0  0  0  0  0  0  0  0  0
  149.9957  142.1978  155.3313 H   0  0  0  0  0  0  0  0  0  0  0  0
  150.7035  139.8938  155.7708 H   0  0  0  0  0  0  0  0  0  0  0  0
  148.7268  138.2168  155.7208 H   0  0  0  0  0  0  0  0  0  0  0  0
  150.2068  137.6715  156.4942 H   0  0  0  0  0  0  0  0  0  0  0  0
  148.1250  138.9254  158.1859 H   0  0  0  0  0  0  0  0  0  0  0  0
  145.9942  133.2984  161.9946 H   0  0  0  0  0  0  0  0  0  0  0  0
  151.3500  139.5932  158.1300 H   0  0  0  0  0  0  0  0  0  0  0  0
  149.7674  140.1034  158.6779 H   0  0  0  0  0  0  0  0  0  0  0  0
  1  2  1  0  0  0  0
  1 21  1  0  0  0  0
  1 22  1  0  0  0  0
  1 23  1  0  0  0  0
  2  3  1  0  0  0  0
  2  4  1  0  0  0  0
  2 24  1  0  0  0  0
  3 25  1  0  0  0  0
  3 26  1  0  0  0  0
  3 27  1  0  0  0  0
  4  5  1  0  0  0  0
  4 28  1  0  0  0  0
  4 29  1  0  0  0  0
  5 20  1  0  0  0  0
  5  6  1  0  0  0  0
  6  7  1  0  0  0  0
  6 30  1  0  0  0  0
  6 31  1  0  0  0  0
  7  8  1  0  0  0  0
  7 32  1  0  0  0  0
  7 33  1  0  0  0  0
  8  9  1  0  0  0  0
  9 10  1  0  0  0  0
  9 20  1  0  0  0  0
  9 34  1  0  0  0  0
 10 11  1  0  0  0  0
 10 35  1  0  0  0  0
 10 36  1  0  0  0  0
 11 12  1  0  0  0  0
 11 37  1  0  0  0  0
 12 13  2  0  0  0  0
 12 14  1  0  0  0  0
 14 15  1  0  0  0  0
 15 19  1  0  0  0  0
 15 16  2  0  0  0  0
 16 17  1  0  0  0  0
 17 18  2  0  0  0  0
 18 19  1  0  0  0  0
 18 38  1  0  0  0  0
 20 39  1  0  0  0  0
 20 40  1  0  0  0  0
M  CHG  1  14  -1
M  END
> <s_m_source_file>
AV-unprocessed.smi

> <i_m_source_file_index>
2021

> <i_lp_mmshare_version>
43012

> <i_f3d_flags>
0

> <s_epik_input>
W0NIM11bQ0hdKFtDSDNdKVtDSDJdTjFbQ0gyXVtDSDJdT1tDQEhdKFtDSDJdMSlbQ0gyXVtOSF1DKD1PKVtOSF1jMm5uW2NIXXMy

> <s_epik_cmdline>
J2VwaWtfcHl0aG9uJywgJy1waCcsICc3LjAnLCAnLXRuJywgJzgnLCAnLW1hJywgJzIwMCcsICctbWV0YWxfYmluZGluZycsICctaW1hZScsICc8aW5maWxlLm1hZT4nLCAnLW9tYWUnLCAnPG91dGZpbGUubWFlPic=

> <r_lp_tautomer_probability>
1

> <r_epik_Ionization_Penalty>
4.44864

> <r_epik_Ionization_Penalty_Charging>
3.27383

> <r_epik_Ionization_Penalty_Neutral>
1.17482

> <r_epik_State_Penalty>
4.44168

> <r_epik_Charging_Adjusted_Penalty>
7.7155

> <i_epik_Tot_Q>
-1

> <i_epik_Tot_abs_Q>
1

> <r_epik_Metal_State_Penalty>
1.66628

> <b_epik_Metal_Only>
1

> <s_lp_Force_Field>
OPLS_2005

> <r_lp_Energy>
22.4741

> <b_lp_Chiralities_Consistent>
1

> <s_lp_Variant>
AV-unprocessed.smi:2021-12

> <Gold.Version>
5.8.1

> <Gold.Id.Protein>
6NUR|6NUR_protein|mol2

> <Gold.PLP.Fitness>
45.8551

> <Gold.PLP.PLP>
-37.0382

> <Gold.PLP.part.hbond>
-3.0000

> <Gold.PLP.part.metal>
0.0000

> <Gold.PLP.part.buried>
-5.5150

> <Gold.PLP.part.nonpolar>
-30.4837

> <Gold.PLP.part.repulsive>
0.2057

> <Gold.PLP.ligand.clash>
0.0000

> <Gold.PLP.ligand.torsion>
0.7201

> <Gold.PLP.Chemscore.Hbond>
3.3994

> <Gold.PLP.Chemscore.CHOScore>
0.0000

> <Gold.PLP.Chemscore.Metal>
0.0000

> <Gold.PLP.Chemscore.Internal.Correction>
0.0589

> <Gold.Rescore>
     Score         DG    S(hbond)    S(metal)    S(lipo)     H(rot)  DE(clash)    DE(int)     intcor
     14.65     -16.77       1.83        0.00      83.92       1.81       0.00       2.13       ----

> <Gold.Chemscore.Fitness>
14.6479

> <Gold.Chemscore.DG>
-16.7733

> <Gold.Chemscore.ZeroCoef>
-5.4800

> <Gold.Chemscore.Hbond>
1.8253

> <Gold.Chemscore.Metal>
0.0000

> <Gold.Chemscore.Lipo>
83.9239

> <Gold.Chemscore.Internal_Hbond>
0.0000

> <Gold.Chemscore.DEClash>
0.0000

> <Gold.Chemscore.DEInternal>
2.1254

> <Gold.Chemscore.Rot>
1.8056

> <Gold.Chemscore.Internal.Correction>
   9.000000E+99

> <Gold.Chemscore.Hbonds>
donor molecule, donor type, donor heavy atom, donor atom, acceptor molecule, acceptor atom, score
      P1  H  6934  6947       L1    14  0.01

> <Gold.Chemscore.Hbond.Weighted>
-6.0965

> <Gold.Chemscore.Metal.Weighted>
-0.0000

> <Gold.Chemscore.Lipo.Weighted>
-9.8191

> <Gold.Chemscore.Internal_Hbond.Weighted>
0.0000

> <Gold.Chemscore.DEClash.Weighted>
0.0000

> <Gold.Chemscore.DEInternal.Weighted>
2.1254

> <Gold.Chemscore.Rot.Weighted>
4.6224

> <Gold.Chemscore.Internal.Correction.Weighted>
   9.000000E+99

> <Gold.Protein.RotatedTorsions>
[ 6907 6896 6895 6894 ] final  -52.59 input  -60.11 | X-H torsion
[ 7974 7965 7964 7962 ] final  -69.55 input  175.53 | X-H torsion
[ 8008 7997 7996 7995 ] final   97.55 input   59.86 | X-H torsion
[ 10167 10162 10161 10158 ] final   -2.09 input  -65.29 | X-H torsion
[ 10718 10713 10712 10709 ] final  100.84 input   66.30 | X-H torsion
[ 10763 10752 10751 10750 ] final  -11.65 input  -60.55 | X-H torsion
[ 11005 11000 10999 10996 ] final  -90.88 input  -57.11 | X-H torsion

> <Gold.Protein.ActiveResidues>
 VAL166  LYS551  ARG553  GLY616  TRP617  ASP618  TYR619  PRO620  LYS621  CYS622 
 ASP623  PHE694  ASN695  SER759  ASP760  ASP761  ALA762  ILE779  LEU786  VAL792 
 PHE793  MET794  SER795  GLU796  ALA797  LYS798  CYS799  TRP800  GLU811  SER814 

> <Gold.Protein.RotatedAtoms>
  150.8504  134.7826  159.7003 H   0  0  0  0  0  0  0  0  0  0  0  0  # atno 6907 bound_to 6896
  152.4570  134.5267  159.9808 H   0  0  0  0  0  0  0  0  0  0  0  0  # atno 6908 bound_to 6896
  151.5389  133.3398  159.2967 H   0  0  0  0  0  0  0  0  0  0  0  0  # atno 6909 bound_to 6896
  145.7023  140.9111  143.0724 H   0  0  0  0  0  0  0  0  0  0  0  0  # atno 7974 bound_to 7965
  156.0913  140.3256  155.7820 H   0  0  0  0  0  0  0  0  0  0  0  0  # atno 8008 bound_to 7997
  155.4991  140.0568  157.2959 H   0  0  0  0  0  0  0  0  0  0  0  0  # atno 8009 bound_to 7997
  154.4639  140.1980  156.0185 H   0  0  0  0  0  0  0  0  0  0  0  0  # atno 8010 bound_to 7997
  140.6837  143.6698  150.8195 H   0  0  0  0  0  0  0  0  0  0  0  0  # atno 10167 bound_to 10162
  157.6844  131.0709  150.5161 H   0  0  0  0  0  0  0  0  0  0  0  0  # atno 10718 bound_to 10713
  153.4869  135.7017  153.5906 H   0  0  0  0  0  0  0  0  0  0  0  0  # atno 10763 bound_to 10752
  153.4095  135.3852  155.2041 H   0  0  0  0  0  0  0  0  0  0  0  0  # atno 10764 bound_to 10752
  154.8719  135.3901  154.4325 H   0  0  0  0  0  0  0  0  0  0  0  0  # atno 10765 bound_to 10752
  141.1556  133.7720  156.9801 H   0  0  0  0  0  0  0  0  0  0  0  0  # atno 11005 bound_to 11000
  144.6965  139.8964  143.7456 LP  0  0  0  0  0  0  0  0  0  0  0  0  # atno 17320 bound_to 7965
  146.0787  139.3774  143.0478 LP  0  0  0  0  0  0  0  0  0  0  0  0  # atno 17321 bound_to 7965
  140.0402  143.5354  152.2721 LP  0  0  0  0  0  0  0  0  0  0  0  0  # atno 17342 bound_to 10162
  139.6178  144.7623  151.2807 LP  0  0  0  0  0  0  0  0  0  0  0  0  # atno 17343 bound_to 10162
  156.5477  130.4224  149.6123 LP  0  0  0  0  0  0  0  0  0  0  0  0  # atno 17370 bound_to 10713
  156.2930  130.7135  151.1988 LP  0  0  0  0  0  0  0  0  0  0  0  0  # atno 17371 bound_to 10713
  140.1072  134.9499  157.2011 LP  0  0  0  0  0  0  0  0  0  0  0  0  # atno 17394 bound_to 11000
  140.3241  134.2883  155.7240 LP  0  0  0  0  0  0  0  0  0  0  0  0  # atno 17395 bound_to 11000

$$$$
