AV-unprocessed.smi:2753|AV-procd|sdf|10613|dock1
  -GOLD-   2272015 63D 1   1.00000     0.00000
 Structure written by MMmdl.
 27 28  0  0  0  0  0  0  0  0  3 V2000
  153.5209  137.9618  159.9970 F   0  0  0  0  0  0  0  0  0  0  0  0
  152.6962  138.7173  160.7223 C   0  0  0  0  0  0  0  0  0  0  0  0
  151.4390  138.3919  160.4225 F   0  0  0  0  0  0  0  0  0  0  0  0
  152.9073  138.4743  162.0157 F   0  0  0  0  0  0  0  0  0  0  0  0
  152.9395  140.1835  160.4241 C   0  0  0  0  0  0  0  0  0  0  0  0
  154.1834  140.7750  160.7945 C   0  0  0  0  0  0  0  0  0  0  0  0
  154.0941  142.0515  160.4049 N   0  5  0  0  0  0  0  0  0  0  0  0
  152.8922  142.2710  159.8313 C   0  0  0  0  0  0  0  0  0  0  0  0
  152.4233  143.5935  159.2605 C   0  0  2  0  0  0  0  0  0  0  0  0
  152.2872  144.6777  160.3448 C   0  0  0  0  0  0  0  0  0  0  0  0
  151.7895  145.9932  159.7264 C   0  0  0  0  0  0  0  0  0  0  0  0
  150.4947  145.7696  158.9267 C   0  0  0  0  0  0  0  0  0  0  0  0
  150.6917  144.7334  157.8894 N   0  3  0  0  0  0  0  0  0  0  0  0
  151.1262  143.4341  158.4464 C   0  0  0  0  0  0  0  0  0  0  0  0
  152.1798  141.1286  159.8376 N   0  0  0  0  0  0  0  0  0  0  0  0
  155.0723  140.3927  161.2804 H   0  0  0  0  0  0  0  0  0  0  0  0
  153.2025  143.9212  158.5702 H   0  0  0  0  0  0  0  0  0  0  0  0
  151.5848  144.3480  161.1118 H   0  0  0  0  0  0  0  0  0  0  0  0
  153.2439  144.8356  160.8442 H   0  0  0  0  0  0  0  0  0  0  0  0
  151.6227  146.7331  160.5096 H   0  0  0  0  0  0  0  0  0  0  0  0
  152.5590  146.4040  159.0712 H   0  0  0  0  0  0  0  0  0  0  0  0
  149.6859  145.4633  159.5916 H   0  0  0  0  0  0  0  0  0  0  0  0
  150.1809  146.6973  158.4479 H   0  0  0  0  0  0  0  0  0  0  0  0
  149.8257  144.5997  157.3875 H   0  0  0  0  0  0  0  0  0  0  0  0
  151.2752  142.7294  157.6278 H   0  0  0  0  0  0  0  0  0  0  0  0
  150.3290  143.0315  159.0732 H   0  0  0  0  0  0  0  0  0  0  0  0
  151.3984  145.0552  157.2435 H   0  0  0  0  0  0  0  0  0  0  0  0
  1  2  1  0  0  0  0
  2  3  1  0  0  0  0
  2  4  1  0  0  0  0
  2  5  1  0  0  0  0
  5 15  1  0  0  0  0
  5  6  2  0  0  0  0
  6  7  1  0  0  0  0
  6 16  1  0  0  0  0
  7  8  1  0  0  0  0
  8  9  1  0  0  0  0
  8 15  2  0  0  0  0
  9 14  1  0  0  0  0
  9 10  1  0  0  0  0
  9 17  1  0  0  0  0
 10 11  1  0  0  0  0
 10 18  1  0  0  0  0
 10 19  1  0  0  0  0
 11 12  1  0  0  0  0
 11 20  1  0  0  0  0
 11 21  1  0  0  0  0
 12 13  1  0  0  0  0
 12 22  1  0  0  0  0
 12 23  1  0  0  0  0
 13 14  1  0  0  0  0
 13 24  1  0  0  0  0
 13 27  1  0  0  0  0
 14 25  1  0  0  0  0
 14 26  1  0  0  0  0
M  CHG  1   7  -1
M  CHG  1  13   1
M  END
> <s_m_source_file>
AV-unprocessed.smi

> <i_m_source_file_index>
2753

> <i_lp_mmshare_version>
43012

> <i_f3d_flags>
0

> <s_epik_input>
RkMoRikoRiljMVtjSF1bbkhdYyhuMSlbQ0BASF0yW0NIMl1bQ0gyXVtDSDJdW05IXVtDSDJdMg==

> <s_epik_cmdline>
J2VwaWtfcHl0aG9uJywgJy1waCcsICc3LjAnLCAnLXRuJywgJzgnLCAnLW1hJywgJzIwMCcsICctbWV0YWxfYmluZGluZycsICctaW1hZScsICc8aW5maWxlLm1hZT4nLCAnLW9tYWUnLCAnPG91dGZpbGUubWFlPic=

> <r_lp_tautomer_probability>
0.5

> <r_epik_Ionization_Penalty>
6.42345

> <r_epik_Ionization_Penalty_Charging>
5.19935

> <r_epik_Ionization_Penalty_Neutral>
1.22411

> <r_epik_State_Penalty>
5.30226

> <r_epik_Charging_Adjusted_Penalty>
10.5016

> <i_epik_Tot_Q>
0

> <i_epik_Tot_abs_Q>
2

> <r_epik_Metal_State_Penalty>
1.35744

> <b_epik_Metal_Only>
1

> <s_lp_Force_Field>
OPLS_2005

> <r_lp_Energy>
18.3827

> <b_lp_Chiralities_Consistent>
1

> <s_lp_Variant>
AV-unprocessed.smi:2753-5

> <Gold.Version>
5.8.1

> <Gold.Id.Protein>
6NUR|6NUR_protein|mol2

> <Gold.PLP.Fitness>
38.2034

> <Gold.PLP.PLP>
-32.6312

> <Gold.PLP.part.hbond>
-1.0342

> <Gold.PLP.part.metal>
0.0000

> <Gold.PLP.part.buried>
-5.2857

> <Gold.PLP.part.nonpolar>
-26.7153

> <Gold.PLP.part.repulsive>
0.0799

> <Gold.PLP.ligand.clash>
0.0000

> <Gold.PLP.ligand.torsion>
0.2346

> <Gold.PLP.Chemscore.Hbond>
2.0000

> <Gold.PLP.Chemscore.CHOScore>
0.0000

> <Gold.PLP.Chemscore.Metal>
0.0000

> <Gold.Chemscore.Hbonds>
donor molecule, donor type, donor heavy atom, donor atom, acceptor molecule, acceptor atom, score
      L1  H    13    24       P1  8028  1.48

> <Gold.PLP.Chemscore.Internal.Correction>
0.0414

> <Gold.Rescore>
     Score         DG    S(hbond)    S(metal)    S(lipo)     H(rot)  DE(clash)    DE(int)     intcor
     15.26     -15.41       0.95        0.00      79.50       1.00       0.09       0.05       ----

> <Gold.Chemscore.Fitness>
15.2640

> <Gold.Chemscore.DG>
-15.4060

> <Gold.Chemscore.ZeroCoef>
-5.4800

> <Gold.Chemscore.Hbond>
0.9533

> <Gold.Chemscore.Metal>
0.0000

> <Gold.Chemscore.Lipo>
79.5032

> <Gold.Chemscore.Internal_Hbond>
0.0000

> <Gold.Chemscore.DEClash>
0.0942

> <Gold.Chemscore.DEInternal>
0.0478

> <Gold.Chemscore.Rot>
1.0000

> <Gold.Chemscore.Internal.Correction>
   9.000000E+99

> <Gold.Chemscore.Hbonds>
donor molecule, donor type, donor heavy atom, donor atom, acceptor molecule, acceptor atom, score
      L1  H    13    24       P1  8028  0.11

> <Gold.Chemscore.Hbond.Weighted>
-3.1842

> <Gold.Chemscore.Metal.Weighted>
-0.0000

> <Gold.Chemscore.Lipo.Weighted>
-9.3019

> <Gold.Chemscore.Internal_Hbond.Weighted>
0.0000

> <Gold.Chemscore.DEClash.Weighted>
0.0942

> <Gold.Chemscore.DEInternal.Weighted>
0.0478

> <Gold.Chemscore.Rot.Weighted>
2.5600

> <Gold.Chemscore.Internal.Correction.Weighted>
   9.000000E+99

> <Gold.Protein.RotatedTorsions>
[ 6907 6896 6895 6894 ] final   13.47 input  -60.11 | X-H torsion
[ 7974 7965 7964 7962 ] final  122.76 input  175.53 | X-H torsion
[ 8008 7997 7996 7995 ] final   24.53 input   59.86 | X-H torsion
[ 10167 10162 10161 10158 ] final -108.10 input  -65.29 | X-H torsion
[ 10718 10713 10712 10709 ] final   29.16 input   66.30 | X-H torsion
[ 10763 10752 10751 10750 ] final  176.35 input  -60.55 | X-H torsion
[ 11005 11000 10999 10996 ] final  -39.81 input  -57.11 | X-H torsion

> <Gold.Protein.ActiveResidues>
 VAL166  LYS551  ARG553  GLY616  TRP617  ASP618  TYR619  PRO620  LYS621  CYS622 
 ASP623  PHE694  ASN695  SER759  ASP760  ASP761  ALA762  ILE779  LEU786  VAL792 
 PHE793  MET794  SER795  GLU796  ALA797  LYS798  CYS799  TRP800  GLU811  SER814 

> <Gold.Protein.RotatedAtoms>
  151.7868  135.0746  160.0381 H   0  0  0  0  0  0  0  0  0  0  0  0  # atno 6907 bound_to 6896
  152.3184  133.5823  159.5736 H   0  0  0  0  0  0  0  0  0  0  0  0  # atno 6908 bound_to 6896
  150.7356  133.9963  159.3665 H   0  0  0  0  0  0  0  0  0  0  0  0  # atno 6909 bound_to 6896
  145.1038  139.3500  143.4798 H   0  0  0  0  0  0  0  0  0  0  0  0  # atno 7974 bound_to 7965
  154.9978  140.3121  155.4880 H   0  0  0  0  0  0  0  0  0  0  0  0  # atno 8008 bound_to 7997
  156.2930  140.2237  156.5026 H   0  0  0  0  0  0  0  0  0  0  0  0  # atno 8009 bound_to 7997
  154.7646  140.0456  157.0989 H   0  0  0  0  0  0  0  0  0  0  0  0  # atno 8010 bound_to 7997
  140.1698  143.4052  152.1363 H   0  0  0  0  0  0  0  0  0  0  0  0  # atno 10167 bound_to 10162
  157.2430  130.7078  149.6368 H   0  0  0  0  0  0  0  0  0  0  0  0  # atno 10718 bound_to 10713
  154.4800  135.2774  155.1578 H   0  0  0  0  0  0  0  0  0  0  0  0  # atno 10763 bound_to 10752
  154.3292  135.6193  153.5547 H   0  0  0  0  0  0  0  0  0  0  0  0  # atno 10764 bound_to 10752
  152.9874  135.5761  154.5199 H   0  0  0  0  0  0  0  0  0  0  0  0  # atno 10765 bound_to 10752
  141.0129  133.6899  156.2237 H   0  0  0  0  0  0  0  0  0  0  0  0  # atno 11005 bound_to 11000
  146.3529  140.0927  142.8612 LP  0  0  0  0  0  0  0  0  0  0  0  0  # atno 17320 bound_to 7965
  145.0925  140.9294  143.4760 LP  0  0  0  0  0  0  0  0  0  0  0  0  # atno 17321 bound_to 7965
  139.5343  144.7193  151.4947 LP  0  0  0  0  0  0  0  0  0  0  0  0  # atno 17342 bound_to 10162
  140.6589  143.8540  150.6866 LP  0  0  0  0  0  0  0  0  0  0  0  0  # atno 17343 bound_to 10162
  155.9669  130.4452  150.5491 LP  0  0  0  0  0  0  0  0  0  0  0  0  # atno 17370 bound_to 10713
  157.3359  131.0708  151.1826 LP  0  0  0  0  0  0  0  0  0  0  0  0  # atno 17371 bound_to 10713
  140.6703  134.4874  157.5587 LP  0  0  0  0  0  0  0  0  0  0  0  0  # atno 17394 bound_to 11000
  139.9100  134.8365  156.1563 LP  0  0  0  0  0  0  0  0  0  0  0  0  # atno 17395 bound_to 11000

$$$$
