AV-unprocessed.smi:623|AV-procd|sdf|3093|dock7
  -GOLD-   22720 0 13D 1   1.00000     0.00000
 Structure written by MMmdl.
 45 47  0  0  0  0  0  0  0  0  1 V2000
  148.1740  139.7948  155.4606 C   0  0  0  0  0  0  0  0  0  0  0  0
  149.6210  140.3192  155.6845 C   0  0  0  0  0  0  0  0  0  0  0  0
  149.7333  141.5907  154.7964 C   0  0  0  0  0  0  0  0  0  0  0  0
  149.9925  140.5438  157.1641 C   0  0  2  0  0  0  0  0  0  0  0  0
  151.4831  140.9490  157.1058 C   0  0  0  0  0  0  0  0  0  0  0  0
  152.0186  140.0888  155.9423 C   0  0  0  0  0  0  0  0  0  0  0  0
  150.7669  139.2825  155.5081 C   0  0  2  0  0  0  0  0  0  0  0  0
  150.9154  138.6757  154.0989 C   0  0  0  0  0  0  0  0  0  0  0  0
  150.5410  138.2496  156.6557 C   0  0  2  0  0  0  0  0  0  0  0  0
  149.6578  137.1522  156.2714 N   0  0  0  0  0  0  0  0  0  0  0  0
  149.9196  136.1587  155.4070 C   0  0  0  0  0  0  0  0  0  0  0  0
  151.0035  136.0262  154.8408 O   0  0  0  0  0  0  0  0  0  0  0  0
  148.7849  135.1641  155.1059 C   0  0  0  0  0  0  0  0  0  0  0  0
  149.1952  133.7501  155.1572 N   0  0  0  0  0  0  0  0  0  0  0  0
  148.9249  132.9107  154.0854 C   0  0  0  0  0  0  0  0  0  0  0  0
  149.2262  131.5909  154.0771 C   0  0  0  0  0  0  0  0  0  0  0  0
  149.8687  130.9732  155.2319 C   0  0  0  0  0  0  0  0  0  0  0  0
  150.1780  129.7873  155.3211 O   0  0  0  0  0  0  0  0  0  0  0  0
  150.1252  131.8498  156.2892 N   0  0  0  0  0  0  0  0  0  0  0  0
  149.8165  133.2107  156.3049 C   0  0  0  0  0  0  0  0  0  0  0  0
  150.0724  133.8909  157.2973 O   0  0  0  0  0  0  0  0  0  0  0  0
  149.9403  139.1255  157.7773 C   0  0  0  0  0  0  0  0  0  0  0  0
  150.5677  131.4665  157.1119 H   0  0  0  0  0  0  0  0  0  0  0  0
  147.4462  140.5812  155.6627 H   0  0  0  0  0  0  0  0  0  0  0  0
  147.8795  138.9555  156.0839 H   0  0  0  0  0  0  0  0  0  0  0  0
  148.0277  139.4845  154.4257 H   0  0  0  0  0  0  0  0  0  0  0  0
  150.6967  142.0944  154.8261 H   0  0  0  0  0  0  0  0  0  0  0  0
  148.9915  142.3329  155.0932 H   0  0  0  0  0  0  0  0  0  0  0  0
  149.5424  141.3492  153.7504 H   0  0  0  0  0  0  0  0  0  0  0  0
  149.3683  141.2655  157.6917 H   0  0  0  0  0  0  0  0  0  0  0  0
  151.6034  142.0127  156.9005 H   0  0  0  0  0  0  0  0  0  0  0  0
  152.0042  140.7435  158.0417 H   0  0  0  0  0  0  0  0  0  0  0  0
  152.4005  140.7148  155.1356 H   0  0  0  0  0  0  0  0  0  0  0  0
  152.8464  139.4496  156.2522 H   0  0  0  0  0  0  0  0  0  0  0  0
  151.7236  137.9445  154.0747 H   0  0  0  0  0  0  0  0  0  0  0  0
  151.1438  139.4431  153.3592 H   0  0  0  0  0  0  0  0  0  0  0  0
  150.0045  138.1723  153.7748 H   0  0  0  0  0  0  0  0  0  0  0  0
  151.4942  137.8367  156.9901 H   0  0  0  0  0  0  0  0  0  0  0  0
  148.7363  137.1654  156.6836 H   0  0  0  0  0  0  0  0  0  0  0  0
  147.9833  135.3365  155.8257 H   0  0  0  0  0  0  0  0  0  0  0  0
  148.3517  135.4106  154.1350 H   0  0  0  0  0  0  0  0  0  0  0  0
  148.4408  133.3250  153.2123 H   0  0  0  0  0  0  0  0  0  0  0  0
  148.9874  130.9880  153.2130 H   0  0  0  0  0  0  0  0  0  0  0  0
  150.5170  139.0541  158.7003 H   0  0  0  0  0  0  0  0  0  0  0  0
  148.9189  138.8369  158.0268 H   0  0  0  0  0  0  0  0  0  0  0  0
  1  2  1  0  0  0  0
  1 24  1  0  0  0  0
  1 25  1  0  0  0  0
  1 26  1  0  0  0  0
  2  7  1  0  0  0  0
  2  3  1  0  0  0  0
  2  4  1  0  0  0  0
  3 27  1  0  0  0  0
  3 28  1  0  0  0  0
  3 29  1  0  0  0  0
  4 22  1  0  0  0  0
  4  5  1  0  0  0  0
  4 30  1  0  0  0  0
  5  6  1  0  0  0  0
  5 31  1  0  0  0  0
  5 32  1  0  0  0  0
  6  7  1  0  0  0  0
  6 33  1  0  0  0  0
  6 34  1  0  0  0  0
  7  8  1  0  0  0  0
  7  9  1  0  0  0  0
  8 35  1  0  0  0  0
  8 36  1  0  0  0  0
  8 37  1  0  0  0  0
  9 10  1  0  0  0  0
  9 22  1  0  0  0  0
  9 38  1  0  0  0  0
 10 11  1  0  0  0  0
 10 39  1  0  0  0  0
 11 12  2  0  0  0  0
 11 13  1  0  0  0  0
 13 14  1  0  0  0  0
 13 40  1  0  0  0  0
 13 41  1  0  0  0  0
 14 20  1  0  0  0  0
 14 15  1  0  0  0  0
 15 16  2  0  0  0  0
 15 42  1  0  0  0  0
 16 17  1  0  0  0  0
 16 43  1  0  0  0  0
 17 18  2  0  0  0  0
 17 19  1  0  0  0  0
 19 23  1  0  0  0  0
 19 20  1  0  0  0  0
 20 21  2  0  0  0  0
 22 44  1  0  0  0  0
 22 45  1  0  0  0  0
M  END
> <s_m_source_file>
AV-unprocessed.smi

> <i_m_source_file_index>
623

> <i_lp_mmshare_version>
43012

> <i_f3d_flags>
0

> <s_epik_input>
W0NIM11bQ0BdMTJDKFtDSDNdKShbQ0gzXSlbQ0BIXShbQ0gyXVtDSDJdMSlbQ0gyXVtDQEBIXTJbTkhdQyg9TylbQ0gyXW4zW2NIXVtjSF1jKD1PKVtuSF1jMz1P

> <s_epik_cmdline>
J2VwaWtfcHl0aG9uJywgJy1waCcsICc3LjAnLCAnLXRuJywgJzgnLCAnLW1hJywgJzIwMCcsICctbWV0YWxfYmluZGluZycsICctaW1hZScsICc8aW5maWxlLm1hZT4nLCAnLW9tYWUnLCAnPG91dGZpbGUubWFlPic=

> <r_lp_tautomer_probability>
0.999537

> <r_epik_Ionization_Penalty>
0.00303563

> <r_epik_Ionization_Penalty_Charging>
0.00303561

> <r_epik_Ionization_Penalty_Neutral>
2.03238e-08

> <r_epik_State_Penalty>
0.00213308

> <r_epik_Charging_Adjusted_Penalty>
0.00516869

> <i_epik_Tot_Q>
0

> <i_epik_Tot_abs_Q>
0

> <r_epik_Metal_State_Penalty>
0.361714

> <b_epik_Metal_Only>
0

> <s_lp_Force_Field>
OPLS_2005

> <r_lp_Energy>
55.1954

> <b_lp_Chiralities_Consistent>
1

> <s_lp_Variant>
AV-unprocessed.smi:623-3

> <Gold.Version>
5.8.1

> <Gold.Id.Protein>
6NUR|6NUR_protein|mol2

> <Gold.PLP.Fitness>
36.5111

> <Gold.PLP.PLP>
-31.5842

> <Gold.PLP.part.hbond>
-2.0000

> <Gold.PLP.part.metal>
0.0000

> <Gold.PLP.part.buried>
-5.6389

> <Gold.PLP.part.nonpolar>
-25.1340

> <Gold.PLP.part.repulsive>
0.2498

> <Gold.PLP.ligand.clash>
0.0000

> <Gold.PLP.ligand.torsion>
0.2443

> <Gold.PLP.Chemscore.Hbond>
1.8000

> <Gold.PLP.Chemscore.CHOScore>
0.0000

> <Gold.PLP.Chemscore.Metal>
0.0000

> <Gold.Chemscore.Hbonds>
donor molecule, donor type, donor heavy atom, donor atom, acceptor molecule, acceptor atom, score
      P1  H  6896  6907       L1    21  0.71
      P1  H 10752 10763       L1    12  0.96

> <Gold.PLP.Chemscore.Internal.Correction>
0.0155

> <Gold.Rescore>
     Score         DG    S(hbond)    S(metal)    S(lipo)     H(rot)  DE(clash)    DE(int)     intcor
     15.36     -15.86       1.99        0.00      68.44       1.66       0.00       0.49       ----

> <Gold.Chemscore.Fitness>
15.3574

> <Gold.Chemscore.DG>
-15.8556

> <Gold.Chemscore.ZeroCoef>
-5.4800

> <Gold.Chemscore.Hbond>
1.9851

> <Gold.Chemscore.Metal>
0.0000

> <Gold.Chemscore.Lipo>
68.4359

> <Gold.Chemscore.Internal_Hbond>
0.0000

> <Gold.Chemscore.DEClash>
0.0038

> <Gold.Chemscore.DEInternal>
0.4945

> <Gold.Chemscore.Rot>
1.6647

> <Gold.Chemscore.Internal.Correction>
   9.000000E+99

> <Gold.Chemscore.Hbonds>
donor molecule, donor type, donor heavy atom, donor atom, acceptor molecule, acceptor atom, score
      P1  H  6896  6907       L1    21  0.68
      P1  H 10752 10763       L1    12  0.89

> <Gold.Chemscore.Hbond.Weighted>
-6.6303

> <Gold.Chemscore.Metal.Weighted>
-0.0000

> <Gold.Chemscore.Lipo.Weighted>
-8.0070

> <Gold.Chemscore.Internal_Hbond.Weighted>
0.0000

> <Gold.Chemscore.DEClash.Weighted>
0.0038

> <Gold.Chemscore.DEInternal.Weighted>
0.4945

> <Gold.Chemscore.Rot.Weighted>
4.2617

> <Gold.Chemscore.Internal.Correction.Weighted>
   9.000000E+99

> <Gold.Protein.RotatedTorsions>
[ 6907 6896 6895 6894 ] final -131.27 input  -60.11 | X-H torsion
[ 7974 7965 7964 7962 ] final -120.90 input  175.53 | X-H torsion
[ 8008 7997 7996 7995 ] final  -53.42 input   59.86 | X-H torsion
[ 10167 10162 10161 10158 ] final  -59.01 input  -65.29 | X-H torsion
[ 10718 10713 10712 10709 ] final   47.14 input   66.30 | X-H torsion
[ 10763 10752 10751 10750 ] final   39.74 input  -60.55 | X-H torsion
[ 11005 11000 10999 10996 ] final  -94.99 input  -57.11 | X-H torsion

> <Gold.Protein.ActiveResidues>
 VAL166  LYS551  ARG553  GLY616  TRP617  ASP618  TYR619  PRO620  LYS621  CYS622 
 ASP623  PHE694  ASN695  SER759  ASP760  ASP761  ALA762  ILE779  LEU786  VAL792 
 PHE793  MET794  SER795  GLU796  ALA797  LYS798  CYS799  TRP800  GLU811  SER814 

> <Gold.Protein.RotatedAtoms>
  150.9491  133.6570  159.2775 H   0  0  0  0  0  0  0  0  0  0  0  0  # atno 6907 bound_to 6896
  151.3932  135.0958  159.9542 H   0  0  0  0  0  0  0  0  0  0  0  0  # atno 6908 bound_to 6896
  152.5102  133.9000  159.7491 H   0  0  0  0  0  0  0  0  0  0  0  0  # atno 6909 bound_to 6896
  145.0463  140.8184  143.4236 H   0  0  0  0  0  0  0  0  0  0  0  0  # atno 7974 bound_to 7965
  154.4133  140.1200  156.5151 H   0  0  0  0  0  0  0  0  0  0  0  0  # atno 8008 bound_to 7997
  155.6759  140.3496  155.4817 H   0  0  0  0  0  0  0  0  0  0  0  0  # atno 8009 bound_to 7997
  155.9593  140.1120  157.0900 H   0  0  0  0  0  0  0  0  0  0  0  0  # atno 8010 bound_to 7997
  140.6162  143.2403  151.5592 H   0  0  0  0  0  0  0  0  0  0  0  0  # atno 10167 bound_to 10162
  157.4554  130.8164  149.7831 H   0  0  0  0  0  0  0  0  0  0  0  0  # atno 10718 bound_to 10713
  152.9958  135.6212  154.2513 H   0  0  0  0  0  0  0  0  0  0  0  0  # atno 10763 bound_to 10752
  154.2252  135.2794  155.2912 H   0  0  0  0  0  0  0  0  0  0  0  0  # atno 10764 bound_to 10752
  154.5495  135.5737  153.6968 H   0  0  0  0  0  0  0  0  0  0  0  0  # atno 10765 bound_to 10752
  141.1455  133.7994  157.0373 H   0  0  0  0  0  0  0  0  0  0  0  0  # atno 11005 bound_to 11000
  145.1584  139.2473  143.5404 LP  0  0  0  0  0  0  0  0  0  0  0  0  # atno 17320 bound_to 7965
  146.3514  140.1305  142.8597 LP  0  0  0  0  0  0  0  0  0  0  0  0  # atno 17321 bound_to 7965
  139.5400  144.2673  152.1332 LP  0  0  0  0  0  0  0  0  0  0  0  0  # atno 17342 bound_to 10162
  140.1883  144.4777  150.6492 LP  0  0  0  0  0  0  0  0  0  0  0  0  # atno 17343 bound_to 10162
  156.0005  130.3883  150.2625 LP  0  0  0  0  0  0  0  0  0  0  0  0  # atno 17370 bound_to 10713
  157.0799  131.0140  151.3160 LP  0  0  0  0  0  0  0  0  0  0  0  0  # atno 17371 bound_to 10713
  140.0715  134.9699  157.1475 LP  0  0  0  0  0  0  0  0  0  0  0  0  # atno 17394 bound_to 11000
  140.3704  134.2397  155.7178 LP  0  0  0  0  0  0  0  0  0  0  0  0  # atno 17395 bound_to 11000

$$$$
