AV-unprocessed.smi:1487|AV-procd|sdf|6014|dock9
  -GOLD-   22720 6113D 1   1.00000     0.00000
 Structure written by MMmdl.
 48 50  0  0  0  0  0  0  0  0  2 V2000
  153.3831  142.1946  161.7157 C   0  0  0  0  0  0  0  0  0  0  0  0
  152.7384  142.0413  160.3494 C   0  0  0  0  0  0  0  0  0  0  0  0
  153.0244  140.8909  159.5801 C   0  0  0  0  0  0  0  0  0  0  0  0
  152.4466  140.7108  158.3044 C   0  0  0  0  0  0  0  0  0  0  0  0
  152.5823  139.6774  157.3932 N   0  0  0  0  0  0  0  0  0  0  0  0
  151.7990  140.0897  156.4011 C   0  0  0  0  0  0  0  0  0  0  0  0
  151.1659  141.2672  156.5637 N   0  0  0  0  0  0  0  0  0  0  0  0
  150.2649  141.9127  155.6252 C   0  0  0  0  0  0  0  0  0  0  0  0
  148.9071  141.1925  155.5175 C   0  0  1  0  0  0  0  0  0  0  0  0
  147.9934  142.0128  154.8144 O   0  0  0  0  0  0  0  0  0  0  0  0
  149.0347  139.8502  154.7704 C   0  0  0  0  0  0  0  0  0  0  0  0
  147.7522  139.4112  154.1626 N   0  3  2  0  0  0  0  0  0  0  0  0
  147.1042  138.2945  154.9023 C   0  0  0  0  0  0  0  0  0  0  0  0
  145.7223  137.9641  154.3131 C   0  0  0  0  0  0  0  0  0  0  0  0
  145.8275  137.6350  152.8185 C   0  0  0  0  0  0  0  0  0  0  0  0
  146.5236  138.7877  152.0805 C   0  0  2  0  0  0  0  0  0  0  0  0
  146.7066  138.4373  150.7256 O   0  0  0  0  0  0  0  0  0  0  0  0
  147.8908  139.1015  152.7159 C   0  0  0  0  0  0  0  0  0  0  0  0
  151.5674  141.7212  157.8156 C   0  0  0  0  0  0  0  0  0  0  0  0
  151.2738  142.8694  158.5723 C   0  0  0  0  0  0  0  0  0  0  0  0
  151.8607  143.0339  159.8443 C   0  0  0  0  0  0  0  0  0  0  0  0
  151.5372  144.2775  160.6535 C   0  0  0  0  0  0  0  0  0  0  0  0
  153.9777  141.3183  161.9759 H   0  0  0  0  0  0  0  0  0  0  0  0
  152.6233  142.3222  162.4869 H   0  0  0  0  0  0  0  0  0  0  0  0
  154.0420  143.0631  161.7303 H   0  0  0  0  0  0  0  0  0  0  0  0
  153.6926  140.1346  159.9651 H   0  0  0  0  0  0  0  0  0  0  0  0
  151.6753  139.4999  155.5046 H   0  0  0  0  0  0  0  0  0  0  0  0
  150.1261  142.9499  155.9324 H   0  0  0  0  0  0  0  0  0  0  0  0
  150.7531  141.9410  154.6502 H   0  0  0  0  0  0  0  0  0  0  0  0
  148.5185  141.0359  156.5236 H   0  0  0  0  0  0  0  0  0  0  0  0
  148.1840  142.9170  155.0165 H   0  0  0  0  0  0  0  0  0  0  0  0
  149.7945  139.9614  153.9949 H   0  0  0  0  0  0  0  0  0  0  0  0
  149.4005  139.0708  155.4404 H   0  0  0  0  0  0  0  0  0  0  0  0
  147.7452  137.4125  154.8647 H   0  0  0  0  0  0  0  0  0  0  0  0
  146.9867  138.5526  155.9541 H   0  0  0  0  0  0  0  0  0  0  0  0
  145.2802  137.1227  154.8479 H   0  0  0  0  0  0  0  0  0  0  0  0
  145.0496  138.8104  154.4572 H   0  0  0  0  0  0  0  0  0  0  0  0
  146.3924  136.7106  152.6872 H   0  0  0  0  0  0  0  0  0  0  0  0
  144.8350  137.4586  152.4020 H   0  0  0  0  0  0  0  0  0  0  0  0
  145.8932  139.6773  152.1172 H   0  0  0  0  0  0  0  0  0  0  0  0
  145.8688  138.4679  150.2885 H   0  0  0  0  0  0  0  0  0  0  0  0
  148.3383  139.9527  152.2007 H   0  0  0  0  0  0  0  0  0  0  0  0
  148.5733  138.2588  152.5910 H   0  0  0  0  0  0  0  0  0  0  0  0
  150.6017  143.6171  158.1777 H   0  0  0  0  0  0  0  0  0  0  0  0
  150.8802  144.9514  160.1028 H   0  0  0  0  0  0  0  0  0  0  0  0
  152.4484  144.8243  160.8975 H   0  0  0  0  0  0  0  0  0  0  0  0
  151.0357  144.0068  161.5830 H   0  0  0  0  0  0  0  0  0  0  0  0
  147.1309  140.2059  154.2186 H   0  0  0  0  0  0  0  0  0  0  0  0
  1  2  1  0  0  0  0
  1 23  1  0  0  0  0
  1 24  1  0  0  0  0
  1 25  1  0  0  0  0
  2 21  1  0  0  0  0
  2  3  2  0  0  0  0
  3  4  1  0  0  0  0
  3 26  1  0  0  0  0
  4 19  2  0  0  0  0
  4  5  1  0  0  0  0
  5  6  2  0  0  0  0
  6  7  1  0  0  0  0
  6 27  1  0  0  0  0
  7  8  1  0  0  0  0
  7 19  1  0  0  0  0
  8  9  1  0  0  0  0
  8 28  1  0  0  0  0
  8 29  1  0  0  0  0
  9 10  1  0  0  0  0
  9 11  1  0  0  0  0
  9 30  1  0  0  0  0
 10 31  1  0  0  0  0
 11 12  1  0  0  0  0
 11 32  1  0  0  0  0
 11 33  1  0  0  0  0
 12 18  1  0  0  0  0
 12 13  1  0  0  0  0
 12 48  1  0  0  0  0
 13 14  1  0  0  0  0
 13 34  1  0  0  0  0
 13 35  1  0  0  0  0
 14 15  1  0  0  0  0
 14 36  1  0  0  0  0
 14 37  1  0  0  0  0
 15 16  1  0  0  0  0
 15 38  1  0  0  0  0
 15 39  1  0  0  0  0
 16 17  1  0  0  0  0
 16 18  1  0  0  0  0
 16 40  1  0  0  0  0
 17 41  1  0  0  0  0
 18 42  1  0  0  0  0
 18 43  1  0  0  0  0
 19 20  1  0  0  0  0
 20 21  2  0  0  0  0
 20 44  1  0  0  0  0
 21 22  1  0  0  0  0
 22 45  1  0  0  0  0
 22 46  1  0  0  0  0
 22 47  1  0  0  0  0
M  CHG  1  12   1
M  END
> <s_m_source_file>
AV-unprocessed.smi

> <i_m_source_file_index>
1487

> <i_lp_mmshare_version>
43012

> <i_f3d_flags>
0

> <s_epik_input>
W0NIM11jKFtjSF0xKWMoW0NIM10pW2NIXWMoYzEyKW4oW2NIXW4yKVtDSDJdW0NASF0oW09IXSlbQ0gyXU4zW0NIMl1bQ0gyXVtDSDJdW0NAQEhdKFtPSF0pW0NIMl0z

> <s_epik_cmdline>
J2VwaWtfcHl0aG9uJywgJy1waCcsICc3LjAnLCAnLXRuJywgJzgnLCAnLW1hJywgJzIwMCcsICctbWV0YWxfYmluZGluZycsICctaW1hZScsICc8aW5maWxlLm1hZT4nLCAnLW9tYWUnLCAnPG91dGZpbGUubWFlPic=

> <r_epik_Ionization_Penalty>
0.0940186

> <r_epik_Ionization_Penalty_Charging>
0.00679686

> <r_epik_Ionization_Penalty_Neutral>
0.0872218

> <r_epik_State_Penalty>
0.0799311

> <r_epik_Charging_Adjusted_Penalty>
0.086728

> <i_epik_Tot_Q>
1

> <i_epik_Tot_abs_Q>
1

> <r_epik_Metal_State_Penalty>
7.95545e-05

> <b_epik_Metal_Only>
0

> <s_lp_Force_Field>
OPLS_2005

> <r_lp_Energy>
21.0759

> <b_lp_Chiralities_Consistent>
1

> <s_lp_Variant>
AV-unprocessed.smi:1487-8

> <Gold.Version>
5.8.1

> <Gold.Id.Protein>
6NUR|6NUR_protein|mol2

> <Gold.PLP.Fitness>
51.7468

> <Gold.PLP.PLP>
-42.0247

> <Gold.PLP.part.hbond>
-4.2707

> <Gold.PLP.part.metal>
0.0000

> <Gold.PLP.part.buried>
-1.1705

> <Gold.PLP.part.nonpolar>
-36.7063

> <Gold.PLP.part.repulsive>
0.0000

> <Gold.PLP.ligand.clash>
0.0000

> <Gold.PLP.ligand.torsion>
1.1349

> <Gold.PLP.Chemscore.Hbond>
3.9913

> <Gold.PLP.Chemscore.CHOScore>
0.0000

> <Gold.PLP.Chemscore.Metal>
0.0000

> <Gold.Chemscore.Hbonds>
donor molecule, donor type, donor heavy atom, donor atom, acceptor molecule, acceptor atom, score
      L1  H    10    31       P1  8028  1.00
      L1  H    17    41       P1 10171  0.99
      P1  H  7954  7966       L1    17  0.94
      P1  H  7997  8010       L1     5  1.00

> <Gold.PLP.Chemscore.Internal.Correction>
0.0182

> <Gold.Rescore>
     Score         DG    S(hbond)    S(metal)    S(lipo)     H(rot)  DE(clash)    DE(int)     intcor
     19.84     -22.90       2.92        0.00     124.02       2.67       1.97       1.10       ----

> <Gold.Chemscore.Fitness>
19.8360

> <Gold.Chemscore.DG>
-22.9003

> <Gold.Chemscore.ZeroCoef>
-5.4800

> <Gold.Chemscore.Hbond>
2.9187

> <Gold.Chemscore.Metal>
0.0000

> <Gold.Chemscore.Lipo>
124.0176

> <Gold.Chemscore.Internal_Hbond>
0.0000

> <Gold.Chemscore.DEClash>
1.9666

> <Gold.Chemscore.DEInternal>
1.0977

> <Gold.Chemscore.Rot>
2.6712

> <Gold.Chemscore.Internal.Correction>
   9.000000E+99

> <Gold.Chemscore.Hbonds>
donor molecule, donor type, donor heavy atom, donor atom, acceptor molecule, acceptor atom, score
      L1  H    10    31       P1  8028  0.94
      L1  H    17    41       P1 10171  0.92
      P1  H  7954  7966       L1    17  0.89
      P1  H  7997  8010       L1     5  0.07

> <Gold.Chemscore.Hbond.Weighted>
-9.7486

> <Gold.Chemscore.Metal.Weighted>
-0.0000

> <Gold.Chemscore.Lipo.Weighted>
-14.5101

> <Gold.Chemscore.Internal_Hbond.Weighted>
0.0000

> <Gold.Chemscore.DEClash.Weighted>
1.9666

> <Gold.Chemscore.DEInternal.Weighted>
1.0977

> <Gold.Chemscore.Rot.Weighted>
6.8383

> <Gold.Chemscore.Internal.Correction.Weighted>
   9.000000E+99

> <Gold.Protein.RotatedTorsions>
[ 6907 6896 6895 6894 ] final  -91.77 input  -60.11 | X-H torsion
[ 7974 7965 7964 7962 ] final  -91.65 input  175.53 | X-H torsion
[ 8008 7997 7996 7995 ] final   59.78 input   59.86 | X-H torsion
[ 10167 10162 10161 10158 ] final  -29.54 input  -65.29 | X-H torsion
[ 10718 10713 10712 10709 ] final   88.94 input   66.30 | X-H torsion
[ 10763 10752 10751 10750 ] final   30.50 input  -60.55 | X-H torsion
[ 11005 11000 10999 10996 ] final  124.97 input  -57.11 | X-H torsion

> <Gold.Protein.ActiveResidues>
 VAL166  LYS551  ARG553  GLY616  TRP617  ASP618  TYR619  PRO620  LYS621  CYS622 
 ASP623  PHE694  ASN695  SER759  ASP760  ASP761  ALA762  ILE779  LEU786  VAL792 
 PHE793  MET794  SER795  GLU796  ALA797  LYS798  CYS799  TRP800  GLU811  SER814 

> <Gold.Protein.RotatedAtoms>
  150.6897  134.2226  159.4402 H   0  0  0  0  0  0  0  0  0  0  0  0  # atno 6907 bound_to 6896
  152.0181  134.9836  160.0579 H   0  0  0  0  0  0  0  0  0  0  0  0  # atno 6908 bound_to 6896
  152.1423  133.4437  159.4810 H   0  0  0  0  0  0  0  0  0  0  0  0  # atno 6909 bound_to 6896
  145.4103  140.9544  143.2238 H   0  0  0  0  0  0  0  0  0  0  0  0  # atno 7974 bound_to 7965
  155.5718  140.3490  155.4517 H   0  0  0  0  0  0  0  0  0  0  0  0  # atno 8008 bound_to 7997
  156.0439  140.1302  157.0151 H   0  0  0  0  0  0  0  0  0  0  0  0  # atno 8009 bound_to 7997
  154.4404  140.1018  156.6262 H   0  0  0  0  0  0  0  0  0  0  0  0  # atno 8010 bound_to 7997
  140.7259  143.3921  151.1412 H   0  0  0  0  0  0  0  0  0  0  0  0  # atno 10167 bound_to 10162
  157.6952  131.0314  150.3350 H   0  0  0  0  0  0  0  0  0  0  0  0  # atno 10718 bound_to 10713
  153.0368  135.6462  154.1054 H   0  0  0  0  0  0  0  0  0  0  0  0  # atno 10763 bound_to 10752
  154.0768  135.2876  155.3299 H   0  0  0  0  0  0  0  0  0  0  0  0  # atno 10764 bound_to 10752
  154.6557  135.5410  153.8020 H   0  0  0  0  0  0  0  0  0  0  0  0  # atno 10765 bound_to 10752
  139.9384  134.9638  156.8489 H   0  0  0  0  0  0  0  0  0  0  0  0  # atno 11005 bound_to 11000
  144.8313  139.5623  143.6942 LP  0  0  0  0  0  0  0  0  0  0  0  0  # atno 17320 bound_to 7965
  146.2708  139.6631  142.9297 LP  0  0  0  0  0  0  0  0  0  0  0  0  # atno 17321 bound_to 7965
  139.7527  143.8754  152.3081 LP  0  0  0  0  0  0  0  0  0  0  0  0  # atno 17342 bound_to 10162
  139.8613  144.7116  150.9096 LP  0  0  0  0  0  0  0  0  0  0  0  0  # atno 17343 bound_to 10162
  156.3818  130.3882  149.7096 LP  0  0  0  0  0  0  0  0  0  0  0  0  # atno 17370 bound_to 10713
  156.4475  130.7891  151.2912 LP  0  0  0  0  0  0  0  0  0  0  0  0  # atno 17371 bound_to 10713
  140.6015  134.0167  155.7539 LP  0  0  0  0  0  0  0  0  0  0  0  0  # atno 17394 bound_to 11000
  141.1008  133.9771  157.3082 LP  0  0  0  0  0  0  0  0  0  0  0  0  # atno 17395 bound_to 11000

$$$$
