AV-unprocessed.smi:2772|AV-procd|sdf|10668|dock5
  -GOLD-   2272015113D 1   1.00000     0.00000
 Structure written by MMmdl.
 54 56  0  0  0  0  0  0  0  0  2 V2000
  144.8400  131.9576  149.9239 C   0  0  0  0  0  0  0  0  0  0  0  0
  144.9927  133.3312  150.5431 C   0  0  0  0  0  0  0  0  0  0  0  0
  145.8393  133.5364  151.6519 C   0  0  0  0  0  0  0  0  0  0  0  0
  145.9414  134.8335  152.1902 C   0  0  0  0  0  0  0  0  0  0  0  0
  145.1859  135.8780  151.6052 C   0  0  0  0  0  0  0  0  0  0  0  0
  145.2182  137.2280  152.0466 N   0  0  0  0  0  0  0  0  0  0  0  0
  145.9622  137.7652  153.0285 C   0  0  0  0  0  0  0  0  0  0  0  0
  146.7459  137.1458  153.7479 O   0  0  0  0  0  0  0  0  0  0  0  0
  145.7302  139.0801  153.1476 N   0  0  0  0  0  0  0  0  0  0  0  0
  146.3582  139.9591  154.1295 C   0  0  0  0  0  0  0  0  0  0  0  0
  147.7552  140.3636  153.6533 C   0  0  0  0  0  0  0  0  0  0  0  0
  148.4868  141.1974  154.7193 C   0  0  0  0  0  0  0  0  0  0  0  0
  148.6327  140.4638  155.9889 N   0  0  0  0  0  0  0  0  0  0  0  0
  149.3980  141.2447  156.9881 C   0  0  2  0  0  0  0  0  0  0  0  0
  148.5258  142.3496  157.6456 C   0  0  0  0  0  0  0  0  0  0  0  0
  149.3271  143.2667  158.5832 C   0  0  0  0  0  0  0  0  0  0  0  0
  150.4649  143.8909  157.8736 N   0  3  1  0  0  0  0  0  0  0  0  0
  151.1726  144.8869  158.7068 C   0  0  0  0  0  0  0  0  0  0  0  0
  151.3747  142.8636  157.3213 C   0  0  0  0  0  0  0  0  0  0  0  0
  150.6333  141.9350  156.3461 C   0  0  0  0  0  0  0  0  0  0  0  0
  147.2829  140.1379  156.4814 C   0  0  0  0  0  0  0  0  0  0  0  0
  146.5018  139.2614  155.4873 C   0  0  0  0  0  0  0  0  0  0  0  0
  144.3842  135.5637  150.4877 C   0  0  0  0  0  0  0  0  0  0  0  0
  144.2802  134.3229  149.9661 N   0  0  0  0  0  0  0  0  0  0  0  0
  145.4143  131.2101  150.4721 H   0  0  0  0  0  0  0  0  0  0  0  0
  145.1904  131.9660  148.8915 H   0  0  0  0  0  0  0  0  0  0  0  0
  143.7932  131.6523  149.9299 H   0  0  0  0  0  0  0  0  0  0  0  0
  146.4032  132.7214  152.0812 H   0  0  0  0  0  0  0  0  0  0  0  0
  146.6028  135.0029  153.0257 H   0  0  0  0  0  0  0  0  0  0  0  0
  144.5545  137.8453  151.6021 H   0  0  0  0  0  0  0  0  0  0  0  0
  145.0663  139.5043  152.5165 H   0  0  0  0  0  0  0  0  0  0  0  0
  145.7546  140.8614  154.2463 H   0  0  0  0  0  0  0  0  0  0  0  0
  148.3454  139.4752  153.4221 H   0  0  0  0  0  0  0  0  0  0  0  0
  147.6814  140.9351  152.7273 H   0  0  0  0  0  0  0  0  0  0  0  0
  149.4571  141.4399  154.2931 H   0  0  0  0  0  0  0  0  0  0  0  0
  147.9642  142.1401  154.8893 H   0  0  0  0  0  0  0  0  0  0  0  0
  149.7439  140.5656  157.7692 H   0  0  0  0  0  0  0  0  0  0  0  0
  148.0465  142.9522  156.8724 H   0  0  0  0  0  0  0  0  0  0  0  0
  147.7285  141.9197  158.2495 H   0  0  0  0  0  0  0  0  0  0  0  0
  148.6709  144.0446  158.9760 H   0  0  0  0  0  0  0  0  0  0  0  0
  149.6949  142.6998  159.4401 H   0  0  0  0  0  0  0  0  0  0  0  0
  151.6199  144.4176  159.5842 H   0  0  0  0  0  0  0  0  0  0  0  0
  150.4850  145.6621  159.0466 H   0  0  0  0  0  0  0  0  0  0  0  0
  151.9649  145.3732  158.1370 H   0  0  0  0  0  0  0  0  0  0  0  0
  152.2005  143.3499  156.8005 H   0  0  0  0  0  0  0  0  0  0  0  0
  151.8118  142.2831  158.1354 H   0  0  0  0  0  0  0  0  0  0  0  0
  151.3654  141.2059  156.0037 H   0  0  0  0  0  0  0  0  0  0  0  0
  150.3236  142.5049  155.4686 H   0  0  0  0  0  0  0  0  0  0  0  0
  147.3278  139.5716  157.4084 H   0  0  0  0  0  0  0  0  0  0  0  0
  146.7307  141.0552  156.6919 H   0  0  0  0  0  0  0  0  0  0  0  0
  145.5176  139.0349  155.8989 H   0  0  0  0  0  0  0  0  0  0  0  0
  147.0137  138.3052  155.3664 H   0  0  0  0  0  0  0  0  0  0  0  0
  143.8018  136.3303  149.9978 H   0  0  0  0  0  0  0  0  0  0  0  0
  150.0792  144.3939  157.0869 H   0  0  0  0  0  0  0  0  0  0  0  0
  1  2  1  0  0  0  0
  1 25  1  0  0  0  0
  1 26  1  0  0  0  0
  1 27  1  0  0  0  0
  2 24  1  0  0  0  0
  2  3  2  0  0  0  0
  3  4  1  0  0  0  0
  3 28  1  0  0  0  0
  4  5  2  0  0  0  0
  4 29  1  0  0  0  0
  5  6  1  0  0  0  0
  5 23  1  0  0  0  0
  6  7  1  0  0  0  0
  6 30  1  0  0  0  0
  7  8  2  0  0  0  0
  7  9  1  0  0  0  0
  9 10  1  0  0  0  0
  9 31  1  0  0  0  0
 10 22  1  0  0  0  0
 10 11  1  0  0  0  0
 10 32  1  0  0  0  0
 11 12  1  0  0  0  0
 11 33  1  0  0  0  0
 11 34  1  0  0  0  0
 12 13  1  0  0  0  0
 12 35  1  0  0  0  0
 12 36  1  0  0  0  0
 13 14  1  0  0  0  0
 13 21  1  0  0  0  0
 14 20  1  0  0  0  0
 14 15  1  0  0  0  0
 14 37  1  0  0  0  0
 15 16  1  0  0  0  0
 15 38  1  0  0  0  0
 15 39  1  0  0  0  0
 16 17  1  0  0  0  0
 16 40  1  0  0  0  0
 16 41  1  0  0  0  0
 17 18  1  0  0  0  0
 17 19  1  0  0  0  0
 17 54  1  0  0  0  0
 18 42  1  0  0  0  0
 18 43  1  0  0  0  0
 18 44  1  0  0  0  0
 19 20  1  0  0  0  0
 19 45  1  0  0  0  0
 19 46  1  0  0  0  0
 20 47  1  0  0  0  0
 20 48  1  0  0  0  0
 21 22  1  0  0  0  0
 21 49  1  0  0  0  0
 21 50  1  0  0  0  0
 22 51  1  0  0  0  0
 22 52  1  0  0  0  0
 23 24  2  0  0  0  0
 23 53  1  0  0  0  0
M  CHG  1  17   1
M  END
> <s_m_source_file>
AV-unprocessed.smi

> <i_m_source_file_index>
2772

> <i_lp_mmshare_version>
43012

> <i_f3d_flags>
0

> <s_epik_input>
W0NIM11jMVtjSF1bY0hdYyhbY0hdbjEpW05IXUMoPU8pW05IXVtDSF0yW0NIMl1bQ0gyXU4oW0NIMl1bQ0gyXTIpW0NIXTNbQ0gyXVtDSDJdTihbQ0gzXSlbQ0gyXVtDSDJdMw==

> <s_epik_cmdline>
J2VwaWtfcHl0aG9uJywgJy1waCcsICc3LjAnLCAnLXRuJywgJzgnLCAnLW1hJywgJzIwMCcsICctbWV0YWxfYmluZGluZycsICctaW1hZScsICc8aW5maWxlLm1hZT4nLCAnLW9tYWUnLCAnPG91dGZpbGUubWFlPic=

> <r_epik_Ionization_Penalty>
1.02952

> <r_epik_Ionization_Penalty_Charging>
0.000974969

> <r_epik_Ionization_Penalty_Neutral>
1.02854

> <r_epik_State_Penalty>
1.11259

> <r_epik_Charging_Adjusted_Penalty>
1.11356

> <i_epik_Tot_Q>
1

> <i_epik_Tot_abs_Q>
1

> <r_epik_Metal_State_Penalty>
1.1091

> <b_epik_Metal_Only>
0

> <s_lp_Force_Field>
OPLS_2005

> <r_lp_Energy>
33.5329

> <b_lp_Chiralities_Consistent>
1

> <s_lp_Variant>
AV-unprocessed.smi:2772-5

> <Gold.Version>
5.8.1

> <Gold.Id.Protein>
6NUR|6NUR_protein|mol2

> <Gold.PLP.Fitness>
48.4787

> <Gold.PLP.PLP>
-35.5789

> <Gold.PLP.part.hbond>
-3.0951

> <Gold.PLP.part.metal>
0.0000

> <Gold.PLP.part.buried>
-4.4263

> <Gold.PLP.part.nonpolar>
-30.0720

> <Gold.PLP.part.repulsive>
2.5289

> <Gold.PLP.ligand.clash>
0.0110

> <Gold.PLP.ligand.torsion>
0.5804

> <Gold.PLP.Chemscore.Hbond>
3.6901

> <Gold.PLP.Chemscore.CHOScore>
1.0000

> <Gold.PLP.Chemscore.Metal>
0.0000

> <Gold.Chemscore.Hbonds>
donor molecule, donor type, donor heavy atom, donor atom, acceptor molecule, acceptor atom, score
      L1  H     6    30       P1 10171  0.86
      L1  H     9    31       P1 10175  0.88
      L1  H    17    54       P1  8028  2.00
      L1  C    23    53       P1 10171  1.00

> <Gold.PLP.Chemscore.Internal.Correction>
0.0013

> <Gold.Rescore>
     Score         DG    S(hbond)    S(metal)    S(lipo)     H(rot)  DE(clash)    DE(int)     intcor
     19.02     -22.50       2.57        0.00      98.41       1.20       0.25       3.23       ----

> <Gold.Chemscore.Fitness>
19.0169

> <Gold.Chemscore.DG>
-22.4999

> <Gold.Chemscore.ZeroCoef>
-5.4800

> <Gold.Chemscore.Hbond>
2.5662

> <Gold.Chemscore.Metal>
0.0000

> <Gold.Chemscore.Lipo>
98.4096

> <Gold.Chemscore.Internal_Hbond>
0.0000

> <Gold.Chemscore.DEClash>
0.2502

> <Gold.Chemscore.DEInternal>
3.2328

> <Gold.Chemscore.Rot>
1.1974

> <Gold.Chemscore.Internal.Correction>
   9.000000E+99

> <Gold.Chemscore.Hbonds>
donor molecule, donor type, donor heavy atom, donor atom, acceptor molecule, acceptor atom, score
      L1  H     6    30       P1 10171  0.81
      L1  H     9    31       P1 10175  0.86
      L1  H    17    54       P1  8028  0.65

> <Gold.Chemscore.Hbond.Weighted>
-8.5712

> <Gold.Chemscore.Metal.Weighted>
-0.0000

> <Gold.Chemscore.Lipo.Weighted>
-11.5139

> <Gold.Chemscore.Internal_Hbond.Weighted>
0.0000

> <Gold.Chemscore.DEClash.Weighted>
0.2502

> <Gold.Chemscore.DEInternal.Weighted>
3.2328

> <Gold.Chemscore.Rot.Weighted>
3.0652

> <Gold.Chemscore.Internal.Correction.Weighted>
   9.000000E+99

> <Gold.Protein.RotatedTorsions>
[ 6907 6896 6895 6894 ] final  -58.90 input  -60.11 | X-H torsion
[ 7974 7965 7964 7962 ] final   -9.15 input  175.53 | X-H torsion
[ 8008 7997 7996 7995 ] final -124.85 input   59.86 | X-H torsion
[ 10167 10162 10161 10158 ] final  -61.77 input  -65.29 | X-H torsion
[ 10718 10713 10712 10709 ] final  165.29 input   66.30 | X-H torsion
[ 10763 10752 10751 10750 ] final  153.65 input  -60.55 | X-H torsion
[ 11005 11000 10999 10996 ] final  -11.90 input  -57.11 | X-H torsion

> <Gold.Protein.ActiveResidues>
 VAL166  LYS551  ARG553  GLY616  TRP617  ASP618  TYR619  PRO620  LYS621  CYS622 
 ASP623  PHE694  ASN695  SER759  ASP760  ASP761  ALA762  ILE779  LEU786  VAL792 
 PHE793  MET794  SER795  GLU796  ALA797  LYS798  CYS799  TRP800  GLU811  SER814 

> <Gold.Protein.RotatedAtoms>
  150.7971  134.7039  159.6565 H   0  0  0  0  0  0  0  0  0  0  0  0  # atno 6907 bound_to 6896
  152.4085  134.6163  160.0048 H   0  0  0  0  0  0  0  0  0  0  0  0  # atno 6908 bound_to 6896
  151.6413  133.3289  159.3167 H   0  0  0  0  0  0  0  0  0  0  0  0  # atno 6909 bound_to 6896
  146.2260  140.2573  142.8350 H   0  0  0  0  0  0  0  0  0  0  0  0  # atno 7974 bound_to 7965
  155.2036  140.0416  157.2921 H   0  0  0  0  0  0  0  0  0  0  0  0  # atno 8008 bound_to 7997
  154.6058  140.2464  155.7704 H   0  0  0  0  0  0  0  0  0  0  0  0  # atno 8009 bound_to 7997
  156.2349  140.2925  156.0295 H   0  0  0  0  0  0  0  0  0  0  0  0  # atno 8010 bound_to 7997
  140.5984  143.2356  151.5984 H   0  0  0  0  0  0  0  0  0  0  0  0  # atno 10167 bound_to 10162
  157.0823  131.0395  151.2570 H   0  0  0  0  0  0  0  0  0  0  0  0  # atno 10718 bound_to 10713
  154.1397  135.2821  155.3164 H   0  0  0  0  0  0  0  0  0  0  0  0  # atno 10763 bound_to 10752
  154.6296  135.5440  153.7669 H   0  0  0  0  0  0  0  0  0  0  0  0  # atno 10764 bound_to 10752
  153.0255  135.6459  154.1544 H   0  0  0  0  0  0  0  0  0  0  0  0  # atno 10765 bound_to 10752
  140.7601  133.8522  155.9117 H   0  0  0  0  0  0  0  0  0  0  0  0  # atno 11005 bound_to 11000
  144.9366  140.8033  143.5656 LP  0  0  0  0  0  0  0  0  0  0  0  0  # atno 17320 bound_to 7965
  145.2521  139.2027  143.4936 LP  0  0  0  0  0  0  0  0  0  0  0  0  # atno 17321 bound_to 7965
  139.5274  144.3018  152.1067 LP  0  0  0  0  0  0  0  0  0  0  0  0  # atno 17342 bound_to 10162
  140.2195  144.4481  150.6349 LP  0  0  0  0  0  0  0  0  0  0  0  0  # atno 17343 bound_to 10162
  157.4790  130.7753  149.7395 LP  0  0  0  0  0  0  0  0  0  0  0  0  # atno 17370 bound_to 10713
  155.9920  130.3934  150.2960 LP  0  0  0  0  0  0  0  0  0  0  0  0  # atno 17371 bound_to 10713
  140.9671  134.1579  157.4607 LP  0  0  0  0  0  0  0  0  0  0  0  0  # atno 17394 bound_to 11000
  139.8772  134.9965  156.5801 LP  0  0  0  0  0  0  0  0  0  0  0  0  # atno 17395 bound_to 11000

$$$$
