AV-unprocessed.smi:1969|AV-procd|sdf|7957|dock4
  -GOLD-   2272010123D 1   1.00000     0.00000
 Structure written by MMmdl.
 44 45  0  0  0  0  0  0  0  0  1 V2000
  150.9375  145.1518  159.6425 C   0  0  0  0  0  0  0  0  0  0  0  0
  152.1404  144.5146  158.9241 C   0  0  2  0  0  0  0  0  0  0  0  0
  151.7563  143.7647  157.6334 C   0  0  0  0  0  0  0  0  0  0  0  0
  151.1230  142.4850  157.9392 N   0  0  0  0  0  0  0  0  0  0  0  0
  150.4734  141.8556  156.8558 C   0  0  0  0  0  0  0  0  0  0  0  0
  151.1986  140.9999  155.9942 C   0  0  0  0  0  0  0  0  0  0  0  0
  150.5298  140.3751  154.9249 C   0  0  0  0  0  0  0  0  0  0  0  0
  149.1536  140.6097  154.7420 C   0  0  0  0  0  0  0  0  0  0  0  0
  148.5087  139.9772  153.6452 N   0  0  0  0  0  0  0  0  0  0  0  0
  147.1933  139.7657  153.4469 C   0  0  0  0  0  0  0  0  0  0  0  0
  146.3106  140.0855  154.2418 O   0  0  0  0  0  0  0  0  0  0  0  0
  146.7925  139.0569  152.1488 C   0  0  0  0  0  0  0  0  0  0  0  0
  146.0633  137.8710  152.4352 O   0  0  0  0  0  0  0  0  0  0  0  0
  145.6875  137.1603  151.2663 C   0  0  0  0  0  0  0  0  0  0  0  0
  144.7987  135.9730  151.6558 C   0  0  0  0  0  0  0  0  0  0  0  0
  144.4689  135.2919  150.5595 F   0  0  0  0  0  0  0  0  0  0  0  0
  145.4541  135.1605  152.4843 F   0  0  0  0  0  0  0  0  0  0  0  0
  143.6830  136.4055  152.2426 F   0  0  0  0  0  0  0  0  0  0  0  0
  148.5151  141.4970  155.6402 C   0  0  0  0  0  0  0  0  0  0  0  0
  149.1539  142.1000  156.6652 N   0  0  0  0  0  0  0  0  0  0  0  0
  151.9131  141.6551  158.8444 C   0  0  0  0  0  0  0  0  0  0  0  0
  152.2511  142.4344  160.1279 C   0  0  1  0  0  0  0  0  0  0  0  0
  153.1899  141.6450  161.0461 C   0  0  0  0  0  0  0  0  0  0  0  0
  152.8955  143.6611  159.7869 O   0  0  0  0  0  0  0  0  0  0  0  0
  150.4602  145.8980  159.0070 H   0  0  0  0  0  0  0  0  0  0  0  0
  151.2525  145.6518  160.5584 H   0  0  0  0  0  0  0  0  0  0  0  0
  150.1756  144.4182  159.9053 H   0  0  0  0  0  0  0  0  0  0  0  0
  152.8075  145.3308  158.6459 H   0  0  0  0  0  0  0  0  0  0  0  0
  151.1195  144.4015  157.0209 H   0  0  0  0  0  0  0  0  0  0  0  0
  152.6539  143.5669  157.0463 H   0  0  0  0  0  0  0  0  0  0  0  0
  152.2558  140.8279  156.1322 H   0  0  0  0  0  0  0  0  0  0  0  0
  151.0710  139.7220  154.2558 H   0  0  0  0  0  0  0  0  0  0  0  0
  149.1235  139.5840  152.9471 H   0  0  0  0  0  0  0  0  0  0  0  0
  146.1881  139.7360  151.5456 H   0  0  0  0  0  0  0  0  0  0  0  0
  147.6941  138.8185  151.5826 H   0  0  0  0  0  0  0  0  0  0  0  0
  145.1492  137.8209  150.5846 H   0  0  0  0  0  0  0  0  0  0  0  0
  146.5761  136.8034  150.7430 H   0  0  0  0  0  0  0  0  0  0  0  0
  147.4739  141.7604  155.5414 H   0  0  0  0  0  0  0  0  0  0  0  0
  151.3617  140.7510  159.1061 H   0  0  0  0  0  0  0  0  0  0  0  0
  152.8287  141.3442  158.3388 H   0  0  0  0  0  0  0  0  0  0  0  0
  151.3351  142.6418  160.6813 H   0  0  0  0  0  0  0  0  0  0  0  0
  152.7402  140.6988  161.3475 H   0  0  0  0  0  0  0  0  0  0  0  0
  153.4140  142.2094  161.9515 H   0  0  0  0  0  0  0  0  0  0  0  0
  154.1348  141.4240  160.5490 H   0  0  0  0  0  0  0  0  0  0  0  0
  1  2  1  0  0  0  0
  1 25  1  0  0  0  0
  1 26  1  0  0  0  0
  1 27  1  0  0  0  0
  2 24  1  0  0  0  0
  2  3  1  0  0  0  0
  2 28  1  0  0  0  0
  3  4  1  0  0  0  0
  3 29  1  0  0  0  0
  3 30  1  0  0  0  0
  4  5  1  0  0  0  0
  4 21  1  0  0  0  0
  5 20  1  0  0  0  0
  5  6  2  0  0  0  0
  6  7  1  0  0  0  0
  6 31  1  0  0  0  0
  7  8  2  0  0  0  0
  7 32  1  0  0  0  0
  8  9  1  0  0  0  0
  8 19  1  0  0  0  0
  9 10  1  0  0  0  0
  9 33  1  0  0  0  0
 10 11  2  0  0  0  0
 10 12  1  0  0  0  0
 12 13  1  0  0  0  0
 12 34  1  0  0  0  0
 12 35  1  0  0  0  0
 13 14  1  0  0  0  0
 14 15  1  0  0  0  0
 14 36  1  0  0  0  0
 14 37  1  0  0  0  0
 15 16  1  0  0  0  0
 15 17  1  0  0  0  0
 15 18  1  0  0  0  0
 19 20  2  0  0  0  0
 19 38  1  0  0  0  0
 21 22  1  0  0  0  0
 21 39  1  0  0  0  0
 21 40  1  0  0  0  0
 22 23  1  0  0  0  0
 22 24  1  0  0  0  0
 22 41  1  0  0  0  0
 23 42  1  0  0  0  0
 23 43  1  0  0  0  0
 23 44  1  0  0  0  0
M  END
> <s_m_source_file>
AV-unprocessed.smi

> <i_m_source_file_index>
1969

> <i_lp_mmshare_version>
43012

> <i_f3d_flags>
0

> <s_epik_input>
W0NIM11bQ0BASF0xW0NIMl1OKFtDSDJdW0NASF0oTzEpW0NIM10pYzJbY0hdW2NIXWMoW2NIXW4yKVtOSF1DKD1PKVtDSDJdT1tDSDJdQyhGKShGKUY=

> <s_epik_cmdline>
J2VwaWtfcHl0aG9uJywgJy1waCcsICc3LjAnLCAnLXRuJywgJzgnLCAnLW1hJywgJzIwMCcsICctbWV0YWxfYmluZGluZycsICctaW1hZScsICc8aW5maWxlLm1hZT4nLCAnLW9tYWUnLCAnPG91dGZpbGUubWFlPic=

> <r_lp_tautomer_probability>
1

> <r_epik_Ionization_Penalty>
0.000531129

> <r_epik_Ionization_Penalty_Charging>
0

> <r_epik_Ionization_Penalty_Neutral>
0.000531129

> <r_epik_State_Penalty>
0.000331002

> <r_epik_Charging_Adjusted_Penalty>
0.000331002

> <i_epik_Tot_Q>
0

> <i_epik_Tot_abs_Q>
0

> <r_epik_Metal_State_Penalty>
-0

> <b_epik_Metal_Only>
0

> <s_lp_Force_Field>
OPLS_2005

> <r_lp_Energy>
25.1949

> <b_lp_Chiralities_Consistent>
1

> <s_lp_Variant>
AV-unprocessed.smi:1969-1

> <Gold.Version>
5.8.1

> <Gold.Id.Protein>
6NUR|6NUR_protein|mol2

> <Gold.PLP.Fitness>
50.9828

> <Gold.PLP.PLP>
-49.1447

> <Gold.PLP.part.hbond>
-1.0000

> <Gold.PLP.part.metal>
0.0000

> <Gold.PLP.part.buried>
-1.2662

> <Gold.PLP.part.nonpolar>
-47.8226

> <Gold.PLP.part.repulsive>
1.9149

> <Gold.PLP.ligand.clash>
0.0000

> <Gold.PLP.ligand.torsion>
0.5497

> <Gold.PLP.Chemscore.Hbond>
0.8640

> <Gold.PLP.Chemscore.CHOScore>
0.0000

> <Gold.PLP.Chemscore.Metal>
0.0000

> <Gold.Chemscore.Hbonds>
donor molecule, donor type, donor heavy atom, donor atom, acceptor molecule, acceptor atom, score
      L1  H     9    33       P1  7957  0.70

> <Gold.PLP.Chemscore.Internal.Correction>
0.3456

> <Gold.Rescore>
     Score         DG    S(hbond)    S(metal)    S(lipo)     H(rot)  DE(clash)    DE(int)     intcor
     12.05     -16.01       0.71        0.00     112.32       1.94       2.31       1.64       ----

> <Gold.Chemscore.Fitness>
12.0533

> <Gold.Chemscore.DG>
-16.0056

> <Gold.Chemscore.ZeroCoef>
-5.4800

> <Gold.Chemscore.Hbond>
0.7067

> <Gold.Chemscore.Metal>
0.0000

> <Gold.Chemscore.Lipo>
112.3198

> <Gold.Chemscore.Internal_Hbond>
0.0000

> <Gold.Chemscore.DEClash>
2.3091

> <Gold.Chemscore.DEInternal>
1.6432

> <Gold.Chemscore.Rot>
1.9438

> <Gold.Chemscore.Internal.Correction>
   9.000000E+99

> <Gold.Chemscore.Hbonds>
donor molecule, donor type, donor heavy atom, donor atom, acceptor molecule, acceptor atom, score
      L1  H     9    33       P1  7957  0.70

> <Gold.Chemscore.Hbond.Weighted>
-2.3603

> <Gold.Chemscore.Metal.Weighted>
-0.0000

> <Gold.Chemscore.Lipo.Weighted>
-13.1414

> <Gold.Chemscore.Internal_Hbond.Weighted>
0.0000

> <Gold.Chemscore.DEClash.Weighted>
2.3091

> <Gold.Chemscore.DEInternal.Weighted>
1.6432

> <Gold.Chemscore.Rot.Weighted>
4.9761

> <Gold.Chemscore.Internal.Correction.Weighted>
   9.000000E+99

> <Gold.Protein.RotatedTorsions>
[ 6907 6896 6895 6894 ] final   12.28 input  -60.11 | X-H torsion
[ 7974 7965 7964 7962 ] final   -1.81 input  175.53 | X-H torsion
[ 8008 7997 7996 7995 ] final  -64.55 input   59.86 | X-H torsion
[ 10167 10162 10161 10158 ] final  -50.81 input  -65.29 | X-H torsion
[ 10718 10713 10712 10709 ] final -159.68 input   66.30 | X-H torsion
[ 10763 10752 10751 10750 ] final   75.80 input  -60.55 | X-H torsion
[ 11005 11000 10999 10996 ] final -152.28 input  -57.11 | X-H torsion

> <Gold.Protein.ActiveResidues>
 VAL166  LYS551  ARG553  GLY616  TRP617  ASP618  TYR619  PRO620  LYS621  CYS622 
 ASP623  PHE694  ASN695  SER759  ASP760  ASP761  ALA762  ILE779  LEU786  VAL792 
 PHE793  MET794  SER795  GLU796  ALA797  LYS798  CYS799  TRP800  GLU811  SER814 

> <Gold.Protein.RotatedAtoms>
  151.7678  135.0794  160.0355 H   0  0  0  0  0  0  0  0  0  0  0  0  # atno 6907 bound_to 6896
  152.3309  133.5953  159.5817 H   0  0  0  0  0  0  0  0  0  0  0  0  # atno 6908 bound_to 6896
  150.7422  133.9785  159.3610 H   0  0  0  0  0  0  0  0  0  0  0  0  # atno 6909 bound_to 6896
  146.2412  140.1476  142.8334 H   0  0  0  0  0  0  0  0  0  0  0  0  # atno 7974 bound_to 7965
  154.4618  140.0951  156.6914 H   0  0  0  0  0  0  0  0  0  0  0  0  # atno 8008 bound_to 7997
  155.4972  140.3472  155.4346 H   0  0  0  0  0  0  0  0  0  0  0  0  # atno 8009 bound_to 7997
  156.0884  140.1391  156.9612 H   0  0  0  0  0  0  0  0  0  0  0  0  # atno 8010 bound_to 7997
  140.6619  143.2643  151.4413 H   0  0  0  0  0  0  0  0  0  0  0  0  # atno 10167 bound_to 10162
  156.5715  130.8690  151.2839 H   0  0  0  0  0  0  0  0  0  0  0  0  # atno 10718 bound_to 10713
  153.0680  135.4975  154.8242 H   0  0  0  0  0  0  0  0  0  0  0  0  # atno 10763 bound_to 10752
  154.6981  135.2996  154.9383 H   0  0  0  0  0  0  0  0  0  0  0  0  # atno 10764 bound_to 10752
  154.0116  135.6753  153.4818 H   0  0  0  0  0  0  0  0  0  0  0  0  # atno 10765 bound_to 10752
  140.7206  134.3731  157.5184 H   0  0  0  0  0  0  0  0  0  0  0  0  # atno 11005 bound_to 11000
  145.0194  140.8781  143.5176 LP  0  0  0  0  0  0  0  0  0  0  0  0  # atno 17320 bound_to 7965
  145.1522  139.2507  143.5435 LP  0  0  0  0  0  0  0  0  0  0  0  0  # atno 17321 bound_to 7965
  139.5856  144.1612  152.2024 LP  0  0  0  0  0  0  0  0  0  0  0  0  # atno 17342 bound_to 10162
  140.0951  144.5587  150.7027 LP  0  0  0  0  0  0  0  0  0  0  0  0  # atno 17343 bound_to 10162
  157.7347  130.9750  150.2043 LP  0  0  0  0  0  0  0  0  0  0  0  0  # atno 17370 bound_to 10713
  156.2711  130.3722  149.8031 LP  0  0  0  0  0  0  0  0  0  0  0  0  # atno 17371 bound_to 10713
  139.8849  134.8952  156.2675 LP  0  0  0  0  0  0  0  0  0  0  0  0  # atno 17394 bound_to 11000
  141.0007  133.7153  156.0955 LP  0  0  0  0  0  0  0  0  0  0  0  0  # atno 17395 bound_to 11000

$$$$
