AV-unprocessed.smi:1244|AV-procd|sdf|5224|dock1
  -GOLD-   22720 4323D 1   1.00000     0.00000
 Structure written by MMmdl.
 55 57  0  0  0  0  0  0  0  0  2 V2000
  149.7982  141.3236  156.7424 C   0  0  0  0  0  0  0  0  0  0  0  0
  150.0229  141.4017  155.2218 C   0  0  2  0  0  0  0  0  0  0  0  0
  148.7415  141.1692  154.3970 C   0  0  0  0  0  0  0  0  0  0  0  0
  148.3487  139.7399  154.4063 N   0  3  1  0  0  0  0  0  0  0  0  0
  147.0778  139.4990  153.6786 C   0  0  0  0  0  0  0  0  0  0  0  0
  146.1857  138.4571  154.3810 C   0  0  0  0  0  0  0  0  0  0  0  0
  146.4446  137.1095  153.8882 N   0  0  0  0  0  0  0  0  0  0  0  0
  145.7574  136.5116  152.9049 C   0  0  0  0  0  0  0  0  0  0  0  0
  144.8361  137.0547  152.2951 O   0  0  0  0  0  0  0  0  0  0  0  0
  146.2192  135.2725  152.6693 N   0  0  0  0  0  0  0  0  0  0  0  0
  145.7717  134.3434  151.6878 C   0  0  0  0  0  0  0  0  0  0  0  0
  144.8230  134.7088  150.7016 C   0  0  0  0  0  0  0  0  0  0  0  0
  144.3589  133.7386  149.7972 C   0  0  0  0  0  0  0  0  0  0  0  0
  144.8479  132.4276  149.9207 C   0  0  0  0  0  0  0  0  0  0  0  0
  145.7400  132.0602  150.8620 N   0  0  0  0  0  0  0  0  0  0  0  0
  146.2082  132.9882  151.7328 C   0  0  0  0  0  0  0  0  0  0  0  0
  147.1545  132.5497  152.6871 N   0  0  0  0  0  0  0  0  0  0  0  0
  147.3548  131.1246  152.9287 C   0  0  0  0  0  0  0  0  0  0  0  0
  148.6748  131.0358  153.6885 C   0  0  0  0  0  0  0  0  0  0  0  0
  149.4915  132.1563  153.0521 C   0  0  0  0  0  0  0  0  0  0  0  0
  148.4465  133.2288  152.7276 C   0  0  0  0  0  0  0  0  0  0  0  0
  149.4749  138.8958  153.9399 C   0  0  0  0  0  0  0  0  0  0  0  0
  150.7214  139.1385  154.8100 C   0  0  1  0  0  0  0  0  0  0  0  0
  151.9346  138.3463  154.3105 C   0  0  0  0  0  0  0  0  0  0  0  0
  151.0586  140.5231  154.7817 O   0  0  0  0  0  0  0  0  0  0  0  0
  149.1024  142.0967  157.0695 H   0  0  0  0  0  0  0  0  0  0  0  0
  150.7337  141.4748  157.2816 H   0  0  0  0  0  0  0  0  0  0  0  0
  149.3842  140.3647  157.0525 H   0  0  0  0  0  0  0  0  0  0  0  0
  150.3745  142.4118  155.0090 H   0  0  0  0  0  0  0  0  0  0  0  0
  147.9322  141.7867  154.7889 H   0  0  0  0  0  0  0  0  0  0  0  0
  148.9071  141.4841  153.3653 H   0  0  0  0  0  0  0  0  0  0  0  0
  146.5286  140.4398  153.6179 H   0  0  0  0  0  0  0  0  0  0  0  0
  147.2890  139.1989  152.6509 H   0  0  0  0  0  0  0  0  0  0  0  0
  146.3714  138.4473  155.4543 H   0  0  0  0  0  0  0  0  0  0  0  0
  145.1308  138.7050  154.2499 H   0  0  0  0  0  0  0  0  0  0  0  0
  147.1888  136.5923  154.3340 H   0  0  0  0  0  0  0  0  0  0  0  0
  147.0453  134.9963  153.1798 H   0  0  0  0  0  0  0  0  0  0  0  0
  144.4268  135.7106  150.6389 H   0  0  0  0  0  0  0  0  0  0  0  0
  143.6353  133.9910  149.0363 H   0  0  0  0  0  0  0  0  0  0  0  0
  144.5094  131.6513  149.2506 H   0  0  0  0  0  0  0  0  0  0  0  0
  146.5292  130.6974  153.4987 H   0  0  0  0  0  0  0  0  0  0  0  0
  147.4419  130.5794  151.9880 H   0  0  0  0  0  0  0  0  0  0  0  0
  148.5125  131.2467  154.7465 H   0  0  0  0  0  0  0  0  0  0  0  0
  149.1494  130.0578  153.6043 H   0  0  0  0  0  0  0  0  0  0  0  0
  150.2885  132.5235  153.6989 H   0  0  0  0  0  0  0  0  0  0  0  0
  149.9471  131.7969  152.1285 H   0  0  0  0  0  0  0  0  0  0  0  0
  148.6750  133.7349  151.7883 H   0  0  0  0  0  0  0  0  0  0  0  0
  148.4260  133.9781  153.5194 H   0  0  0  0  0  0  0  0  0  0  0  0
  149.2067  137.8411  153.9895 H   0  0  0  0  0  0  0  0  0  0  0  0
  149.6919  139.1213  152.8944 H   0  0  0  0  0  0  0  0  0  0  0  0
  150.5174  138.8295  155.8355 H   0  0  0  0  0  0  0  0  0  0  0  0
  151.7341  137.2747  154.3181 H   0  0  0  0  0  0  0  0  0  0  0  0
  152.8042  138.5251  154.9435 H   0  0  0  0  0  0  0  0  0  0  0  0
  152.2005  138.6300  153.2917 H   0  0  0  0  0  0  0  0  0  0  0  0
  148.1769  139.4998  155.3723 H   0  0  0  0  0  0  0  0  0  0  0  0
  1  2  1  0  0  0  0
  1 26  1  0  0  0  0
  1 27  1  0  0  0  0
  1 28  1  0  0  0  0
  2 25  1  0  0  0  0
  2  3  1  0  0  0  0
  2 29  1  0  0  0  0
  3  4  1  0  0  0  0
  3 30  1  0  0  0  0
  3 31  1  0  0  0  0
  4  5  1  0  0  0  0
  4 22  1  0  0  0  0
  4 55  1  0  0  0  0
  5  6  1  0  0  0  0
  5 32  1  0  0  0  0
  5 33  1  0  0  0  0
  6  7  1  0  0  0  0
  6 34  1  0  0  0  0
  6 35  1  0  0  0  0
  7  8  1  0  0  0  0
  7 36  1  0  0  0  0
  8  9  2  0  0  0  0
  8 10  1  0  0  0  0
 10 11  1  0  0  0  0
 10 37  1  0  0  0  0
 11 16  1  0  0  0  0
 11 12  2  0  0  0  0
 12 13  1  0  0  0  0
 12 38  1  0  0  0  0
 13 14  2  0  0  0  0
 13 39  1  0  0  0  0
 14 15  1  0  0  0  0
 14 40  1  0  0  0  0
 15 16  2  0  0  0  0
 16 17  1  0  0  0  0
 17 21  1  0  0  0  0
 17 18  1  0  0  0  0
 18 19  1  0  0  0  0
 18 41  1  0  0  0  0
 18 42  1  0  0  0  0
 19 20  1  0  0  0  0
 19 43  1  0  0  0  0
 19 44  1  0  0  0  0
 20 21  1  0  0  0  0
 20 45  1  0  0  0  0
 20 46  1  0  0  0  0
 21 47  1  0  0  0  0
 21 48  1  0  0  0  0
 22 23  1  0  0  0  0
 22 49  1  0  0  0  0
 22 50  1  0  0  0  0
 23 24  1  0  0  0  0
 23 25  1  0  0  0  0
 23 51  1  0  0  0  0
 24 52  1  0  0  0  0
 24 53  1  0  0  0  0
 24 54  1  0  0  0  0
M  CHG  1   4   1
M  END
> <s_m_source_file>
AV-unprocessed.smi

> <i_m_source_file_index>
1244

> <i_lp_mmshare_version>
43012

> <i_f3d_flags>
0

> <s_epik_input>
W0NIM11bQ0BASF0xW0NIMl1OKFtDSDJdW0NASF0oTzEpW0NIM10pW0NIMl1bQ0gyXVtOSF1DKD1PKVtOSF1jMltjSF1bY0hdW2NIXW5jMk4zW0NIMl1bQ0gyXVtDSDJdW0NIMl0z

> <s_epik_cmdline>
J2VwaWtfcHl0aG9uJywgJy1waCcsICc3LjAnLCAnLXRuJywgJzgnLCAnLW1hJywgJzIwMCcsICctbWV0YWxfYmluZGluZycsICctaW1hZScsICc8aW5maWxlLm1hZT4nLCAnLW9tYWUnLCAnPG91dGZpbGUubWFlPic=

> <r_lp_tautomer_probability>
1

> <r_epik_Ionization_Penalty>
0.684913

> <r_epik_Ionization_Penalty_Charging>
0.602531

> <r_epik_Ionization_Penalty_Neutral>
0.0823829

> <r_epik_State_Penalty>
0.678827

> <r_epik_Charging_Adjusted_Penalty>
1.28136

> <i_epik_Tot_Q>
1

> <i_epik_Tot_abs_Q>
1

> <r_epik_Metal_State_Penalty>
0.67806

> <b_epik_Metal_Only>
0

> <s_lp_Force_Field>
OPLS_2005

> <r_lp_Energy>
45.4431

> <b_lp_Chiralities_Consistent>
1

> <s_lp_Variant>
AV-unprocessed.smi:1244-4

> <Gold.Version>
5.8.1

> <Gold.Id.Protein>
6NUR|6NUR_protein|mol2

> <Gold.PLP.Fitness>
41.7047

> <Gold.PLP.PLP>
-40.4792

> <Gold.PLP.part.hbond>
-1.7382

> <Gold.PLP.part.metal>
0.0000

> <Gold.PLP.part.buried>
-5.4051

> <Gold.PLP.part.nonpolar>
-33.9598

> <Gold.PLP.part.repulsive>
1.3933

> <Gold.PLP.ligand.clash>
0.0000

> <Gold.PLP.ligand.torsion>
1.0836

> <Gold.PLP.Chemscore.Hbond>
1.0000

> <Gold.PLP.Chemscore.CHOScore>
0.0000

> <Gold.PLP.Chemscore.Metal>
0.0000

> <Gold.Chemscore.Hbonds>
donor molecule, donor type, donor heavy atom, donor atom, acceptor molecule, acceptor atom, score
      P1  H  7989  7998       L1    25  0.78

> <Gold.PLP.Chemscore.Internal.Correction>
0.3927

> <Gold.Rescore>
     Score         DG    S(hbond)    S(metal)    S(lipo)     H(rot)  DE(clash)    DE(int)     intcor
     11.73     -15.42       0.73        0.00      99.20       1.60       0.28       3.41       ----

> <Gold.Chemscore.Fitness>
11.7286

> <Gold.Chemscore.DG>
-15.4192

> <Gold.Chemscore.ZeroCoef>
-5.4800

> <Gold.Chemscore.Hbond>
0.7255

> <Gold.Chemscore.Metal>
0.0000

> <Gold.Chemscore.Lipo>
99.2013

> <Gold.Chemscore.Internal_Hbond>
0.0000

> <Gold.Chemscore.DEClash>
0.2768

> <Gold.Chemscore.DEInternal>
3.4138

> <Gold.Chemscore.Rot>
1.5978

> <Gold.Chemscore.Internal.Correction>
   9.000000E+99

> <Gold.Chemscore.Hbonds>
donor molecule, donor type, donor heavy atom, donor atom, acceptor molecule, acceptor atom, score
      P1  H  7989  7998       L1    25  0.52

> <Gold.Chemscore.Hbond.Weighted>
-2.4231

> <Gold.Chemscore.Metal.Weighted>
-0.0000

> <Gold.Chemscore.Lipo.Weighted>
-11.6066

> <Gold.Chemscore.Internal_Hbond.Weighted>
0.0000

> <Gold.Chemscore.DEClash.Weighted>
0.2768

> <Gold.Chemscore.DEInternal.Weighted>
3.4138

> <Gold.Chemscore.Rot.Weighted>
4.0905

> <Gold.Chemscore.Internal.Correction.Weighted>
   9.000000E+99

> <Gold.Protein.RotatedTorsions>
[ 6907 6896 6895 6894 ] final  153.27 input  -60.11 | X-H torsion
[ 7974 7965 7964 7962 ] final -102.01 input  175.53 | X-H torsion
[ 8008 7997 7996 7995 ] final   88.24 input   59.86 | X-H torsion
[ 10167 10162 10161 10158 ] final   90.10 input  -65.29 | X-H torsion
[ 10718 10713 10712 10709 ] final   75.29 input   66.30 | X-H torsion
[ 10763 10752 10751 10750 ] final  -78.45 input  -60.55 | X-H torsion
[ 11005 11000 10999 10996 ] final -143.00 input  -57.11 | X-H torsion

> <Gold.Protein.ActiveResidues>
 VAL166  LYS551  ARG553  GLY616  TRP617  ASP618  TYR619  PRO620  LYS621  CYS622 
 ASP623  PHE694  ASN695  SER759  ASP760  ASP761  ALA762  ILE779  LEU786  VAL792 
 PHE793  MET794  SER795  GLU796  ALA797  LYS798  CYS799  TRP800  GLU811  SER814 

> <Gold.Protein.RotatedAtoms>
  152.0750  133.4125  159.4475 H   0  0  0  0  0  0  0  0  0  0  0  0  # atno 6907 bound_to 6896
  150.6863  134.3048  159.4731 H   0  0  0  0  0  0  0  0  0  0  0  0  # atno 6908 bound_to 6896
  152.0884  134.9423  160.0623 H   0  0  0  0  0  0  0  0  0  0  0  0  # atno 6909 bound_to 6896
  145.2742  140.9308  143.2969 H   0  0  0  0  0  0  0  0  0  0  0  0  # atno 7974 bound_to 7965
  155.9854  140.3373  155.6702 H   0  0  0  0  0  0  0  0  0  0  0  0  # atno 8008 bound_to 7997
  155.6493  140.0704  157.2610 H   0  0  0  0  0  0  0  0  0  0  0  0  # atno 8009 bound_to 7997
  154.4203  140.1728  156.1644 H   0  0  0  0  0  0  0  0  0  0  0  0  # atno 8010 bound_to 7997
  139.8507  144.6595  150.9173 H   0  0  0  0  0  0  0  0  0  0  0  0  # atno 10167 bound_to 10162
  157.6628  130.9719  150.1333 H   0  0  0  0  0  0  0  0  0  0  0  0  # atno 10718 bound_to 10713
  154.5260  135.5729  153.6719 H   0  0  0  0  0  0  0  0  0  0  0  0  # atno 10763 bound_to 10752
  152.9928  135.6193  154.2692 H   0  0  0  0  0  0  0  0  0  0  0  0  # atno 10764 bound_to 10752
  154.2616  135.2856  155.2755 H   0  0  0  0  0  0  0  0  0  0  0  0  # atno 10765 bound_to 10752
  140.8169  134.2678  157.4917 H   0  0  0  0  0  0  0  0  0  0  0  0  # atno 11005 bound_to 11000
  144.9309  139.4300  143.6496 LP  0  0  0  0  0  0  0  0  0  0  0  0  # atno 17320 bound_to 7965
  146.3237  139.8219  142.8925 LP  0  0  0  0  0  0  0  0  0  0  0  0  # atno 17321 bound_to 7965
  140.7788  143.3830  151.1443 LP  0  0  0  0  0  0  0  0  0  0  0  0  # atno 17342 bound_to 10162
  139.7468  143.8839  152.3066 LP  0  0  0  0  0  0  0  0  0  0  0  0  # atno 17343 bound_to 10162
  156.2174  130.3671  149.8597 LP  0  0  0  0  0  0  0  0  0  0  0  0  # atno 17370 bound_to 10713
  156.6459  130.8724  151.3522 LP  0  0  0  0  0  0  0  0  0  0  0  0  # atno 17371 bound_to 10713
  139.8710  134.9514  156.4083 LP  0  0  0  0  0  0  0  0  0  0  0  0  # atno 17394 bound_to 11000
  140.9140  133.7692  155.9825 LP  0  0  0  0  0  0  0  0  0  0  0  0  # atno 17395 bound_to 11000

$$$$
