#       Name:                AV-unprocessed.smi:66
#       Creating user name   scv26
#       Creation time:       Thu Mar 26 16:51:04 2020


#       File generated by GOLD software.
#

@<TRIPOS>MOLECULE
AV-unprocessed.smi:66
    37    39     1
SMALL
NO_CHARGES


@<TRIPOS>ATOM
      1 ****        -1.9719   2.9951  -1.6370 O.co2          1 S1                 0.0000
      2 ****        -1.5322   1.8374  -1.8096 C.2            1 S1                 0.0000
      3 ****        -2.1497   0.9061  -2.3733 O.co2          1 S1                -1.0000
      4 ****        -0.1145   1.5513  -1.2876 C.3            1 S1                 0.0000
      5 ****         0.8952   1.3135  -2.4250 C.3            1 S1                 0.0000
      6 ****         0.9043  -0.2037  -2.6032 C.3            1 S1                 0.0000
      7 ****         2.0960  -0.6756  -3.1962 O.3            1 S1                 0.0000
      8 ****         0.7221  -0.7148  -1.1742 C.3            1 S1                 0.0000
      9 ****        -0.0634   0.3128  -0.5036 N.pl3          1 S1                 0.0000
     10 ****        -0.3598   0.2649   0.8247 C.ar           1 S1                 0.0000
     11 ****        -0.8722   1.3781   1.4152 N.ar           1 S1                 0.0000
     12 ****        -1.1839   1.3851   2.7138 C.ar           1 S1                 0.0000
     13 ****        -1.0656   0.4002   3.6052 N.ar           1 S1                 0.0000
     14 ****        -0.5540  -0.7201   3.0250 C.ar           1 S1                 0.0000
     15 ****        -0.2925  -1.9341   3.6235 N.pl3          1 S1                 0.0000
     16 ****         0.2110  -2.7421   2.6358 C.2            1 S1                 0.0000
     17 ****         0.3007  -2.1754   1.4635 N.2            1 S1                 0.0000
     18 ****        -0.1759  -0.8800   1.6594 C.ar           1 S1                 0.0000
     19 ****        -0.4609  -2.1286   4.5998 H              1 S1                 0.0000
     20 ****         0.2195   2.4014  -0.6909 H              1 S1                 0.0000
     21 ****         0.6482   1.8421  -3.3469 H              1 S1                 0.0000
     22 ****         1.8795   1.6589  -2.1049 H              1 S1                 0.0000
     23 ****         0.0541  -0.5066  -3.2160 H              1 S1                 0.0000
     24 ****         2.0429  -1.6167  -3.2629 H              1 S1                 0.0000
     25 ****         0.2174  -1.6811  -1.1711 H              1 S1                 0.0000
     26 ****         1.6826  -0.8174  -0.6664 H              1 S1                 0.0000
     27 ****        -1.5847   2.3144   3.0912 H              1 S1                 0.0000
     28 ****         0.5088  -3.7651   2.8125 H              1 S1                 0.0000
     29 ****        -2.8867   3.2360  -1.9613 LP             1 S1                 0.0000
     30 ****        -1.4088   3.6801  -1.1748 LP             1 S1                 0.0000
     31 ****        -3.0719   1.0603  -2.7281 LP             1 S1                 0.0000
     32 ****        -1.7210   0.0078  -2.4690 LP             1 S1                 0.0000
     33 ****         2.8794  -0.4207  -2.6294 LP             1 S1                 0.0000
     34 ****         2.2004  -0.2776  -4.1077 LP             1 S1                 0.0000
     35 ****        -1.0176   2.2031   0.8690 LP             1 S1                 0.0000
     36 ****        -1.3186   0.4746   4.5698 LP             1 S1                 0.0000
     37 ****         0.6367  -2.5806   0.6132 LP             1 S1                 0.0000
@<TRIPOS>BOND
    1    1    2 ar    
    2    2    3 ar    
    3    2    4 1     
    4    4    5 1     
    5    4   20 1     
    6    4    9 1     
    7    5    6 1     
    8    5   21 1     
    9    5   22 1     
   10    6    7 1     
   11    6    8 1     
   12    6   23 1     
   13    7   24 1     
   14    8   25 1     
   15    8   26 1     
   16    8    9 1     
   17    9   10 1     
   18   10   11 ar    
   19   10   18 ar    
   20   11   12 ar    
   21   12   27 1     
   22   12   13 ar    
   23   13   14 ar    
   24   14   15 1     
   25   14   18 ar    
   26   15   16 1     
   27   15   19 1     
   28   16   17 2     
   29   16   28 1     
   30   17   18 1     
   31    1   29 1     
   32    1   30 1     
   33    3   31 1     
   34    3   32 1     
   35    7   33 1     
   36    7   34 1     
   37   11   35 1     
   38   13   36 1     
   39   17   37 1     
@<TRIPOS>SUBSTRUCTURE
      1 S1             1
@<TRIPOS>SET
LONE_PAIRS      STATIC     ATOMS    <user>   **** ""
9 29 30 31 32 33 34 35 36 37
DONOR_HYDROGENS      STATIC     ATOMS    <user>   **** ""
2 24 19
ATOM$BLUE        STATIC     ATOMS    COLORGROUP SYSTEM
9 29 30 31 32 33 34 35 36 37
ATOM$RED        STATIC     ATOMS    COLORGROUP SYSTEM
2 24 19
