AV-unprocessed.smi:1454|AV-procd|sdf|5914|dock5
  -GOLD-   22720 6 03D 1   1.00000     0.00000
 Structure written by MMmdl.
 45 46  0  0  0  0  0  0  0  0  2 V2000
  144.6678  137.7634  152.7813 O   0  0  0  0  0  0  0  0  0  0  0  0
  145.8700  137.7229  152.5220 C   0  0  0  0  0  0  0  0  0  0  0  0
  146.5753  138.9807  152.0047 C   0  0  0  0  0  0  0  0  0  0  0  0
  146.9893  139.9693  153.1160 C   0  0  0  0  0  0  0  0  0  0  0  0
  148.0110  139.4193  154.0013 N   0  0  0  0  0  0  0  0  0  0  0  0
  149.2311  139.9318  154.2173 C   0  0  0  0  0  0  0  0  0  0  0  0
  149.6299  140.9678  153.6857 O   0  0  0  0  0  0  0  0  0  0  0  0
  150.1271  139.1432  155.1888 C   0  0  0  0  0  0  0  0  0  0  0  0
  151.5400  139.7449  155.3369 C   0  0  0  0  0  0  0  0  0  0  0  0
  152.4820  138.9100  154.4521 C   0  0  0  0  0  0  0  0  0  0  0  0
  151.6231  137.8213  153.8012 C   0  0  0  0  0  0  0  0  0  0  0  0
  150.3820  137.7157  154.6848 C   0  0  0  0  0  0  0  0  0  0  0  0
  146.6306  136.6314  152.7075 N   0  0  0  0  0  0  0  0  0  0  0  0
  146.2043  135.4012  153.3733 C   0  0  0  0  0  0  0  0  0  0  0  0
  146.5782  134.1207  152.5978 C   0  0  0  0  0  0  0  0  0  0  0  0
  145.5979  133.6857  151.5166 C   0  0  0  0  0  0  0  0  0  0  0  0
  145.8548  132.5222  150.7569 C   0  0  0  0  0  0  0  0  0  0  0  0
  144.9385  132.1217  149.7624 C   0  0  0  0  0  0  0  0  0  0  0  0
  143.7781  132.8920  149.5493 C   0  0  0  0  0  0  0  0  0  0  0  0
  143.5526  133.9876  150.3058 N   0  3  0  0  0  0  0  0  0  0  0  0
  144.4021  134.3985  151.2723 C   0  0  0  0  0  0  0  0  0  0  0  0
  147.4742  138.6397  151.4901 H   0  0  0  0  0  0  0  0  0  0  0  0
  145.9716  139.4812  151.2459 H   0  0  0  0  0  0  0  0  0  0  0  0
  147.3170  140.9265  152.7061 H   0  0  0  0  0  0  0  0  0  0  0  0
  146.1189  140.1932  153.7332 H   0  0  0  0  0  0  0  0  0  0  0  0
  147.7700  138.5686  154.4898 H   0  0  0  0  0  0  0  0  0  0  0  0
  149.6320  139.1169  156.1612 H   0  0  0  0  0  0  0  0  0  0  0  0
  151.5814  140.8029  155.0737 H   0  0  0  0  0  0  0  0  0  0  0  0
  151.8600  139.6757  156.3773 H   0  0  0  0  0  0  0  0  0  0  0  0
  152.9819  139.5211  153.7010 H   0  0  0  0  0  0  0  0  0  0  0  0
  153.2591  138.4568  155.0685 H   0  0  0  0  0  0  0  0  0  0  0  0
  151.3257  138.1312  152.7999 H   0  0  0  0  0  0  0  0  0  0  0  0
  152.1519  136.8724  153.7073 H   0  0  0  0  0  0  0  0  0  0  0  0
  150.5882  137.0625  155.5336 H   0  0  0  0  0  0  0  0  0  0  0  0
  149.5336  137.2885  154.1477 H   0  0  0  0  0  0  0  0  0  0  0  0
  147.6058  136.6916  152.4523 H   0  0  0  0  0  0  0  0  0  0  0  0
  146.7020  135.3779  154.3430 H   0  0  0  0  0  0  0  0  0  0  0  0
  145.1370  135.4199  153.5977 H   0  0  0  0  0  0  0  0  0  0  0  0
  147.5639  134.2539  152.1494 H   0  0  0  0  0  0  0  0  0  0  0  0
  146.6774  133.2946  153.3026 H   0  0  0  0  0  0  0  0  0  0  0  0
  146.7460  131.9381  150.9319 H   0  0  0  0  0  0  0  0  0  0  0  0
  145.1248  131.2385  149.1697 H   0  0  0  0  0  0  0  0  0  0  0  0
  143.0266  132.6632  148.8080 H   0  0  0  0  0  0  0  0  0  0  0  0
  144.0993  135.2855  151.8087 H   0  0  0  0  0  0  0  0  0  0  0  0
  142.7033  134.5285  150.1413 H   0  0  0  0  0  0  0  0  0  0  0  0
  1  2  2  0  0  0  0
  2  3  1  0  0  0  0
  2 13  1  0  0  0  0
  3  4  1  0  0  0  0
  3 22  1  0  0  0  0
  3 23  1  0  0  0  0
  4  5  1  0  0  0  0
  4 24  1  0  0  0  0
  4 25  1  0  0  0  0
  5  6  1  0  0  0  0
  5 26  1  0  0  0  0
  6  7  2  0  0  0  0
  6  8  1  0  0  0  0
  8 12  1  0  0  0  0
  8  9  1  0  0  0  0
  8 27  1  0  0  0  0
  9 10  1  0  0  0  0
  9 28  1  0  0  0  0
  9 29  1  0  0  0  0
 10 11  1  0  0  0  0
 10 30  1  0  0  0  0
 10 31  1  0  0  0  0
 11 12  1  0  0  0  0
 11 32  1  0  0  0  0
 11 33  1  0  0  0  0
 12 34  1  0  0  0  0
 12 35  1  0  0  0  0
 13 14  1  0  0  0  0
 13 36  1  0  0  0  0
 14 15  1  0  0  0  0
 14 37  1  0  0  0  0
 14 38  1  0  0  0  0
 15 16  1  0  0  0  0
 15 39  1  0  0  0  0
 15 40  1  0  0  0  0
 16 21  1  0  0  0  0
 16 17  2  0  0  0  0
 17 18  1  0  0  0  0
 17 41  1  0  0  0  0
 18 19  2  0  0  0  0
 18 42  1  0  0  0  0
 19 20  1  0  0  0  0
 19 43  1  0  0  0  0
 20 21  2  0  0  0  0
 20 45  1  0  0  0  0
 21 44  1  0  0  0  0
M  CHG  1  20   1
M  END
> <s_m_source_file>
AV-unprocessed.smi

> <i_m_source_file_index>
1454

> <i_lp_mmshare_version>
43012

> <i_f3d_flags>
0

> <s_epik_input>
W2NIXTFuW2NIXVtjSF1bY0hdYzFbQ0gyXVtDSDJdW05IXUMoPU8pW0NIMl1bQ0gyXVtOSF1DKD1PKVtDSF0yW0NIMl1bQ0gyXVtDSDJdW0NIMl0y

> <s_epik_cmdline>
J2VwaWtfcHl0aG9uJywgJy1waCcsICc3LjAnLCAnLXRuJywgJzgnLCAnLW1hJywgJzIwMCcsICctbWV0YWxfYmluZGluZycsICctaW1hZScsICc8aW5maWxlLm1hZT4nLCAnLW9tYWUnLCAnPG91dGZpbGUubWFlPic=

> <r_epik_Ionization_Penalty>
2.25878

> <r_epik_Ionization_Penalty_Charging>
2.25878

> <r_epik_Ionization_Penalty_Neutral>
5.05393e-08

> <r_epik_State_Penalty>
2.40647

> <r_epik_Charging_Adjusted_Penalty>
4.66526

> <i_epik_Tot_Q>
1

> <i_epik_Tot_abs_Q>
1

> <r_epik_Metal_State_Penalty>
2.41947

> <b_epik_Metal_Only>
0

> <s_lp_Force_Field>
OPLS_2005

> <r_lp_Energy>
23.282

> <b_lp_Chiralities_Consistent>
1

> <s_lp_Variant>
AV-unprocessed.smi:1454-2

> <Gold.Version>
5.8.1

> <Gold.Id.Protein>
6NUR|6NUR_protein|mol2

> <Gold.PLP.Fitness>
51.8011

> <Gold.PLP.PLP>
-40.1454

> <Gold.PLP.part.hbond>
-3.7725

> <Gold.PLP.part.metal>
0.0000

> <Gold.PLP.part.buried>
-3.3207

> <Gold.PLP.part.nonpolar>
-36.3518

> <Gold.PLP.part.repulsive>
4.0614

> <Gold.PLP.ligand.clash>
0.0000

> <Gold.PLP.ligand.torsion>
0.5628

> <Gold.PLP.Chemscore.Hbond>
4.2130

> <Gold.PLP.Chemscore.CHOScore>
0.0000

> <Gold.PLP.Chemscore.Metal>
0.0000

> <Gold.Chemscore.Hbonds>
donor molecule, donor type, donor heavy atom, donor atom, acceptor molecule, acceptor atom, score
      L1  H    13    36       P1  7948  1.00
      L1  H    20    45       P1 10186  1.79
      P1  H  7989  7998       L1     7  0.35
      P1  H  8011  8017       L1     7  0.99

> <Gold.PLP.Chemscore.Internal.Correction>
0.1423

> <Gold.Rescore>
     Score         DG    S(hbond)    S(metal)    S(lipo)     H(rot)  DE(clash)    DE(int)     intcor
     19.27     -21.89       2.98        0.00     104.11       2.23       2.01       0.61       ----

> <Gold.Chemscore.Fitness>
19.2706

> <Gold.Chemscore.DG>
-21.8924

> <Gold.Chemscore.ZeroCoef>
-5.4800

> <Gold.Chemscore.Hbond>
2.9797

> <Gold.Chemscore.Metal>
0.0000

> <Gold.Chemscore.Lipo>
104.1144

> <Gold.Chemscore.Internal_Hbond>
0.0000

> <Gold.Chemscore.DEClash>
2.0141

> <Gold.Chemscore.DEInternal>
0.6077

> <Gold.Chemscore.Rot>
2.2348

> <Gold.Chemscore.Internal.Correction>
   9.000000E+99

> <Gold.Chemscore.Hbonds>
donor molecule, donor type, donor heavy atom, donor atom, acceptor molecule, acceptor atom, score
      L1  H    13    36       P1  7948  0.92
      L1  H    20    45       P1 10186  0.62
      P1  H  7989  7998       L1     7  0.25
      P1  H  8011  8017       L1     7  0.92

> <Gold.Chemscore.Hbond.Weighted>
-9.9522

> <Gold.Chemscore.Metal.Weighted>
-0.0000

> <Gold.Chemscore.Lipo.Weighted>
-12.1814

> <Gold.Chemscore.Internal_Hbond.Weighted>
0.0000

> <Gold.Chemscore.DEClash.Weighted>
2.0141

> <Gold.Chemscore.DEInternal.Weighted>
0.6077

> <Gold.Chemscore.Rot.Weighted>
5.7212

> <Gold.Chemscore.Internal.Correction.Weighted>
   9.000000E+99

> <Gold.Protein.RotatedTorsions>
[ 6907 6896 6895 6894 ] final    1.93 input  -60.11 | X-H torsion
[ 7974 7965 7964 7962 ] final -165.97 input  175.53 | X-H torsion
[ 8008 7997 7996 7995 ] final  142.12 input   59.86 | X-H torsion
[ 10167 10162 10161 10158 ] final -157.71 input  -65.29 | X-H torsion
[ 10718 10713 10712 10709 ] final  -69.51 input   66.30 | X-H torsion
[ 10763 10752 10751 10750 ] final  144.09 input  -60.55 | X-H torsion
[ 11005 11000 10999 10996 ] final   84.83 input  -57.11 | X-H torsion

> <Gold.Protein.ActiveResidues>
 VAL166  LYS551  ARG553  GLY616  TRP617  ASP618  TYR619  PRO620  LYS621  CYS622 
 ASP623  PHE694  ASN695  SER759  ASP760  ASP761  ALA762  ILE779  LEU786  VAL792 
 PHE793  MET794  SER795  GLU796  ALA797  LYS798  CYS799  TRP800  GLU811  SER814 

> <Gold.Protein.RotatedAtoms>
  151.6007  135.1047  160.0059 H   0  0  0  0  0  0  0  0  0  0  0  0  # atno 6907 bound_to 6896
  152.4259  133.7191  159.6533 H   0  0  0  0  0  0  0  0  0  0  0  0  # atno 6908 bound_to 6896
  150.8148  133.8284  159.3187 H   0  0  0  0  0  0  0  0  0  0  0  0  # atno 6909 bound_to 6896
  144.7257  140.2736  143.6247 H   0  0  0  0  0  0  0  0  0  0  0  0  # atno 7974 bound_to 7965
  156.2955  140.2297  156.4676 H   0  0  0  0  0  0  0  0  0  0  0  0  # atno 8008 bound_to 7997
  154.7964  140.0451  157.1260 H   0  0  0  0  0  0  0  0  0  0  0  0  # atno 8009 bound_to 7997
  154.9585  140.3051  155.5045 H   0  0  0  0  0  0  0  0  0  0  0  0  # atno 8010 bound_to 7997
  139.6749  143.9681  152.2305 H   0  0  0  0  0  0  0  0  0  0  0  0  # atno 10167 bound_to 10162
  156.0452  130.4314  150.2158 H   0  0  0  0  0  0  0  0  0  0  0  0  # atno 10718 bound_to 10713
  153.9832  135.2939  155.3418 H   0  0  0  0  0  0  0  0  0  0  0  0  # atno 10763 bound_to 10752
  154.7257  135.5090  153.8885 H   0  0  0  0  0  0  0  0  0  0  0  0  # atno 10764 bound_to 10752
  153.0844  135.6689  154.0093 H   0  0  0  0  0  0  0  0  0  0  0  0  # atno 10765 bound_to 10752
  139.8989  134.8244  156.2498 H   0  0  0  0  0  0  0  0  0  0  0  0  # atno 11005 bound_to 11000
  145.8019  139.1967  143.2043 LP  0  0  0  0  0  0  0  0  0  0  0  0  # atno 17320 bound_to 7965
  146.0669  140.7910  142.9707 LP  0  0  0  0  0  0  0  0  0  0  0  0  # atno 17321 bound_to 7965
  139.9455  144.6654  150.8223 LP  0  0  0  0  0  0  0  0  0  0  0  0  # atno 17342 bound_to 10162
  140.7632  143.3216  151.2609 LP  0  0  0  0  0  0  0  0  0  0  0  0  # atno 17343 bound_to 10162
  157.0249  130.9990  151.3329 LP  0  0  0  0  0  0  0  0  0  0  0  0  # atno 17370 bound_to 10713
  157.5318  130.8063  149.7926 LP  0  0  0  0  0  0  0  0  0  0  0  0  # atno 17371 bound_to 10713
  141.0231  133.7030  156.1302 LP  0  0  0  0  0  0  0  0  0  0  0  0  # atno 17394 bound_to 11000
  140.7205  134.4363  157.5575 LP  0  0  0  0  0  0  0  0  0  0  0  0  # atno 17395 bound_to 11000

$$$$
