AV-unprocessed.smi:1809|AV-procd|sdf|7310|dock3
  -GOLD-   22720 8563D 1   1.00000     0.00000
 Structure written by MMmdl.
 40 42  0  0  0  0  0  0  0  0  2 V2000
  153.0812  141.4762  159.8108 C   0  0  0  0  0  0  0  0  0  0  0  0
  152.6916  140.3637  158.8985 C   0  0  0  0  0  0  0  0  0  0  0  0
  153.5846  139.5457  158.3278 N   0  0  0  0  0  0  0  0  0  0  0  0
  152.9825  138.5891  157.5226 N   0  0  0  0  0  0  0  0  0  0  0  0
  151.6483  138.7155  157.5086 C   0  0  0  0  0  0  0  0  0  0  0  0
  150.7833  137.8667  156.7686 N   0  0  0  0  0  0  0  0  0  0  0  0
  151.1016  136.7736  156.0536 C   0  0  0  0  0  0  0  0  0  0  0  0
  152.2384  136.3242  155.9085 O   0  0  0  0  0  0  0  0  0  0  0  0
  150.0120  136.2161  155.5068 N   0  0  0  0  0  0  0  0  0  0  0  0
  150.0027  135.0054  154.6923 C   0  0  0  0  0  0  0  0  0  0  0  0
  148.7942  134.1046  155.0282 C   0  0  1  0  0  0  0  0  0  0  0  0
  147.4354  134.7665  154.6899 C   0  0  0  0  0  0  0  0  0  0  0  0
  147.2156  134.7090  153.2329 N   0  3  2  0  0  0  0  0  0  0  0  0
  145.9745  135.2926  152.6947 C   0  0  0  0  0  0  0  0  0  0  0  0
  145.7426  134.5656  151.3553 C   0  0  0  0  0  0  0  0  0  0  0  0
  146.8123  133.4610  151.2896 C   0  0  0  0  0  0  0  0  0  0  0  0
  147.2663  133.3316  152.7402 C   0  0  1  0  0  0  0  0  0  0  0  0
  148.6633  132.7629  153.0054 C   0  0  0  0  0  0  0  0  0  0  0  0
  148.8989  132.8089  154.4162 O   0  0  0  0  0  0  0  0  0  0  0  0
  151.0143  140.0274  158.4876 S   0  0  0  0  0  0  0  0  0  0  0  0
  154.1434  141.4225  160.0522 H   0  0  0  0  0  0  0  0  0  0  0  0
  152.5103  141.4159  160.7375 H   0  0  0  0  0  0  0  0  0  0  0  0
  152.8779  142.4356  159.3351 H   0  0  0  0  0  0  0  0  0  0  0  0
  149.8062  138.1179  156.7939 H   0  0  0  0  0  0  0  0  0  0  0  0
  149.1189  136.6554  155.6766 H   0  0  0  0  0  0  0  0  0  0  0  0
  149.9376  135.3224  153.6512 H   0  0  0  0  0  0  0  0  0  0  0  0
  150.9458  134.4644  154.7788 H   0  0  0  0  0  0  0  0  0  0  0  0
  148.8119  133.9363  156.1057 H   0  0  0  0  0  0  0  0  0  0  0  0
  146.6266  134.2397  155.1986 H   0  0  0  0  0  0  0  0  0  0  0  0
  147.4077  135.8012  155.0334 H   0  0  0  0  0  0  0  0  0  0  0  0
  145.1442  135.0975  153.3753 H   0  0  0  0  0  0  0  0  0  0  0  0
  146.0698  136.3721  152.5746 H   0  0  0  0  0  0  0  0  0  0  0  0
  144.7401  134.1368  151.3300 H   0  0  0  0  0  0  0  0  0  0  0  0
  145.8307  135.2446  150.5066 H   0  0  0  0  0  0  0  0  0  0  0  0
  146.4304  132.5246  150.8816 H   0  0  0  0  0  0  0  0  0  0  0  0
  147.6438  133.7873  150.6631 H   0  0  0  0  0  0  0  0  0  0  0  0
  146.5272  132.7360  153.2808 H   0  0  0  0  0  0  0  0  0  0  0  0
  148.7242  131.7278  152.6693 H   0  0  0  0  0  0  0  0  0  0  0  0
  149.4239  133.3206  152.4599 H   0  0  0  0  0  0  0  0  0  0  0  0
  147.9800  135.1989  152.7902 H   0  0  0  0  0  0  0  0  0  0  0  0
  1  2  1  0  0  0  0
  1 21  1  0  0  0  0
  1 22  1  0  0  0  0
  1 23  1  0  0  0  0
  2 20  1  0  0  0  0
  2  3  2  0  0  0  0
  3  4  1  0  0  0  0
  4  5  2  0  0  0  0
  5  6  1  0  0  0  0
  5 20  1  0  0  0  0
  6  7  1  0  0  0  0
  6 24  1  0  0  0  0
  7  8  2  0  0  0  0
  7  9  1  0  0  0  0
  9 10  1  0  0  0  0
  9 25  1  0  0  0  0
 10 11  1  0  0  0  0
 10 26  1  0  0  0  0
 10 27  1  0  0  0  0
 11 19  1  0  0  0  0
 11 12  1  0  0  0  0
 11 28  1  0  0  0  0
 12 13  1  0  0  0  0
 12 29  1  0  0  0  0
 12 30  1  0  0  0  0
 13 17  1  0  0  0  0
 13 14  1  0  0  0  0
 13 40  1  0  0  0  0
 14 15  1  0  0  0  0
 14 31  1  0  0  0  0
 14 32  1  0  0  0  0
 15 16  1  0  0  0  0
 15 33  1  0  0  0  0
 15 34  1  0  0  0  0
 16 17  1  0  0  0  0
 16 35  1  0  0  0  0
 16 36  1  0  0  0  0
 17 18  1  0  0  0  0
 17 37  1  0  0  0  0
 18 19  1  0  0  0  0
 18 38  1  0  0  0  0
 18 39  1  0  0  0  0
M  CHG  1  13   1
M  END
> <s_m_source_file>
AV-unprocessed.smi

> <i_m_source_file_index>
1809

> <i_lp_mmshare_version>
43012

> <i_f3d_flags>
0

> <s_epik_input>
W0NIM11jMW5uYyhzMSlbTkhdQyg9TylbTkhdW0NIMl1bQ0BIXShbQ0gyXTIpT1tDSDJdW0NAQEhdKE4yMylbQ0gyXVtDSDJdW0NIMl0z

> <s_epik_cmdline>
J2VwaWtfcHl0aG9uJywgJy1waCcsICc3LjAnLCAnLXRuJywgJzgnLCAnLW1hJywgJzIwMCcsICctbWV0YWxfYmluZGluZycsICctaW1hZScsICc8aW5maWxlLm1hZT4nLCAnLW9tYWUnLCAnPG91dGZpbGUubWFlPic=

> <r_lp_tautomer_probability>
1

> <r_epik_Ionization_Penalty>
0.112474

> <r_epik_Ionization_Penalty_Charging>
0.108916

> <r_epik_Ionization_Penalty_Neutral>
0.00355844

> <r_epik_State_Penalty>
0.0565397

> <r_epik_Charging_Adjusted_Penalty>
0.165456

> <i_epik_Tot_Q>
1

> <i_epik_Tot_abs_Q>
1

> <r_epik_Metal_State_Penalty>
0.422831

> <b_epik_Metal_Only>
0

> <s_lp_Force_Field>
OPLS_2005

> <r_lp_Energy>
36.2916

> <b_lp_Chiralities_Consistent>
1

> <s_lp_Variant>
AV-unprocessed.smi:1809-2

> <Gold.Version>
5.8.1

> <Gold.Id.Protein>
6NUR|6NUR_protein|mol2

> <Gold.PLP.Fitness>
39.3173

> <Gold.PLP.PLP>
-27.6563

> <Gold.PLP.part.hbond>
-3.5029

> <Gold.PLP.part.metal>
0.0000

> <Gold.PLP.part.buried>
-3.6958

> <Gold.PLP.part.nonpolar>
-21.0515

> <Gold.PLP.part.repulsive>
0.1399

> <Gold.PLP.ligand.clash>
0.0000

> <Gold.PLP.ligand.torsion>
0.1758

> <Gold.PLP.Chemscore.Hbond>
4.0000

> <Gold.PLP.Chemscore.CHOScore>
0.0000

> <Gold.PLP.Chemscore.Metal>
0.0000

> <Gold.Chemscore.Hbonds>
donor molecule, donor type, donor heavy atom, donor atom, acceptor molecule, acceptor atom, score
      L1  H    13    40       P1  7948  2.00
      P1  H  7997  8009       L1     3  0.95
      P1  H 10752 10763       L1     8  1.00

> <Gold.PLP.Chemscore.Internal.Correction>
0.0125

> <Gold.Rescore>
     Score         DG    S(hbond)    S(metal)    S(lipo)     H(rot)  DE(clash)    DE(int)     intcor
     16.16     -17.64       2.63        0.00      58.00       1.34       0.03       1.45       ----

> <Gold.Chemscore.Fitness>
16.1600

> <Gold.Chemscore.DG>
-17.6364

> <Gold.Chemscore.ZeroCoef>
-5.4800

> <Gold.Chemscore.Hbond>
2.6342

> <Gold.Chemscore.Metal>
0.0000

> <Gold.Chemscore.Lipo>
58.0037

> <Gold.Chemscore.Internal_Hbond>
0.0000

> <Gold.Chemscore.DEClash>
0.0270

> <Gold.Chemscore.DEInternal>
1.4494

> <Gold.Chemscore.Rot>
1.3391

> <Gold.Chemscore.Internal.Correction>
   9.000000E+99

> <Gold.Chemscore.Hbonds>
donor molecule, donor type, donor heavy atom, donor atom, acceptor molecule, acceptor atom, score
      L1  H    13    40       P1  7948  0.99
      P1  H  7997  8009       L1     3  0.21
      P1  H 10752 10763       L1     8  0.92

> <Gold.Chemscore.Hbond.Weighted>
-8.7981

> <Gold.Chemscore.Metal.Weighted>
-0.0000

> <Gold.Chemscore.Lipo.Weighted>
-6.7864

> <Gold.Chemscore.Internal_Hbond.Weighted>
0.0000

> <Gold.Chemscore.DEClash.Weighted>
0.0270

> <Gold.Chemscore.DEInternal.Weighted>
1.4494

> <Gold.Chemscore.Rot.Weighted>
3.4281

> <Gold.Chemscore.Internal.Correction.Weighted>
   9.000000E+99

> <Gold.Protein.RotatedTorsions>
[ 6907 6896 6895 6894 ] final   36.99 input  -60.11 | X-H torsion
[ 7974 7965 7964 7962 ] final -152.86 input  175.53 | X-H torsion
[ 8008 7997 7996 7995 ] final  130.02 input   59.86 | X-H torsion
[ 10167 10162 10161 10158 ] final  167.65 input  -65.29 | X-H torsion
[ 10718 10713 10712 10709 ] final  167.43 input   66.30 | X-H torsion
[ 10763 10752 10751 10750 ] final  100.19 input  -60.55 | X-H torsion
[ 11005 11000 10999 10996 ] final -122.69 input  -57.11 | X-H torsion

> <Gold.Protein.ActiveResidues>
 VAL166  LYS551  ARG553  GLY616  TRP617  ASP618  TYR619  PRO620  LYS621  CYS622 
 ASP623  PHE694  ASN695  SER759  ASP760  ASP761  ALA762  ILE779  LEU786  VAL792 
 PHE793  MET794  SER795  GLU796  ALA797  LYS798  CYS799  TRP800  GLU811  SER814 

> <Gold.Protein.RotatedAtoms>
  152.1372  134.9090  160.0555 H   0  0  0  0  0  0  0  0  0  0  0  0  # atno 6907 bound_to 6896
  152.0172  133.3879  159.4251 H   0  0  0  0  0  0  0  0  0  0  0  0  # atno 6908 bound_to 6896
  150.6861  134.3587  159.4985 H   0  0  0  0  0  0  0  0  0  0  0  0  # atno 6909 bound_to 6896
  144.7771  140.4605  143.5865 H   0  0  0  0  0  0  0  0  0  0  0  0  # atno 7974 bound_to 7965
  156.2947  140.2606  156.2694 H   0  0  0  0  0  0  0  0  0  0  0  0  # atno 8008 bound_to 7997
  154.9710  140.0391  157.2253 H   0  0  0  0  0  0  0  0  0  0  0  0  # atno 8009 bound_to 7997
  154.7859  140.2803  155.6033 H   0  0  0  0  0  0  0  0  0  0  0  0  # atno 8010 bound_to 7997
  139.4950  144.3899  151.9529 H   0  0  0  0  0  0  0  0  0  0  0  0  # atno 10167 bound_to 10162
  157.0516  131.0315  151.2679 H   0  0  0  0  0  0  0  0  0  0  0  0  # atno 10718 bound_to 10713
  153.3109  135.4087  155.1335 H   0  0  0  0  0  0  0  0  0  0  0  0  # atno 10763 bound_to 10752
  154.8575  135.3564  154.5725 H   0  0  0  0  0  0  0  0  0  0  0  0  # atno 10764 bound_to 10752
  153.6154  135.7066  153.5389 H   0  0  0  0  0  0  0  0  0  0  0  0  # atno 10765 bound_to 10752
  140.9976  134.0449  157.3578 H   0  0  0  0  0  0  0  0  0  0  0  0  # atno 11005 bound_to 11000
  145.6154  139.1518  143.3052 LP  0  0  0  0  0  0  0  0  0  0  0  0  # atno 17320 bound_to 7965
  146.1958  140.6267  142.9125 LP  0  0  0  0  0  0  0  0  0  0  0  0  # atno 17321 bound_to 7965
  140.3336  144.3286  150.5982 LP  0  0  0  0  0  0  0  0  0  0  0  0  # atno 17342 bound_to 10162
  140.5624  143.2190  151.7742 LP  0  0  0  0  0  0  0  0  0  0  0  0  # atno 17343 bound_to 10162
  157.5025  130.7889  149.7620 LP  0  0  0  0  0  0  0  0  0  0  0  0  # atno 17370 bound_to 10713
  156.0006  130.3882  150.2622 LP  0  0  0  0  0  0  0  0  0  0  0  0  # atno 17371 bound_to 10713
  139.9022  135.0168  156.7324 LP  0  0  0  0  0  0  0  0  0  0  0  0  # atno 17394 bound_to 11000
  140.6941  133.9364  155.7984 LP  0  0  0  0  0  0  0  0  0  0  0  0  # atno 17395 bound_to 11000

$$$$
