AV-unprocessed.smi:3007|AV-procd|sdf|11447|dock2
  -GOLD-   2272016373D 1   1.00000     0.00000
 Structure written by MMmdl.
 39 40  0  0  0  0  0  0  0  0  1 V2000
  151.5208  145.0542  160.5676 C   0  0  0  0  0  0  0  0  0  0  0  0
  151.8707  143.5711  160.7088 C   0  0  0  0  0  0  0  0  0  0  0  0
  151.6929  143.0364  161.8035 O   0  0  0  0  0  0  0  0  0  0  0  0
  152.3562  142.9002  159.6368 N   0  0  0  0  0  0  0  0  0  0  0  0
  152.6405  141.4611  159.6635 C   0  0  0  0  0  0  0  0  0  0  0  0
  151.5785  140.7320  158.8211 C   0  0  0  0  0  0  0  0  0  0  0  0
  151.5208  141.2887  157.3820 C   0  0  0  0  0  0  0  0  0  0  0  0
  150.3795  140.7081  156.6834 N   0  0  0  0  0  0  0  0  0  0  0  0
  150.4199  140.1239  155.4749 C   0  0  0  0  0  0  0  0  0  0  0  0
  151.4507  140.0397  154.8059 O   0  0  0  0  0  0  0  0  0  0  0  0
  149.0872  139.5639  154.9475 C   0  0  1  0  0  0  0  0  0  0  0  0
  148.5069  138.4451  155.8371 C   0  0  0  0  0  0  0  0  0  0  0  0
  148.1267  140.6404  154.7293 N   0  0  0  0  0  0  0  0  0  0  0  0
  147.6399  141.1127  153.5270 C   0  0  0  0  0  0  0  0  0  0  0  0
  146.7963  142.1499  153.8037 C   0  0  0  0  0  0  0  0  0  0  0  0
  146.8368  142.2489  155.2219 C   0  0  0  0  0  0  0  0  0  0  0  0
  147.6385  141.3521  155.7721 N   0  0  0  0  0  0  0  0  0  0  0  0
  151.4370  142.8331  157.3738 C   0  0  0  0  0  0  0  0  0  0  0  0
  152.5092  143.4545  158.2863 C   0  0  0  0  0  0  0  0  0  0  0  0
  150.7684  145.2033  159.7927 H   0  0  0  0  0  0  0  0  0  0  0  0
  152.4075  145.6381  160.3194 H   0  0  0  0  0  0  0  0  0  0  0  0
  151.1166  145.4443  161.5023 H   0  0  0  0  0  0  0  0  0  0  0  0
  153.6349  141.2796  159.2532 H   0  0  0  0  0  0  0  0  0  0  0  0
  152.6585  141.0522  160.6746 H   0  0  0  0  0  0  0  0  0  0  0  0
  151.7893  139.6621  158.8009 H   0  0  0  0  0  0  0  0  0  0  0  0
  150.6053  140.8459  159.3018 H   0  0  0  0  0  0  0  0  0  0  0  0
  152.4412  140.9901  156.8764 H   0  0  0  0  0  0  0  0  0  0  0  0
  149.4917  140.7369  157.1631 H   0  0  0  0  0  0  0  0  0  0  0  0
  149.2985  139.1214  153.9726 H   0  0  0  0  0  0  0  0  0  0  0  0
  149.2041  137.6114  155.9268 H   0  0  0  0  0  0  0  0  0  0  0  0
  147.5827  138.0519  155.4128 H   0  0  0  0  0  0  0  0  0  0  0  0
  148.2830  138.7986  156.8444 H   0  0  0  0  0  0  0  0  0  0  0  0
  147.9328  140.6765  152.5832 H   0  0  0  0  0  0  0  0  0  0  0  0
  146.2382  142.7495  153.0998 H   0  0  0  0  0  0  0  0  0  0  0  0
  146.3151  142.9436  155.8635 H   0  0  0  0  0  0  0  0  0  0  0  0
  151.5517  143.2116  156.3575 H   0  0  0  0  0  0  0  0  0  0  0  0
  150.4507  143.1533  157.7128 H   0  0  0  0  0  0  0  0  0  0  0  0
  152.4449  144.5409  158.2494 H   0  0  0  0  0  0  0  0  0  0  0  0
  153.5034  143.2110  157.9089 H   0  0  0  0  0  0  0  0  0  0  0  0
  1  2  1  0  0  0  0
  1 20  1  0  0  0  0
  1 21  1  0  0  0  0
  1 22  1  0  0  0  0
  2  3  2  0  0  0  0
  2  4  1  0  0  0  0
  4 19  1  0  0  0  0
  4  5  1  0  0  0  0
  5  6  1  0  0  0  0
  5 23  1  0  0  0  0
  5 24  1  0  0  0  0
  6  7  1  0  0  0  0
  6 25  1  0  0  0  0
  6 26  1  0  0  0  0
  7  8  1  0  0  0  0
  7 18  1  0  0  0  0
  7 27  1  0  0  0  0
  8  9  1  0  0  0  0
  8 28  1  0  0  0  0
  9 10  2  0  0  0  0
  9 11  1  0  0  0  0
 11 12  1  0  0  0  0
 11 13  1  0  0  0  0
 11 29  1  0  0  0  0
 12 30  1  0  0  0  0
 12 31  1  0  0  0  0
 12 32  1  0  0  0  0
 13 17  1  0  0  0  0
 13 14  1  0  0  0  0
 14 15  2  0  0  0  0
 14 33  1  0  0  0  0
 15 16  1  0  0  0  0
 15 34  1  0  0  0  0
 16 17  2  0  0  0  0
 16 35  1  0  0  0  0
 18 19  1  0  0  0  0
 18 36  1  0  0  0  0
 18 37  1  0  0  0  0
 19 38  1  0  0  0  0
 19 39  1  0  0  0  0
M  END
> <s_m_source_file>
AV-unprocessed.smi

> <i_m_source_file_index>
3007

> <i_lp_mmshare_version>
43012

> <i_f3d_flags>
0

> <s_epik_input>
W0NIM11DKD1PKU4xW0NIMl1bQ0gyXVtDSF0oW0NIMl1bQ0gyXTEpW05IXUMoPU8pW0NASF0oW0NIM10pbjJbY0hdW2NIXVtjSF1uMg==

> <s_epik_cmdline>
J2VwaWtfcHl0aG9uJywgJy1waCcsICc3LjAnLCAnLXRuJywgJzgnLCAnLW1hJywgJzIwMCcsICctbWV0YWxfYmluZGluZycsICctaW1hZScsICc8aW5maWxlLm1hZT4nLCAnLW9tYWUnLCAnPG91dGZpbGUubWFlPic=

> <r_lp_tautomer_probability>
1

> <r_epik_Ionization_Penalty>
4.2887e-05

> <r_epik_Ionization_Penalty_Charging>
0

> <r_epik_Ionization_Penalty_Neutral>
4.2887e-05

> <r_epik_State_Penalty>
-0

> <r_epik_Charging_Adjusted_Penalty>
0

> <i_epik_Tot_Q>
0

> <i_epik_Tot_abs_Q>
0

> <r_epik_Metal_State_Penalty>
-0

> <b_epik_Metal_Only>
0

> <s_lp_Force_Field>
OPLS_2005

> <r_lp_Energy>
24.2796

> <b_lp_Chiralities_Consistent>
1

> <s_lp_Variant>
AV-unprocessed.smi:3007-2

> <Gold.Version>
5.8.1

> <Gold.Id.Protein>
6NUR|6NUR_protein|mol2

> <Gold.PLP.Fitness>
44.8186

> <Gold.PLP.PLP>
-37.5036

> <Gold.PLP.part.hbond>
-1.9753

> <Gold.PLP.part.metal>
0.0000

> <Gold.PLP.part.buried>
-6.0175

> <Gold.PLP.part.nonpolar>
-31.1776

> <Gold.PLP.part.repulsive>
0.8828

> <Gold.PLP.ligand.clash>
0.0000

> <Gold.PLP.ligand.torsion>
0.2108

> <Gold.PLP.Chemscore.Hbond>
1.5366

> <Gold.PLP.Chemscore.CHOScore>
1.0000

> <Gold.PLP.Chemscore.Metal>
0.0000

> <Gold.Chemscore.Hbonds>
donor molecule, donor type, donor heavy atom, donor atom, acceptor molecule, acceptor atom, score
      P1  H  6933  6945       L1     3  0.54
      P1  H  7989  7998       L1    10  1.00
      L1  C    14    33       P1  7957  1.00

> <Gold.PLP.Chemscore.Internal.Correction>
0.1268

> <Gold.Rescore>
     Score         DG    S(hbond)    S(metal)    S(lipo)     H(rot)  DE(clash)    DE(int)     intcor
     14.86     -16.98       1.80        0.00      78.83       1.46       0.70       1.42       ----

> <Gold.Chemscore.Fitness>
14.8568

> <Gold.Chemscore.DG>
-16.9766

> <Gold.Chemscore.ZeroCoef>
-5.4800

> <Gold.Chemscore.Hbond>
1.7983

> <Gold.Chemscore.Metal>
0.0000

> <Gold.Chemscore.Lipo>
78.8333

> <Gold.Chemscore.Internal_Hbond>
0.0000

> <Gold.Chemscore.DEClash>
0.6961

> <Gold.Chemscore.DEInternal>
1.4237

> <Gold.Chemscore.Rot>
1.4583

> <Gold.Chemscore.Internal.Correction>
   9.000000E+99

> <Gold.Chemscore.Hbonds>
donor molecule, donor type, donor heavy atom, donor atom, acceptor molecule, acceptor atom, score
      P1  H  6933  6945       L1     3  0.53
      P1  H  7989  7998       L1    10  0.94

> <Gold.Chemscore.Hbond.Weighted>
-6.0063

> <Gold.Chemscore.Metal.Weighted>
-0.0000

> <Gold.Chemscore.Lipo.Weighted>
-9.2235

> <Gold.Chemscore.Internal_Hbond.Weighted>
0.0000

> <Gold.Chemscore.DEClash.Weighted>
0.6961

> <Gold.Chemscore.DEInternal.Weighted>
1.4237

> <Gold.Chemscore.Rot.Weighted>
3.7332

> <Gold.Chemscore.Internal.Correction.Weighted>
   9.000000E+99

> <Gold.Protein.RotatedTorsions>
[ 6907 6896 6895 6894 ] final -132.10 input  -60.11 | X-H torsion
[ 7974 7965 7964 7962 ] final   -6.31 input  175.53 | X-H torsion
[ 8008 7997 7996 7995 ] final  106.41 input   59.86 | X-H torsion
[ 10167 10162 10161 10158 ] final -115.05 input  -65.29 | X-H torsion
[ 10718 10713 10712 10709 ] final -158.90 input   66.30 | X-H torsion
[ 10763 10752 10751 10750 ] final -143.20 input  -60.55 | X-H torsion
[ 11005 11000 10999 10996 ] final -139.07 input  -57.11 | X-H torsion

> <Gold.Protein.ActiveResidues>
 VAL166  LYS551  ARG553  GLY616  TRP617  ASP618  TYR619  PRO620  LYS621  CYS622 
 ASP623  PHE694  ASN695  SER759  ASP760  ASP761  ALA762  ILE779  LEU786  VAL792 
 PHE793  MET794  SER795  GLU796  ALA797  LYS798  CYS799  TRP800  GLU811  SER814 

> <Gold.Protein.RotatedAtoms>
  150.9586  133.6470  159.2758 H   0  0  0  0  0  0  0  0  0  0  0  0  # atno 6907 bound_to 6896
  151.3801  135.0937  159.9503 H   0  0  0  0  0  0  0  0  0  0  0  0  # atno 6908 bound_to 6896
  152.5138  133.9122  159.7548 H   0  0  0  0  0  0  0  0  0  0  0  0  # atno 6909 bound_to 6896
  146.2334  140.2151  142.8336 H   0  0  0  0  0  0  0  0  0  0  0  0  # atno 7974 bound_to 7965
  156.1740  140.3113  155.9026 H   0  0  0  0  0  0  0  0  0  0  0  0  # atno 8008 bound_to 7997
  155.3526  140.0472  157.3063 H   0  0  0  0  0  0  0  0  0  0  0  0  # atno 8009 bound_to 7997
  154.5271  140.2218  155.8881 H   0  0  0  0  0  0  0  0  0  0  0  0  # atno 8010 bound_to 7997
  140.0943  143.4671  152.1851 H   0  0  0  0  0  0  0  0  0  0  0  0  # atno 10167 bound_to 10162
  156.5606  130.8645  151.2808 H   0  0  0  0  0  0  0  0  0  0  0  0  # atno 10718 bound_to 10713
  154.8479  135.3474  154.6150 H   0  0  0  0  0  0  0  0  0  0  0  0  # atno 10763 bound_to 10752
  153.6759  135.6982  153.5137 H   0  0  0  0  0  0  0  0  0  0  0  0  # atno 10764 bound_to 10752
  153.2706  135.4294  155.0940 H   0  0  0  0  0  0  0  0  0  0  0  0  # atno 10765 bound_to 10752
  140.8555  134.2233  157.4737 H   0  0  0  0  0  0  0  0  0  0  0  0  # atno 11005 bound_to 11000
  144.9676  140.8337  143.5475 LP  0  0  0  0  0  0  0  0  0  0  0  0  # atno 17320 bound_to 7965
  145.2129  139.2196  143.5133 LP  0  0  0  0  0  0  0  0  0  0  0  0  # atno 17321 bound_to 7965
  139.5707  144.7461  151.3899 LP  0  0  0  0  0  0  0  0  0  0  0  0  # atno 17342 bound_to 10162
  140.7012  143.7627  150.7406 LP  0  0  0  0  0  0  0  0  0  0  0  0  # atno 17343 bound_to 10162
  157.7369  130.9787  150.2163 LP  0  0  0  0  0  0  0  0  0  0  0  0  # atno 17370 bound_to 10713
  156.2802  130.3732  149.7943 LP  0  0  0  0  0  0  0  0  0  0  0  0  # atno 17371 bound_to 10713
  139.8705  134.9704  156.4701 LP  0  0  0  0  0  0  0  0  0  0  0  0  # atno 17394 bound_to 11000
  140.8742  133.7966  155.9396 LP  0  0  0  0  0  0  0  0  0  0  0  0  # atno 17395 bound_to 11000

$$$$
