#       Name:                AV-unprocessed.smi:69
#       Creating user name   scv26
#       Creation time:       Thu Mar 26 16:54:14 2020


#       File generated by GOLD software.
#

@<TRIPOS>MOLECULE
AV-unprocessed.smi:69
    43    45     1
SMALL
NO_CHARGES


@<TRIPOS>ATOM
      1 ****        -4.8301  -0.5129  -1.4224 N.pl3          1 S1                 0.0000
      2 ****        -3.6447  -0.0932  -0.9595 C.ar           1 S1                 0.0000
      3 ****        -3.6014   1.0649  -0.2601 N.ar           1 S1                 0.0000
      4 ****        -2.4304   1.5040   0.2130 C.ar           1 S1                 0.0000
      5 ****        -1.2220   0.9472   0.0993 N.ar           1 S1                 0.0000
      6 ****        -1.2674  -0.2215  -0.6050 C.ar           1 S1                 0.0000
      7 ****        -2.4365  -0.8058  -1.1666 C.ar           1 S1                 0.0000
      8 ****        -2.1102  -1.9893  -1.8148 N.2            1 S1                 0.0000
      9 ****        -0.8197  -2.0949  -1.6433 C.2            1 S1                 0.0000
     10 ****        -0.2322  -1.0789  -0.9211 N.pl3          1 S1                 0.0000
     11 ****         1.2134  -0.9362  -0.5555 C.3            1 S1                 0.0000
     12 ****         1.5727   0.4034  -0.6803 O.3            1 S1                 0.0000
     13 ****         2.5287   0.7233   0.3230 C.3            1 S1                 0.0000
     14 ****         2.6233   2.2451   0.5301 C.3            1 S1                 0.0000
     15 ****         3.4806   2.8136  -0.4367 O.3            1 S1                 0.0000
     16 ****         2.0451  -0.0848   1.5367 C.3            1 S1                 0.0000
     17 ****         1.0456   0.6187   2.2548 O.3            1 S1                 0.0000
     18 ****         1.5185  -1.3678   0.8954 C.3            1 S1                 0.0000
     19 ****         0.4414  -1.9580   1.6061 O.3            1 S1                 0.0000
     20 ****         1.7471  -1.5362  -1.2943 H              1 S1                 0.0000
     21 ****         3.4977   0.3249   0.0155 H              1 S1                 0.0000
     22 ****         2.8619  -0.2942   2.2281 H              1 S1                 0.0000
     23 ****         2.3279  -2.0973   0.8444 H              1 S1                 0.0000
     24 ****        -4.8888  -1.3747  -1.9460 H              1 S1                 0.0000
     25 ****        -5.6619   0.0303  -1.2428 H              1 S1                 0.0000
     26 ****        -2.4658   2.4331   0.7622 H              1 S1                 0.0000
     27 ****        -0.2564  -2.9279  -2.0380 H              1 S1                 0.0000
     28 ****         1.6397   2.7139   0.4868 H              1 S1                 0.0000
     29 ****         3.0478   2.4659   1.5100 H              1 S1                 0.0000
     30 ****         3.5213   3.7462  -0.2894 H              1 S1                 0.0000
     31 ****         0.6478   0.0226   2.8712 H              1 S1                 0.0000
     32 ****         0.1084  -2.6824   1.0989 H              1 S1                 0.0000
     33 ****        -4.4383   1.5878  -0.0985 LP             1 S1                 0.0000
     34 ****        -0.3857   1.3385   0.4833 LP             1 S1                 0.0000
     35 ****        -2.7210  -2.6152  -2.3000 LP             1 S1                 0.0000
     36 ****         0.7630   0.9793  -0.5674 LP             1 S1                 0.0000
     37 ****         1.9702   0.5608  -1.5843 LP             1 S1                 0.0000
     38 ****         3.1234   2.6319  -1.3529 LP             1 S1                 0.0000
     39 ****         4.3951   2.4182  -0.3510 LP             1 S1                 0.0000
     40 ****         0.3524   0.9621   1.6211 LP             1 S1                 0.0000
     41 ****         1.4585   1.3862   2.7451 LP             1 S1                 0.0000
     42 ****        -0.2824  -1.2819   1.7440 LP             1 S1                 0.0000
     43 ****         0.7632  -2.2875   2.4937 LP             1 S1                 0.0000
@<TRIPOS>BOND
    1    1    2 1     
    2    1   24 1     
    3    1   25 1     
    4    2    7 ar    
    5    2    3 ar    
    6    3    4 ar    
    7    4    5 ar    
    8    4   26 1     
    9    5    6 ar    
   10    6   10 1     
   11    6    7 ar    
   12    7    8 1     
   13    8    9 2     
   14    9   10 1     
   15    9   27 1     
   16   10   11 1     
   17   11   20 1     
   18   11   18 1     
   19   11   12 1     
   20   12   13 1     
   21   13   21 1     
   22   13   14 1     
   23   13   16 1     
   24   14   15 1     
   25   14   28 1     
   26   14   29 1     
   27   15   30 1     
   28   16   22 1     
   29   16   17 1     
   30   16   18 1     
   31   17   31 1     
   32   18   23 1     
   33   18   19 1     
   34   19   32 1     
   35    3   33 1     
   36    5   34 1     
   37    8   35 1     
   38   12   36 1     
   39   12   37 1     
   40   15   38 1     
   41   15   39 1     
   42   17   40 1     
   43   17   41 1     
   44   19   42 1     
   45   19   43 1     
@<TRIPOS>SUBSTRUCTURE
      1 S1             1
@<TRIPOS>SET
LONE_PAIRS      STATIC     ATOMS    <user>   **** ""
11 33 34 35 36 37 38 39 40 41 42 43
DONOR_HYDROGENS      STATIC     ATOMS    <user>   **** ""
5 24 25 30 31 32
ATOM$BLUE        STATIC     ATOMS    COLORGROUP SYSTEM
11 33 34 35 36 37 38 39 40 41 42 43
ATOM$RED        STATIC     ATOMS    COLORGROUP SYSTEM
5 24 25 30 31 32
