AV-unprocessed.smi:3048|AV-procd|sdf|11625|dock9
  -GOLD-   2272017 13D 1   1.00000     0.00000
 Structure written by MMmdl.
 38 39  0  0  0  0  0  0  0  0  2 V2000
  143.6843  131.8967  150.4941 C   0  0  0  0  0  0  0  0  0  0  0  0
  144.1032  133.2459  151.0027 C   0  0  0  0  0  0  0  0  0  0  0  0
  143.6627  133.9115  152.1819 C   0  0  0  0  0  0  0  0  0  0  0  0
  144.2328  135.0939  152.3477 N   0  0  0  0  0  0  0  0  0  0  0  0
  145.0496  135.2271  151.2811 N   0  0  0  0  0  0  0  0  0  0  0  0
  145.8621  136.4220  151.1385 C   0  0  0  0  0  0  0  0  0  0  0  0
  145.7453  137.3451  152.3616 C   0  0  0  0  0  0  0  0  0  0  0  0
  146.9336  138.2103  152.5021 N   0  3  0  0  0  0  0  0  0  0  0  0
  147.1142  138.7798  153.8511 C   0  0  0  0  0  0  0  0  0  0  0  0
  148.4841  139.4603  153.9795 C   0  0  2  0  0  0  0  0  0  0  0  0
  149.5766  138.4735  154.4343 C   0  0  0  0  0  0  0  0  0  0  0  0
  150.9085  139.2028  154.6454 C   0  0  0  0  0  0  0  0  0  0  0  0
  150.7042  140.3921  155.5895 C   0  0  0  0  0  0  0  0  0  0  0  0
  149.5525  141.2787  155.0903 C   0  0  0  0  0  0  0  0  0  0  0  0
  148.3679  140.5002  154.9490 O   0  0  0  0  0  0  0  0  0  0  0  0
  144.9916  134.1262  150.4532 C   0  0  0  0  0  0  0  0  0  0  0  0
  142.9579  131.4215  151.1537 H   0  0  0  0  0  0  0  0  0  0  0  0
  144.5328  131.2175  150.4100 H   0  0  0  0  0  0  0  0  0  0  0  0
  143.2258  131.9640  149.5075 H   0  0  0  0  0  0  0  0  0  0  0  0
  142.9511  133.5704  152.9195 H   0  0  0  0  0  0  0  0  0  0  0  0
  146.8995  136.1127  151.0056 H   0  0  0  0  0  0  0  0  0  0  0  0
  145.5734  136.9475  150.2266 H   0  0  0  0  0  0  0  0  0  0  0  0
  144.8504  137.9627  152.2729 H   0  0  0  0  0  0  0  0  0  0  0  0
  145.6331  136.7483  153.2674 H   0  0  0  0  0  0  0  0  0  0  0  0
  147.7562  137.6790  152.2553 H   0  0  0  0  0  0  0  0  0  0  0  0
  146.3190  139.4978  154.0567 H   0  0  0  0  0  0  0  0  0  0  0  0
  147.0237  137.9778  154.5851 H   0  0  0  0  0  0  0  0  0  0  0  0
  148.7616  139.8906  153.0151 H   0  0  0  0  0  0  0  0  0  0  0  0
  149.2742  137.9925  155.3656 H   0  0  0  0  0  0  0  0  0  0  0  0
  149.7007  137.6788  153.6981 H   0  0  0  0  0  0  0  0  0  0  0  0
  151.6569  138.5204  155.0492 H   0  0  0  0  0  0  0  0  0  0  0  0
  151.2903  139.5559  153.6866 H   0  0  0  0  0  0  0  0  0  0  0  0
  150.4754  140.0298  156.5926 H   0  0  0  0  0  0  0  0  0  0  0  0
  151.6230  140.9741  155.6684 H   0  0  0  0  0  0  0  0  0  0  0  0
  149.3630  142.0822  155.8021 H   0  0  0  0  0  0  0  0  0  0  0  0
  149.8073  141.7497  154.1397 H   0  0  0  0  0  0  0  0  0  0  0  0
  145.5846  134.0583  149.5526 H   0  0  0  0  0  0  0  0  0  0  0  0
  146.8405  138.9763  151.8492 H   0  0  0  0  0  0  0  0  0  0  0  0
  1  2  1  0  0  0  0
  1 17  1  0  0  0  0
  1 18  1  0  0  0  0
  1 19  1  0  0  0  0
  2 16  2  0  0  0  0
  2  3  1  0  0  0  0
  3  4  2  0  0  0  0
  3 20  1  0  0  0  0
  4  5  1  0  0  0  0
  5  6  1  0  0  0  0
  5 16  1  0  0  0  0
  6  7  1  0  0  0  0
  6 21  1  0  0  0  0
  6 22  1  0  0  0  0
  7  8  1  0  0  0  0
  7 23  1  0  0  0  0
  7 24  1  0  0  0  0
  8  9  1  0  0  0  0
  8 25  1  0  0  0  0
  8 38  1  0  0  0  0
  9 10  1  0  0  0  0
  9 26  1  0  0  0  0
  9 27  1  0  0  0  0
 10 15  1  0  0  0  0
 10 11  1  0  0  0  0
 10 28  1  0  0  0  0
 11 12  1  0  0  0  0
 11 29  1  0  0  0  0
 11 30  1  0  0  0  0
 12 13  1  0  0  0  0
 12 31  1  0  0  0  0
 12 32  1  0  0  0  0
 13 14  1  0  0  0  0
 13 33  1  0  0  0  0
 13 34  1  0  0  0  0
 14 15  1  0  0  0  0
 14 35  1  0  0  0  0
 14 36  1  0  0  0  0
 16 37  1  0  0  0  0
M  CHG  1   8   1
M  END
> <s_m_source_file>
AV-unprocessed.smi

> <i_m_source_file_index>
3048

> <i_lp_mmshare_version>
43012

> <i_f3d_flags>
0

> <s_epik_input>
W0NIM11jMVtjSF1ubihbY0hdMSlbQ0gyXVtDSDJdW05IXVtDSDJdW0NAQEhdMltDSDJdW0NIMl1bQ0gyXVtDSDJdTzI=

> <s_epik_cmdline>
J2VwaWtfcHl0aG9uJywgJy1waCcsICc3LjAnLCAnLXRuJywgJzgnLCAnLW1hJywgJzIwMCcsICctbWV0YWxfYmluZGluZycsICctaW1hZScsICc8aW5maWxlLm1hZT4nLCAnLW9tYWUnLCAnPG91dGZpbGUubWFlPic=

> <r_lp_tautomer_probability>
1

> <r_epik_Ionization_Penalty>
0.0084937

> <r_epik_Ionization_Penalty_Charging>
0.00848754

> <r_epik_Ionization_Penalty_Neutral>
6.1613e-06

> <r_epik_State_Penalty>
0.00639836

> <r_epik_Charging_Adjusted_Penalty>
0.0148859

> <i_epik_Tot_Q>
1

> <i_epik_Tot_abs_Q>
1

> <r_epik_Metal_State_Penalty>
0.00642541

> <b_epik_Metal_Only>
0

> <s_lp_Force_Field>
OPLS_2005

> <r_lp_Energy>
10.6877

> <b_lp_Chiralities_Consistent>
1

> <s_lp_Variant>
AV-unprocessed.smi:3048-1

> <Gold.Version>
5.8.1

> <Gold.Id.Protein>
6NUR|6NUR_protein|mol2

> <Gold.PLP.Fitness>
41.5175

> <Gold.PLP.PLP>
-30.7422

> <Gold.PLP.part.hbond>
-1.0000

> <Gold.PLP.part.metal>
0.0000

> <Gold.PLP.part.buried>
-0.6956

> <Gold.PLP.part.nonpolar>
-29.3337

> <Gold.PLP.part.repulsive>
0.2406

> <Gold.PLP.ligand.clash>
0.0000

> <Gold.PLP.ligand.torsion>
0.6232

> <Gold.PLP.Chemscore.Hbond>
2.0000

> <Gold.PLP.Chemscore.CHOScore>
2.0000

> <Gold.PLP.Chemscore.Metal>
0.0000

> <Gold.Chemscore.Hbonds>
donor molecule, donor type, donor heavy atom, donor atom, acceptor molecule, acceptor atom, score
      L1  H     8    25       P1  7948  2.00
      L1  C     3    20       P1 10957  0.83
      L1  C    16    37       P1  7921  1.00

> <Gold.PLP.Chemscore.Internal.Correction>
0.0218

> <Gold.Rescore>
     Score         DG    S(hbond)    S(metal)    S(lipo)     H(rot)  DE(clash)    DE(int)     intcor
     13.56     -14.27       1.00        0.00      81.97       1.61       0.31       0.40       ----

> <Gold.Chemscore.Fitness>
13.5611

> <Gold.Chemscore.DG>
-14.2707

> <Gold.Chemscore.ZeroCoef>
-5.4800

> <Gold.Chemscore.Hbond>
0.9983

> <Gold.Chemscore.Metal>
0.0000

> <Gold.Chemscore.Lipo>
81.9696

> <Gold.Chemscore.Internal_Hbond>
0.0000

> <Gold.Chemscore.DEClash>
0.3146

> <Gold.Chemscore.DEInternal>
0.3950

> <Gold.Chemscore.Rot>
1.6149

> <Gold.Chemscore.Internal.Correction>
   9.000000E+99

> <Gold.Chemscore.Hbonds>
donor molecule, donor type, donor heavy atom, donor atom, acceptor molecule, acceptor atom, score
      L1  H     8    25       P1  7948  1.00

> <Gold.Chemscore.Hbond.Weighted>
-3.3344

> <Gold.Chemscore.Metal.Weighted>
-0.0000

> <Gold.Chemscore.Lipo.Weighted>
-9.5904

> <Gold.Chemscore.Internal_Hbond.Weighted>
0.0000

> <Gold.Chemscore.DEClash.Weighted>
0.3146

> <Gold.Chemscore.DEInternal.Weighted>
0.3950

> <Gold.Chemscore.Rot.Weighted>
4.1341

> <Gold.Chemscore.Internal.Correction.Weighted>
   9.000000E+99

> <Gold.Protein.RotatedTorsions>
[ 6907 6896 6895 6894 ] final -162.75 input  -60.11 | X-H torsion
[ 7974 7965 7964 7962 ] final  133.33 input  175.53 | X-H torsion
[ 8008 7997 7996 7995 ] final -116.07 input   59.86 | X-H torsion
[ 10167 10162 10161 10158 ] final -117.41 input  -65.29 | X-H torsion
[ 10718 10713 10712 10709 ] final   81.12 input   66.30 | X-H torsion
[ 10763 10752 10751 10750 ] final -136.90 input  -60.55 | X-H torsion
[ 11005 11000 10999 10996 ] final  -32.06 input  -57.11 | X-H torsion

> <Gold.Protein.ActiveResidues>
 VAL166  LYS551  ARG553  GLY616  TRP617  ASP618  TYR619  PRO620  LYS621  CYS622 
 ASP623  PHE694  ASN695  SER759  ASP760  ASP761  ALA762  ILE779  LEU786  VAL792 
 PHE793  MET794  SER795  GLU796  ALA797  LYS798  CYS799  TRP800  GLU811  SER814 

> <Gold.Protein.RotatedAtoms>
  151.3852  133.3807  159.2714 H   0  0  0  0  0  0  0  0  0  0  0  0  # atno 6907 bound_to 6896
  150.9547  134.8944  159.7704 H   0  0  0  0  0  0  0  0  0  0  0  0  # atno 6908 bound_to 6896
  152.5126  134.3808  159.9403 H   0  0  0  0  0  0  0  0  0  0  0  0  # atno 6909 bound_to 6896
  144.9876  139.4439  143.5355 H   0  0  0  0  0  0  0  0  0  0  0  0  # atno 7974 bound_to 7965
  155.0620  140.0393  157.2580 H   0  0  0  0  0  0  0  0  0  0  0  0  # atno 8008 bound_to 7997
  154.7051  140.2681  155.6658 H   0  0  0  0  0  0  0  0  0  0  0  0  # atno 8009 bound_to 7997
  156.2772  140.2733  156.1675 H   0  0  0  0  0  0  0  0  0  0  0  0  # atno 8010 bound_to 7997
  140.0686  143.4898  152.1992 H   0  0  0  0  0  0  0  0  0  0  0  0  # atno 10167 bound_to 10162
  157.6824  130.9990  150.2179 H   0  0  0  0  0  0  0  0  0  0  0  0  # atno 10718 bound_to 10713
  154.8674  135.3658  154.5136 H   0  0  0  0  0  0  0  0  0  0  0  0  # atno 10763 bound_to 10752
  153.5770  135.7019  153.5485 H   0  0  0  0  0  0  0  0  0  0  0  0  # atno 10764 bound_to 10752
  153.3491  135.4077  155.1595 H   0  0  0  0  0  0  0  0  0  0  0  0  # atno 10765 bound_to 10752
  140.9520  133.7215  156.1235 H   0  0  0  0  0  0  0  0  0  0  0  0  # atno 11005 bound_to 11000
  146.3424  139.9188  142.8769 LP  0  0  0  0  0  0  0  0  0  0  0  0  # atno 17320 bound_to 7965
  145.2331  140.9980  143.3979 LP  0  0  0  0  0  0  0  0  0  0  0  0  # atno 17321 bound_to 7965
  139.5849  144.7527  151.3545 LP  0  0  0  0  0  0  0  0  0  0  0  0  # atno 17342 bound_to 10162
  140.7136  143.7324  150.7613 LP  0  0  0  0  0  0  0  0  0  0  0  0  # atno 17343 bound_to 10162
  156.2837  130.3736  149.7910 LP  0  0  0  0  0  0  0  0  0  0  0  0  # atno 17370 bound_to 10713
  156.5591  130.8375  151.3323 LP  0  0  0  0  0  0  0  0  0  0  0  0  # atno 17371 bound_to 10713
  140.7589  134.3961  157.5529 LP  0  0  0  0  0  0  0  0  0  0  0  0  # atno 17394 bound_to 11000
  139.8850  134.8948  156.2667 LP  0  0  0  0  0  0  0  0  0  0  0  0  # atno 17395 bound_to 11000

$$$$
