AV-unprocessed.smi:2482|AV-procd|sdf|9777|dock8
  -GOLD-   2272013423D 1   1.00000     0.00000
 Structure written by MMmdl.
 35 36  0  0  0  0  0  0  0  0  2 V2000
  152.1970  138.8947  155.7042 C   0  0  0  0  0  0  0  0  0  0  0  0
  150.7813  139.1586  155.2194 C   0  0  0  0  0  0  0  0  0  0  0  0
  150.5148  140.4577  154.9606 N   0  0  0  0  0  0  0  0  0  0  0  0
  149.2823  140.7842  154.5218 C   0  0  0  0  0  0  0  0  0  0  0  0
  148.2565  139.8407  154.3276 C   0  0  0  0  0  0  0  0  0  0  0  0
  148.5254  138.4816  154.6110 C   0  0  0  0  0  0  0  0  0  0  0  0
  147.5630  137.4543  154.4198 N   0  0  0  0  0  0  0  0  0  0  0  0
  146.5758  137.4036  153.5072 C   0  0  0  0  0  0  0  0  0  0  0  0
  146.3721  138.2734  152.6596 O   0  0  0  0  0  0  0  0  0  0  0  0
  145.6609  136.1646  153.5833 C   0  0  2  0  0  0  0  0  0  0  0  0
  146.4056  134.8276  153.8126 C   0  0  0  0  0  0  0  0  0  0  0  0
  147.1700  134.4281  152.6072 N   0  3  1  0  0  0  0  0  0  0  0  0
  147.9501  133.1889  152.8111 C   0  0  0  0  0  0  0  0  0  0  0  0
  146.2830  134.3584  151.4241 C   0  0  0  0  0  0  0  0  0  0  0  0
  145.5560  135.6977  151.2208 C   0  0  0  0  0  0  0  0  0  0  0  0
  144.8478  136.0508  152.4098 O   0  0  0  0  0  0  0  0  0  0  0  0
  149.8216  138.1278  155.0535 C   0  0  0  0  0  0  0  0  0  0  0  0
  150.2007  136.4709  155.3921 Cl  0  0  0  0  0  0  0  0  0  0  0  0
  152.3870  137.8478  155.9331 H   0  0  0  0  0  0  0  0  0  0  0  0
  152.3941  139.4703  156.6090 H   0  0  0  0  0  0  0  0  0  0  0  0
  152.9155  139.2037  154.9446 H   0  0  0  0  0  0  0  0  0  0  0  0
  149.1102  141.8296  154.3126 H   0  0  0  0  0  0  0  0  0  0  0  0
  147.2973  140.1678  153.9556 H   0  0  0  0  0  0  0  0  0  0  0  0
  147.5571  136.7292  155.1229 H   0  0  0  0  0  0  0  0  0  0  0  0
  144.9894  136.3306  154.4263 H   0  0  0  0  0  0  0  0  0  0  0  0
  147.0763  134.9029  154.6699 H   0  0  0  0  0  0  0  0  0  0  0  0
  145.6843  134.0458  154.0557 H   0  0  0  0  0  0  0  0  0  0  0  0
  147.2947  132.3422  153.0194 H   0  0  0  0  0  0  0  0  0  0  0  0
  148.6391  133.3032  153.6486 H   0  0  0  0  0  0  0  0  0  0  0  0
  148.5405  132.9557  151.9243 H   0  0  0  0  0  0  0  0  0  0  0  0
  146.8683  134.1174  150.5361 H   0  0  0  0  0  0  0  0  0  0  0  0
  145.5562  133.5557  151.5580 H   0  0  0  0  0  0  0  0  0  0  0  0
  146.2590  136.4810  150.9349 H   0  0  0  0  0  0  0  0  0  0  0  0
  144.8404  135.6126  150.4028 H   0  0  0  0  0  0  0  0  0  0  0  0
  147.8387  135.1646  152.4297 H   0  0  0  0  0  0  0  0  0  0  0  0
  1  2  1  0  0  0  0
  1 19  1  0  0  0  0
  1 20  1  0  0  0  0
  1 21  1  0  0  0  0
  2 17  1  0  0  0  0
  2  3  2  0  0  0  0
  3  4  1  0  0  0  0
  4  5  2  0  0  0  0
  4 22  1  0  0  0  0
  5  6  1  0  0  0  0
  5 23  1  0  0  0  0
  6  7  1  0  0  0  0
  6 17  2  0  0  0  0
  7  8  1  0  0  0  0
  7 24  1  0  0  0  0
  8  9  2  0  0  0  0
  8 10  1  0  0  0  0
 10 16  1  0  0  0  0
 10 11  1  0  0  0  0
 10 25  1  0  0  0  0
 11 12  1  0  0  0  0
 11 26  1  0  0  0  0
 11 27  1  0  0  0  0
 12 13  1  0  0  0  0
 12 14  1  0  0  0  0
 12 35  1  0  0  0  0
 13 28  1  0  0  0  0
 13 29  1  0  0  0  0
 13 30  1  0  0  0  0
 14 15  1  0  0  0  0
 14 31  1  0  0  0  0
 14 32  1  0  0  0  0
 15 16  1  0  0  0  0
 15 33  1  0  0  0  0
 15 34  1  0  0  0  0
 17 18  1  0  0  0  0
M  CHG  1  12   1
M  END
> <s_m_source_file>
AV-unprocessed.smi

> <i_m_source_file_index>
2482

> <i_lp_mmshare_version>
43012

> <i_f3d_flags>
0

> <s_epik_input>
W0NIM11jMW5bY0hdW2NIXWMoYzFDbClbTkhdQyg9TylbQ0BASF0yW0NIMl1OKFtDSDNdKVtDSDJdW0NIMl1PMg==

> <s_epik_cmdline>
J2VwaWtfcHl0aG9uJywgJy1waCcsICc3LjAnLCAnLXRuJywgJzgnLCAnLW1hJywgJzIwMCcsICctbWV0YWxfYmluZGluZycsICctaW1hZScsICc8aW5maWxlLm1hZT4nLCAnLW9tYWUnLCAnPG91dGZpbGUubWFlPic=

> <r_epik_Ionization_Penalty>
0.314226

> <r_epik_Ionization_Penalty_Charging>
0.314023

> <r_epik_Ionization_Penalty_Neutral>
0.00020299

> <r_epik_State_Penalty>
0.308208

> <r_epik_Charging_Adjusted_Penalty>
0.62223

> <i_epik_Tot_Q>
1

> <i_epik_Tot_abs_Q>
1

> <r_epik_Metal_State_Penalty>
0.314444

> <b_epik_Metal_Only>
0

> <s_lp_Force_Field>
OPLS_2005

> <r_lp_Energy>
21.5381

> <b_lp_Chiralities_Consistent>
1

> <s_lp_Variant>
AV-unprocessed.smi:2482-3

> <Gold.Version>
5.8.1

> <Gold.Id.Protein>
6NUR|6NUR_protein|mol2

> <Gold.PLP.Fitness>
35.6762

> <Gold.PLP.PLP>
-27.8531

> <Gold.PLP.part.hbond>
-3.0000

> <Gold.PLP.part.metal>
0.0000

> <Gold.PLP.part.buried>
-2.3792

> <Gold.PLP.part.nonpolar>
-23.4782

> <Gold.PLP.part.repulsive>
0.5309

> <Gold.PLP.ligand.clash>
0.0000

> <Gold.PLP.ligand.torsion>
0.5977

> <Gold.PLP.Chemscore.Hbond>
3.0000

> <Gold.PLP.Chemscore.CHOScore>
0.0000

> <Gold.PLP.Chemscore.Metal>
0.0000

> <Gold.Chemscore.Hbonds>
donor molecule, donor type, donor heavy atom, donor atom, acceptor molecule, acceptor atom, score
      L1  H    12    35       P1  7948  2.00
      P1  H  7989  7998       L1     3  1.00

> <Gold.PLP.Chemscore.Internal.Correction>
0.0187

> <Gold.Rescore>
     Score         DG    S(hbond)    S(metal)    S(lipo)     H(rot)  DE(clash)    DE(int)     intcor
     13.88     -15.79       1.53        0.00      66.39       1.00       0.04       1.87       ----

> <Gold.Chemscore.Fitness>
13.8772

> <Gold.Chemscore.DG>
-15.7894

> <Gold.Chemscore.ZeroCoef>
-5.4800

> <Gold.Chemscore.Hbond>
1.5276

> <Gold.Chemscore.Metal>
0.0000

> <Gold.Chemscore.Lipo>
66.3853

> <Gold.Chemscore.Internal_Hbond>
0.0000

> <Gold.Chemscore.DEClash>
0.0442

> <Gold.Chemscore.DEInternal>
1.8679

> <Gold.Chemscore.Rot>
1.0000

> <Gold.Chemscore.Internal.Correction>
   9.000000E+99

> <Gold.Chemscore.Hbonds>
donor molecule, donor type, donor heavy atom, donor atom, acceptor molecule, acceptor atom, score
      L1  H    12    35       P1  7948  0.97
      P1  H  7989  7998       L1     3  0.19

> <Gold.Chemscore.Hbond.Weighted>
-5.1023

> <Gold.Chemscore.Metal.Weighted>
-0.0000

> <Gold.Chemscore.Lipo.Weighted>
-7.7671

> <Gold.Chemscore.Internal_Hbond.Weighted>
0.0000

> <Gold.Chemscore.DEClash.Weighted>
0.0442

> <Gold.Chemscore.DEInternal.Weighted>
1.8679

> <Gold.Chemscore.Rot.Weighted>
2.5600

> <Gold.Chemscore.Internal.Correction.Weighted>
   9.000000E+99

> <Gold.Protein.RotatedTorsions>
[ 6907 6896 6895 6894 ] final -142.66 input  -60.11 | X-H torsion
[ 7974 7965 7964 7962 ] final  138.10 input  175.53 | X-H torsion
[ 8008 7997 7996 7995 ] final   52.69 input   59.86 | X-H torsion
[ 10167 10162 10161 10158 ] final  152.88 input  -65.29 | X-H torsion
[ 10718 10713 10712 10709 ] final   98.46 input   66.30 | X-H torsion
[ 10763 10752 10751 10750 ] final   62.69 input  -60.55 | X-H torsion
[ 11005 11000 10999 10996 ] final -144.23 input  -57.11 | X-H torsion

> <Gold.Protein.ActiveResidues>
 VAL166  LYS551  ARG553  GLY616  TRP617  ASP618  TYR619  PRO620  LYS621  CYS622 
 ASP623  PHE694  ASN695  SER759  ASP760  ASP761  ALA762  ILE779  LEU786  VAL792 
 PHE793  MET794  SER795  GLU796  ALA797  LYS798  CYS799  TRP800  GLU811  SER814 

> <Gold.Protein.RotatedAtoms>
  151.0901  133.5323  159.2615 H   0  0  0  0  0  0  0  0  0  0  0  0  # atno 6907 bound_to 6896
  151.2193  135.0511  159.8953 H   0  0  0  0  0  0  0  0  0  0  0  0  # atno 6908 bound_to 6896
  152.5433  134.0705  159.8245 H   0  0  0  0  0  0  0  0  0  0  0  0  # atno 6909 bound_to 6896
  144.9405  139.4937  143.5574 H   0  0  0  0  0  0  0  0  0  0  0  0  # atno 7974 bound_to 7965
  155.4560  140.3460  155.4306 H   0  0  0  0  0  0  0  0  0  0  0  0  # atno 8008 bound_to 7997
  156.1191  140.1482  156.9260 H   0  0  0  0  0  0  0  0  0  0  0  0  # atno 8009 bound_to 7997
  154.4810  140.0870  156.7356 H   0  0  0  0  0  0  0  0  0  0  0  0  # atno 8010 bound_to 7997
  139.4830  144.5321  151.7706 H   0  0  0  0  0  0  0  0  0  0  0  0  # atno 10167 bound_to 10162
  157.6895  131.0640  150.4799 H   0  0  0  0  0  0  0  0  0  0  0  0  # atno 10718 bound_to 10713
  152.9991  135.5456  154.6233 H   0  0  0  0  0  0  0  0  0  0  0  0  # atno 10763 bound_to 10752
  154.5527  135.2828  155.0996 H   0  0  0  0  0  0  0  0  0  0  0  0  # atno 10764 bound_to 10752
  154.2229  135.6447  153.5203 H   0  0  0  0  0  0  0  0  0  0  0  0  # atno 10765 bound_to 10752
  140.8045  134.2818  157.4966 H   0  0  0  0  0  0  0  0  0  0  0  0  # atno 11005 bound_to 11000
  146.3283  139.8420  142.8888 LP  0  0  0  0  0  0  0  0  0  0  0  0  # atno 17320 bound_to 7965
  145.2999  141.0191  143.3614 LP  0  0  0  0  0  0  0  0  0  0  0  0  # atno 17321 bound_to 7965
  140.4848  144.1397  150.5939 LP  0  0  0  0  0  0  0  0  0  0  0  0  # atno 17342 bound_to 10162
  140.4237  143.2599  151.9683 LP  0  0  0  0  0  0  0  0  0  0  0  0  # atno 17343 bound_to 10162
  156.5132  130.4144  149.6290 LP  0  0  0  0  0  0  0  0  0  0  0  0  # atno 17370 bound_to 10713
  156.3222  130.7286  151.2200 LP  0  0  0  0  0  0  0  0  0  0  0  0  # atno 17371 bound_to 10713
  139.8719  134.9448  156.3892 LP  0  0  0  0  0  0  0  0  0  0  0  0  # atno 17394 bound_to 11000
  140.9261  133.7611  155.9966 LP  0  0  0  0  0  0  0  0  0  0  0  0  # atno 17395 bound_to 11000

$$$$
