AV-unprocessed.smi:77|AV-procd|sdf|774|dock3
  -GOLD-   2262017123D 1   1.00000     0.00000
 Structure written by MMmdl.
 57 61  0  0  0  0  0  0  0  0  1 V2000
  148.6391  132.6887  158.4181 O   0  0  0  0  0  0  0  0  0  0  0  0
  148.0957  133.5740  157.7555 C   0  0  0  0  0  0  0  0  0  0  0  0
  147.1993  134.6253  158.4231 C   0  0  0  0  0  0  0  0  0  0  0  0
  147.9077  135.4445  159.4153 N   0  0  0  0  0  0  0  0  0  0  0  0
  148.8699  136.2944  158.9557 C   0  0  0  0  0  0  0  0  0  0  0  0
  149.8233  136.7428  159.8172 N   0  0  0  0  0  0  0  0  0  0  0  0
  150.7785  137.5799  159.4048 C   0  0  0  0  0  0  0  0  0  0  0  0
  150.9666  138.0947  158.1899 N   0  0  0  0  0  0  0  0  0  0  0  0
  150.0189  137.6543  157.3151 C   0  0  0  0  0  0  0  0  0  0  0  0
  148.9498  136.7581  157.6079 C   0  0  0  0  0  0  0  0  0  0  0  0
  148.2090  136.5284  156.4536 N   0  0  0  0  0  0  0  0  0  0  0  0
  148.7971  137.2485  155.5393 C   0  0  0  0  0  0  0  0  0  0  0  0
  149.8775  137.9796  155.9765 N   0  0  0  0  0  0  0  0  0  0  0  0
  150.7093  138.8570  155.1703 C   0  0  0  0  0  0  0  0  0  0  0  0
  150.5785  140.3729  155.4920 C   0  0  1  0  0  0  0  0  0  0  0  0
  149.2934  140.9214  154.8252 C   0  0  0  0  0  0  0  0  0  0  0  0
  149.4783  141.1254  153.4393 O   0  0  0  0  0  0  0  0  0  0  0  0
  150.5983  140.6947  157.0170 C   0  0  1  0  0  0  0  0  0  0  0  0
  151.9564  140.6312  157.7021 C   0  0  0  0  0  0  0  0  0  0  0  0
  151.7421  141.4484  158.9706 C   0  0  0  0  0  0  0  0  0  0  0  0
  150.7567  142.4186  158.6456 O   0  0  0  0  0  0  0  0  0  0  0  0
  150.2083  142.1386  157.3636 C   0  0  0  0  0  0  0  0  0  0  0  0
  147.1551  135.8339  160.6076 C   0  0  0  0  0  0  0  0  0  0  0  0
  147.6888  135.4604  161.9731 C   0  0  0  0  0  0  0  0  0  0  0  0
  146.4663  134.7646  161.4244 C   0  0  0  0  0  0  0  0  0  0  0  0
  148.2432  133.6959  156.4286 N   0  0  0  0  0  0  0  0  0  0  0  0
  149.0328  132.8434  155.6001 C   0  0  0  0  0  0  0  0  0  0  0  0
  150.2473  133.4474  154.9286 C   0  0  0  0  0  0  0  0  0  0  0  0
  149.0310  133.1118  154.1108 C   0  0  0  0  0  0  0  0  0  0  0  0
  146.7359  135.2438  157.6530 H   0  0  0  0  0  0  0  0  0  0  0  0
  146.3756  134.1058  158.9155 H   0  0  0  0  0  0  0  0  0  0  0  0
  151.4927  137.8815  160.1564 H   0  0  0  0  0  0  0  0  0  0  0  0
  148.4464  137.2762  154.5180 H   0  0  0  0  0  0  0  0  0  0  0  0
  151.7375  138.5237  155.3123 H   0  0  0  0  0  0  0  0  0  0  0  0
  150.4785  138.6841  154.1185 H   0  0  0  0  0  0  0  0  0  0  0  0
  151.4181  140.8990  155.0368 H   0  0  0  0  0  0  0  0  0  0  0  0
  148.4544  140.2425  154.9817 H   0  0  0  0  0  0  0  0  0  0  0  0
  149.0052  141.8856  155.2408 H   0  0  0  0  0  0  0  0  0  0  0  0
  149.2040  140.3461  152.9804 H   0  0  0  0  0  0  0  0  0  0  0  0
  149.9161  140.0200  157.5369 H   0  0  0  0  0  0  0  0  0  0  0  0
  152.2809  139.6203  157.9418 H   0  0  0  0  0  0  0  0  0  0  0  0
  152.7208  141.0993  157.0802 H   0  0  0  0  0  0  0  0  0  0  0  0
  151.3545  140.8166  159.7702 H   0  0  0  0  0  0  0  0  0  0  0  0
  152.6617  141.9157  159.3234 H   0  0  0  0  0  0  0  0  0  0  0  0
  150.6449  142.8373  156.6483 H   0  0  0  0  0  0  0  0  0  0  0  0
  149.1290  142.2927  157.3703 H   0  0  0  0  0  0  0  0  0  0  0  0
  146.6351  136.7882  160.5434 H   0  0  0  0  0  0  0  0  0  0  0  0
  148.6128  134.8873  162.0185 H   0  0  0  0  0  0  0  0  0  0  0  0
  147.5436  136.1760  162.7794 H   0  0  0  0  0  0  0  0  0  0  0  0
  145.5049  135.0142  161.8686 H   0  0  0  0  0  0  0  0  0  0  0  0
  146.5814  133.7272  161.1179 H   0  0  0  0  0  0  0  0  0  0  0  0
  147.7608  134.4544  155.9690 H   0  0  0  0  0  0  0  0  0  0  0  0
  149.1236  131.7997  155.8982 H   0  0  0  0  0  0  0  0  0  0  0  0
  150.4573  134.5005  155.1064 H   0  0  0  0  0  0  0  0  0  0  0  0
  151.1229  132.8123  154.8094 H   0  0  0  0  0  0  0  0  0  0  0  0
  149.0934  132.2519  153.4470 H   0  0  0  0  0  0  0  0  0  0  0  0
  148.4284  133.9402  153.7434 H   0  0  0  0  0  0  0  0  0  0  0  0
  1  2  2  0  0  0  0
  2  3  1  0  0  0  0
  2 26  1  0  0  0  0
  3  4  1  0  0  0  0
  3 30  1  0  0  0  0
  3 31  1  0  0  0  0
  4  5  1  0  0  0  0
  4 23  1  0  0  0  0
  5 10  1  0  0  0  0
  5  6  2  0  0  0  0
  6  7  1  0  0  0  0
  7  8  2  0  0  0  0
  7 32  1  0  0  0  0
  8  9  1  0  0  0  0
  9 13  1  0  0  0  0
  9 10  2  0  0  0  0
 10 11  1  0  0  0  0
 11 12  2  0  0  0  0
 12 13  1  0  0  0  0
 12 33  1  0  0  0  0
 13 14  1  0  0  0  0
 14 15  1  0  0  0  0
 14 34  1  0  0  0  0
 14 35  1  0  0  0  0
 15 16  1  0  0  0  0
 15 18  1  0  0  0  0
 15 36  1  0  0  0  0
 16 17  1  0  0  0  0
 16 37  1  0  0  0  0
 16 38  1  0  0  0  0
 17 39  1  0  0  0  0
 18 22  1  0  0  0  0
 18 19  1  0  0  0  0
 18 40  1  0  0  0  0
 19 20  1  0  0  0  0
 19 41  1  0  0  0  0
 19 42  1  0  0  0  0
 20 21  1  0  0  0  0
 20 43  1  0  0  0  0
 20 44  1  0  0  0  0
 21 22  1  0  0  0  0
 22 45  1  0  0  0  0
 22 46  1  0  0  0  0
 23 25  1  0  0  0  0
 23 24  1  0  0  0  0
 23 47  1  0  0  0  0
 24 25  1  0  0  0  0
 24 48  1  0  0  0  0
 24 49  1  0  0  0  0
 25 50  1  0  0  0  0
 25 51  1  0  0  0  0
 26 27  1  0  0  0  0
 26 52  1  0  0  0  0
 27 29  1  0  0  0  0
 27 28  1  0  0  0  0
 27 53  1  0  0  0  0
 28 29  1  0  0  0  0
 28 54  1  0  0  0  0
 28 55  1  0  0  0  0
 29 56  1  0  0  0  0
 29 57  1  0  0  0  0
M  END
> <s_m_source_file>
AV-unprocessed.smi

> <i_m_source_file_index>
77

> <i_lp_mmshare_version>
43012

> <i_f3d_flags>
0

> <s_epik_input>
W0NIMl0xW0NIMl1bQ0hdMVtOSF1DKD1PKVtDSDJdTihbQ0hdMltDSDJdW0NIMl0yKWMobltjSF1uMyljKGMzNCluW2NIXW40W0NIMl1bQ0BIXShbQ0gyXVtPSF0pW0NAQEhdNVtDSDJdW0NIMl1PW0NIMl01

> <s_epik_cmdline>
J2VwaWtfcHl0aG9uJywgJy1waCcsICc3LjAnLCAnLXRuJywgJzgnLCAnLW1hJywgJzIwMCcsICctbWV0YWxfYmluZGluZycsICctaW1hZScsICc8aW5maWxlLm1hZT4nLCAnLW9tYWUnLCAnPG91dGZpbGUubWFlPic=

> <r_lp_tautomer_probability>
1

> <r_epik_Ionization_Penalty>
0.000703847

> <r_epik_Ionization_Penalty_Charging>
0

> <r_epik_Ionization_Penalty_Neutral>
0.000703847

> <r_epik_State_Penalty>
0.00034025

> <r_epik_Charging_Adjusted_Penalty>
0.00034025

> <i_epik_Tot_Q>
0

> <i_epik_Tot_abs_Q>
0

> <r_epik_Metal_State_Penalty>
-0

> <b_epik_Metal_Only>
0

> <s_lp_Force_Field>
OPLS_2005

> <r_lp_Energy>
54.3031

> <b_lp_Chiralities_Consistent>
1

> <s_lp_Variant>
AV-unprocessed.smi:77-4

> <Gold.Version>
5.8.1

> <Gold.Id.Protein>
6NUR|6NUR_protein|mol2

> <Gold.PLP.Fitness>
43.5149

> <Gold.PLP.PLP>
-38.2627

> <Gold.PLP.part.hbond>
-4.0202

> <Gold.PLP.part.metal>
0.0000

> <Gold.PLP.part.buried>
-5.8080

> <Gold.PLP.part.nonpolar>
-29.1199

> <Gold.PLP.part.repulsive>
0.0542

> <Gold.PLP.ligand.clash>
0.0000

> <Gold.PLP.ligand.torsion>
1.8101

> <Gold.PLP.Chemscore.Hbond>
2.4099

> <Gold.PLP.Chemscore.CHOScore>
0.0000

> <Gold.PLP.Chemscore.Metal>
0.0000

> <Gold.Chemscore.Hbonds>
donor molecule, donor type, donor heavy atom, donor atom, acceptor molecule, acceptor atom, score
      L1  H    17    39       P1  7957  0.45
      P1  H  6896  6909       L1     6  0.62
      P1  H  7989  7998       L1    17  0.12
      P1  H  8011  8017       L1    17  1.00
      L1  C    12    33       P1  7948  0.10

> <Gold.PLP.Chemscore.Internal.Correction>
1.6427

> <Gold.Rescore>
     Score         DG    S(hbond)    S(metal)    S(lipo)     H(rot)  DE(clash)    DE(int)     intcor
      8.04     -11.46       1.42        0.00      86.49       3.47       0.11       3.31       ----

> <Gold.Chemscore.Fitness>
8.0384

> <Gold.Chemscore.DG>
-11.4570

> <Gold.Chemscore.ZeroCoef>
-5.4800

> <Gold.Chemscore.Hbond>
1.4190

> <Gold.Chemscore.Metal>
0.0000

> <Gold.Chemscore.Lipo>
86.4929

> <Gold.Chemscore.Internal_Hbond>
0.0000

> <Gold.Chemscore.DEClash>
0.1078

> <Gold.Chemscore.DEInternal>
3.3109

> <Gold.Chemscore.Rot>
3.4695

> <Gold.Chemscore.Internal.Correction>
   9.000000E+99

> <Gold.Chemscore.Hbonds>
donor molecule, donor type, donor heavy atom, donor atom, acceptor molecule, acceptor atom, score
      L1  H    17    39       P1  7957  0.44
      P1  H  6896  6909       L1     6  0.02
      P1  H  7989  7998       L1    17  0.01
      P1  H  8011  8017       L1    17  0.76

> <Gold.Chemscore.Hbond.Weighted>
-4.7393

> <Gold.Chemscore.Metal.Weighted>
-0.0000

> <Gold.Chemscore.Lipo.Weighted>
-10.1197

> <Gold.Chemscore.Internal_Hbond.Weighted>
0.0000

> <Gold.Chemscore.DEClash.Weighted>
0.1078

> <Gold.Chemscore.DEInternal.Weighted>
3.3109

> <Gold.Chemscore.Rot.Weighted>
8.8820

> <Gold.Chemscore.Internal.Correction.Weighted>
   9.000000E+99

> <Gold.Protein.RotatedTorsions>
[ 6907 6896 6895 6894 ] final   85.57 input  -60.11 | X-H torsion
[ 7974 7965 7964 7962 ] final  142.56 input  175.53 | X-H torsion
[ 8008 7997 7996 7995 ] final   52.61 input   59.86 | X-H torsion
[ 10167 10162 10161 10158 ] final -108.92 input  -65.29 | X-H torsion
[ 10718 10713 10712 10709 ] final   51.15 input   66.30 | X-H torsion
[ 10763 10752 10751 10750 ] final  173.97 input  -60.55 | X-H torsion
[ 11005 11000 10999 10996 ] final  148.13 input  -57.11 | X-H torsion

> <Gold.Protein.ActiveResidues>
 VAL166  LYS551  ARG553  GLY616  TRP617  ASP618  TYR619  PRO620  LYS621  CYS622 
 ASP623  PHE694  ASN695  SER759  ASP760  ASP761  ALA762  ILE779  LEU786  VAL792 
 PHE793  MET794  SER795  GLU796  ALA797  LYS798  CYS799  TRP800  GLU811  SER814 

> <Gold.Protein.RotatedAtoms>
  152.5377  134.2565  159.8918 H   0  0  0  0  0  0  0  0  0  0  0  0  # atno 6907 bound_to 6896
  151.2527  133.4335  159.2620 H   0  0  0  0  0  0  0  0  0  0  0  0  # atno 6908 bound_to 6896
  151.0525  134.9696  159.8275 H   0  0  0  0  0  0  0  0  0  0  0  0  # atno 6909 bound_to 6896
  144.8997  139.5440  143.5759 H   0  0  0  0  0  0  0  0  0  0  0  0  # atno 7974 bound_to 7965
  155.4546  140.3459  155.4305 H   0  0  0  0  0  0  0  0  0  0  0  0  # atno 8008 bound_to 7997
  156.1199  140.1484  156.9249 H   0  0  0  0  0  0  0  0  0  0  0  0  # atno 8009 bound_to 7997
  154.4815  140.0868  156.7369 H   0  0  0  0  0  0  0  0  0  0  0  0  # atno 8010 bound_to 7997
  140.1609  143.4121  152.1426 H   0  0  0  0  0  0  0  0  0  0  0  0  # atno 10167 bound_to 10162
  157.4953  130.8403  149.8251 H   0  0  0  0  0  0  0  0  0  0  0  0  # atno 10718 bound_to 10713
  154.4475  135.2764  155.1805 H   0  0  0  0  0  0  0  0  0  0  0  0  # atno 10763 bound_to 10752
  154.3646  135.6122  153.5712 H   0  0  0  0  0  0  0  0  0  0  0  0  # atno 10764 bound_to 10752
  152.9845  135.5842  154.4813 H   0  0  0  0  0  0  0  0  0  0  0  0  # atno 10765 bound_to 10752
  140.0934  134.9027  157.1685 H   0  0  0  0  0  0  0  0  0  0  0  0  # atno 11005 bound_to 11000
  146.3101  139.7717  142.9026 LP  0  0  0  0  0  0  0  0  0  0  0  0  # atno 17320 bound_to 7965
  145.3638  141.0330  143.3270 LP  0  0  0  0  0  0  0  0  0  0  0  0  # atno 17321 bound_to 7965
  139.5381  144.7230  151.4823 LP  0  0  0  0  0  0  0  0  0  0  0  0  # atno 17342 bound_to 10162
  140.6643  143.8431  150.6924 LP  0  0  0  0  0  0  0  0  0  0  0  0  # atno 17343 bound_to 10162
  156.0197  130.3800  150.2000 LP  0  0  0  0  0  0  0  0  0  0  0  0  # atno 17370 bound_to 10713
  157.0189  130.9973  151.3345 LP  0  0  0  0  0  0  0  0  0  0  0  0  # atno 17371 bound_to 10713
  140.3321  134.2798  155.7226 LP  0  0  0  0  0  0  0  0  0  0  0  0  # atno 17394 bound_to 11000
  141.2084  133.7777  157.0057 LP  0  0  0  0  0  0  0  0  0  0  0  0  # atno 17395 bound_to 11000

$$$$
