AV-unprocessed.smi:2793|AV-procd|sdf|10774|dock1
  -GOLD-   2272015213D 1   1.00000     0.00000
 Structure written by MMmdl.
 28 29  0  0  0  0  0  0  0  0  1 V2000
  150.0940  141.9669  156.6202 O   0  0  0  0  0  0  0  0  0  0  0  0
  151.2336  141.7322  157.0249 C   0  0  0  0  0  0  0  0  0  0  0  0
  151.9380  140.6301  156.7040 N   0  0  0  0  0  0  0  0  0  0  0  0
  151.5554  139.5591  155.8539 C   0  0  0  0  0  0  0  0  0  0  0  0
  152.0573  138.2841  156.2067 C   0  0  0  0  0  0  0  0  0  0  0  0
  151.7786  137.1680  155.4967 N   0  0  0  0  0  0  0  0  0  0  0  0
  150.9871  137.3231  154.4141 C   0  0  0  0  0  0  0  0  0  0  0  0
  150.4802  138.5853  154.0457 C   0  0  0  0  0  0  0  0  0  0  0  0
  150.7617  139.6963  154.7607 N   0  0  0  0  0  0  0  0  0  0  0  0
  151.9316  142.7117  157.9813 C   0  0  2  0  0  0  0  0  0  0  0  0
  151.3733  142.6519  159.4224 C   0  0  0  0  0  0  0  0  0  0  0  0
  152.0495  143.7033  160.3098 C   0  0  0  0  0  0  0  0  0  0  0  0
  151.9491  145.0819  159.6500 C   0  0  0  0  0  0  0  0  0  0  0  0
  152.4846  145.0231  158.2113 C   0  0  0  0  0  0  0  0  0  0  0  0
  151.7756  144.0359  157.4686 O   0  0  0  0  0  0  0  0  0  0  0  0
  152.8570  140.5550  157.1156 H   0  0  0  0  0  0  0  0  0  0  0  0
  152.6904  138.1538  157.0725 H   0  0  0  0  0  0  0  0  0  0  0  0
  150.7570  136.4378  153.8398 H   0  0  0  0  0  0  0  0  0  0  0  0
  149.8482  138.7039  153.1781 H   0  0  0  0  0  0  0  0  0  0  0  0
  152.9927  142.4563  157.9898 H   0  0  0  0  0  0  0  0  0  0  0  0
  150.2960  142.8258  159.4124 H   0  0  0  0  0  0  0  0  0  0  0  0
  151.5268  141.6613  159.8524 H   0  0  0  0  0  0  0  0  0  0  0  0
  151.5894  143.7199  161.2981 H   0  0  0  0  0  0  0  0  0  0  0  0
  153.0980  143.4410  160.4559 H   0  0  0  0  0  0  0  0  0  0  0  0
  150.9086  145.4091  159.6385 H   0  0  0  0  0  0  0  0  0  0  0  0
  152.5038  145.8199  160.2305 H   0  0  0  0  0  0  0  0  0  0  0  0
  152.3556  145.9895  157.7238 H   0  0  0  0  0  0  0  0  0  0  0  0
  153.5533  144.8026  158.2019 H   0  0  0  0  0  0  0  0  0  0  0  0
  1  2  2  0  0  0  0
  2  3  1  0  0  0  0
  2 10  1  0  0  0  0
  3  4  1  0  0  0  0
  3 16  1  0  0  0  0
  4  9  1  0  0  0  0
  4  5  2  0  0  0  0
  5  6  1  0  0  0  0
  5 17  1  0  0  0  0
  6  7  2  0  0  0  0
  7  8  1  0  0  0  0
  7 18  1  0  0  0  0
  8  9  2  0  0  0  0
  8 19  1  0  0  0  0
 10 15  1  0  0  0  0
 10 11  1  0  0  0  0
 10 20  1  0  0  0  0
 11 12  1  0  0  0  0
 11 21  1  0  0  0  0
 11 22  1  0  0  0  0
 12 13  1  0  0  0  0
 12 23  1  0  0  0  0
 12 24  1  0  0  0  0
 13 14  1  0  0  0  0
 13 25  1  0  0  0  0
 13 26  1  0  0  0  0
 14 15  1  0  0  0  0
 14 27  1  0  0  0  0
 14 28  1  0  0  0  0
M  END
> <s_m_source_file>
AV-unprocessed.smi

> <i_m_source_file_index>
2793

> <i_lp_mmshare_version>
43012

> <i_f3d_flags>
0

> <s_epik_input>
TzFbQ0gyXVtDSDJdW0NIMl1bQ0gyXVtDQEhdMUMoPU8pW05IXWMyW2NIXW5bY0hdW2NIXW4y

> <s_epik_cmdline>
J2VwaWtfcHl0aG9uJywgJy1waCcsICc3LjAnLCAnLXRuJywgJzgnLCAnLW1hJywgJzIwMCcsICctbWV0YWxfYmluZGluZycsICctaW1hZScsICc8aW5maWxlLm1hZT4nLCAnLW9tYWUnLCAnPG91dGZpbGUubWFlPic=

> <r_lp_tautomer_probability>
1

> <r_epik_Ionization_Penalty>
2.82919e-06

> <r_epik_Ionization_Penalty_Charging>
0

> <r_epik_Ionization_Penalty_Neutral>
2.82919e-06

> <r_epik_State_Penalty>
-0

> <r_epik_Charging_Adjusted_Penalty>
0

> <i_epik_Tot_Q>
0

> <i_epik_Tot_abs_Q>
0

> <r_epik_Metal_State_Penalty>
-0

> <b_epik_Metal_Only>
0

> <s_lp_Force_Field>
OPLS_2005

> <r_lp_Energy>
18.1635

> <b_lp_Chiralities_Consistent>
1

> <s_lp_Variant>
AV-unprocessed.smi:2793-1

> <Gold.Version>
5.8.1

> <Gold.Id.Protein>
6NUR|6NUR_protein|mol2

> <Gold.PLP.Fitness>
40.6370

> <Gold.PLP.PLP>
-29.9650

> <Gold.PLP.part.hbond>
-2.0000

> <Gold.PLP.part.metal>
0.0000

> <Gold.PLP.part.buried>
-4.0938

> <Gold.PLP.part.nonpolar>
-25.0628

> <Gold.PLP.part.repulsive>
0.5062

> <Gold.PLP.ligand.clash>
0.0000

> <Gold.PLP.ligand.torsion>
0.5545

> <Gold.PLP.Chemscore.Hbond>
1.8960

> <Gold.PLP.Chemscore.CHOScore>
2.0297

> <Gold.PLP.Chemscore.Metal>
0.0000

> <Gold.Chemscore.Hbonds>
donor molecule, donor type, donor heavy atom, donor atom, acceptor molecule, acceptor atom, score
      P1  H  7989  7998       L1     9  1.00
      P1  H 10752 10764       L1     6  0.62
      L1  C     7    18       P1  7948  0.18
      L1  C     7    18       P1  7949  0.72
      L1  C     8    19       P1  7948  0.06
      L1  C     8    19       P1  7957  1.00

> <Gold.PLP.Chemscore.Internal.Correction>
0.0038

> <Gold.Rescore>
     Score         DG    S(hbond)    S(metal)    S(lipo)     H(rot)  DE(clash)    DE(int)     intcor
     13.32     -15.49       0.91        0.00      81.62       1.00       0.97       1.20       ----

> <Gold.Chemscore.Fitness>
13.3183

> <Gold.Chemscore.DG>
-15.4931

> <Gold.Chemscore.ZeroCoef>
-5.4800

> <Gold.Chemscore.Hbond>
0.9051

> <Gold.Chemscore.Metal>
0.0000

> <Gold.Chemscore.Lipo>
81.6241

> <Gold.Chemscore.Internal_Hbond>
0.0000

> <Gold.Chemscore.DEClash>
0.9728

> <Gold.Chemscore.DEInternal>
1.2020

> <Gold.Chemscore.Rot>
1.0000

> <Gold.Chemscore.Internal.Correction>
   9.000000E+99

> <Gold.Chemscore.Hbonds>
donor molecule, donor type, donor heavy atom, donor atom, acceptor molecule, acceptor atom, score
      P1  H  7989  7998       L1     9  0.31
      P1  H 10752 10764       L1     6  0.10

> <Gold.Chemscore.Hbond.Weighted>
-3.0231

> <Gold.Chemscore.Metal.Weighted>
-0.0000

> <Gold.Chemscore.Lipo.Weighted>
-9.5500

> <Gold.Chemscore.Internal_Hbond.Weighted>
0.0000

> <Gold.Chemscore.DEClash.Weighted>
0.9728

> <Gold.Chemscore.DEInternal.Weighted>
1.2020

> <Gold.Chemscore.Rot.Weighted>
2.5600

> <Gold.Chemscore.Internal.Correction.Weighted>
   9.000000E+99

> <Gold.Protein.RotatedTorsions>
[ 6907 6896 6895 6894 ] final  139.49 input  -60.11 | X-H torsion
[ 7974 7965 7964 7962 ] final  122.08 input  175.53 | X-H torsion
[ 8008 7997 7996 7995 ] final  162.81 input   59.86 | X-H torsion
[ 10167 10162 10161 10158 ] final -154.43 input  -65.29 | X-H torsion
[ 10718 10713 10712 10709 ] final  118.66 input   66.30 | X-H torsion
[ 10763 10752 10751 10750 ] final  -52.91 input  -60.55 | X-H torsion
[ 11005 11000 10999 10996 ] final   -9.51 input  -57.11 | X-H torsion

> <Gold.Protein.ActiveResidues>
 VAL166  LYS551  ARG553  GLY616  TRP617  ASP618  TYR619  PRO620  LYS621  CYS622 
 ASP623  PHE694  ASN695  SER759  ASP760  ASP761  ALA762  ILE779  LEU786  VAL792 
 PHE793  MET794  SER795  GLU796  ALA797  LYS798  CYS799  TRP800  GLU811  SER814 

> <Gold.Protein.RotatedAtoms>
  152.2543  133.5242  159.5343 H   0  0  0  0  0  0  0  0  0  0  0  0  # atno 6907 bound_to 6896
  150.7104  134.0917  159.3943 H   0  0  0  0  0  0  0  0  0  0  0  0  # atno 6908 bound_to 6896
  151.8836  135.0444  160.0542 H   0  0  0  0  0  0  0  0  0  0  0  0  # atno 6909 bound_to 6896
  145.1118  139.3447  143.4759 H   0  0  0  0  0  0  0  0  0  0  0  0  # atno 7974 bound_to 7965
  156.2004  140.1740  156.7911 H   0  0  0  0  0  0  0  0  0  0  0  0  # atno 8008 bound_to 7997
  154.5584  140.0704  156.8811 H   0  0  0  0  0  0  0  0  0  0  0  0  # atno 8009 bound_to 7997
  155.2894  140.3354  155.4256 H   0  0  0  0  0  0  0  0  0  0  0  0  # atno 8010 bound_to 7997
  139.7014  143.9257  152.2430 H   0  0  0  0  0  0  0  0  0  0  0  0  # atno 10167 bound_to 10162
  157.6015  131.1050  150.7787 H   0  0  0  0  0  0  0  0  0  0  0  0  # atno 10718 bound_to 10713
  154.1503  135.6491  153.4962 H   0  0  0  0  0  0  0  0  0  0  0  0  # atno 10763 bound_to 10752
  153.0140  135.5336  154.6815 H   0  0  0  0  0  0  0  0  0  0  0  0  # atno 10764 bound_to 10752
  154.6101  135.2953  155.0413 H   0  0  0  0  0  0  0  0  0  0  0  0  # atno 10765 bound_to 10752
  140.7349  133.8718  155.8921 H   0  0  0  0  0  0  0  0  0  0  0  0  # atno 11005 bound_to 11000
  146.3526  140.1040  142.8606 LP  0  0  0  0  0  0  0  0  0  0  0  0  # atno 17320 bound_to 7965
  145.0838  140.9239  143.4809 LP  0  0  0  0  0  0  0  0  0  0  0  0  # atno 17321 bound_to 7965
  139.9100  144.6862  150.8572 LP  0  0  0  0  0  0  0  0  0  0  0  0  # atno 17342 bound_to 10162
  140.7710  143.3450  151.2130 LP  0  0  0  0  0  0  0  0  0  0  0  0  # atno 17343 bound_to 10162
  156.8185  130.4976  149.5346 LP  0  0  0  0  0  0  0  0  0  0  0  0  # atno 17370 bound_to 10713
  156.1089  130.6026  151.0016 LP  0  0  0  0  0  0  0  0  0  0  0  0  # atno 17371 bound_to 10713
  140.9888  134.1306  157.4427 LP  0  0  0  0  0  0  0  0  0  0  0  0  # atno 17394 bound_to 11000
  139.8818  135.0034  156.6185 LP  0  0  0  0  0  0  0  0  0  0  0  0  # atno 17395 bound_to 11000

$$$$
