AV-unprocessed.smi:2468|AV-procd|sdf|9729|dock10
  -GOLD-   2272013373D 1   1.00000     0.00000
 Structure written by MMmdl.
 32 33  0  0  0  0  0  0  0  0  1 V2000
  148.3401  140.4218  154.3310 C   0  0  0  0  0  0  0  0  0  0  0  0
  149.6626  140.1278  155.0138 C   0  0  0  0  0  0  0  0  0  0  0  0
  150.3228  139.0379  154.5646 N   0  0  0  0  0  0  0  0  0  0  0  0
  151.5003  138.7261  155.1434 C   0  0  0  0  0  0  0  0  0  0  0  0
  152.0760  139.4800  156.1838 C   0  0  0  0  0  0  0  0  0  0  0  0
  151.3953  140.6322  156.6454 C   0  0  0  0  0  0  0  0  0  0  0  0
  151.8749  141.4513  157.7045 N   0  0  0  0  0  0  0  0  0  0  0  0
  152.7746  141.1571  158.6615 C   0  0  0  0  0  0  0  0  0  0  0  0
  153.3482  140.0730  158.7671 O   0  0  0  0  0  0  0  0  0  0  0  0
  153.0718  142.2883  159.6578 C   0  0  2  0  0  0  0  0  0  0  0  0
  153.0159  141.7835  160.9925 O   0  0  0  0  0  0  0  0  0  0  0  0
  152.4067  142.7363  161.8591 C   0  0  0  0  0  0  0  0  0  0  0  0
  152.2544  144.0129  161.0385 C   0  0  0  0  0  0  0  0  0  0  0  0
  152.0902  143.4710  159.6330 C   0  0  1  0  0  0  0  0  0  0  0  0
  152.3625  144.5127  158.5361 C   0  0  0  0  0  0  0  0  0  0  0  0
  150.1516  140.9540  156.0530 C   0  0  0  0  0  0  0  0  0  0  0  0
  149.2489  142.3341  156.5830 Cl  0  0  0  0  0  0  0  0  0  0  0  0
  148.3660  141.4060  153.8627 H   0  0  0  0  0  0  0  0  0  0  0  0
  147.5267  140.4057  155.0568 H   0  0  0  0  0  0  0  0  0  0  0  0
  148.1155  139.6862  153.5575 H   0  0  0  0  0  0  0  0  0  0  0  0
  151.9967  137.8424  154.7708 H   0  0  0  0  0  0  0  0  0  0  0  0
  153.0116  139.1544  156.6115 H   0  0  0  0  0  0  0  0  0  0  0  0
  151.5542  142.4091  157.6877 H   0  0  0  0  0  0  0  0  0  0  0  0
  154.0875  142.6480  159.4854 H   0  0  0  0  0  0  0  0  0  0  0  0
  151.4286  142.3555  162.1556 H   0  0  0  0  0  0  0  0  0  0  0  0
  152.9975  142.8902  162.7621 H   0  0  0  0  0  0  0  0  0  0  0  0
  151.4140  144.6274  161.3628 H   0  0  0  0  0  0  0  0  0  0  0  0
  153.1633  144.6122  161.1116 H   0  0  0  0  0  0  0  0  0  0  0  0
  151.0695  143.0986  159.5256 H   0  0  0  0  0  0  0  0  0  0  0  0
  153.3762  144.9079  158.6057 H   0  0  0  0  0  0  0  0  0  0  0  0
  151.6720  145.3526  158.6181 H   0  0  0  0  0  0  0  0  0  0  0  0
  152.2411  144.0844  157.5414 H   0  0  0  0  0  0  0  0  0  0  0  0
  1  2  1  0  0  0  0
  1 18  1  0  0  0  0
  1 19  1  0  0  0  0
  1 20  1  0  0  0  0
  2 16  1  0  0  0  0
  2  3  2  0  0  0  0
  3  4  1  0  0  0  0
  4  5  2  0  0  0  0
  4 21  1  0  0  0  0
  5  6  1  0  0  0  0
  5 22  1  0  0  0  0
  6  7  1  0  0  0  0
  6 16  2  0  0  0  0
  7  8  1  0  0  0  0
  7 23  1  0  0  0  0
  8  9  2  0  0  0  0
  8 10  1  0  0  0  0
 10 14  1  0  0  0  0
 10 11  1  0  0  0  0
 10 24  1  0  0  0  0
 11 12  1  0  0  0  0
 12 13  1  0  0  0  0
 12 25  1  0  0  0  0
 12 26  1  0  0  0  0
 13 14  1  0  0  0  0
 13 27  1  0  0  0  0
 13 28  1  0  0  0  0
 14 15  1  0  0  0  0
 14 29  1  0  0  0  0
 15 30  1  0  0  0  0
 15 31  1  0  0  0  0
 15 32  1  0  0  0  0
 16 17  1  0  0  0  0
M  END
> <s_m_source_file>
AV-unprocessed.smi

> <i_m_source_file_index>
2468

> <i_lp_mmshare_version>
43012

> <i_f3d_flags>
0

> <s_epik_input>
W0NIM11jMW5bY0hdW2NIXWMoYzFDbClbTkhdQyg9TylbQ0BASF0yT1tDSDJdW0NIMl1bQ0BIXTJbQ0gzXQ==

> <s_epik_cmdline>
J2VwaWtfcHl0aG9uJywgJy1waCcsICc3LjAnLCAnLXRuJywgJzgnLCAnLW1hJywgJzIwMCcsICctbWV0YWxfYmluZGluZycsICctaW1hZScsICc8aW5maWxlLm1hZT4nLCAnLW9tYWUnLCAnPG91dGZpbGUubWFlPic=

> <r_epik_Ionization_Penalty>
0.000361027

> <r_epik_Ionization_Penalty_Charging>
0

> <r_epik_Ionization_Penalty_Neutral>
0.000361027

> <r_epik_State_Penalty>
0.000217849

> <r_epik_Charging_Adjusted_Penalty>
0.000217849

> <i_epik_Tot_Q>
0

> <i_epik_Tot_abs_Q>
0

> <r_epik_Metal_State_Penalty>
-0

> <b_epik_Metal_Only>
0

> <s_lp_Force_Field>
OPLS_2005

> <r_lp_Energy>
24.8892

> <b_lp_Chiralities_Consistent>
1

> <s_lp_Variant>
AV-unprocessed.smi:2468-1

> <Gold.Version>
5.8.1

> <Gold.Id.Protein>
6NUR|6NUR_protein|mol2

> <Gold.PLP.Fitness>
38.7087

> <Gold.PLP.PLP>
-36.5074

> <Gold.PLP.part.hbond>
-1.1804

> <Gold.PLP.part.metal>
0.0000

> <Gold.PLP.part.buried>
0.5194

> <Gold.PLP.part.nonpolar>
-34.5182

> <Gold.PLP.part.repulsive>
0.2305

> <Gold.PLP.ligand.clash>
0.0000

> <Gold.PLP.ligand.torsion>
0.3726

> <Gold.PLP.Chemscore.Hbond>
0.9814

> <Gold.PLP.Chemscore.CHOScore>
0.0000

> <Gold.PLP.Chemscore.Metal>
0.0000

> <Gold.Chemscore.Hbonds>
donor molecule, donor type, donor heavy atom, donor atom, acceptor molecule, acceptor atom, score
      P1  H  7997  8009       L1     9  0.78

> <Gold.PLP.Chemscore.Internal.Correction>
0.0025

> <Gold.Rescore>
     Score         DG    S(hbond)    S(metal)    S(lipo)     H(rot)  DE(clash)    DE(int)     intcor
     15.43     -18.37       0.83        0.00     108.47       1.00       1.61       1.33       ----

> <Gold.Chemscore.Fitness>
15.4279

> <Gold.Chemscore.DG>
-18.3705

> <Gold.Chemscore.ZeroCoef>
-5.4800

> <Gold.Chemscore.Hbond>
0.8264

> <Gold.Chemscore.Metal>
0.0000

> <Gold.Chemscore.Lipo>
108.4652

> <Gold.Chemscore.Internal_Hbond>
0.0000

> <Gold.Chemscore.DEClash>
1.6097

> <Gold.Chemscore.DEInternal>
1.3328

> <Gold.Chemscore.Rot>
1.0000

> <Gold.Chemscore.Internal.Correction>
   9.000000E+99

> <Gold.Chemscore.Hbonds>
donor molecule, donor type, donor heavy atom, donor atom, acceptor molecule, acceptor atom, score
      P1  H  7997  8009       L1     9  0.29

> <Gold.Chemscore.Hbond.Weighted>
-2.7601

> <Gold.Chemscore.Metal.Weighted>
-0.0000

> <Gold.Chemscore.Lipo.Weighted>
-12.6904

> <Gold.Chemscore.Internal_Hbond.Weighted>
0.0000

> <Gold.Chemscore.DEClash.Weighted>
1.6097

> <Gold.Chemscore.DEInternal.Weighted>
1.3328

> <Gold.Chemscore.Rot.Weighted>
2.5600

> <Gold.Chemscore.Internal.Correction.Weighted>
   9.000000E+99

> <Gold.Protein.RotatedTorsions>
[ 6907 6896 6895 6894 ] final   20.19 input  -60.11 | X-H torsion
[ 7974 7965 7964 7962 ] final -168.22 input  175.53 | X-H torsion
[ 8008 7997 7996 7995 ] final  149.00 input   59.86 | X-H torsion
[ 10167 10162 10161 10158 ] final   23.99 input  -65.29 | X-H torsion
[ 10718 10713 10712 10709 ] final   40.76 input   66.30 | X-H torsion
[ 10763 10752 10751 10750 ] final   26.08 input  -60.55 | X-H torsion
[ 11005 11000 10999 10996 ] final  173.98 input  -57.11 | X-H torsion

> <Gold.Protein.ActiveResidues>
 VAL166  LYS551  ARG553  GLY616  TRP617  ASP618  TYR619  PRO620  LYS621  CYS622 
 ASP623  PHE694  ASN695  SER759  ASP760  ASP761  ALA762  ILE779  LEU786  VAL792 
 PHE793  MET794  SER795  GLU796  ALA797  LYS798  CYS799  TRP800  GLU811  SER814 

> <Gold.Protein.RotatedAtoms>
  151.8925  135.0410  160.0498 H   0  0  0  0  0  0  0  0  0  0  0  0  # atno 6907 bound_to 6896
  152.2424  133.5142  159.5286 H   0  0  0  0  0  0  0  0  0  0  0  0  # atno 6908 bound_to 6896
  150.7057  134.0987  159.4000 H   0  0  0  0  0  0  0  0  0  0  0  0  # atno 6909 bound_to 6896
  144.7207  140.2402  143.6292 H   0  0  0  0  0  0  0  0  0  0  0  0  # atno 7974 bound_to 7965
  156.2771  140.2113  156.5789 H   0  0  0  0  0  0  0  0  0  0  0  0  # atno 8008 bound_to 7997
  154.7075  140.0515  157.0541 H   0  0  0  0  0  0  0  0  0  0  0  0  # atno 8009 bound_to 7997
  155.0651  140.3170  155.4651 H   0  0  0  0  0  0  0  0  0  0  0  0  # atno 8010 bound_to 7997
  140.5224  143.9979  150.6423 H   0  0  0  0  0  0  0  0  0  0  0  0  # atno 10167 bound_to 10162
  157.3858  130.7779  149.7229 H   0  0  0  0  0  0  0  0  0  0  0  0  # atno 10718 bound_to 10713
  153.0647  135.6568  154.0381 H   0  0  0  0  0  0  0  0  0  0  0  0  # atno 10763 bound_to 10752
  154.0041  135.2934  155.3401 H   0  0  0  0  0  0  0  0  0  0  0  0  # atno 10764 bound_to 10752
  154.7000  135.5248  153.8582 H   0  0  0  0  0  0  0  0  0  0  0  0  # atno 10765 bound_to 10752
  140.3464  134.7233  157.4238 H   0  0  0  0  0  0  0  0  0  0  0  0  # atno 11005 bound_to 11000
  145.8327  139.2093  143.1873 LP  0  0  0  0  0  0  0  0  0  0  0  0  # atno 17320 bound_to 7965
  146.0416  140.8159  142.9826 LP  0  0  0  0  0  0  0  0  0  0  0  0  # atno 17321 bound_to 7965
  140.3332  143.3065  152.0665 LP  0  0  0  0  0  0  0  0  0  0  0  0  # atno 17342 bound_to 10162
  139.4927  144.6494  151.6707 LP  0  0  0  0  0  0  0  0  0  0  0  0  # atno 17343 bound_to 10162
  155.9786  130.4049  150.3636 LP  0  0  0  0  0  0  0  0  0  0  0  0  # atno 17370 bound_to 10713
  157.1746  131.0377  151.2778 LP  0  0  0  0  0  0  0  0  0  0  0  0  # atno 17371 bound_to 10713
  140.0739  134.5824  155.8612 LP  0  0  0  0  0  0  0  0  0  0  0  0  # atno 17394 bound_to 11000
  141.2024  133.6625  156.6006 LP  0  0  0  0  0  0  0  0  0  0  0  0  # atno 17395 bound_to 11000

$$$$
