AV-unprocessed.smi:1868|AV-procd|sdf|7585|dock2
  -GOLD-   22720 9293D 1   1.00000     0.00000
 Structure written by MMmdl.
 47 49  0  0  0  0  0  0  0  0  2 V2000
  146.5271  142.5165  154.0756 C   0  0  0  0  0  0  0  0  0  0  0  0
  147.6881  141.6592  154.4691 C   0  0  0  0  0  0  0  0  0  0  0  0
  148.5420  142.0155  155.4283 N   0  0  0  0  0  0  0  0  0  0  0  0
  149.4234  140.9519  155.4603 C   0  0  0  0  0  0  0  0  0  0  0  0
  150.5615  140.7258  156.2668 C   0  0  0  0  0  0  0  0  0  0  0  0
  151.3203  139.5467  156.1157 C   0  0  0  0  0  0  0  0  0  0  0  0
  150.9526  138.5786  155.1588 C   0  0  0  0  0  0  0  0  0  0  0  0
  149.8223  138.7841  154.3448 C   0  0  0  0  0  0  0  0  0  0  0  0
  149.0689  139.9634  154.4985 C   0  0  0  0  0  0  0  0  0  0  0  0
  147.9342  140.4680  153.8702 N   0  0  0  0  0  0  0  0  0  0  0  0
  147.1822  139.8339  152.7957 C   0  0  0  0  0  0  0  0  0  0  0  0
  146.4568  138.5542  153.2561 C   0  0  1  0  0  0  0  0  0  0  0  0
  145.4353  138.8959  154.1734 O   0  0  0  0  0  0  0  0  0  0  0  0
  145.8198  137.8011  152.0717 C   0  0  0  0  0  0  0  0  0  0  0  0
  146.2146  136.3696  152.0294 N   0  3  2  0  0  0  0  0  0  0  0  0
  145.6863  135.6465  150.8421 C   0  0  0  0  0  0  0  0  0  0  0  0
  146.2381  134.2126  150.7761 C   0  0  0  0  0  0  0  0  0  0  0  0
  145.9229  133.4316  152.0628 C   0  0  1  0  0  0  0  0  0  0  0  0
  146.4996  132.0095  152.0200 C   0  0  0  0  0  0  0  0  0  0  0  0
  146.4447  134.2213  153.2747 C   0  0  0  0  0  0  0  0  0  0  0  0
  145.8887  135.6551  153.2903 C   0  0  0  0  0  0  0  0  0  0  0  0
  146.5301  143.4477  154.6432 H   0  0  0  0  0  0  0  0  0  0  0  0
  145.5900  141.9971  154.2769 H   0  0  0  0  0  0  0  0  0  0  0  0
  146.5759  142.7620  153.0150 H   0  0  0  0  0  0  0  0  0  0  0  0
  150.8516  141.4611  157.0028 H   0  0  0  0  0  0  0  0  0  0  0  0
  152.1891  139.3845  156.7369 H   0  0  0  0  0  0  0  0  0  0  0  0
  151.5396  137.6782  155.0497 H   0  0  0  0  0  0  0  0  0  0  0  0
  149.5402  138.0446  153.6103 H   0  0  0  0  0  0  0  0  0  0  0  0
  146.4659  140.5553  152.3999 H   0  0  0  0  0  0  0  0  0  0  0  0
  147.8641  139.6085  151.9756 H   0  0  0  0  0  0  0  0  0  0  0  0
  147.1724  137.9157  153.7720 H   0  0  0  0  0  0  0  0  0  0  0  0
  144.7386  139.3272  153.7009 H   0  0  0  0  0  0  0  0  0  0  0  0
  144.7350  137.8843  152.1564 H   0  0  0  0  0  0  0  0  0  0  0  0
  146.0860  138.2754  151.1257 H   0  0  0  0  0  0  0  0  0  0  0  0
  144.5959  135.6262  150.8816 H   0  0  0  0  0  0  0  0  0  0  0  0
  145.9568  136.1690  149.9255 H   0  0  0  0  0  0  0  0  0  0  0  0
  145.8155  133.6970  149.9130 H   0  0  0  0  0  0  0  0  0  0  0  0
  147.3172  134.2456  150.6172 H   0  0  0  0  0  0  0  0  0  0  0  0
  144.8387  133.3471  152.1529 H   0  0  0  0  0  0  0  0  0  0  0  0
  147.5856  132.0236  151.9222 H   0  0  0  0  0  0  0  0  0  0  0  0
  146.0968  131.4475  151.1768 H   0  0  0  0  0  0  0  0  0  0  0  0
  146.2545  131.4592  152.9289 H   0  0  0  0  0  0  0  0  0  0  0  0
  146.1700  133.7121  154.1992 H   0  0  0  0  0  0  0  0  0  0  0  0
  147.5351  134.2545  153.2536 H   0  0  0  0  0  0  0  0  0  0  0  0
  146.3145  136.1916  154.1391 H   0  0  0  0  0  0  0  0  0  0  0  0
  144.8070  135.6404  153.4338 H   0  0  0  0  0  0  0  0  0  0  0  0
  147.2224  136.3620  151.9573 H   0  0  0  0  0  0  0  0  0  0  0  0
  1  2  1  0  0  0  0
  1 22  1  0  0  0  0
  1 23  1  0  0  0  0
  1 24  1  0  0  0  0
  2 10  1  0  0  0  0
  2  3  2  0  0  0  0
  3  4  1  0  0  0  0
  4  9  2  0  0  0  0
  4  5  1  0  0  0  0
  5  6  2  0  0  0  0
  5 25  1  0  0  0  0
  6  7  1  0  0  0  0
  6 26  1  0  0  0  0
  7  8  2  0  0  0  0
  7 27  1  0  0  0  0
  8  9  1  0  0  0  0
  8 28  1  0  0  0  0
  9 10  1  0  0  0  0
 10 11  1  0  0  0  0
 11 12  1  0  0  0  0
 11 29  1  0  0  0  0
 11 30  1  0  0  0  0
 12 13  1  0  0  0  0
 12 14  1  0  0  0  0
 12 31  1  0  0  0  0
 13 32  1  0  0  0  0
 14 15  1  0  0  0  0
 14 33  1  0  0  0  0
 14 34  1  0  0  0  0
 15 21  1  0  0  0  0
 15 16  1  0  0  0  0
 15 47  1  0  0  0  0
 16 17  1  0  0  0  0
 16 35  1  0  0  0  0
 16 36  1  0  0  0  0
 17 18  1  0  0  0  0
 17 37  1  0  0  0  0
 17 38  1  0  0  0  0
 18 19  1  0  0  0  0
 18 20  1  0  0  0  0
 18 39  1  0  0  0  0
 19 40  1  0  0  0  0
 19 41  1  0  0  0  0
 19 42  1  0  0  0  0
 20 21  1  0  0  0  0
 20 43  1  0  0  0  0
 20 44  1  0  0  0  0
 21 45  1  0  0  0  0
 21 46  1  0  0  0  0
M  CHG  1  15   1
M  END
> <s_m_source_file>
AV-unprocessed.smi

> <i_m_source_file_index>
1868

> <i_lp_mmshare_version>
43012

> <i_f3d_flags>
0

> <s_epik_input>
W2NIXTFbY0hdW2NIXVtjSF1jKGMxMiluKGMobjIpW0NIM10pW0NIMl1bQ0BIXShbT0hdKVtDSDJdTjNbQ0gyXVtDSDJdW0NIXShbQ0gzXSlbQ0gyXVtDSDJdMw==

> <s_epik_cmdline>
J2VwaWtfcHl0aG9uJywgJy1waCcsICc3LjAnLCAnLXRuJywgJzgnLCAnLW1hJywgJzIwMCcsICctbWV0YWxfYmluZGluZycsICctaW1hZScsICc8aW5maWxlLm1hZT4nLCAnLW9tYWUnLCAnPG91dGZpbGUubWFlPic=

> <r_epik_Ionization_Penalty>
0.101157

> <r_epik_Ionization_Penalty_Charging>
0.00181365

> <r_epik_Ionization_Penalty_Neutral>
0.0993436

> <r_epik_State_Penalty>
0.0871902

> <r_epik_Charging_Adjusted_Penalty>
0.0890039

> <i_epik_Tot_Q>
1

> <i_epik_Tot_abs_Q>
1

> <r_epik_Metal_State_Penalty>
9.24346e-05

> <b_epik_Metal_Only>
0

> <s_lp_Force_Field>
OPLS_2005

> <r_lp_Energy>
21.7142

> <b_lp_Chiralities_Consistent>
1

> <s_lp_Variant>
AV-unprocessed.smi:1868-2

> <Gold.Version>
5.8.1

> <Gold.Id.Protein>
6NUR|6NUR_protein|mol2

> <Gold.PLP.Fitness>
47.3980

> <Gold.PLP.PLP>
-39.9504

> <Gold.PLP.part.hbond>
-2.0000

> <Gold.PLP.part.metal>
0.0000

> <Gold.PLP.part.buried>
1.2306

> <Gold.PLP.part.nonpolar>
-41.4452

> <Gold.PLP.part.repulsive>
2.9584

> <Gold.PLP.ligand.clash>
0.0000

> <Gold.PLP.ligand.torsion>
0.8109

> <Gold.PLP.Chemscore.Hbond>
2.9913

> <Gold.PLP.Chemscore.CHOScore>
0.0000

> <Gold.PLP.Chemscore.Metal>
0.0000

> <Gold.Chemscore.Hbonds>
donor molecule, donor type, donor heavy atom, donor atom, acceptor molecule, acceptor atom, score
      L1  H    13    32       P1 10175  1.00
      L1  H    15    47       P1  7948  2.00

> <Gold.PLP.Chemscore.Internal.Correction>
0.0955

> <Gold.Rescore>
     Score         DG    S(hbond)    S(metal)    S(lipo)     H(rot)  DE(clash)    DE(int)     intcor
     15.56     -18.36       1.91        0.00      97.68       1.92       2.00       0.80       ----

> <Gold.Chemscore.Fitness>
15.5585

> <Gold.Chemscore.DG>
-18.3640

> <Gold.Chemscore.ZeroCoef>
-5.4800

> <Gold.Chemscore.Hbond>
1.9074

> <Gold.Chemscore.Metal>
0.0000

> <Gold.Chemscore.Lipo>
97.6765

> <Gold.Chemscore.Internal_Hbond>
0.0000

> <Gold.Chemscore.DEClash>
2.0008

> <Gold.Chemscore.DEInternal>
0.8047

> <Gold.Chemscore.Rot>
1.9198

> <Gold.Chemscore.Internal.Correction>
   9.000000E+99

> <Gold.Chemscore.Hbonds>
donor molecule, donor type, donor heavy atom, donor atom, acceptor molecule, acceptor atom, score
      L1  H    13    32       P1 10175  0.97
      L1  H    15    47       P1  7948  1.00

> <Gold.Chemscore.Hbond.Weighted>
-6.3706

> <Gold.Chemscore.Metal.Weighted>
-0.0000

> <Gold.Chemscore.Lipo.Weighted>
-11.4282

> <Gold.Chemscore.Internal_Hbond.Weighted>
0.0000

> <Gold.Chemscore.DEClash.Weighted>
2.0008

> <Gold.Chemscore.DEInternal.Weighted>
0.8047

> <Gold.Chemscore.Rot.Weighted>
4.9147

> <Gold.Chemscore.Internal.Correction.Weighted>
   9.000000E+99

> <Gold.Protein.RotatedTorsions>
[ 6907 6896 6895 6894 ] final   -0.62 input  -60.11 | X-H torsion
[ 7974 7965 7964 7962 ] final -142.89 input  175.53 | X-H torsion
[ 8008 7997 7996 7995 ] final -178.08 input   59.86 | X-H torsion
[ 10167 10162 10161 10158 ] final  -37.85 input  -65.29 | X-H torsion
[ 10718 10713 10712 10709 ] final -164.93 input   66.30 | X-H torsion
[ 10763 10752 10751 10750 ] final    1.85 input  -60.55 | X-H torsion
[ 11005 11000 10999 10996 ] final  -99.97 input  -57.11 | X-H torsion

> <Gold.Protein.ActiveResidues>
 VAL166  LYS551  ARG553  GLY616  TRP617  ASP618  TYR619  PRO620  LYS621  CYS622 
 ASP623  PHE694  ASN695  SER759  ASP760  ASP761  ALA762  ILE779  LEU786  VAL792 
 PHE793  MET794  SER795  GLU796  ALA797  LYS798  CYS799  TRP800  GLU811  SER814 

> <Gold.Protein.RotatedAtoms>
  151.5593  135.1066  159.9968 H   0  0  0  0  0  0  0  0  0  0  0  0  # atno 6907 bound_to 6896
  152.4454  133.7522  159.6711 H   0  0  0  0  0  0  0  0  0  0  0  0  # atno 6908 bound_to 6896
  150.8369  133.7932  159.3100 H   0  0  0  0  0  0  0  0  0  0  0  0  # atno 6909 bound_to 6896
  144.8410  140.5902  143.5452 H   0  0  0  0  0  0  0  0  0  0  0  0  # atno 7974 bound_to 7965
  156.0146  140.1248  157.0419 H   0  0  0  0  0  0  0  0  0  0  0  0  # atno 8008 bound_to 7997
  154.4288  140.1081  156.5948 H   0  0  0  0  0  0  0  0  0  0  0  0  # atno 8009 bound_to 7997
  155.6031  140.3470  155.4602 H   0  0  0  0  0  0  0  0  0  0  0  0  # atno 8010 bound_to 7997
  140.7108  143.3315  151.2558 H   0  0  0  0  0  0  0  0  0  0  0  0  # atno 10167 bound_to 10162
  156.6461  130.8988  151.3005 H   0  0  0  0  0  0  0  0  0  0  0  0  # atno 10718 bound_to 10713
  153.3029  135.6957  153.7186 H   0  0  0  0  0  0  0  0  0  0  0  0  # atno 10763 bound_to 10752
  153.6094  135.3447  155.2974 H   0  0  0  0  0  0  0  0  0  0  0  0  # atno 10764 bound_to 10752
  154.8555  135.4359  154.2145 H   0  0  0  0  0  0  0  0  0  0  0  0  # atno 10765 bound_to 10752
  141.1289  133.8362  157.1041 H   0  0  0  0  0  0  0  0  0  0  0  0  # atno 11005 bound_to 11000
  145.4695  139.1505  143.3822 LP  0  0  0  0  0  0  0  0  0  0  0  0  # atno 17320 bound_to 7965
  146.2702  140.4828  142.8817 LP  0  0  0  0  0  0  0  0  0  0  0  0  # atno 17321 bound_to 7965
  139.6798  143.9873  152.2802 LP  0  0  0  0  0  0  0  0  0  0  0  0  # atno 17342 bound_to 10162
  139.9500  144.6627  150.8181 LP  0  0  0  0  0  0  0  0  0  0  0  0  # atno 17343 bound_to 10162
  157.7156  130.9493  150.1242 LP  0  0  0  0  0  0  0  0  0  0  0  0  # atno 17370 bound_to 10713
  156.2121  130.3667  149.8658 LP  0  0  0  0  0  0  0  0  0  0  0  0  # atno 17371 bound_to 10713
  140.0315  134.9899  157.0790 LP  0  0  0  0  0  0  0  0  0  0  0  0  # atno 17394 bound_to 11000
  140.4277  134.1813  155.7167 LP  0  0  0  0  0  0  0  0  0  0  0  0  # atno 17395 bound_to 11000

$$$$
