#       Name:                AV-unprocessed.smi:587
#       Creating user name   scv26
#       Creation time:       Thu Mar 26 23:50:55 2020


#       File generated by GOLD software.
#

@<TRIPOS>MOLECULE
AV-unprocessed.smi:587
    52    54     1
SMALL
NO_CHARGES


@<TRIPOS>ATOM
      1 ****        -2.8304  -2.5322   1.1817 C.3            1 S1                 0.0000
      2 ****        -1.7640  -1.5662   1.0191 N.am           1 S1                 0.0000
      3 ****        -1.9235  -0.1869   1.1328 C.2            1 S1                 0.0000
      4 ****        -3.1942   0.3102   1.3711 N.pl3          1 S1                 0.0000
      5 ****        -0.8765   0.6700   0.9775 C.2            1 S1                 0.0000
      6 ****        -0.9937   2.0569   1.0813 N.pl3          1 S1                 0.0000
      7 ****        -1.3714   2.7406   2.3175 C.3            1 S1                 0.0000
      8 ****        -2.6321   3.6042   2.1229 C.3            1 S1                 0.0000
      9 ****        -2.4631   4.5681   0.9383 C.3            1 S1                 0.0000
     10 ****        -2.0486   3.7947  -0.3228 C.3            1 S1                 0.0000
     11 ****        -0.7896   2.9536  -0.0554 C.3            1 S1                 0.0000
     12 ****         0.4696   0.1582   0.6881 C.2            1 S1                 0.0000
     13 ****         1.4594   0.8827   0.5558 O.2            1 S1                 0.0000
     14 ****         0.5928  -1.2431   0.5557 N.am           1 S1                 0.0000
     15 ****         1.9161  -1.8117   0.2111 C.3            1 S1                 0.0000
     16 ****         2.1664  -1.9090  -1.3023 C.2            1 S1                 0.0000
     17 ****         1.3456  -1.4734  -2.1115 O.2            1 S1                 0.0000
     18 ****         3.3198  -2.4885  -1.6649 N.am           1 S1                 0.0000
     19 ****         3.7678  -2.6730  -3.0073 C.3            1 S1                 0.0000
     20 ****         4.4713  -3.9694  -3.3455 C.3            1 S1                 0.0000
     21 ****         5.2617  -2.6936  -3.2490 C.3            1 S1                 0.0000
     22 ****        -0.5032  -2.1181   0.6978 C.2            1 S1                 0.0000
     23 ****        -0.3585  -3.3345   0.5414 O.2            1 S1                 0.0000
     24 ****        -3.7166  -2.0512   1.5905 H              1 S1                 0.0000
     25 ****        -2.4914  -3.2964   1.8837 H              1 S1                 0.0000
     26 ****        -3.0396  -2.9505   0.1957 H              1 S1                 0.0000
     27 ****        -3.9892  -0.3062   1.4612 H              1 S1                 0.0000
     28 ****        -3.3522   1.2819   1.5949 H              1 S1                 0.0000
     29 ****        -1.5346   2.0150   3.1153 H              1 S1                 0.0000
     30 ****        -0.5362   3.3653   2.6369 H              1 S1                 0.0000
     31 ****        -3.4981   2.9659   1.9486 H              1 S1                 0.0000
     32 ****        -2.8437   4.1648   3.0336 H              1 S1                 0.0000
     33 ****        -3.3903   5.1134   0.7596 H              1 S1                 0.0000
     34 ****        -1.7028   5.3128   1.1772 H              1 S1                 0.0000
     35 ****        -2.8635   3.1417  -0.6381 H              1 S1                 0.0000
     36 ****        -1.8682   4.4876  -1.1450 H              1 S1                 0.0000
     37 ****         0.0638   3.6010   0.1514 H              1 S1                 0.0000
     38 ****        -0.5383   2.3814  -0.9495 H              1 S1                 0.0000
     39 ****         2.7225  -1.2274   0.6568 H              1 S1                 0.0000
     40 ****         2.0427  -2.8034   0.6482 H              1 S1                 0.0000
     41 ****         3.9329  -2.8177  -0.9331 H              1 S1                 0.0000
     42 ****         3.1657  -2.2320  -3.8006 H              1 S1                 0.0000
     43 ****         4.5997  -4.7019  -2.5506 H              1 S1                 0.0000
     44 ****         4.3050  -4.3843  -4.3377 H              1 S1                 0.0000
     45 ****         5.6263  -2.2573  -4.1770 H              1 S1                 0.0000
     46 ****         5.9194  -2.5759  -2.3897 H              1 S1                 0.0000
     47 ****         1.3686   1.8745   0.6453 LP             1 S1                 0.0000
     48 ****         2.3525   0.4781   0.3590 LP             1 S1                 0.0000
     49 ****         0.5006  -1.0484  -1.7870 LP             1 S1                 0.0000
     50 ****         1.5245  -1.5450  -3.0928 LP             1 S1                 0.0000
     51 ****        -1.1416  -3.9482   0.6418 LP             1 S1                 0.0000
     52 ****         0.5418  -3.7059   0.3143 LP             1 S1                 0.0000
@<TRIPOS>BOND
    1    1    2 1     
    2    1   24 1     
    3    1   25 1     
    4    1   26 1     
    5    2   22 am    
    6    2    3 1     
    7    3    4 1     
    8    3    5 2     
    9    4   27 1     
   10    4   28 1     
   11    5    6 1     
   12    5   12 1     
   13    6   11 1     
   14    6    7 1     
   15    7    8 1     
   16    7   29 1     
   17    7   30 1     
   18    8    9 1     
   19    8   31 1     
   20    8   32 1     
   21    9   10 1     
   22    9   33 1     
   23    9   34 1     
   24   10   11 1     
   25   10   35 1     
   26   10   36 1     
   27   11   37 1     
   28   11   38 1     
   29   12   13 2     
   30   12   14 am    
   31   14   15 1     
   32   14   22 am    
   33   15   16 1     
   34   15   39 1     
   35   15   40 1     
   36   16   17 2     
   37   16   18 am    
   38   18   19 1     
   39   18   41 1     
   40   19   21 1     
   41   19   20 1     
   42   19   42 1     
   43   20   21 1     
   44   20   43 1     
   45   20   44 1     
   46   21   45 1     
   47   21   46 1     
   48   22   23 2     
   49   13   47 1     
   50   13   48 1     
   51   17   49 1     
   52   17   50 1     
   53   23   51 1     
   54   23   52 1     
@<TRIPOS>SUBSTRUCTURE
      1 S1             1
@<TRIPOS>SET
LONE_PAIRS      STATIC     ATOMS    <user>   **** ""
6 47 48 49 50 51 52
DONOR_HYDROGENS      STATIC     ATOMS    <user>   **** ""
3 27 28 41
ATOM$BLUE        STATIC     ATOMS    COLORGROUP SYSTEM
6 47 48 49 50 51 52
ATOM$RED        STATIC     ATOMS    COLORGROUP SYSTEM
3 27 28 41
