#       Name:                AV-unprocessed.smi:1762
#       Creating user name   scv26
#       Creation time:       Fri Mar 27 08:33:51 2020


#       File generated by GOLD software.
#

@<TRIPOS>MOLECULE
AV-unprocessed.smi:1762
    58    59     1
SMALL
NO_CHARGES


@<TRIPOS>ATOM
      1 ****        -5.4033  -0.2335  -1.9127 C.3            1 S1                 0.0000
      2 ****        -3.9024   0.0123  -1.7238 C.3            1 S1                 0.0000
      3 ****        -3.1246  -1.2998  -1.4961 C.3            1 S1                 0.0000
      4 ****        -1.6635  -1.0456  -1.3637 N.4            1 S1                 1.0000
      5 ****        -1.2014  -0.4364  -0.0659 C.3            1 S1                 0.0000
      6 ****         0.3396  -0.4032   0.0153 C.2            1 S1                 0.0000
      7 ****         1.0002  -1.3803  -0.3387 O.2            1 S1                 0.0000
      8 ****         0.8939   0.7260   0.4840 N.am           1 S1                 0.0000
      9 ****         2.3254   0.9530   0.6404 C.3            1 S1                 0.0000
     10 ****         2.8635   0.3137   1.9310 C.3            1 S1                 0.0000
     11 ****         4.3457   0.5748   2.1199 C.ar           1 S1                 0.0000
     12 ****         4.7922   1.6211   2.9549 C.ar           1 S1                 0.0000
     13 ****         6.1790   1.8301   3.0851 C.ar           1 S1                 0.0000
     14 ****         7.0607   0.9902   2.3778 C.ar           1 S1                 0.0000
     15 ****         6.5142  -0.0251   1.5676 C.ar           1 S1                 0.0000
     16 ****         5.1861  -0.2330   1.4350 N.ar           1 S1                 0.0000
     17 ****        -1.8060  -1.1151   1.2093 C.3            1 S1                 0.0000
     18 ****        -1.4041  -0.4141   2.5225 C.3            1 S1                 0.0000
     19 ****        -1.5235  -2.6284   1.3108 C.3            1 S1                 0.0000
     20 ****        -1.2077  -0.3274  -2.5891 C.3            1 S1                 0.0000
     21 ****        -2.0236   0.9620  -2.8292 C.3            1 S1                 0.0000
     22 ****        -1.6278   1.6551  -4.1374 C.3            1 S1                 0.0000
     23 ****        -3.4076   0.6358  -2.9046 O.3            1 S1                 0.0000
     24 ****        -5.8383  -0.7029  -1.0301 H              1 S1                 0.0000
     25 ****        -5.5932  -0.8847  -2.7665 H              1 S1                 0.0000
     26 ****        -5.9332   0.7035  -2.0850 H              1 S1                 0.0000
     27 ****        -3.7694   0.6840  -0.8746 H              1 S1                 0.0000
     28 ****        -3.5316  -1.8629  -0.6594 H              1 S1                 0.0000
     29 ****        -3.2709  -1.9504  -2.3597 H              1 S1                 0.0000
     30 ****        -1.5449   0.5981  -0.0552 H              1 S1                 0.0000
     31 ****         0.2812   1.4806   0.7581 H              1 S1                 0.0000
     32 ****         2.8623   0.5727  -0.2305 H              1 S1                 0.0000
     33 ****         2.4952   2.0299   0.6634 H              1 S1                 0.0000
     34 ****         2.3184   0.6978   2.7944 H              1 S1                 0.0000
     35 ****         2.6947  -0.7643   1.9189 H              1 S1                 0.0000
     36 ****         4.0907   2.2517   3.4814 H              1 S1                 0.0000
     37 ****         6.5592   2.6210   3.7145 H              1 S1                 0.0000
     38 ****         8.1302   1.1211   2.4533 H              1 S1                 0.0000
     39 ****         7.1607  -0.6868   1.0105 H              1 S1                 0.0000
     40 ****        -2.8868  -0.9877   1.1698 H              1 S1                 0.0000
     41 ****        -0.3491  -0.5576   2.7585 H              1 S1                 0.0000
     42 ****        -1.9772  -0.8069   3.3629 H              1 S1                 0.0000
     43 ****        -1.5943   0.6583   2.4724 H              1 S1                 0.0000
     44 ****        -0.4645  -2.8318   1.4704 H              1 S1                 0.0000
     45 ****        -1.8302  -3.1642   0.4131 H              1 S1                 0.0000
     46 ****        -2.0661  -3.0671   2.1486 H              1 S1                 0.0000
     47 ****        -0.1417  -0.1041  -2.5660 H              1 S1                 0.0000
     48 ****        -1.3409  -0.9984  -3.4391 H              1 S1                 0.0000
     49 ****        -1.8672   1.6683  -2.0132 H              1 S1                 0.0000
     50 ****        -0.5762   1.9430  -4.1251 H              1 S1                 0.0000
     51 ****        -2.2170   2.5589  -4.2945 H              1 S1                 0.0000
     52 ****        -1.7860   1.0016  -4.9958 H              1 S1                 0.0000
     53 ****        -1.2206  -1.9535  -1.3894 H              1 S1                 0.0000
     54 ****         0.5385  -2.1989  -0.6802 LP             1 S1                 0.0000
     55 ****         1.9985  -1.3551  -0.2846 LP             1 S1                 0.0000
     56 ****         4.8351  -0.9624   0.8479 LP             1 S1                 0.0000
     57 ****        -3.9245   1.4776  -3.0599 LP             1 S1                 0.0000
     58 ****        -3.5458   0.0130  -3.6746 LP             1 S1                 0.0000
@<TRIPOS>BOND
    1    1    2 1     
    2    1   24 1     
    3    1   25 1     
    4    1   26 1     
    5    2   23 1     
    6    2    3 1     
    7    2   27 1     
    8    3    4 1     
    9    3   28 1     
   10    3   29 1     
   11    4    5 1     
   12    4   20 1     
   13    4   53 1     
   14    5    6 1     
   15    5   17 1     
   16    5   30 1     
   17    6    7 2     
   18    6    8 am    
   19    8    9 1     
   20    8   31 1     
   21    9   10 1     
   22    9   32 1     
   23    9   33 1     
   24   10   11 1     
   25   10   34 1     
   26   10   35 1     
   27   11   16 ar    
   28   11   12 ar    
   29   12   13 ar    
   30   12   36 1     
   31   13   14 ar    
   32   13   37 1     
   33   14   15 ar    
   34   14   38 1     
   35   15   16 ar    
   36   15   39 1     
   37   17   18 1     
   38   17   19 1     
   39   17   40 1     
   40   18   41 1     
   41   18   42 1     
   42   18   43 1     
   43   19   44 1     
   44   19   45 1     
   45   19   46 1     
   46   20   21 1     
   47   20   47 1     
   48   20   48 1     
   49   21   22 1     
   50   21   23 1     
   51   21   49 1     
   52   22   50 1     
   53   22   51 1     
   54   22   52 1     
   55    7   54 1     
   56    7   55 1     
   57   16   56 1     
   58   23   57 1     
   59   23   58 1     
@<TRIPOS>SUBSTRUCTURE
      1 S1             1
@<TRIPOS>SET
LONE_PAIRS      STATIC     ATOMS    <user>   **** ""
5 54 55 56 57 58
DONOR_HYDROGENS      STATIC     ATOMS    <user>   **** ""
2 53 31
ATOM$BLUE        STATIC     ATOMS    COLORGROUP SYSTEM
5 54 55 56 57 58
ATOM$RED        STATIC     ATOMS    COLORGROUP SYSTEM
2 53 31
