AV-unprocessed.smi:750|AV-procd|sdf|3588|dock1
  -GOLD-   22720 0583D 1   1.00000     0.00000
 Structure written by MMmdl.
 23 24  0  0  0  0  0  0  0  0  1 V2000
  149.4848  140.5671  157.9193 C   0  0  0  0  0  0  0  0  0  0  0  0
  151.0205  140.5980  157.7832 C   0  0  1  0  0  0  0  0  0  0  0  0
  151.6009  142.0031  158.0077 C   0  0  0  0  0  0  0  0  0  0  0  0
  152.5809  142.2258  159.0033 C   0  0  0  0  0  0  0  0  0  0  0  0
  153.0984  143.5215  159.1886 C   0  0  0  0  0  0  0  0  0  0  0  0
  152.6176  144.5580  158.3670 C   0  0  0  0  0  0  0  0  0  0  0  0
  151.6848  144.3690  157.4111 N   0  0  0  0  0  0  0  0  0  0  0  0
  151.1935  143.1227  157.2410 C   0  0  0  0  0  0  0  0  0  0  0  0
  151.6120  139.5715  158.6330 N   0  0  0  0  0  0  0  0  0  0  0  0
  152.3084  138.6566  157.9450 C   0  0  0  0  0  0  0  0  0  0  0  0
  152.9183  137.7027  158.4220 O   0  0  0  0  0  0  0  0  0  0  0  0
  152.2135  138.9611  156.6480 N   0  0  0  0  0  0  0  0  0  0  0  0
  151.4754  140.0486  156.4334 C   0  0  0  0  0  0  0  0  0  0  0  0
  151.1938  140.5376  155.3402 O   0  0  0  0  0  0  0  0  0  0  0  0
  148.9976  141.2298  157.2037 H   0  0  0  0  0  0  0  0  0  0  0  0
  149.1756  140.8773  158.9178 H   0  0  0  0  0  0  0  0  0  0  0  0
  149.0877  139.5649  157.7510 H   0  0  0  0  0  0  0  0  0  0  0  0
  152.9326  141.4164  159.6254 H   0  0  0  0  0  0  0  0  0  0  0  0
  153.8451  143.7159  159.9440 H   0  0  0  0  0  0  0  0  0  0  0  0
  152.9910  145.5649  158.4812 H   0  0  0  0  0  0  0  0  0  0  0  0
  150.4509  143.0330  156.4626 H   0  0  0  0  0  0  0  0  0  0  0  0
  151.5150  139.5723  159.6381 H   0  0  0  0  0  0  0  0  0  0  0  0
  152.6394  138.4178  155.9114 H   0  0  0  0  0  0  0  0  0  0  0  0
  1  2  1  0  0  0  0
  1 15  1  0  0  0  0
  1 16  1  0  0  0  0
  1 17  1  0  0  0  0
  2 13  1  0  0  0  0
  2  3  1  0  0  0  0
  2  9  1  0  0  0  0
  3  8  1  0  0  0  0
  3  4  2  0  0  0  0
  4  5  1  0  0  0  0
  4 18  1  0  0  0  0
  5  6  2  0  0  0  0
  5 19  1  0  0  0  0
  6  7  1  0  0  0  0
  6 20  1  0  0  0  0
  7  8  2  0  0  0  0
  8 21  1  0  0  0  0
  9 10  1  0  0  0  0
  9 22  1  0  0  0  0
 10 11  2  0  0  0  0
 10 12  1  0  0  0  0
 12 13  1  0  0  0  0
 12 23  1  0  0  0  0
 13 14  2  0  0  0  0
M  END
> <s_m_source_file>
AV-unprocessed.smi

> <i_m_source_file_index>
750

> <i_lp_mmshare_version>
43012

> <i_f3d_flags>
0

> <s_epik_input>
Tz1DMVtOSF1DKD1PKVtOSF1bQ0BAXTEoW0NIM10pYzJbY0hdW2NIXVtjSF1uW2NIXTI=

> <s_epik_cmdline>
J2VwaWtfcHl0aG9uJywgJy1waCcsICc3LjAnLCAnLXRuJywgJzgnLCAnLW1hJywgJzIwMCcsICctbWV0YWxfYmluZGluZycsICctaW1hZScsICc8aW5maWxlLm1hZT4nLCAnLW9tYWUnLCAnPG91dGZpbGUubWFlPic=

> <r_lp_tautomer_probability>
1

> <r_epik_Ionization_Penalty>
0.0296909

> <r_epik_Ionization_Penalty_Charging>
0

> <r_epik_Ionization_Penalty_Neutral>
0.0296909

> <r_epik_State_Penalty>
0.022996

> <r_epik_Charging_Adjusted_Penalty>
0.022996

> <i_epik_Tot_Q>
0

> <i_epik_Tot_abs_Q>
0

> <r_epik_Metal_State_Penalty>
0.427807

> <b_epik_Metal_Only>
0

> <s_lp_Force_Field>
OPLS_2005

> <r_lp_Energy>
18.5111

> <b_lp_Chiralities_Consistent>
1

> <s_lp_Variant>
AV-unprocessed.smi:750-1

> <Gold.Version>
5.8.1

> <Gold.Id.Protein>
6NUR|6NUR_protein|mol2

> <Gold.PLP.Fitness>
30.5851

> <Gold.PLP.PLP>
-25.0213

> <Gold.PLP.part.hbond>
-1.0000

> <Gold.PLP.part.metal>
0.0000

> <Gold.PLP.part.buried>
-3.2778

> <Gold.PLP.part.nonpolar>
-21.0788

> <Gold.PLP.part.repulsive>
0.4136

> <Gold.PLP.ligand.clash>
0.0000

> <Gold.PLP.ligand.torsion>
0.0832

> <Gold.PLP.Chemscore.Hbond>
0.9120

> <Gold.PLP.Chemscore.CHOScore>
0.9586

> <Gold.PLP.Chemscore.Metal>
0.0000

> <Gold.Chemscore.Hbonds>
donor molecule, donor type, donor heavy atom, donor atom, acceptor molecule, acceptor atom, score
      P1  H  7989  7998       L1    14  0.91
      L1  C     8    21       P1  8028  0.96

> <Gold.PLP.Chemscore.Internal.Correction>
0.1183

> <Gold.Rescore>
     Score         DG    S(hbond)    S(metal)    S(lipo)     H(rot)  DE(clash)    DE(int)     intcor
     13.35     -13.49       0.90        0.00      64.54       1.00       0.05       0.08       ----

> <Gold.Chemscore.Fitness>
13.3545

> <Gold.Chemscore.DG>
-13.4896

> <Gold.Chemscore.ZeroCoef>
-5.4800

> <Gold.Chemscore.Hbond>
0.9036

> <Gold.Chemscore.Metal>
0.0000

> <Gold.Chemscore.Lipo>
64.5437

> <Gold.Chemscore.Internal_Hbond>
0.0000

> <Gold.Chemscore.DEClash>
0.0502

> <Gold.Chemscore.DEInternal>
0.0848

> <Gold.Chemscore.Rot>
1.0000

> <Gold.Chemscore.Internal.Correction>
   9.000000E+99

> <Gold.Chemscore.Hbonds>
donor molecule, donor type, donor heavy atom, donor atom, acceptor molecule, acceptor atom, score
      P1  H  7989  7998       L1    14  0.88

> <Gold.Chemscore.Hbond.Weighted>
-3.0180

> <Gold.Chemscore.Metal.Weighted>
-0.0000

> <Gold.Chemscore.Lipo.Weighted>
-7.5516

> <Gold.Chemscore.Internal_Hbond.Weighted>
0.0000

> <Gold.Chemscore.DEClash.Weighted>
0.0502

> <Gold.Chemscore.DEInternal.Weighted>
0.0848

> <Gold.Chemscore.Rot.Weighted>
2.5600

> <Gold.Chemscore.Internal.Correction.Weighted>
   9.000000E+99

> <Gold.Protein.RotatedTorsions>
[ 6907 6896 6895 6894 ] final  -99.07 input  -60.11 | X-H torsion
[ 7974 7965 7964 7962 ] final   40.39 input  175.53 | X-H torsion
[ 8008 7997 7996 7995 ] final -122.04 input   59.86 | X-H torsion
[ 10167 10162 10161 10158 ] final  -71.99 input  -65.29 | X-H torsion
[ 10718 10713 10712 10709 ] final -109.95 input   66.30 | X-H torsion
[ 10763 10752 10751 10750 ] final  -54.26 input  -60.55 | X-H torsion
[ 11005 11000 10999 10996 ] final -166.88 input  -57.11 | X-H torsion

> <Gold.Protein.ActiveResidues>
 VAL166  LYS551  ARG553  GLY616  TRP617  ASP618  TYR619  PRO620  LYS621  CYS622 
 ASP623  PHE694  ASN695  SER759  ASP760  ASP761  ALA762  ILE779  LEU786  VAL792 
 PHE793  MET794  SER795  GLU796  ALA797  LYS798  CYS799  TRP800  GLU811  SER814 

> <Gold.Protein.RotatedAtoms>
  150.7067  134.1097  159.3995 H   0  0  0  0  0  0  0  0  0  0  0  0  # atno 6907 bound_to 6896
  151.9084  135.0347  160.0521 H   0  0  0  0  0  0  0  0  0  0  0  0  # atno 6908 bound_to 6896
  152.2356  133.5058  159.5277 H   0  0  0  0  0  0  0  0  0  0  0  0  # atno 6909 bound_to 6896
  146.0909  139.5539  142.9477 H   0  0  0  0  0  0  0  0  0  0  0  0  # atno 7974 bound_to 7965
  155.1577  140.0405  157.2835 H   0  0  0  0  0  0  0  0  0  0  0  0  # atno 8008 bound_to 7997
  154.6358  140.2535  155.7352 H   0  0  0  0  0  0  0  0  0  0  0  0  # atno 8009 bound_to 7997
  156.2508  140.2866  156.0730 H   0  0  0  0  0  0  0  0  0  0  0  0  # atno 8010 bound_to 7997
  140.5229  143.2329  151.7399 H   0  0  0  0  0  0  0  0  0  0  0  0  # atno 10167 bound_to 10162
  156.0564  130.5790  150.8171 H   0  0  0  0  0  0  0  0  0  0  0  0  # atno 10718 bound_to 10713
  154.1720  135.6457  153.5012 H   0  0  0  0  0  0  0  0  0  0  0  0  # atno 10763 bound_to 10752
  153.0082  135.5385  154.6603 H   0  0  0  0  0  0  0  0  0  0  0  0  # atno 10764 bound_to 10752
  154.5944  135.2937  155.0573 H   0  0  0  0  0  0  0  0  0  0  0  0  # atno 10765 bound_to 10752
  140.5595  134.5347  157.5140 H   0  0  0  0  0  0  0  0  0  0  0  0  # atno 11005 bound_to 11000
  145.6041  141.0350  143.2002 LP  0  0  0  0  0  0  0  0  0  0  0  0  # atno 17320 bound_to 7965
  144.7359  139.7587  143.7329 LP  0  0  0  0  0  0  0  0  0  0  0  0  # atno 17321 bound_to 7965
  139.4929  144.4229  151.9958 LP  0  0  0  0  0  0  0  0  0  0  0  0  # atno 17342 bound_to 10162
  140.3326  144.3298  150.5984 LP  0  0  0  0  0  0  0  0  0  0  0  0  # atno 17343 bound_to 10162
  157.5538  131.0944  150.9658 LP  0  0  0  0  0  0  0  0  0  0  0  0  # atno 17370 bound_to 10713
  156.9911  130.5563  149.5303 LP  0  0  0  0  0  0  0  0  0  0  0  0  # atno 17371 bound_to 10713
  139.9415  134.7779  156.0668 LP  0  0  0  0  0  0  0  0  0  0  0  0  # atno 17394 bound_to 11000
  141.1123  133.6639  156.3008 LP  0  0  0  0  0  0  0  0  0  0  0  0  # atno 17395 bound_to 11000

$$$$
