AV-unprocessed.smi:1738|AV-procd|sdf|7000|dock6
  -GOLD-   22720 8213D 1   1.00000     0.00000
 Structure written by MMmdl.
 46 48  0  0  0  0  0  0  0  0  2 V2000
  153.6808  141.2094  160.0703 C   0  0  0  0  0  0  0  0  0  0  0  0
  152.4336  142.5391  159.8280 S   0  0  0  0  0  0  0  0  0  0  0  0
  151.5597  142.5735  161.0110 O   0  0  0  0  0  0  0  0  0  0  0  0
  153.1478  143.7580  159.4170 O   0  0  0  0  0  0  0  0  0  0  0  0
  151.4612  141.9622  158.4415 C   0  0  0  0  0  0  0  0  0  0  0  0
  150.1425  142.4217  158.2535 C   0  0  0  0  0  0  0  0  0  0  0  0
  149.4361  141.9701  157.1223 C   0  0  0  0  0  0  0  0  0  0  0  0
  150.0805  141.0893  156.2175 C   0  0  0  0  0  0  0  0  0  0  0  0
  149.4912  140.5556  155.0378 N   0  0  0  0  0  0  0  0  0  0  0  0
  148.2263  140.1568  154.8184 C   0  0  0  0  0  0  0  0  0  0  0  0
  147.3198  140.1512  155.6495 O   0  0  0  0  0  0  0  0  0  0  0  0
  148.0630  139.7505  153.5508 N   0  0  0  0  0  0  0  0  0  0  0  0
  146.8061  139.2765  152.9734 C   0  0  1  0  0  0  0  0  0  0  0  0
  146.8640  139.1212  151.4420 C   0  0  0  0  0  0  0  0  0  0  0  0
  146.0722  137.8412  151.1559 C   0  0  0  0  0  0  0  0  0  0  0  0
  146.3666  137.0086  152.3278 N   0  3  2  0  0  0  0  0  0  0  0  0
  145.5873  135.7715  152.5343 C   0  0  0  0  0  0  0  0  0  0  0  0
  146.2191  134.9897  153.7066 C   0  0  0  0  0  0  0  0  0  0  0  0
  146.3876  135.8626  154.9715 C   0  0  0  0  0  0  0  0  0  0  0  0
  147.0902  137.2020  154.6590 C   0  0  0  0  0  0  0  0  0  0  0  0
  146.3487  137.8965  153.5028 C   0  0  1  0  0  0  0  0  0  0  0  0
  151.4065  140.7028  156.5096 C   0  0  0  0  0  0  0  0  0  0  0  0
  152.0941  141.1293  157.5890 N   0  0  0  0  0  0  0  0  0  0  0  0
  154.3365  141.4737  160.8996 H   0  0  0  0  0  0  0  0  0  0  0  0
  154.2716  141.0946  159.1618 H   0  0  0  0  0  0  0  0  0  0  0  0
  153.1736  140.2712  160.2944 H   0  0  0  0  0  0  0  0  0  0  0  0
  149.6782  143.0994  158.9545 H   0  0  0  0  0  0  0  0  0  0  0  0
  148.4228  142.3101  156.9831 H   0  0  0  0  0  0  0  0  0  0  0  0
  150.1087  140.5089  154.2404 H   0  0  0  0  0  0  0  0  0  0  0  0
  148.8629  139.7861  152.9359 H   0  0  0  0  0  0  0  0  0  0  0  0
  146.0211  140.0017  153.1981 H   0  0  0  0  0  0  0  0  0  0  0  0
  146.4620  139.9874  150.9155 H   0  0  0  0  0  0  0  0  0  0  0  0
  147.8955  138.9859  151.1133 H   0  0  0  0  0  0  0  0  0  0  0  0
  145.0023  138.0514  151.1116 H   0  0  0  0  0  0  0  0  0  0  0  0
  146.3712  137.3593  150.2248 H   0  0  0  0  0  0  0  0  0  0  0  0
  144.5443  136.0138  152.7427 H   0  0  0  0  0  0  0  0  0  0  0  0
  145.6053  135.1676  151.6266 H   0  0  0  0  0  0  0  0  0  0  0  0
  145.6182  134.1095  153.9369 H   0  0  0  0  0  0  0  0  0  0  0  0
  147.1981  134.6188  153.4001 H   0  0  0  0  0  0  0  0  0  0  0  0
  145.4049  136.0643  155.3995 H   0  0  0  0  0  0  0  0  0  0  0  0
  146.9461  135.3157  155.7316 H   0  0  0  0  0  0  0  0  0  0  0  0
  147.0923  137.8324  155.5484 H   0  0  0  0  0  0  0  0  0  0  0  0
  148.1322  137.0241  154.3906 H   0  0  0  0  0  0  0  0  0  0  0  0
  145.3061  138.0192  153.8047 H   0  0  0  0  0  0  0  0  0  0  0  0
  151.9381  140.0318  155.8506 H   0  0  0  0  0  0  0  0  0  0  0  0
  147.3284  136.7219  152.2141 H   0  0  0  0  0  0  0  0  0  0  0  0
  1  2  1  0  0  0  0
  1 24  1  0  0  0  0
  1 25  1  0  0  0  0
  1 26  1  0  0  0  0
  2  3  2  0  0  0  0
  2  4  2  0  0  0  0
  2  5  1  0  0  0  0
  5 23  1  0  0  0  0
  5  6  2  0  0  0  0
  6  7  1  0  0  0  0
  6 27  1  0  0  0  0
  7  8  2  0  0  0  0
  7 28  1  0  0  0  0
  8  9  1  0  0  0  0
  8 22  1  0  0  0  0
  9 10  1  0  0  0  0
  9 29  1  0  0  0  0
 10 11  2  0  0  0  0
 10 12  1  0  0  0  0
 12 13  1  0  0  0  0
 12 30  1  0  0  0  0
 13 21  1  0  0  0  0
 13 14  1  0  0  0  0
 13 31  1  0  0  0  0
 14 15  1  0  0  0  0
 14 32  1  0  0  0  0
 14 33  1  0  0  0  0
 15 16  1  0  0  0  0
 15 34  1  0  0  0  0
 15 35  1  0  0  0  0
 16 21  1  0  0  0  0
 16 17  1  0  0  0  0
 16 46  1  0  0  0  0
 17 18  1  0  0  0  0
 17 36  1  0  0  0  0
 17 37  1  0  0  0  0
 18 19  1  0  0  0  0
 18 38  1  0  0  0  0
 18 39  1  0  0  0  0
 19 20  1  0  0  0  0
 19 40  1  0  0  0  0
 19 41  1  0  0  0  0
 20 21  1  0  0  0  0
 20 42  1  0  0  0  0
 20 43  1  0  0  0  0
 21 44  1  0  0  0  0
 22 23  2  0  0  0  0
 22 45  1  0  0  0  0
M  CHG  1  16   1
M  END
> <s_m_source_file>
AV-unprocessed.smi

> <i_m_source_file_index>
1738

> <i_lp_mmshare_version>
43012

> <i_f3d_flags>
0

> <s_epik_input>
W0NIM11TKD1PKSg9TyljMVtjSF1bY0hdYyhbY0hdbjEpW05IXUMoPU8pW05IXVtDQEhdKFtDSDJdW0NIMl0yKVtDQEBIXShOMjMpW0NIMl1bQ0gyXVtDSDJdW0NIMl0z

> <s_epik_cmdline>
J2VwaWtfcHl0aG9uJywgJy1waCcsICc3LjAnLCAnLXRuJywgJzgnLCAnLW1hJywgJzIwMCcsICctbWV0YWxfYmluZGluZycsICctaW1hZScsICc8aW5maWxlLm1hZT4nLCAnLW9tYWUnLCAnPG91dGZpbGUubWFlPic=

> <r_epik_Ionization_Penalty>
0.00100042

> <r_epik_Ionization_Penalty_Charging>
0.000974069

> <r_epik_Ionization_Penalty_Neutral>
2.63543e-05

> <r_epik_State_Penalty>
0.000633842

> <r_epik_Charging_Adjusted_Penalty>
0.00160791

> <i_epik_Tot_Q>
1

> <i_epik_Tot_abs_Q>
1

> <r_epik_Metal_State_Penalty>
-0

> <b_epik_Metal_Only>
0

> <s_lp_Force_Field>
OPLS_2005

> <r_lp_Energy>
43.1339

> <b_lp_Chiralities_Consistent>
1

> <s_lp_Variant>
AV-unprocessed.smi:1738-4

> <Gold.Version>
5.8.1

> <Gold.Id.Protein>
6NUR|6NUR_protein|mol2

> <Gold.PLP.Fitness>
40.0064

> <Gold.PLP.PLP>
-31.2084

> <Gold.PLP.part.hbond>
-3.0000

> <Gold.PLP.part.metal>
0.0000

> <Gold.PLP.part.buried>
1.9498

> <Gold.PLP.part.nonpolar>
-30.9033

> <Gold.PLP.part.repulsive>
0.3358

> <Gold.PLP.ligand.clash>
0.0000

> <Gold.PLP.ligand.torsion>
1.5700

> <Gold.PLP.Chemscore.Hbond>
3.3058

> <Gold.PLP.Chemscore.CHOScore>
0.0000

> <Gold.PLP.Chemscore.Metal>
0.0000

> <Gold.Chemscore.Hbonds>
donor molecule, donor type, donor heavy atom, donor atom, acceptor molecule, acceptor atom, score
      L1  H    12    30       P1  7957  0.99
      L1  H    16    46       P1  7948  2.00
      P1  H  6933  6945       L1     3  0.28

> <Gold.PLP.Chemscore.Internal.Correction>
2.0207

> <Gold.Rescore>
     Score         DG    S(hbond)    S(metal)    S(lipo)     H(rot)  DE(clash)    DE(int)     intcor
     15.55     -19.46       2.31        0.00      75.41       1.00       2.30       1.60       ----

> <Gold.Chemscore.Fitness>
15.5547

> <Gold.Chemscore.DG>
-19.4556

> <Gold.Chemscore.ZeroCoef>
-5.4800

> <Gold.Chemscore.Hbond>
2.3091

> <Gold.Chemscore.Metal>
0.0000

> <Gold.Chemscore.Lipo>
75.4129

> <Gold.Chemscore.Internal_Hbond>
0.0000

> <Gold.Chemscore.DEClash>
2.2970

> <Gold.Chemscore.DEInternal>
1.6039

> <Gold.Chemscore.Rot>
1.0000

> <Gold.Chemscore.Internal.Correction>
   9.000000E+99

> <Gold.Chemscore.Hbonds>
donor molecule, donor type, donor heavy atom, donor atom, acceptor molecule, acceptor atom, score
      L1  H    12    30       P1  7957  0.94
      L1  H    16    46       P1  7948  1.00
      P1  H  6933  6945       L1     3  0.27

> <Gold.Chemscore.Hbond.Weighted>
-7.7123

> <Gold.Chemscore.Metal.Weighted>
-0.0000

> <Gold.Chemscore.Lipo.Weighted>
-8.8233

> <Gold.Chemscore.Internal_Hbond.Weighted>
0.0000

> <Gold.Chemscore.DEClash.Weighted>
2.2970

> <Gold.Chemscore.DEInternal.Weighted>
1.6039

> <Gold.Chemscore.Rot.Weighted>
2.5600

> <Gold.Chemscore.Internal.Correction.Weighted>
   9.000000E+99

> <Gold.Protein.RotatedTorsions>
[ 6907 6896 6895 6894 ] final   75.53 input  -60.11 | X-H torsion
[ 7974 7965 7964 7962 ] final -133.40 input  175.53 | X-H torsion
[ 8008 7997 7996 7995 ] final  164.96 input   59.86 | X-H torsion
[ 10167 10162 10161 10158 ] final -127.22 input  -65.29 | X-H torsion
[ 10718 10713 10712 10709 ] final   85.86 input   66.30 | X-H torsion
[ 10763 10752 10751 10750 ] final  -22.13 input  -60.55 | X-H torsion
[ 11005 11000 10999 10996 ] final -165.79 input  -57.11 | X-H torsion

> <Gold.Protein.ActiveResidues>
 VAL166  LYS551  ARG553  GLY616  TRP617  ASP618  TYR619  PRO620  LYS621  CYS622 
 ASP623  PHE694  ASN695  SER759  ASP760  ASP761  ALA762  ILE779  LEU786  VAL792 
 PHE793  MET794  SER795  GLU796  ALA797  LYS798  CYS799  TRP800  GLU811  SER814 

> <Gold.Protein.RotatedAtoms>
  152.5030  134.4106  159.9447 H   0  0  0  0  0  0  0  0  0  0  0  0  # atno 6907 bound_to 6896
  151.4074  133.3732  159.2747 H   0  0  0  0  0  0  0  0  0  0  0  0  # atno 6908 bound_to 6896
  150.9317  134.8753  159.7614 H   0  0  0  0  0  0  0  0  0  0  0  0  # atno 6909 bound_to 6896
  144.9196  140.6998  143.4973 H   0  0  0  0  0  0  0  0  0  0  0  0  # atno 7974 bound_to 7965
  156.1838  140.1683  156.8223 H   0  0  0  0  0  0  0  0  0  0  0  0  # atno 8008 bound_to 7997
  154.5391  140.0740  156.8511 H   0  0  0  0  0  0  0  0  0  0  0  0  # atno 8009 bound_to 7997
  155.3251  140.3376  155.4243 H   0  0  0  0  0  0  0  0  0  0  0  0  # atno 8010 bound_to 7997
  139.9632  143.5927  152.2438 H   0  0  0  0  0  0  0  0  0  0  0  0  # atno 10167 bound_to 10162
  157.6921  131.0192  150.2886 H   0  0  0  0  0  0  0  0  0  0  0  0  # atno 10718 bound_to 10713
  153.6471  135.6982  153.5222 H   0  0  0  0  0  0  0  0  0  0  0  0  # atno 10763 bound_to 10752
  153.2736  135.4207  155.1011 H   0  0  0  0  0  0  0  0  0  0  0  0  # atno 10764 bound_to 10752
  154.8485  135.3584  154.6015 H   0  0  0  0  0  0  0  0  0  0  0  0  # atno 10765 bound_to 10752
  140.5718  134.5230  157.5163 H   0  0  0  0  0  0  0  0  0  0  0  0  # atno 11005 bound_to 11000
  145.3318  139.1757  143.4533 LP  0  0  0  0  0  0  0  0  0  0  0  0  # atno 17320 bound_to 7965
  146.3198  140.3348  142.8643 LP  0  0  0  0  0  0  0  0  0  0  0  0  # atno 17321 bound_to 7965
  139.6538  144.7661  151.2096 LP  0  0  0  0  0  0  0  0  0  0  0  0  # atno 17342 bound_to 10162
  140.7546  143.6118  150.8598 LP  0  0  0  0  0  0  0  0  0  0  0  0  # atno 17343 bound_to 10162
  156.3421  130.3817  149.7400 LP  0  0  0  0  0  0  0  0  0  0  0  0  # atno 17370 bound_to 10713
  156.4906  130.8083  151.3093 LP  0  0  0  0  0  0  0  0  0  0  0  0  # atno 17371 bound_to 10713
  139.9358  134.7878  156.0806 LP  0  0  0  0  0  0  0  0  0  0  0  0  # atno 17394 bound_to 11000
  141.1051  133.6663  156.2846 LP  0  0  0  0  0  0  0  0  0  0  0  0  # atno 17395 bound_to 11000

$$$$
