AV-unprocessed.smi:3250|AV-procd|sdf|12429|dock8
  -GOLD-   2272018313D 1   1.00000     0.00000
 Structure written by MMmdl.
 38 39  0  0  0  0  0  0  0  0  1 V2000
  146.8187  142.4277  154.2664 C   0  0  0  0  0  0  0  0  0  0  0  0
  147.5241  141.1784  153.7202 C   0  0  0  0  0  0  0  0  0  0  0  0
  148.5606  140.6254  154.5899 N   0  0  0  0  0  0  0  0  0  0  0  0
  149.3032  139.5386  153.9563 C   0  0  0  0  0  0  0  0  0  0  0  0
  150.4130  138.9941  154.8712 C   0  0  0  0  0  0  0  0  0  0  0  0
  151.2800  140.0569  155.2518 O   0  0  0  0  0  0  0  0  0  0  0  0
  150.6026  141.1107  155.9324 C   0  0  1  0  0  0  0  0  0  0  0  0
  151.6292  142.1916  156.2957 C   0  0  0  0  0  0  0  0  0  0  0  0
  151.0250  143.2691  157.0646 N   0  0  0  0  0  0  0  0  0  0  0  0
  151.4246  143.6299  158.3372 C   0  0  0  0  0  0  0  0  0  0  0  0
  151.0565  144.8507  158.7324 N   0  0  0  0  0  0  0  0  0  0  0  0
  151.4267  145.2305  159.9746 C   0  0  0  0  0  0  0  0  0  0  0  0
  152.1689  144.3827  160.8207 C   0  0  0  0  0  0  0  0  0  0  0  0
  152.5079  143.1170  160.3017 C   0  0  0  0  0  0  0  0  0  0  0  0
  153.2377  142.2392  161.0762 O   0  0  0  0  0  0  0  0  0  0  0  0
  153.3282  142.4942  162.4735 C   0  0  0  0  0  0  0  0  0  0  0  0
  152.1295  142.7459  159.0529 N   0  0  0  0  0  0  0  0  0  0  0  0
  149.5006  141.6611  155.0054 C   0  0  0  0  0  0  0  0  0  0  0  0
  146.1351  142.8364  153.5223 H   0  0  0  0  0  0  0  0  0  0  0  0
  147.5383  143.2074  154.5180 H   0  0  0  0  0  0  0  0  0  0  0  0
  146.2313  142.2080  155.1575 H   0  0  0  0  0  0  0  0  0  0  0  0
  146.7821  140.4117  153.4926 H   0  0  0  0  0  0  0  0  0  0  0  0
  147.9757  141.4505  152.7653 H   0  0  0  0  0  0  0  0  0  0  0  0
  148.6319  138.7202  153.6989 H   0  0  0  0  0  0  0  0  0  0  0  0
  149.7455  139.8875  153.0218 H   0  0  0  0  0  0  0  0  0  0  0  0
  149.9870  138.5262  155.7601 H   0  0  0  0  0  0  0  0  0  0  0  0
  150.9919  138.2301  154.3523 H   0  0  0  0  0  0  0  0  0  0  0  0
  150.1460  140.7219  156.8449 H   0  0  0  0  0  0  0  0  0  0  0  0
  152.4543  141.7563  156.8606 H   0  0  0  0  0  0  0  0  0  0  0  0
  152.0519  142.6155  155.3840 H   0  0  0  0  0  0  0  0  0  0  0  0
  150.2035  143.7213  156.6903 H   0  0  0  0  0  0  0  0  0  0  0  0
  151.1288  146.2176  160.2959 H   0  0  0  0  0  0  0  0  0  0  0  0
  152.4632  144.6877  161.8140 H   0  0  0  0  0  0  0  0  0  0  0  0
  153.9274  141.7154  162.9446 H   0  0  0  0  0  0  0  0  0  0  0  0
  152.3444  142.4851  162.9447 H   0  0  0  0  0  0  0  0  0  0  0  0
  153.8119  143.4511  162.6741 H   0  0  0  0  0  0  0  0  0  0  0  0
  149.9602  142.1159  154.1261 H   0  0  0  0  0  0  0  0  0  0  0  0
  148.9634  142.4579  155.5216 H   0  0  0  0  0  0  0  0  0  0  0  0
  1  2  1  0  0  0  0
  1 19  1  0  0  0  0
  1 20  1  0  0  0  0
  1 21  1  0  0  0  0
  2  3  1  0  0  0  0
  2 22  1  0  0  0  0
  2 23  1  0  0  0  0
  3 18  1  0  0  0  0
  3  4  1  0  0  0  0
  4  5  1  0  0  0  0
  4 24  1  0  0  0  0
  4 25  1  0  0  0  0
  5  6  1  0  0  0  0
  5 26  1  0  0  0  0
  5 27  1  0  0  0  0
  6  7  1  0  0  0  0
  7  8  1  0  0  0  0
  7 18  1  0  0  0  0
  7 28  1  0  0  0  0
  8  9  1  0  0  0  0
  8 29  1  0  0  0  0
  8 30  1  0  0  0  0
  9 10  1  0  0  0  0
  9 31  1  0  0  0  0
 10 17  1  0  0  0  0
 10 11  2  0  0  0  0
 11 12  1  0  0  0  0
 12 13  2  0  0  0  0
 12 32  1  0  0  0  0
 13 14  1  0  0  0  0
 13 33  1  0  0  0  0
 14 15  1  0  0  0  0
 14 17  2  0  0  0  0
 15 16  1  0  0  0  0
 16 34  1  0  0  0  0
 16 35  1  0  0  0  0
 16 36  1  0  0  0  0
 18 37  1  0  0  0  0
 18 38  1  0  0  0  0
M  END
> <s_m_source_file>
AV-unprocessed.smi

> <i_m_source_file_index>
3250

> <i_lp_mmshare_version>
43012

> <i_f3d_flags>
0

> <s_epik_input>
W0NIM11bQ0gyXU4xW0NIMl1bQ0gyXU9bQ0BIXShbQ0gyXTEpW0NIMl1bTkhdYzJuW2NIXVtjSF1jKG4yKU9bQ0gzXQ==

> <s_epik_cmdline>
J2VwaWtfcHl0aG9uJywgJy1waCcsICc3LjAnLCAnLXRuJywgJzgnLCAnLW1hJywgJzIwMCcsICctbWV0YWxfYmluZGluZycsICctaW1hZScsICc8aW5maWxlLm1hZT4nLCAnLW9tYWUnLCAnPG91dGZpbGUubWFlPic=

> <r_lp_tautomer_probability>
1

> <r_epik_Ionization_Penalty>
0.832605

> <r_epik_Ionization_Penalty_Charging>
0

> <r_epik_Ionization_Penalty_Neutral>
0.832605

> <r_epik_State_Penalty>
0.927194

> <r_epik_Charging_Adjusted_Penalty>
0.927194

> <i_epik_Tot_Q>
0

> <i_epik_Tot_abs_Q>
0

> <r_epik_Metal_State_Penalty>
0.908632

> <b_epik_Metal_Only>
0

> <s_lp_Force_Field>
OPLS_2005

> <r_lp_Energy>
15.3419

> <b_lp_Chiralities_Consistent>
1

> <s_lp_Variant>
AV-unprocessed.smi:3250-5

> <Gold.Version>
5.8.1

> <Gold.Id.Protein>
6NUR|6NUR_protein|mol2

> <Gold.PLP.Fitness>
44.6605

> <Gold.PLP.PLP>
-39.2947

> <Gold.PLP.part.hbond>
-2.0000

> <Gold.PLP.part.metal>
0.0000

> <Gold.PLP.part.buried>
-6.5937

> <Gold.PLP.part.nonpolar>
-31.1699

> <Gold.PLP.part.repulsive>
0.3325

> <Gold.PLP.ligand.clash>
0.0000

> <Gold.PLP.ligand.torsion>
0.3247

> <Gold.PLP.Chemscore.Hbond>
2.0000

> <Gold.PLP.Chemscore.CHOScore>
0.0000

> <Gold.PLP.Chemscore.Metal>
0.0000

> <Gold.Chemscore.Hbonds>
donor molecule, donor type, donor heavy atom, donor atom, acceptor molecule, acceptor atom, score
      L1  H     9    31       P1  8028  1.00
      P1  H  7989  7998       L1     6  1.00

> <Gold.PLP.Chemscore.Internal.Correction>
0.0151

> <Gold.Rescore>
     Score         DG    S(hbond)    S(metal)    S(lipo)     H(rot)  DE(clash)    DE(int)     intcor
     13.31     -14.98       1.15        0.00      84.83       1.67       1.29       0.37       ----

> <Gold.Chemscore.Fitness>
13.3113

> <Gold.Chemscore.DG>
-14.9759

> <Gold.Chemscore.ZeroCoef>
-5.4800

> <Gold.Chemscore.Hbond>
1.1482

> <Gold.Chemscore.Metal>
0.0000

> <Gold.Chemscore.Lipo>
84.8310

> <Gold.Chemscore.Internal_Hbond>
0.0000

> <Gold.Chemscore.DEClash>
1.2911

> <Gold.Chemscore.DEInternal>
0.3735

> <Gold.Chemscore.Rot>
1.6657

> <Gold.Chemscore.Internal.Correction>
   9.000000E+99

> <Gold.Chemscore.Hbonds>
donor molecule, donor type, donor heavy atom, donor atom, acceptor molecule, acceptor atom, score
      L1  H     9    31       P1  8028  0.99
      P1  H  7989  7998       L1     6  0.10

> <Gold.Chemscore.Hbond.Weighted>
-3.8349

> <Gold.Chemscore.Metal.Weighted>
-0.0000

> <Gold.Chemscore.Lipo.Weighted>
-9.9252

> <Gold.Chemscore.Internal_Hbond.Weighted>
0.0000

> <Gold.Chemscore.DEClash.Weighted>
1.2911

> <Gold.Chemscore.DEInternal.Weighted>
0.3735

> <Gold.Chemscore.Rot.Weighted>
4.2642

> <Gold.Chemscore.Internal.Correction.Weighted>
   9.000000E+99

> <Gold.Protein.RotatedTorsions>
[ 6907 6896 6895 6894 ] final    1.27 input  -60.11 | X-H torsion
[ 7974 7965 7964 7962 ] final  111.44 input  175.53 | X-H torsion
[ 8008 7997 7996 7995 ] final  108.10 input   59.86 | X-H torsion
[ 10167 10162 10161 10158 ] final   97.38 input  -65.29 | X-H torsion
[ 10718 10713 10712 10709 ] final   58.70 input   66.30 | X-H torsion
[ 10763 10752 10751 10750 ] final  -31.20 input  -60.55 | X-H torsion
[ 11005 11000 10999 10996 ] final  145.33 input  -57.11 | X-H torsion

> <Gold.Protein.ActiveResidues>
 VAL166  LYS551  ARG553  GLY616  TRP617  ASP618  TYR619  PRO620  LYS621  CYS622 
 ASP623  PHE694  ASN695  SER759  ASP760  ASP761  ALA762  ILE779  LEU786  VAL792 
 PHE793  MET794  SER795  GLU796  ALA797  LYS798  CYS799  TRP800  GLU811  SER814 

> <Gold.Protein.RotatedAtoms>
  151.5899  135.1054  160.0036 H   0  0  0  0  0  0  0  0  0  0  0  0  # atno 6907 bound_to 6896
  152.4311  133.7276  159.6579 H   0  0  0  0  0  0  0  0  0  0  0  0  # atno 6908 bound_to 6896
  150.8204  133.8192  159.3164 H   0  0  0  0  0  0  0  0  0  0  0  0  # atno 6909 bound_to 6896
  145.2422  139.2774  143.4112 H   0  0  0  0  0  0  0  0  0  0  0  0  # atno 7974 bound_to 7965
  156.1877  140.3082  155.9270 H   0  0  0  0  0  0  0  0  0  0  0  0  # atno 8008 bound_to 7997
  155.3245  140.0457  157.3057 H   0  0  0  0  0  0  0  0  0  0  0  0  # atno 8009 bound_to 7997
  154.5415  140.2263  155.8644 H   0  0  0  0  0  0  0  0  0  0  0  0  # atno 8010 bound_to 7997
  139.7806  144.6890  151.0028 H   0  0  0  0  0  0  0  0  0  0  0  0  # atno 10167 bound_to 10162
  157.5617  130.8841  149.9122 H   0  0  0  0  0  0  0  0  0  0  0  0  # atno 10718 bound_to 10713
  153.7934  135.6896  153.4867 H   0  0  0  0  0  0  0  0  0  0  0  0  # atno 10763 bound_to 10752
  153.1735  135.4533  154.9932 H   0  0  0  0  0  0  0  0  0  0  0  0  # atno 10764 bound_to 10752
  154.8035  135.3347  154.7428 H   0  0  0  0  0  0  0  0  0  0  0  0  # atno 10765 bound_to 10752
  140.0704  134.9155  157.1335 H   0  0  0  0  0  0  0  0  0  0  0  0  # atno 11005 bound_to 11000
  146.3325  140.2789  142.8609 LP  0  0  0  0  0  0  0  0  0  0  0  0  # atno 17320 bound_to 7965
  144.9578  140.8245  143.5532 LP  0  0  0  0  0  0  0  0  0  0  0  0  # atno 17321 bound_to 7965
  140.7818  143.4487  151.0444 LP  0  0  0  0  0  0  0  0  0  0  0  0  # atno 17342 bound_to 10162
  139.8168  143.7875  152.3175 LP  0  0  0  0  0  0  0  0  0  0  0  0  # atno 17343 bound_to 10162
  156.0669  130.3691  150.0859 LP  0  0  0  0  0  0  0  0  0  0  0  0  # atno 17370 bound_to 10713
  156.9022  130.9624  151.3575 LP  0  0  0  0  0  0  0  0  0  0  0  0  # atno 17371 bound_to 10713
  140.3636  134.2467  155.7184 LP  0  0  0  0  0  0  0  0  0  0  0  0  # atno 17394 bound_to 11000
  141.2009  133.7975  157.0465 LP  0  0  0  0  0  0  0  0  0  0  0  0  # atno 17395 bound_to 11000

$$$$
