#       Name:                AV-unprocessed.smi:169
#       Creating user name   scv26
#       Creation time:       Thu Mar 26 19:14:52 2020


#       File generated by GOLD software.
#

@<TRIPOS>MOLECULE
AV-unprocessed.smi:169
    64    68     1
SMALL
NO_CHARGES


@<TRIPOS>ATOM
      1 ****        -4.9402  -3.1008  -0.3779 C.3            1 S1                 0.0000
      2 ****        -3.9351  -2.4068   0.5586 C.3            1 S1                 0.0000
      3 ****        -3.3841  -1.1361   0.0204 N.4            1 S1                 1.0000
      4 ****        -4.4258  -0.0713  -0.1977 C.3            1 S1                 0.0000
      5 ****        -3.9223   1.3952   0.0290 C.3            1 S1                 0.0000
      6 ****        -2.6372   1.9121  -0.6997 C.3            1 S1                 0.0000
      7 ****        -2.7121   2.1045  -2.2497 C.3            1 S1                 0.0000
      8 ****        -1.9647   0.8669  -2.8481 C.3            1 S1                 0.0000
      9 ****        -1.8130  -0.0086  -1.5962 C.3            1 S1                 0.0000
     10 ****        -2.4165  -1.3497  -1.1170 C.3            1 S1                 0.0000
     11 ****        -1.5749   0.9333  -0.5126 N.3            1 S1                 0.0000
     12 ****        -0.2795   1.3216  -0.3467 C.ar           1 S1                 0.0000
     13 ****         0.0243   2.6402  -0.2126 N.ar           1 S1                 0.0000
     14 ****         1.2912   3.0359  -0.0651 C.ar           1 S1                 0.0000
     15 ****         2.3957   2.2909  -0.0174 N.ar           1 S1                 0.0000
     16 ****         2.1036   0.9647  -0.1323 C.ar           1 S1                 0.0000
     17 ****         0.8069   0.3993  -0.3004 C.ar           1 S1                 0.0000
     18 ****         0.9077  -0.9846  -0.3789 N.2            1 S1                 0.0000
     19 ****         2.1864  -1.2216  -0.2720 C.2            1 S1                 0.0000
     20 ****         2.9788  -0.1086  -0.1061 N.pl3          1 S1                 0.0000
     21 ****         4.4285  -0.0820   0.0326 C.3            1 S1                 0.0000
     22 ****         4.9383  -0.2990   1.4745 C.3            1 S1                 0.0000
     23 ****         4.4106   0.8039   2.4066 C.3            1 S1                 0.0000
     24 ****         4.9189   2.0695   2.0371 O.3            1 S1                 0.0000
     25 ****         4.8050  -1.7297   2.0183 C.3            1 S1                 0.0000
     26 ****         6.2124  -1.9956   1.8454 O.3            1 S1                 0.0000
     27 ****         6.4403  -0.5942   1.5881 C.3            1 S1                 0.0000
     28 ****        -5.3194  -4.0132   0.0829 H              1 S1                 0.0000
     29 ****        -4.4868  -3.3856  -1.3267 H              1 S1                 0.0000
     30 ****        -5.8002  -2.4664  -0.5923 H              1 S1                 0.0000
     31 ****        -4.4163  -2.1996   1.5151 H              1 S1                 0.0000
     32 ****        -3.1109  -3.0859   0.7807 H              1 S1                 0.0000
     33 ****        -4.8742  -0.1824  -1.1864 H              1 S1                 0.0000
     34 ****        -5.2446  -0.2332   0.5049 H              1 S1                 0.0000
     35 ****        -4.7420   2.0800  -0.1899 H              1 S1                 0.0000
     36 ****        -3.7432   1.5049   1.0993 H              1 S1                 0.0000
     37 ****        -2.3979   2.8733  -0.2448 H              1 S1                 0.0000
     38 ****        -3.7468   2.1591  -2.5899 H              1 S1                 0.0000
     39 ****        -2.2154   3.0260  -2.5555 H              1 S1                 0.0000
     40 ****        -2.4850   0.4014  -3.6911 H              1 S1                 0.0000
     41 ****        -0.9789   1.1674  -3.2057 H              1 S1                 0.0000
     42 ****        -2.8611   0.0054  -1.8453 H              1 S1                 0.0000
     43 ****        -1.6112  -1.9823  -0.7444 H              1 S1                 0.0000
     44 ****        -2.8705  -1.9116  -1.9386 H              1 S1                 0.0000
     45 ****         1.4418   4.1015   0.0283 H              1 S1                 0.0000
     46 ****         2.5870  -2.2238  -0.3147 H              1 S1                 0.0000
     47 ****         4.8341  -0.8496  -0.6280 H              1 S1                 0.0000
     48 ****         4.7941   0.8637  -0.3688 H              1 S1                 0.0000
     49 ****         3.3216   0.8400   2.4157 H              1 S1                 0.0000
     50 ****         4.7135   0.6153   3.4369 H              1 S1                 0.0000
     51 ****         4.5659   2.7198   2.6251 H              1 S1                 0.0000
     52 ****         4.5110  -1.7805   3.0679 H              1 S1                 0.0000
     53 ****         4.1854  -2.3909   1.4144 H              1 S1                 0.0000
     54 ****         6.9970  -0.4234   0.6658 H              1 S1                 0.0000
     55 ****         6.9277  -0.1022   2.4313 H              1 S1                 0.0000
     56 ****        -2.8154  -0.7742   0.7728 H              1 S1                 0.0000
     57 ****        -1.6459   0.5530   0.4096 LP             1 S1                 0.0000
     58 ****        -0.7085   3.3205  -0.2245 LP             1 S1                 0.0000
     59 ****         3.3197   2.6580   0.0890 LP             1 S1                 0.0000
     60 ****         0.1681  -1.6482  -0.4917 LP             1 S1                 0.0000
     61 ****         4.6465   2.2809   1.0984 LP             1 S1                 0.0000
     62 ****         5.9168   2.0635   2.1014 LP             1 S1                 0.0000
     63 ****         6.4237  -2.5931   1.0719 LP             1 S1                 0.0000
     64 ****         6.6674  -2.3400   2.6666 LP             1 S1                 0.0000
@<TRIPOS>BOND
    1    1    2 1     
    2    1   28 1     
    3    1   29 1     
    4    1   30 1     
    5    2    3 1     
    6    2   31 1     
    7    2   32 1     
    8    3   10 1     
    9    3    4 1     
   10    3   56 1     
   11    4    5 1     
   12    4   33 1     
   13    4   34 1     
   14    5    6 1     
   15    5   35 1     
   16    5   36 1     
   17    6   11 1     
   18    6    7 1     
   19    6   37 1     
   20    7    8 1     
   21    7   38 1     
   22    7   39 1     
   23    8    9 1     
   24    8   40 1     
   25    8   41 1     
   26    9   10 1     
   27    9   11 1     
   28    9   42 1     
   29   10   43 1     
   30   10   44 1     
   31   11   12 1     
   32   12   17 ar    
   33   12   13 ar    
   34   13   14 ar    
   35   14   15 ar    
   36   14   45 1     
   37   15   16 ar    
   38   16   20 1     
   39   16   17 ar    
   40   17   18 1     
   41   18   19 2     
   42   19   20 1     
   43   19   46 1     
   44   20   21 1     
   45   21   22 1     
   46   21   47 1     
   47   21   48 1     
   48   22   27 1     
   49   22   23 1     
   50   22   25 1     
   51   23   24 1     
   52   23   49 1     
   53   23   50 1     
   54   24   51 1     
   55   25   26 1     
   56   25   52 1     
   57   25   53 1     
   58   26   27 1     
   59   27   54 1     
   60   27   55 1     
   61   11   57 1     
   62   13   58 1     
   63   15   59 1     
   64   18   60 1     
   65   24   61 1     
   66   24   62 1     
   67   26   63 1     
   68   26   64 1     
@<TRIPOS>SUBSTRUCTURE
      1 S1             1
@<TRIPOS>SET
LONE_PAIRS      STATIC     ATOMS    <user>   **** ""
8 57 58 59 60 61 62 63 64
DONOR_HYDROGENS      STATIC     ATOMS    <user>   **** ""
2 56 51
ATOM$BLUE        STATIC     ATOMS    COLORGROUP SYSTEM
8 57 58 59 60 61 62 63 64
ATOM$RED        STATIC     ATOMS    COLORGROUP SYSTEM
2 56 51
