#       Name:                AV-unprocessed.smi:2580
#       Creating user name   scv26
#       Creation time:       Fri Mar 27 14:14:41 2020


#       File generated by GOLD software.
#

@<TRIPOS>MOLECULE
AV-unprocessed.smi:2580
    34    35     1
SMALL
NO_CHARGES


@<TRIPOS>ATOM
      1 ****        -2.3494  -2.5464   1.2829 C.3            1 S1                 0.0000
      2 ****        -2.0476  -1.0426   1.3856 C.3            1 S1                 0.0000
      3 ****        -3.2838  -0.1888   1.5826 C.3            1 S1                 0.0000
      4 ****        -2.7822   1.1934   1.1802 C.3            1 S1                 0.0000
      5 ****        -1.7955   0.9705   0.1776 O.3            1 S1                 0.0000
      6 ****        -1.4506  -0.4150   0.1151 C.3            1 S1                 0.0000
      7 ****         0.0703  -0.5710  -0.0404 C.2            1 S1                 0.0000
      8 ****         0.6415  -1.5483   0.4442 O.2            1 S1                 0.0000
      9 ****         0.6886   0.4027  -0.7350 N.am           1 S1                 0.0000
     10 ****         2.0701   0.5367  -1.0434 C.ar           1 S1                 0.0000
     11 ****         3.0020  -0.3788  -0.6754 N.ar           1 S1                 0.0000
     12 ****         4.2946  -0.1793  -1.0067 C.ar           1 S1                 0.0000
     13 ****         4.7393   0.9445  -1.7253 C.ar           1 S1                 0.0000
     14 ****         3.7853   1.9010  -2.1144 C.ar           1 S1                 0.0000
     15 ****         2.4337   1.6984  -1.7713 C.ar           1 S1                 0.0000
     16 ****         1.2577   2.8744  -2.2489 Cl             1 S1                 0.0000
     17 ****        -3.0205  -2.7619   0.4511 H              1 S1                 0.0000
     18 ****        -2.8231  -2.9099   2.1951 H              1 S1                 0.0000
     19 ****        -1.4389  -3.1263   1.1329 H              1 S1                 0.0000
     20 ****        -1.3747  -0.8722   2.2284 H              1 S1                 0.0000
     21 ****        -4.0791  -0.5068   0.9066 H              1 S1                 0.0000
     22 ****        -3.6693  -0.2203   2.6021 H              1 S1                 0.0000
     23 ****        -3.5825   1.8385   0.8165 H              1 S1                 0.0000
     24 ****        -2.3074   1.6871   2.0289 H              1 S1                 0.0000
     25 ****        -1.9371  -0.8331  -0.7675 H              1 S1                 0.0000
     26 ****         0.0958   1.1469  -1.0739 H              1 S1                 0.0000
     27 ****         4.9940  -0.9387  -0.6893 H              1 S1                 0.0000
     28 ****         5.7836   1.0686  -1.9712 H              1 S1                 0.0000
     29 ****         4.0862   2.7779  -2.6684 H              1 S1                 0.0000
     30 ****        -0.9782   1.5037   0.3958 LP             1 S1                 0.0000
     31 ****        -2.1558   1.2604  -0.7090 LP             1 S1                 0.0000
     32 ****         0.1157  -2.2404   0.9389 LP             1 S1                 0.0000
     33 ****         1.6311  -1.6500   0.3432 LP             1 S1                 0.0000
     34 ****         2.7328  -1.1944  -0.1630 LP             1 S1                 0.0000
@<TRIPOS>BOND
    1    1    2 1     
    2    1   17 1     
    3    1   18 1     
    4    1   19 1     
    5    2    6 1     
    6    2    3 1     
    7    2   20 1     
    8    3    4 1     
    9    3   21 1     
   10    3   22 1     
   11    4    5 1     
   12    4   23 1     
   13    4   24 1     
   14    5    6 1     
   15    6    7 1     
   16    6   25 1     
   17    7    8 2     
   18    7    9 am    
   19    9   10 1     
   20    9   26 1     
   21   10   15 ar    
   22   10   11 ar    
   23   11   12 ar    
   24   12   13 ar    
   25   12   27 1     
   26   13   14 ar    
   27   13   28 1     
   28   14   15 ar    
   29   14   29 1     
   30   15   16 1     
   31    5   30 1     
   32    5   31 1     
   33    8   32 1     
   34    8   33 1     
   35   11   34 1     
@<TRIPOS>SUBSTRUCTURE
      1 S1             1
@<TRIPOS>SET
LONE_PAIRS      STATIC     ATOMS    <user>   **** ""
5 30 31 32 33 34
DONOR_HYDROGENS      STATIC     ATOMS    <user>   **** ""
1 26
ATOM$BLUE        STATIC     ATOMS    COLORGROUP SYSTEM
5 30 31 32 33 34
ATOM$RED        STATIC     ATOMS    COLORGROUP SYSTEM
1 26
