AV-unprocessed.smi:2234|AV-procd|sdf|9042|dock4
  -GOLD-   2272012253D 1   1.00000     0.00000
 Structure written by MMmdl.
 21 22  0  0  0  0  0  0  0  0  2 V2000
  152.8682  136.2559  157.0368 O   0  0  0  0  0  0  0  0  0  0  0  0
  152.7235  137.1166  157.9336 C   0  0  0  0  0  0  0  0  0  0  0  0
  152.4510  136.8727  159.1297 O   0  5  0  0  0  0  0  0  0  0  0  0
  152.8637  138.5895  157.5278 C   0  0  2  0  0  0  0  0  0  0  0  0
  152.6689  139.5566  158.6811 C   0  0  0  0  0  0  0  0  0  0  0  0
  152.0971  140.7295  157.9552 C   0  0  0  0  0  0  0  0  0  0  0  0
  152.0892  142.1170  158.4794 C   0  0  0  0  0  0  0  0  0  0  0  0
  151.5099  143.1692  157.7356 C   0  0  0  0  0  0  0  0  0  0  0  0
  151.5291  144.4723  158.2696 C   0  0  0  0  0  0  0  0  0  0  0  0
  152.1299  144.6738  159.5275 C   0  0  0  0  0  0  0  0  0  0  0  0
  152.6904  143.6798  160.2485 N   0  0  0  0  0  0  0  0  0  0  0  0
  152.6692  142.4320  159.7307 C   0  0  0  0  0  0  0  0  0  0  0  0
  151.6464  140.3930  156.8194 N   0  0  0  0  0  0  0  0  0  0  0  0
  151.8451  139.0034  156.6252 O   0  0  0  0  0  0  0  0  0  0  0  0
  153.8358  138.7464  157.0566 H   0  0  0  0  0  0  0  0  0  0  0  0
  151.9539  139.2017  159.4255 H   0  0  0  0  0  0  0  0  0  0  0  0
  153.6123  139.8031  159.1687 H   0  0  0  0  0  0  0  0  0  0  0  0
  151.0587  142.9956  156.7698 H   0  0  0  0  0  0  0  0  0  0  0  0
  151.0945  145.2983  157.7262 H   0  0  0  0  0  0  0  0  0  0  0  0
  152.1626  145.6604  159.9657 H   0  0  0  0  0  0  0  0  0  0  0  0
  153.1296  141.6701  160.3425 H   0  0  0  0  0  0  0  0  0  0  0  0
  1  2  2  0  0  0  0
  2  3  1  0  0  0  0
  2  4  1  0  0  0  0
  4 14  1  0  0  0  0
  4  5  1  0  0  0  0
  4 15  1  0  0  0  0
  5  6  1  0  0  0  0
  5 16  1  0  0  0  0
  5 17  1  0  0  0  0
  6  7  1  0  0  0  0
  6 13  2  0  0  0  0
  7 12  1  0  0  0  0
  7  8  2  0  0  0  0
  8  9  1  0  0  0  0
  8 18  1  0  0  0  0
  9 10  2  0  0  0  0
  9 19  1  0  0  0  0
 10 11  1  0  0  0  0
 10 20  1  0  0  0  0
 11 12  2  0  0  0  0
 12 21  1  0  0  0  0
 13 14  1  0  0  0  0
M  CHG  1   3  -1
M  END
> <s_m_source_file>
AV-unprocessed.smi

> <i_m_source_file_index>
2234

> <i_lp_mmshare_version>
43012

> <i_f3d_flags>
0

> <s_epik_input>
Tz1DKFtPSF0pW0NAQEhdMVtDSDJdQyg9Tk8xKWMyW2NIXVtjSF1bY0hdbltjSF0y

> <s_epik_cmdline>
J2VwaWtfcHl0aG9uJywgJy1waCcsICc3LjAnLCAnLXRuJywgJzgnLCAnLW1hJywgJzIwMCcsICctbWV0YWxfYmluZGluZycsICctaW1hZScsICc8aW5maWxlLm1hZT4nLCAnLW9tYWUnLCAnPG91dGZpbGUubWFlPic=

> <r_lp_tautomer_probability>
1

> <r_epik_Ionization_Penalty>
0.000239258

> <r_epik_Ionization_Penalty_Charging>
3.09051e-05

> <r_epik_Ionization_Penalty_Neutral>
0.000208353

> <r_epik_State_Penalty>
-0

> <r_epik_Charging_Adjusted_Penalty>
3.09051e-05

> <i_epik_Tot_Q>
-1

> <i_epik_Tot_abs_Q>
1

> <r_epik_Metal_State_Penalty>
-0

> <b_epik_Metal_Only>
0

> <s_epik_Chemistry_Notes>
This compound has an imine and may undergo hydrolysis.

> <s_lp_Force_Field>
OPLS_2005

> <r_lp_Energy>
16.9969

> <b_lp_Chiralities_Consistent>
1

> <s_lp_Variant>
AV-unprocessed.smi:2234-1

> <Gold.Version>
5.8.1

> <Gold.Id.Protein>
6NUR|6NUR_protein|mol2

> <Gold.PLP.Fitness>
37.5475

> <Gold.PLP.PLP>
-25.6370

> <Gold.PLP.part.hbond>
-2.0000

> <Gold.PLP.part.metal>
0.0000

> <Gold.PLP.part.buried>
-4.3975

> <Gold.PLP.part.nonpolar>
-19.7152

> <Gold.PLP.part.repulsive>
0.0219

> <Gold.PLP.ligand.clash>
0.0000

> <Gold.PLP.ligand.torsion>
0.0350

> <Gold.PLP.Chemscore.Hbond>
3.9840

> <Gold.PLP.Chemscore.CHOScore>
0.0000

> <Gold.PLP.Chemscore.Metal>
0.0000

> <Gold.Chemscore.Hbonds>
donor molecule, donor type, donor heavy atom, donor atom, acceptor molecule, acceptor atom, score
      P1  H  6896  6908       L1     3  1.87
      P1  H 10752 10763       L1     1  2.00

> <Gold.PLP.Chemscore.Internal.Correction>
0.0285

> <Gold.Rescore>
     Score         DG    S(hbond)    S(metal)    S(lipo)     H(rot)  DE(clash)    DE(int)     intcor
     17.79     -17.84       1.89        0.00      73.52       1.00       0.00       0.06       ----

> <Gold.Chemscore.Fitness>
17.7867

> <Gold.Chemscore.DG>
-17.8423

> <Gold.Chemscore.ZeroCoef>
-5.4800

> <Gold.Chemscore.Hbond>
1.8922

> <Gold.Chemscore.Metal>
0.0000

> <Gold.Chemscore.Lipo>
73.5250

> <Gold.Chemscore.Internal_Hbond>
0.0000

> <Gold.Chemscore.DEClash>
0.0000

> <Gold.Chemscore.DEInternal>
0.0556

> <Gold.Chemscore.Rot>
1.0000

> <Gold.Chemscore.Internal.Correction>
   9.000000E+99

> <Gold.Chemscore.Hbonds>
donor molecule, donor type, donor heavy atom, donor atom, acceptor molecule, acceptor atom, score
      P1  H  6896  6908       L1     3  0.85
      P1  H 10752 10763       L1     1  0.93

> <Gold.Chemscore.Hbond.Weighted>
-6.3199

> <Gold.Chemscore.Metal.Weighted>
-0.0000

> <Gold.Chemscore.Lipo.Weighted>
-8.6024

> <Gold.Chemscore.Internal_Hbond.Weighted>
0.0000

> <Gold.Chemscore.DEClash.Weighted>
0.0000

> <Gold.Chemscore.DEInternal.Weighted>
0.0556

> <Gold.Chemscore.Rot.Weighted>
2.5600

> <Gold.Chemscore.Internal.Correction.Weighted>
   9.000000E+99

> <Gold.Protein.RotatedTorsions>
[ 6907 6896 6895 6894 ] final -106.73 input  -60.11 | X-H torsion
[ 7974 7965 7964 7962 ] final -103.01 input  175.53 | X-H torsion
[ 8008 7997 7996 7995 ] final -162.53 input   59.86 | X-H torsion
[ 10167 10162 10161 10158 ] final -145.12 input  -65.29 | X-H torsion
[ 10718 10713 10712 10709 ] final -130.69 input   66.30 | X-H torsion
[ 10763 10752 10751 10750 ] final  118.45 input  -60.55 | X-H torsion
[ 11005 11000 10999 10996 ] final  -77.17 input  -57.11 | X-H torsion

> <Gold.Protein.ActiveResidues>
 VAL166  LYS551  ARG553  GLY616  TRP617  ASP618  TYR619  PRO620  LYS621  CYS622 
 ASP623  PHE694  ASN695  SER759  ASP760  ASP761  ALA762  ILE779  LEU786  VAL792 
 PHE793  MET794  SER795  GLU796  ALA797  LYS798  CYS799  TRP800  GLU811  SER814 

> <Gold.Protein.RotatedAtoms>
  150.7405  133.9932  159.3613 H   0  0  0  0  0  0  0  0  0  0  0  0  # atno 6907 bound_to 6896
  151.7881  135.0741  160.0393 H   0  0  0  0  0  0  0  0  0  0  0  0  # atno 6908 bound_to 6896
  152.3227  133.5834  159.5791 H   0  0  0  0  0  0  0  0  0  0  0  0  # atno 6909 bound_to 6896
  145.2614  140.9270  143.3039 H   0  0  0  0  0  0  0  0  0  0  0  0  # atno 7974 bound_to 7965
  155.8081  140.0901  157.1919 H   0  0  0  0  0  0  0  0  0  0  0  0  # atno 8008 bound_to 7997
  154.3980  140.1459  156.3414 H   0  0  0  0  0  0  0  0  0  0  0  0  # atno 8009 bound_to 7997
  155.8393  140.3439  155.5624 H   0  0  0  0  0  0  0  0  0  0  0  0  # atno 8010 bound_to 7997
  139.7836  143.8066  152.2642 H   0  0  0  0  0  0  0  0  0  0  0  0  # atno 10167 bound_to 10162
  156.2170  130.6954  151.0713 H   0  0  0  0  0  0  0  0  0  0  0  0  # atno 10718 bound_to 10713
  153.5679  135.3508  155.2826 H   0  0  0  0  0  0  0  0  0  0  0  0  # atno 10763 bound_to 10752
  154.8686  135.4152  154.2758 H   0  0  0  0  0  0  0  0  0  0  0  0  # atno 10764 bound_to 10752
  153.3517  135.7055  153.6852 H   0  0  0  0  0  0  0  0  0  0  0  0  # atno 10765 bound_to 10752
  141.1658  133.7012  156.7779 H   0  0  0  0  0  0  0  0  0  0  0  0  # atno 11005 bound_to 11000
  144.9415  139.4183  143.6446 LP  0  0  0  0  0  0  0  0  0  0  0  0  # atno 17320 bound_to 7965
  146.3274  139.8377  142.8896 LP  0  0  0  0  0  0  0  0  0  0  0  0  # atno 17321 bound_to 7965
  139.8136  144.7325  150.9664 LP  0  0  0  0  0  0  0  0  0  0  0  0  # atno 17342 bound_to 10162
  140.7819  143.4226  151.0817 LP  0  0  0  0  0  0  0  0  0  0  0  0  # atno 17343 bound_to 10162
  157.7068  131.0753  150.6639 LP  0  0  0  0  0  0  0  0  0  0  0  0  # atno 17370 bound_to 10713
  156.6701  130.4537  149.5660 LP  0  0  0  0  0  0  0  0  0  0  0  0  # atno 17371 bound_to 10713
  140.2416  134.8609  157.3579 LP  0  0  0  0  0  0  0  0  0  0  0  0  # atno 17394 bound_to 11000
  140.1790  134.4513  155.7783 LP  0  0  0  0  0  0  0  0  0  0  0  0  # atno 17395 bound_to 11000

$$$$
