AV-unprocessed.smi:1491|AV-procd|sdf|6035|dock3
  -GOLD-   22720 6143D 1   1.00000     0.00000
 Structure written by MMmdl.
 38 39  0  0  0  0  0  0  0  0  1 V2000
  145.1656  136.2264  154.0691 O   0  0  0  0  0  0  0  0  0  0  0  0
  146.2205  136.1052  153.4459 C   0  0  0  0  0  0  0  0  0  0  0  0
  146.6022  134.9803  152.8244 N   0  0  0  0  0  0  0  0  0  0  0  0
  145.8141  133.7536  152.7455 C   0  0  0  0  0  0  0  0  0  0  0  0
  146.3725  132.7810  151.6905 C   0  0  0  0  0  0  0  0  0  0  0  0
  145.5275  132.6863  150.5146 N   0  0  0  0  0  0  0  0  0  0  0  0
  144.2549  133.2184  150.3513 C   0  0  0  0  0  0  0  0  0  0  0  0
  143.8441  132.8728  149.0839 C   0  0  0  0  0  0  0  0  0  0  0  0
  144.8434  132.1371  148.4514 N   0  0  0  0  0  0  0  0  0  0  0  0
  145.8083  132.0677  149.3595 C   0  0  0  0  0  0  0  0  0  0  0  0
  147.1208  137.0860  153.2928 N   0  0  0  0  0  0  0  0  0  0  0  0
  146.9889  138.4405  153.8203 C   0  0  2  0  0  0  0  0  0  0  0  0
  146.9383  139.4456  152.6558 C   0  0  0  0  0  0  0  0  0  0  0  0
  146.8513  140.8948  153.1654 C   0  0  0  0  0  0  0  0  0  0  0  0
  147.9898  141.2381  154.1444 C   0  0  2  0  0  0  0  0  0  0  0  0
  149.2203  141.3043  153.4513 O   0  0  0  0  0  0  0  0  0  0  0  0
  148.0813  140.2112  155.2892 C   0  0  0  0  0  0  0  0  0  0  0  0
  148.1573  138.7639  154.7720 C   0  0  0  0  0  0  0  0  0  0  0  0
  147.4897  134.9820  152.3436 H   0  0  0  0  0  0  0  0  0  0  0  0
  145.8494  133.2780  153.7256 H   0  0  0  0  0  0  0  0  0  0  0  0
  144.7618  133.9689  152.5523 H   0  0  0  0  0  0  0  0  0  0  0  0
  147.3741  133.0841  151.3826 H   0  0  0  0  0  0  0  0  0  0  0  0
  146.4667  131.7830  152.1200 H   0  0  0  0  0  0  0  0  0  0  0  0
  143.7583  133.7771  151.1309 H   0  0  0  0  0  0  0  0  0  0  0  0
  142.9136  133.0952  148.5825 H   0  0  0  0  0  0  0  0  0  0  0  0
  146.7404  131.5518  149.1819 H   0  0  0  0  0  0  0  0  0  0  0  0
  147.9558  136.8861  152.7618 H   0  0  0  0  0  0  0  0  0  0  0  0
  146.0513  138.5218  154.3741 H   0  0  0  0  0  0  0  0  0  0  0  0
  147.8241  139.3329  152.0289 H   0  0  0  0  0  0  0  0  0  0  0  0
  146.0807  139.2327  152.0165 H   0  0  0  0  0  0  0  0  0  0  0  0
  146.8530  141.5892  152.3246 H   0  0  0  0  0  0  0  0  0  0  0  0
  145.8948  141.0333  153.6710 H   0  0  0  0  0  0  0  0  0  0  0  0
  147.8098  142.2276  154.5661 H   0  0  0  0  0  0  0  0  0  0  0  0
  149.2989  140.5375  152.9046 H   0  0  0  0  0  0  0  0  0  0  0  0
  148.9408  140.4275  155.9247 H   0  0  0  0  0  0  0  0  0  0  0  0
  147.2012  140.3113  155.9258 H   0  0  0  0  0  0  0  0  0  0  0  0
  148.1534  138.0753  155.6178 H   0  0  0  0  0  0  0  0  0  0  0  0
  149.1066  138.6112  154.2567 H   0  0  0  0  0  0  0  0  0  0  0  0
  1  2  2  0  0  0  0
  2  3  1  0  0  0  0
  2 11  1  0  0  0  0
  3  4  1  0  0  0  0
  3 19  1  0  0  0  0
  4  5  1  0  0  0  0
  4 20  1  0  0  0  0
  4 21  1  0  0  0  0
  5  6  1  0  0  0  0
  5 22  1  0  0  0  0
  5 23  1  0  0  0  0
  6 10  1  0  0  0  0
  6  7  1  0  0  0  0
  7  8  2  0  0  0  0
  7 24  1  0  0  0  0
  8  9  1  0  0  0  0
  8 25  1  0  0  0  0
  9 10  2  0  0  0  0
 10 26  1  0  0  0  0
 11 12  1  0  0  0  0
 11 27  1  0  0  0  0
 12 18  1  0  0  0  0
 12 13  1  0  0  0  0
 12 28  1  0  0  0  0
 13 14  1  0  0  0  0
 13 29  1  0  0  0  0
 13 30  1  0  0  0  0
 14 15  1  0  0  0  0
 14 31  1  0  0  0  0
 14 32  1  0  0  0  0
 15 16  1  0  0  0  0
 15 17  1  0  0  0  0
 15 33  1  0  0  0  0
 16 34  1  0  0  0  0
 17 18  1  0  0  0  0
 17 35  1  0  0  0  0
 17 36  1  0  0  0  0
 18 37  1  0  0  0  0
 18 38  1  0  0  0  0
M  END
> <s_m_source_file>
AV-unprocessed.smi

> <i_m_source_file_index>
1491

> <i_lp_mmshare_version>
43012

> <i_f3d_flags>
0

> <s_epik_input>
W0NIMl0xW0NIMl1bQ0BIXShbT0hdKVtDSDJdW0NIMl1bQ0BIXTFbTkhdQyg9TylbTkhdW0NIMl1bQ0gyXW4yW2NIXVtjSF1uW2NIXTI=

> <s_epik_cmdline>
J2VwaWtfcHl0aG9uJywgJy1waCcsICc3LjAnLCAnLXRuJywgJzgnLCAnLW1hJywgJzIwMCcsICctbWV0YWxfYmluZGluZycsICctaW1hZScsICc8aW5maWxlLm1hZT4nLCAnLW9tYWUnLCAnPG91dGZpbGUubWFlPic=

> <r_lp_tautomer_probability>
1

> <r_epik_Ionization_Penalty>
0.623245

> <r_epik_Ionization_Penalty_Charging>
0.623187

> <r_epik_Ionization_Penalty_Neutral>
5.75214e-05

> <r_epik_State_Penalty>
0.639392

> <r_epik_Charging_Adjusted_Penalty>
1.26258

> <i_epik_Tot_Q>
0

> <i_epik_Tot_abs_Q>
0

> <r_epik_Metal_State_Penalty>
0.307266

> <b_epik_Metal_Only>
0

> <s_lp_Force_Field>
OPLS_2005

> <r_lp_Energy>
9.71392

> <b_lp_Chiralities_Consistent>
1

> <s_lp_Variant>
AV-unprocessed.smi:1491-4

> <Gold.Version>
5.8.1

> <Gold.Id.Protein>
6NUR|6NUR_protein|mol2

> <Gold.PLP.Fitness>
48.7151

> <Gold.PLP.PLP>
-33.5900

> <Gold.PLP.part.hbond>
-6.6499

> <Gold.PLP.part.metal>
0.0000

> <Gold.PLP.part.buried>
-3.8954

> <Gold.PLP.part.nonpolar>
-24.1542

> <Gold.PLP.part.repulsive>
0.5600

> <Gold.PLP.ligand.clash>
0.0000

> <Gold.PLP.ligand.torsion>
0.5090

> <Gold.PLP.Chemscore.Hbond>
3.4346

> <Gold.PLP.Chemscore.CHOScore>
1.9366

> <Gold.PLP.Chemscore.Metal>
0.0000

> <Gold.Chemscore.Hbonds>
donor molecule, donor type, donor heavy atom, donor atom, acceptor molecule, acceptor atom, score
      L1  H     3    19       P1  7948  0.83
      L1  H    11    27       P1  7948  0.91
      L1  H    16    34       P1  7957  0.82
      P1  H  8011  8017       L1    16  0.83
      L1  C     8    25       P1 10186  0.93
      L1  C    10    26       P1 10747  0.94

> <Gold.PLP.Chemscore.Internal.Correction>
0.0297

> <Gold.Rescore>
     Score         DG    S(hbond)    S(metal)    S(lipo)     H(rot)  DE(clash)    DE(int)     intcor
     15.24     -15.84       2.74        0.00      66.56       2.57       0.13       0.48       ----

> <Gold.Chemscore.Fitness>
15.2359

> <Gold.Chemscore.DG>
-15.8447

> <Gold.Chemscore.ZeroCoef>
-5.4800

> <Gold.Chemscore.Hbond>
2.7444

> <Gold.Chemscore.Metal>
0.0000

> <Gold.Chemscore.Lipo>
66.5582

> <Gold.Chemscore.Internal_Hbond>
0.0000

> <Gold.Chemscore.DEClash>
0.1325

> <Gold.Chemscore.DEInternal>
0.4762

> <Gold.Chemscore.Rot>
2.5738

> <Gold.Chemscore.Internal.Correction>
   9.000000E+99

> <Gold.Chemscore.Hbonds>
donor molecule, donor type, donor heavy atom, donor atom, acceptor molecule, acceptor atom, score
      L1  H     3    19       P1  7948  0.80
      L1  H    11    27       P1  7948  0.87
      L1  H    16    34       P1  7957  0.81
      P1  H  8011  8017       L1    16  0.14

> <Gold.Chemscore.Hbond.Weighted>
-9.1664

> <Gold.Chemscore.Metal.Weighted>
-0.0000

> <Gold.Chemscore.Lipo.Weighted>
-7.7873

> <Gold.Chemscore.Internal_Hbond.Weighted>
0.0000

> <Gold.Chemscore.DEClash.Weighted>
0.1325

> <Gold.Chemscore.DEInternal.Weighted>
0.4762

> <Gold.Chemscore.Rot.Weighted>
6.5890

> <Gold.Chemscore.Internal.Correction.Weighted>
   9.000000E+99

> <Gold.Protein.RotatedTorsions>
[ 6907 6896 6895 6894 ] final  -53.65 input  -60.11 | X-H torsion
[ 7974 7965 7964 7962 ] final -130.19 input  175.53 | X-H torsion
[ 8008 7997 7996 7995 ] final  131.14 input   59.86 | X-H torsion
[ 10167 10162 10161 10158 ] final -139.27 input  -65.29 | X-H torsion
[ 10718 10713 10712 10709 ] final  167.06 input   66.30 | X-H torsion
[ 10763 10752 10751 10750 ] final  -70.19 input  -60.55 | X-H torsion
[ 11005 11000 10999 10996 ] final  -27.01 input  -57.11 | X-H torsion

> <Gold.Protein.ActiveResidues>
 VAL166  LYS551  ARG553  GLY616  TRP617  ASP618  TYR619  PRO620  LYS621  CYS622 
 ASP623  PHE694  ASN695  SER759  ASP760  ASP761  ALA762  ILE779  LEU786  VAL792 
 PHE793  MET794  SER795  GLU796  ALA797  LYS798  CYS799  TRP800  GLU811  SER814 

> <Gold.Protein.RotatedAtoms>
  150.8408  134.7699  159.6930 H   0  0  0  0  0  0  0  0  0  0  0  0  # atno 6907 bound_to 6896
  152.4496  134.5419  159.9851 H   0  0  0  0  0  0  0  0  0  0  0  0  # atno 6908 bound_to 6896
  151.5559  133.3372  159.2997 H   0  0  0  0  0  0  0  0  0  0  0  0  # atno 6909 bound_to 6896
  144.9499  140.7333  143.4794 H   0  0  0  0  0  0  0  0  0  0  0  0  # atno 7974 bound_to 7965
  156.2965  140.2578  156.2877 H   0  0  0  0  0  0  0  0  0  0  0  0  # atno 8008 bound_to 7997
  154.9540  140.0394  157.2176 H   0  0  0  0  0  0  0  0  0  0  0  0  # atno 8009 bound_to 7997
  154.8009  140.2828  155.5926 H   0  0  0  0  0  0  0  0  0  0  0  0  # atno 8010 bound_to 7997
  139.8396  143.7340  152.2663 H   0  0  0  0  0  0  0  0  0  0  0  0  # atno 10167 bound_to 10162
  157.0570  131.0329  151.2660 H   0  0  0  0  0  0  0  0  0  0  0  0  # atno 10718 bound_to 10713
  154.4142  135.6002  153.5971 H   0  0  0  0  0  0  0  0  0  0  0  0  # atno 10763 bound_to 10752
  152.9791  135.5936  154.4034 H   0  0  0  0  0  0  0  0  0  0  0  0  # atno 10764 bound_to 10752
  154.3850  135.2841  155.2167 H   0  0  0  0  0  0  0  0  0  0  0  0  # atno 10765 bound_to 10752
  140.9081  133.7479  156.0633 H   0  0  0  0  0  0  0  0  0  0  0  0  # atno 11005 bound_to 11000
  145.2860  139.1901  143.4765 LP  0  0  0  0  0  0  0  0  0  0  0  0  # atno 17320 bound_to 7965
  146.3317  140.2830  142.8611 LP  0  0  0  0  0  0  0  0  0  0  0  0  # atno 17321 bound_to 7965
  139.7572  144.7517  151.0417 LP  0  0  0  0  0  0  0  0  0  0  0  0  # atno 17342 bound_to 10162
  140.7799  143.4792  151.0042 LP  0  0  0  0  0  0  0  0  0  0  0  0  # atno 17343 bound_to 10162
  157.4985  130.7865  149.7580 LP  0  0  0  0  0  0  0  0  0  0  0  0  # atno 17370 bound_to 10713
  155.9990  130.3891  150.2680 LP  0  0  0  0  0  0  0  0  0  0  0  0  # atno 17371 bound_to 10713
  140.8146  134.3360  157.5401 LP  0  0  0  0  0  0  0  0  0  0  0  0  # atno 17394 bound_to 11000
  139.8753  134.9274  156.3423 LP  0  0  0  0  0  0  0  0  0  0  0  0  # atno 17395 bound_to 11000

$$$$
