AV-unprocessed.smi:1631|AV-procd|sdf|6527|dock1
  -GOLD-   22720 7203D 1   1.00000     0.00000
 Structure written by MMmdl.
 38 39  0  0  0  0  0  0  0  0  1 V2000
  152.7989  143.6672  162.3339 C   0  0  0  0  0  0  0  0  0  0  0  0
  153.0681  142.4987  161.4246 C   0  0  0  0  0  0  0  0  0  0  0  0
  152.3816  142.4450  160.3314 N   0  0  0  0  0  0  0  0  0  0  0  0
  152.5610  141.4248  159.4176 N   0  0  0  0  0  0  0  0  0  0  0  0
  151.7430  141.5514  158.2035 C   0  0  0  0  0  0  0  0  0  0  0  0
  150.8731  140.2988  157.9351 C   0  0  1  0  0  0  0  0  0  0  0  0
  150.0943  140.0545  159.0880 O   0  0  0  0  0  0  0  0  0  0  0  0
  150.0004  140.4256  156.6832 C   0  0  0  0  0  0  0  0  0  0  0  0
  149.0575  141.4790  156.6411 C   0  0  0  0  0  0  0  0  0  0  0  0
  148.2421  141.6782  155.5140 C   0  0  0  0  0  0  0  0  0  0  0  0
  148.3562  140.8170  154.4113 C   0  0  0  0  0  0  0  0  0  0  0  0
  149.2778  139.7555  154.4437 C   0  0  0  0  0  0  0  0  0  0  0  0
  150.1045  139.5391  155.5721 C   0  0  0  0  0  0  0  0  0  0  0  0
  151.0709  138.3536  155.5624 C   0  0  0  0  0  0  0  0  0  0  0  0
  150.9597  137.6317  154.4466 F   0  0  0  0  0  0  0  0  0  0  0  0
  152.3298  138.7804  155.6387 F   0  0  0  0  0  0  0  0  0  0  0  0
  150.8141  137.5439  156.5901 F   0  0  0  0  0  0  0  0  0  0  0  0
  153.4178  140.3775  159.5827 C   0  0  0  0  0  0  0  0  0  0  0  0
  153.5299  139.4756  158.7510 O   0  0  0  0  0  0  0  0  0  0  0  0
  154.1925  140.4435  160.8239 C   0  0  0  0  0  0  0  0  0  0  0  0
  155.1182  139.3762  161.0266 C   0  0  0  0  0  0  0  0  0  0  0  0
  155.8622  138.5014  161.1729 N   0  0  0  0  0  0  0  0  0  0  0  0
  154.0449  141.4547  161.7161 C   0  0  0  0  0  0  0  0  0  0  0  0
  154.8281  141.5718  163.0163 C   0  0  0  0  0  0  0  0  0  0  0  0
  152.5190  143.3272  163.3311 H   0  0  0  0  0  0  0  0  0  0  0  0
  151.9875  144.2940  161.9607 H   0  0  0  0  0  0  0  0  0  0  0  0
  153.6844  144.2964  162.4257 H   0  0  0  0  0  0  0  0  0  0  0  0
  151.1079  142.4367  158.2734 H   0  0  0  0  0  0  0  0  0  0  0  0
  152.3930  141.7442  157.3480 H   0  0  0  0  0  0  0  0  0  0  0  0
  151.5448  139.4491  157.8511 H   0  0  0  0  0  0  0  0  0  0  0  0
  149.5155  139.3289  158.9101 H   0  0  0  0  0  0  0  0  0  0  0  0
  148.9612  142.1521  157.4803 H   0  0  0  0  0  0  0  0  0  0  0  0
  147.5317  142.4915  155.4960 H   0  0  0  0  0  0  0  0  0  0  0  0
  147.7324  140.9657  153.5422 H   0  0  0  0  0  0  0  0  0  0  0  0
  149.3367  139.1051  153.5843 H   0  0  0  0  0  0  0  0  0  0  0  0
  155.5886  140.7973  163.1110 H   0  0  0  0  0  0  0  0  0  0  0  0
  154.1588  141.4840  163.8726 H   0  0  0  0  0  0  0  0  0  0  0  0
  155.3372  142.5342  163.0749 H   0  0  0  0  0  0  0  0  0  0  0  0
  1  2  1  0  0  0  0
  1 25  1  0  0  0  0
  1 26  1  0  0  0  0
  1 27  1  0  0  0  0
  2 23  1  0  0  0  0
  2  3  2  0  0  0  0
  3  4  1  0  0  0  0
  4  5  1  0  0  0  0
  4 18  1  0  0  0  0
  5  6  1  0  0  0  0
  5 28  1  0  0  0  0
  5 29  1  0  0  0  0
  6  7  1  0  0  0  0
  6  8  1  0  0  0  0
  6 30  1  0  0  0  0
  7 31  1  0  0  0  0
  8 13  1  0  0  0  0
  8  9  2  0  0  0  0
  9 10  1  0  0  0  0
  9 32  1  0  0  0  0
 10 11  2  0  0  0  0
 10 33  1  0  0  0  0
 11 12  1  0  0  0  0
 11 34  1  0  0  0  0
 12 13  2  0  0  0  0
 12 35  1  0  0  0  0
 13 14  1  0  0  0  0
 14 15  1  0  0  0  0
 14 16  1  0  0  0  0
 14 17  1  0  0  0  0
 18 19  2  0  0  0  0
 18 20  1  0  0  0  0
 20 21  1  0  0  0  0
 20 23  2  0  0  0  0
 21 22  3  0  0  0  0
 23 24  1  0  0  0  0
 24 36  1  0  0  0  0
 24 37  1  0  0  0  0
 24 38  1  0  0  0  0
M  END
> <s_m_source_file>
AV-unprocessed.smi

> <i_m_source_file_index>
1631

> <i_lp_mmshare_version>
43012

> <i_f3d_flags>
0

> <s_epik_input>
TiNDYyhjMVtDSDNdKWMoPU8pbihuYzFbQ0gzXSlbQ0gyXVtDQEhdKFtPSF0pYzJbY0hdW2NIXVtjSF1bY0hdYzJDKEYpKEYpRg==

> <s_epik_cmdline>
J2VwaWtfcHl0aG9uJywgJy1waCcsICc3LjAnLCAnLXRuJywgJzgnLCAnLW1hJywgJzIwMCcsICctbWV0YWxfYmluZGluZycsICctaW1hZScsICc8aW5maWxlLm1hZT4nLCAnLW9tYWUnLCAnPG91dGZpbGUubWFlPic=

> <r_lp_tautomer_probability>
1

> <r_epik_Ionization_Penalty>
7.1854e-08

> <r_epik_Ionization_Penalty_Charging>
1.40848e-10

> <r_epik_Ionization_Penalty_Neutral>
7.17131e-08

> <r_epik_State_Penalty>
-0

> <r_epik_Charging_Adjusted_Penalty>
1.40848e-10

> <i_epik_Tot_Q>
0

> <i_epik_Tot_abs_Q>
0

> <r_epik_Metal_State_Penalty>
-0

> <b_epik_Metal_Only>
0

> <s_lp_Force_Field>
OPLS_2005

> <r_lp_Energy>
27.8833

> <b_lp_Chiralities_Consistent>
1

> <s_lp_Variant>
AV-unprocessed.smi:1631-2

> <Gold.Version>
5.8.1

> <Gold.Id.Protein>
6NUR|6NUR_protein|mol2

> <Gold.PLP.Fitness>
45.5404

> <Gold.PLP.PLP>
-42.5902

> <Gold.PLP.part.hbond>
-1.1362

> <Gold.PLP.part.metal>
0.0000

> <Gold.PLP.part.buried>
3.9692

> <Gold.PLP.part.nonpolar>
-44.9400

> <Gold.PLP.part.repulsive>
0.0101

> <Gold.PLP.ligand.clash>
1.4754

> <Gold.PLP.ligand.torsion>
0.0465

> <Gold.PLP.Chemscore.Hbond>
1.0000

> <Gold.PLP.Chemscore.CHOScore>
0.0000

> <Gold.PLP.Chemscore.Metal>
0.0000

> <Gold.Chemscore.Hbonds>
donor molecule, donor type, donor heavy atom, donor atom, acceptor molecule, acceptor atom, score
      P1  H  7997  8009       L1    19  0.76

> <Gold.PLP.Chemscore.Internal.Correction>
1.5187

> <Gold.Rescore>
     Score         DG    S(hbond)    S(metal)    S(lipo)     H(rot)  DE(clash)    DE(int)     intcor
     12.10     -15.80       0.96        0.00     106.97       2.11       1.68       2.02       ----

> <Gold.Chemscore.Fitness>
12.1009

> <Gold.Chemscore.DG>
-15.8021

> <Gold.Chemscore.ZeroCoef>
-5.4800

> <Gold.Chemscore.Hbond>
0.9624

> <Gold.Chemscore.Metal>
0.0000

> <Gold.Chemscore.Lipo>
106.9713

> <Gold.Chemscore.Internal_Hbond>
0.0000

> <Gold.Chemscore.DEClash>
1.6767

> <Gold.Chemscore.DEInternal>
2.0245

> <Gold.Chemscore.Rot>
2.1124

> <Gold.Chemscore.Internal.Correction>
   9.000000E+99

> <Gold.Chemscore.Hbonds>
donor molecule, donor type, donor heavy atom, donor atom, acceptor molecule, acceptor atom, score
      P1  H  7997  8009       L1    19  0.66

> <Gold.Chemscore.Hbond.Weighted>
-3.2143

> <Gold.Chemscore.Metal.Weighted>
-0.0000

> <Gold.Chemscore.Lipo.Weighted>
-12.5156

> <Gold.Chemscore.Internal_Hbond.Weighted>
0.0000

> <Gold.Chemscore.DEClash.Weighted>
1.6767

> <Gold.Chemscore.DEInternal.Weighted>
2.0245

> <Gold.Chemscore.Rot.Weighted>
5.4078

> <Gold.Chemscore.Internal.Correction.Weighted>
   9.000000E+99

> <Gold.Protein.RotatedTorsions>
[ 6907 6896 6895 6894 ] final  106.47 input  -60.11 | X-H torsion
[ 7974 7965 7964 7962 ] final -174.11 input  175.53 | X-H torsion
[ 8008 7997 7996 7995 ] final  159.82 input   59.86 | X-H torsion
[ 10167 10162 10161 10158 ] final -123.73 input  -65.29 | X-H torsion
[ 10718 10713 10712 10709 ] final  -83.60 input   66.30 | X-H torsion
[ 10763 10752 10751 10750 ] final  142.91 input  -60.55 | X-H torsion
[ 11005 11000 10999 10996 ] final -158.19 input  -57.11 | X-H torsion

> <Gold.Protein.ActiveResidues>
 VAL166  LYS551  ARG553  GLY616  TRP617  ASP618  TYR619  PRO620  LYS621  CYS622 
 ASP623  PHE694  ASN695  SER759  ASP760  ASP761  ALA762  ILE779  LEU786  VAL792 
 PHE793  MET794  SER795  GLU796  ALA797  LYS798  CYS799  TRP800  GLU811  SER814 

> <Gold.Protein.RotatedAtoms>
  152.5192  133.9376  159.7610 H   0  0  0  0  0  0  0  0  0  0  0  0  # atno 6907 bound_to 6896
  150.9713  133.6333  159.2744 H   0  0  0  0  0  0  0  0  0  0  0  0  # atno 6908 bound_to 6896
  151.3543  135.0896  159.9466 H   0  0  0  0  0  0  0  0  0  0  0  0  # atno 6909 bound_to 6896
  144.7133  140.1520  143.6383 H   0  0  0  0  0  0  0  0  0  0  0  0  # atno 7974 bound_to 7965
  156.2214  140.1821  156.7468 H   0  0  0  0  0  0  0  0  0  0  0  0  # atno 8008 bound_to 7997
  154.5871  140.0657  156.9215 H   0  0  0  0  0  0  0  0  0  0  0  0  # atno 8009 bound_to 7997
  155.2401  140.3321  155.4296 H   0  0  0  0  0  0  0  0  0  0  0  0  # atno 8010 bound_to 7997
  140.0003  143.5547  152.2306 H   0  0  0  0  0  0  0  0  0  0  0  0  # atno 10167 bound_to 10162
  156.0016  130.4671  150.4282 H   0  0  0  0  0  0  0  0  0  0  0  0  # atno 10718 bound_to 10713
  153.9637  135.2957  155.3432 H   0  0  0  0  0  0  0  0  0  0  0  0  # atno 10763 bound_to 10752
  154.7361  135.5046  153.9046 H   0  0  0  0  0  0  0  0  0  0  0  0  # atno 10764 bound_to 10752
  153.0934  135.6714  153.9921 H   0  0  0  0  0  0  0  0  0  0  0  0  # atno 10765 bound_to 10752
  140.6563  134.4397  157.5235 H   0  0  0  0  0  0  0  0  0  0  0  0  # atno 11005 bound_to 11000
  145.9107  139.2485  143.1439 LP  0  0  0  0  0  0  0  0  0  0  0  0  # atno 17320 bound_to 7965
  145.9719  140.8753  143.0158 LP  0  0  0  0  0  0  0  0  0  0  0  0  # atno 17321 bound_to 7965
  139.6276  144.7639  151.2604 LP  0  0  0  0  0  0  0  0  0  0  0  0  # atno 17342 bound_to 10162
  140.7421  143.6536  150.8227 LP  0  0  0  0  0  0  0  0  0  0  0  0  # atno 17343 bound_to 10162
  157.2333  131.0509  151.2480 LP  0  0  0  0  0  0  0  0  0  0  0  0  # atno 17370 bound_to 10713
  157.3691  130.7171  149.6552 LP  0  0  0  0  0  0  0  0  0  0  0  0  # atno 17371 bound_to 10713
  139.9028  134.8517  156.1825 LP  0  0  0  0  0  0  0  0  0  0  0  0  # atno 17394 bound_to 11000
  141.0499  133.6894  156.1752 LP  0  0  0  0  0  0  0  0  0  0  0  0  # atno 17395 bound_to 11000

$$$$
