AV-unprocessed.smi:1775|AV-procd|sdf|7171|dock9
  -GOLD-   22720 8413D 1   1.00000     0.00000
 Structure written by MMmdl.
 38 40  0  0  0  0  0  0  0  0  1 V2000
  149.6828  142.5882  158.5018 O   0  0  0  0  0  0  0  0  0  0  0  0
  150.6654  142.1275  157.9214 C   0  0  0  0  0  0  0  0  0  0  0  0
  150.6582  141.5479  156.7071 N   0  0  0  0  0  0  0  0  0  0  0  0
  149.5869  141.3748  155.8153 C   0  0  0  0  0  0  0  0  0  0  0  0
  148.3736  141.9738  155.9375 C   0  0  0  0  0  0  0  0  0  0  0  0
  147.3089  141.7637  154.9711 C   0  0  0  0  0  0  0  0  0  0  0  0
  145.9302  142.3763  155.1631 C   0  0  0  0  0  0  0  0  0  0  0  0
  144.9935  141.4349  155.2859 F   0  0  0  0  0  0  0  0  0  0  0  0
  145.8972  143.1444  156.2523 F   0  0  0  0  0  0  0  0  0  0  0  0
  145.6219  143.1348  154.1123 F   0  0  0  0  0  0  0  0  0  0  0  0
  147.5829  140.9342  153.9470 C   0  0  0  0  0  0  0  0  0  0  0  0
  148.8353  140.3329  153.8017 N   0  0  0  0  0  0  0  0  0  0  0  0
  149.8628  140.4988  154.6647 C   0  0  0  0  0  0  0  0  0  0  0  0
  150.9385  139.9358  154.4648 O   0  0  0  0  0  0  0  0  0  0  0  0
  151.9016  142.1227  158.4433 N   0  0  0  0  0  0  0  0  0  0  0  0
  152.3028  142.6416  159.7496 C   0  0  0  0  0  0  0  0  0  0  0  0
  152.3061  144.1610  159.8309 C   0  0  0  0  0  0  0  0  0  0  0  0
  151.0700  144.9647  159.5049 C   0  0  0  0  0  0  0  0  0  0  0  0
  152.2683  145.0103  158.5833 C   0  0  0  0  0  0  0  0  0  0  0  0
  153.6140  142.0663  160.2653 C   0  0  0  0  0  0  0  0  0  0  0  0
  153.7301  140.6100  160.6450 C   0  0  0  0  0  0  0  0  0  0  0  0
  153.7847  141.6782  161.7148 C   0  0  0  0  0  0  0  0  0  0  0  0
  148.9677  139.7370  152.9972 H   0  0  0  0  0  0  0  0  0  0  0  0
  151.5298  141.1414  156.3988 H   0  0  0  0  0  0  0  0  0  0  0  0
  148.1684  142.6492  156.7522 H   0  0  0  0  0  0  0  0  0  0  0  0
  146.8767  140.6666  153.1746 H   0  0  0  0  0  0  0  0  0  0  0  0
  152.6378  141.7165  157.8846 H   0  0  0  0  0  0  0  0  0  0  0  0
  151.5215  142.2947  160.4277 H   0  0  0  0  0  0  0  0  0  0  0  0
  152.9110  144.5530  160.6468 H   0  0  0  0  0  0  0  0  0  0  0  0
  150.1902  144.4296  159.1530 H   0  0  0  0  0  0  0  0  0  0  0  0
  150.8684  145.8434  160.1141 H   0  0  0  0  0  0  0  0  0  0  0  0
  152.8665  145.9192  158.5776 H   0  0  0  0  0  0  0  0  0  0  0  0
  152.1849  144.5008  157.6252 H   0  0  0  0  0  0  0  0  0  0  0  0
  154.4957  142.5027  159.7993 H   0  0  0  0  0  0  0  0  0  0  0  0
  152.8313  139.9987  160.5914 H   0  0  0  0  0  0  0  0  0  0  0  0
  154.6573  140.0996  160.3924 H   0  0  0  0  0  0  0  0  0  0  0  0
  154.7490  141.8791  162.1771 H   0  0  0  0  0  0  0  0  0  0  0  0
  152.9235  141.7696  162.3738 H   0  0  0  0  0  0  0  0  0  0  0  0
  1  2  2  0  0  0  0
  2  3  1  0  0  0  0
  2 15  1  0  0  0  0
  3  4  1  0  0  0  0
  3 24  1  0  0  0  0
  4 13  1  0  0  0  0
  4  5  2  0  0  0  0
  5  6  1  0  0  0  0
  5 25  1  0  0  0  0
  6  7  1  0  0  0  0
  6 11  2  0  0  0  0
  7  8  1  0  0  0  0
  7  9  1  0  0  0  0
  7 10  1  0  0  0  0
 11 12  1  0  0  0  0
 11 26  1  0  0  0  0
 12 23  1  0  0  0  0
 12 13  1  0  0  0  0
 13 14  2  0  0  0  0
 15 16  1  0  0  0  0
 15 27  1  0  0  0  0
 16 17  1  0  0  0  0
 16 20  1  0  0  0  0
 16 28  1  0  0  0  0
 17 19  1  0  0  0  0
 17 18  1  0  0  0  0
 17 29  1  0  0  0  0
 18 19  1  0  0  0  0
 18 30  1  0  0  0  0
 18 31  1  0  0  0  0
 19 32  1  0  0  0  0
 19 33  1  0  0  0  0
 20 22  1  0  0  0  0
 20 21  1  0  0  0  0
 20 34  1  0  0  0  0
 21 22  1  0  0  0  0
 21 35  1  0  0  0  0
 21 36  1  0  0  0  0
 22 37  1  0  0  0  0
 22 38  1  0  0  0  0
M  END
> <s_m_source_file>
AV-unprocessed.smi

> <i_m_source_file_index>
1775

> <i_lp_mmshare_version>
43012

> <i_f3d_flags>
0

> <s_epik_input>
W0NIMl0xW0NIMl1bQ0hdMVtDSF0oW0NIXTJbQ0gyXVtDSDJdMilbTkhdQyg9TylbTkhdYzNbY0hdYyhDKEYpKEYpRilbY0hdW25IXWMzPU8=

> <s_epik_cmdline>
J2VwaWtfcHl0aG9uJywgJy1waCcsICc3LjAnLCAnLXRuJywgJzgnLCAnLW1hJywgJzIwMCcsICctbWV0YWxfYmluZGluZycsICctaW1hZScsICc8aW5maWxlLm1hZT4nLCAnLW9tYWUnLCAnPG91dGZpbGUubWFlPic=

> <r_lp_tautomer_probability>
1

> <r_epik_Ionization_Penalty>
0.00370881

> <r_epik_Ionization_Penalty_Charging>
0.00368697

> <r_epik_Ionization_Penalty_Neutral>
2.18468e-05

> <r_epik_State_Penalty>
-0

> <r_epik_Charging_Adjusted_Penalty>
0.00368697

> <i_epik_Tot_Q>
0

> <i_epik_Tot_abs_Q>
0

> <r_epik_Metal_State_Penalty>
0.370005

> <b_epik_Metal_Only>
0

> <s_lp_Force_Field>
OPLS_2005

> <r_lp_Energy>
35.723

> <b_lp_Chiralities_Consistent>
1

> <s_lp_Variant>
AV-unprocessed.smi:1775-1

> <Gold.Version>
5.8.1

> <Gold.Id.Protein>
6NUR|6NUR_protein|mol2

> <Gold.PLP.Fitness>
52.1423

> <Gold.PLP.PLP>
-47.9521

> <Gold.PLP.part.hbond>
-2.0000

> <Gold.PLP.part.metal>
0.0000

> <Gold.PLP.part.buried>
-3.7450

> <Gold.PLP.part.nonpolar>
-42.9794

> <Gold.PLP.part.repulsive>
0.5024

> <Gold.PLP.ligand.clash>
0.0000

> <Gold.PLP.ligand.torsion>
1.5263

> <Gold.PLP.Chemscore.Hbond>
1.6720

> <Gold.PLP.Chemscore.CHOScore>
0.0000

> <Gold.PLP.Chemscore.Metal>
0.0000

> <Gold.Chemscore.Hbonds>
donor molecule, donor type, donor heavy atom, donor atom, acceptor molecule, acceptor atom, score
      L1  H    12    23       P1  7957  0.69
      P1  H  7989  7998       L1    14  0.96

> <Gold.PLP.Chemscore.Internal.Correction>
2.2268

> <Gold.Rescore>
     Score         DG    S(hbond)    S(metal)    S(lipo)     H(rot)  DE(clash)    DE(int)     intcor
     14.53     -18.19       1.32        0.00     104.01       1.51       0.50       3.16       ----

> <Gold.Chemscore.Fitness>
14.5280

> <Gold.Chemscore.DG>
-18.1933

> <Gold.Chemscore.ZeroCoef>
-5.4800

> <Gold.Chemscore.Hbond>
1.3168

> <Gold.Chemscore.Metal>
0.0000

> <Gold.Chemscore.Lipo>
104.0118

> <Gold.Chemscore.Internal_Hbond>
0.0000

> <Gold.Chemscore.DEClash>
0.5015

> <Gold.Chemscore.DEInternal>
3.1639

> <Gold.Chemscore.Rot>
1.5056

> <Gold.Chemscore.Internal.Correction>
   9.000000E+99

> <Gold.Chemscore.Hbonds>
donor molecule, donor type, donor heavy atom, donor atom, acceptor molecule, acceptor atom, score
      L1  H    12    23       P1  7957  0.67
      P1  H  7989  7998       L1    14  0.36

> <Gold.Chemscore.Hbond.Weighted>
-4.3982

> <Gold.Chemscore.Metal.Weighted>
-0.0000

> <Gold.Chemscore.Lipo.Weighted>
-12.1694

> <Gold.Chemscore.Internal_Hbond.Weighted>
0.0000

> <Gold.Chemscore.DEClash.Weighted>
0.5015

> <Gold.Chemscore.DEInternal.Weighted>
3.1639

> <Gold.Chemscore.Rot.Weighted>
3.8542

> <Gold.Chemscore.Internal.Correction.Weighted>
   9.000000E+99

> <Gold.Protein.RotatedTorsions>
[ 6907 6896 6895 6894 ] final  -90.98 input  -60.11 | X-H torsion
[ 7974 7965 7964 7962 ] final  176.39 input  175.53 | X-H torsion
[ 8008 7997 7996 7995 ] final -128.14 input   59.86 | X-H torsion
[ 10167 10162 10161 10158 ] final  172.97 input  -65.29 | X-H torsion
[ 10718 10713 10712 10709 ] final   88.86 input   66.30 | X-H torsion
[ 10763 10752 10751 10750 ] final -117.92 input  -60.55 | X-H torsion
[ 11005 11000 10999 10996 ] final  133.63 input  -57.11 | X-H torsion

> <Gold.Protein.ActiveResidues>
 VAL166  LYS551  ARG553  GLY616  TRP617  ASP618  TYR619  PRO620  LYS621  CYS622 
 ASP623  PHE694  ASN695  SER759  ASP760  ASP761  ALA762  ILE779  LEU786  VAL792 
 PHE793  MET794  SER795  GLU796  ALA797  LYS798  CYS799  TRP800  GLU811  SER814 

> <Gold.Protein.RotatedAtoms>
  150.6887  134.2348  159.4448 H   0  0  0  0  0  0  0  0  0  0  0  0  # atno 6907 bound_to 6896
  152.0296  134.9773  160.0581 H   0  0  0  0  0  0  0  0  0  0  0  0  # atno 6908 bound_to 6896
  152.1318  133.4377  159.4761 H   0  0  0  0  0  0  0  0  0  0  0  0  # atno 6909 bound_to 6896
  144.7185  140.0089  143.6440 H   0  0  0  0  0  0  0  0  0  0  0  0  # atno 7974 bound_to 7965
  155.2578  140.0435  157.2994 H   0  0  0  0  0  0  0  0  0  0  0  0  # atno 8008 bound_to 7997
  154.5729  140.2379  155.8134 H   0  0  0  0  0  0  0  0  0  0  0  0  # atno 8009 bound_to 7997
  156.2136  140.2991  155.9796 H   0  0  0  0  0  0  0  0  0  0  0  0  # atno 8010 bound_to 7997
  139.5093  144.3314  152.0107 H   0  0  0  0  0  0  0  0  0  0  0  0  # atno 10167 bound_to 10162
  157.6952  131.0311  150.3338 H   0  0  0  0  0  0  0  0  0  0  0  0  # atno 10718 bound_to 10713
  154.8571  135.4292  154.2056 H   0  0  0  0  0  0  0  0  0  0  0  0  # atno 10763 bound_to 10752
  153.3093  135.6974  153.7136 H   0  0  0  0  0  0  0  0  0  0  0  0  # atno 10764 bound_to 10752
  153.6235  135.3497  155.2992 H   0  0  0  0  0  0  0  0  0  0  0  0  # atno 10765 bound_to 10752
  139.9864  134.9530  156.9753 H   0  0  0  0  0  0  0  0  0  0  0  0  # atno 11005 bound_to 11000
  146.0275  139.3305  143.0776 LP  0  0  0  0  0  0  0  0  0  0  0  0  # atno 17320 bound_to 7965
  145.8494  140.9537  143.0758 LP  0  0  0  0  0  0  0  0  0  0  0  0  # atno 17321 bound_to 7965
  140.2754  144.3919  150.6137 LP  0  0  0  0  0  0  0  0  0  0  0  0  # atno 17342 bound_to 10162
  140.6058  143.2167  151.6984 LP  0  0  0  0  0  0  0  0  0  0  0  0  # atno 17343 bound_to 10162
  156.3808  130.3880  149.7103 LP  0  0  0  0  0  0  0  0  0  0  0  0  # atno 17370 bound_to 10713
  156.4486  130.7895  151.2917 LP  0  0  0  0  0  0  0  0  0  0  0  0  # atno 17371 bound_to 10713
  140.4994  134.1112  155.7247 LP  0  0  0  0  0  0  0  0  0  0  0  0  # atno 17394 bound_to 11000
  141.1528  133.8937  157.2054 LP  0  0  0  0  0  0  0  0  0  0  0  0  # atno 17395 bound_to 11000

$$$$
