AV-unprocessed.smi:2078|AV-procd|sdf|8474|dock9
  -GOLD-   2272011173D 1   1.00000     0.00000
 Structure written by MMmdl.
 41 42  0  0  0  0  0  0  0  0  3 V2000
  147.0650  136.0070  162.5585 C   0  0  0  0  0  0  0  0  0  0  0  0
  147.3609  136.0036  161.0981 C   0  0  0  0  0  0  0  0  0  0  0  0
  147.6348  135.0051  160.2064 C   0  0  0  0  0  0  0  0  0  0  0  0
  147.8143  135.7060  158.9842 C   0  0  0  0  0  0  0  0  0  0  0  0
  148.1276  135.0082  157.7880 N   0  0  0  0  0  0  0  0  0  0  0  0
  148.6553  133.7791  157.6455 C   0  0  0  0  0  0  0  0  0  0  0  0
  148.9751  133.1167  158.6401 O   0  0  0  0  0  0  0  0  0  0  0  0
  148.7586  133.4067  156.3393 N   0  5  0  0  0  0  0  0  0  0  0  0
  148.8632  134.3293  155.2041 C   0  0  0  0  0  0  0  0  0  0  0  0
  148.8550  133.5545  153.8687 C   0  0  0  0  0  0  0  0  0  0  0  0
  147.7424  133.9868  152.9807 N   0  3  2  0  0  0  0  0  0  0  0  0
  146.5630  134.5261  153.7078 C   0  0  0  0  0  0  0  0  0  0  0  0
  145.5537  135.1389  152.7248 C   0  0  0  0  0  0  0  0  0  0  0  0
  145.1276  134.1129  151.6659 C   0  0  0  0  0  0  0  0  0  0  0  0
  146.3623  133.5378  150.9498 C   0  0  2  0  0  0  0  0  0  0  0  0
  145.9672  132.4895  149.9006 C   0  0  0  0  0  0  0  0  0  0  0  0
  147.3566  132.9616  151.9777 C   0  0  0  0  0  0  0  0  0  0  0  0
  147.6677  137.0158  159.1200 N   0  0  0  0  0  0  0  0  0  0  0  0
  147.3750  137.2128  160.4746 O   0  0  0  0  0  0  0  0  0  0  0  0
  147.1293  135.0003  162.9715 H   0  0  0  0  0  0  0  0  0  0  0  0
  146.0610  136.3871  162.7480 H   0  0  0  0  0  0  0  0  0  0  0  0
  147.7737  136.6383  163.0948 H   0  0  0  0  0  0  0  0  0  0  0  0
  147.6947  133.9443  160.3988 H   0  0  0  0  0  0  0  0  0  0  0  0
  147.9125  135.4953  156.9305 H   0  0  0  0  0  0  0  0  0  0  0  0
  148.0279  135.0291  155.1993 H   0  0  0  0  0  0  0  0  0  0  0  0
  149.7576  134.9517  155.2529 H   0  0  0  0  0  0  0  0  0  0  0  0
  149.8174  133.7020  153.3759 H   0  0  0  0  0  0  0  0  0  0  0  0
  148.7847  132.4822  154.0572 H   0  0  0  0  0  0  0  0  0  0  0  0
  146.0929  133.7289  154.2857 H   0  0  0  0  0  0  0  0  0  0  0  0
  146.8810  135.2894  154.4190 H   0  0  0  0  0  0  0  0  0  0  0  0
  144.6795  135.5034  153.2648 H   0  0  0  0  0  0  0  0  0  0  0  0
  146.0009  136.0062  152.2364 H   0  0  0  0  0  0  0  0  0  0  0  0
  144.5639  133.3087  152.1412 H   0  0  0  0  0  0  0  0  0  0  0  0
  144.4561  134.5813  150.9456 H   0  0  0  0  0  0  0  0  0  0  0  0
  146.8597  134.3560  150.4254 H   0  0  0  0  0  0  0  0  0  0  0  0
  145.4668  131.6366  150.3603 H   0  0  0  0  0  0  0  0  0  0  0  0
  146.8438  132.1156  149.3706 H   0  0  0  0  0  0  0  0  0  0  0  0
  145.2901  132.9130  149.1581 H   0  0  0  0  0  0  0  0  0  0  0  0
  148.2501  132.6170  151.4550 H   0  0  0  0  0  0  0  0  0  0  0  0
  146.9291  132.0962  152.4864 H   0  0  0  0  0  0  0  0  0  0  0  0
  148.1270  134.7552  152.4473 H   0  0  0  0  0  0  0  0  0  0  0  0
  1  2  1  0  0  0  0
  1 20  1  0  0  0  0
  1 21  1  0  0  0  0
  1 22  1  0  0  0  0
  2 19  1  0  0  0  0
  2  3  2  0  0  0  0
  3  4  1  0  0  0  0
  3 23  1  0  0  0  0
  4  5  1  0  0  0  0
  4 18  2  0  0  0  0
  5  6  1  0  0  0  0
  5 24  1  0  0  0  0
  6  7  2  0  0  0  0
  6  8  1  0  0  0  0
  8  9  1  0  0  0  0
  9 10  1  0  0  0  0
  9 25  1  0  0  0  0
  9 26  1  0  0  0  0
 10 11  1  0  0  0  0
 10 27  1  0  0  0  0
 10 28  1  0  0  0  0
 11 17  1  0  0  0  0
 11 12  1  0  0  0  0
 11 41  1  0  0  0  0
 12 13  1  0  0  0  0
 12 29  1  0  0  0  0
 12 30  1  0  0  0  0
 13 14  1  0  0  0  0
 13 31  1  0  0  0  0
 13 32  1  0  0  0  0
 14 15  1  0  0  0  0
 14 33  1  0  0  0  0
 14 34  1  0  0  0  0
 15 16  1  0  0  0  0
 15 17  1  0  0  0  0
 15 35  1  0  0  0  0
 16 36  1  0  0  0  0
 16 37  1  0  0  0  0
 16 38  1  0  0  0  0
 17 39  1  0  0  0  0
 17 40  1  0  0  0  0
 18 19  1  0  0  0  0
M  CHG  1   8  -1
M  CHG  1  11   1
M  END
> <s_m_source_file>
AV-unprocessed.smi

> <i_m_source_file_index>
2078

> <i_lp_mmshare_version>
43012

> <i_f3d_flags>
0

> <s_epik_input>
W0NIM11jMVtjSF1jKG5vMSlbTkhdQyg9TylbTkhdW0NIMl1bQ0gyXU4yW0NIMl1bQ0gyXVtDSDJdW0NAQEhdKFtDSDNdKVtDSDJdMg==

> <s_epik_cmdline>
J2VwaWtfcHl0aG9uJywgJy1waCcsICc3LjAnLCAnLXRuJywgJzgnLCAnLW1hJywgJzIwMCcsICctbWV0YWxfYmluZGluZycsICctaW1hZScsICc8aW5maWxlLm1hZT4nLCAnLW9tYWUnLCAnPG91dGZpbGUubWFlPic=

> <r_epik_Ionization_Penalty>
6.76934

> <r_epik_Ionization_Penalty_Charging>
6.76934

> <r_epik_Ionization_Penalty_Neutral>
5.77849e-06

> <r_epik_State_Penalty>
6.79457

> <r_epik_Charging_Adjusted_Penalty>
13.5639

> <i_epik_Tot_Q>
0

> <i_epik_Tot_abs_Q>
2

> <r_epik_Metal_State_Penalty>
2.72837

> <b_epik_Metal_Only>
1

> <s_lp_Force_Field>
OPLS_2005

> <r_lp_Energy>
9.58201

> <b_lp_Chiralities_Consistent>
1

> <s_lp_Variant>
AV-unprocessed.smi:2078-12

> <Gold.Version>
5.8.1

> <Gold.Id.Protein>
6NUR|6NUR_protein|mol2

> <Gold.PLP.Fitness>
42.3459

> <Gold.PLP.PLP>
-30.5769

> <Gold.PLP.part.hbond>
-4.0000

> <Gold.PLP.part.metal>
0.0000

> <Gold.PLP.part.buried>
-3.0646

> <Gold.PLP.part.nonpolar>
-23.6299

> <Gold.PLP.part.repulsive>
0.0628

> <Gold.PLP.ligand.clash>
0.0000

> <Gold.PLP.ligand.torsion>
0.9436

> <Gold.PLP.Chemscore.Hbond>
4.5360

> <Gold.PLP.Chemscore.CHOScore>
0.0000

> <Gold.PLP.Chemscore.Metal>
0.0000

> <Gold.Chemscore.Hbonds>
donor molecule, donor type, donor heavy atom, donor atom, acceptor molecule, acceptor atom, score
      L1  H    11    41       P1  7948  2.00
      P1  H  6896  6907       L1     7  0.77
      P1  H  6931  6943       L1    19  0.02
      P1  H  6934  6947       L1    19  1.00

> <Gold.PLP.Chemscore.Internal.Correction>
0.0481

> <Gold.Rescore>
     Score         DG    S(hbond)    S(metal)    S(lipo)     H(rot)  DE(clash)    DE(int)     intcor
     17.28     -19.40       3.16        0.00      62.41       1.54       0.00       2.12       ----

> <Gold.Chemscore.Fitness>
17.2765

> <Gold.Chemscore.DG>
-19.3967

> <Gold.Chemscore.ZeroCoef>
-5.4800

> <Gold.Chemscore.Hbond>
3.1616

> <Gold.Chemscore.Metal>
0.0000

> <Gold.Chemscore.Lipo>
62.4058

> <Gold.Chemscore.Internal_Hbond>
0.0000

> <Gold.Chemscore.DEClash>
0.0030

> <Gold.Chemscore.DEInternal>
2.1171

> <Gold.Chemscore.Rot>
1.5409

> <Gold.Chemscore.Internal.Correction>
   9.000000E+99

> <Gold.Chemscore.Hbonds>
donor molecule, donor type, donor heavy atom, donor atom, acceptor molecule, acceptor atom, score
      L1  H    11    41       P1  7948  0.50
      P1  H  6896  6907       L1     7  0.55
      P1  H  6931  6943       L1    19  0.01
      P1  H  6934  6947       L1    19  0.84

> <Gold.Chemscore.Hbond.Weighted>
-10.5598

> <Gold.Chemscore.Metal.Weighted>
-0.0000

> <Gold.Chemscore.Lipo.Weighted>
-7.3015

> <Gold.Chemscore.Internal_Hbond.Weighted>
0.0000

> <Gold.Chemscore.DEClash.Weighted>
0.0030

> <Gold.Chemscore.DEInternal.Weighted>
2.1171

> <Gold.Chemscore.Rot.Weighted>
3.9446

> <Gold.Chemscore.Internal.Correction.Weighted>
   9.000000E+99

> <Gold.Protein.RotatedTorsions>
[ 6907 6896 6895 6894 ] final -133.86 input  -60.11 | X-H torsion
[ 7974 7965 7964 7962 ] final   38.32 input  175.53 | X-H torsion
[ 8008 7997 7996 7995 ] final -166.17 input   59.86 | X-H torsion
[ 10167 10162 10161 10158 ] final  150.23 input  -65.29 | X-H torsion
[ 10718 10713 10712 10709 ] final  -48.69 input   66.30 | X-H torsion
[ 10763 10752 10751 10750 ] final    1.72 input  -60.55 | X-H torsion
[ 11005 11000 10999 10996 ] final -163.57 input  -57.11 | X-H torsion

> <Gold.Protein.ActiveResidues>
 VAL166  LYS551  ARG553  GLY616  TRP617  ASP618  TYR619  PRO620  LYS621  CYS622 
 ASP623  PHE694  ASN695  SER759  ASP760  ASP761  ALA762  ILE779  LEU786  VAL792 
 PHE793  MET794  SER795  GLU796  ALA797  LYS798  CYS799  TRP800  GLU811  SER814 

> <Gold.Protein.RotatedAtoms>
  150.9790  133.6265  159.2725 H   0  0  0  0  0  0  0  0  0  0  0  0  # atno 6907 bound_to 6896
  151.3527  135.0886  159.9418 H   0  0  0  0  0  0  0  0  0  0  0  0  # atno 6908 bound_to 6896
  152.5209  133.9379  159.7667 H   0  0  0  0  0  0  0  0  0  0  0  0  # atno 6909 bound_to 6896
  146.1070  139.5786  142.9377 H   0  0  0  0  0  0  0  0  0  0  0  0  # atno 7974 bound_to 7965
  155.8600  140.0976  157.1619 H   0  0  0  0  0  0  0  0  0  0  0  0  # atno 8008 bound_to 7997
  154.3990  140.1367  156.4012 H   0  0  0  0  0  0  0  0  0  0  0  0  # atno 8009 bound_to 7997
  155.7867  140.3457  155.5329 H   0  0  0  0  0  0  0  0  0  0  0  0  # atno 8010 bound_to 7997
  139.4852  144.5539  151.7352 H   0  0  0  0  0  0  0  0  0  0  0  0  # atno 10167 bound_to 10162
  156.1964  130.4154  149.9301 H   0  0  0  0  0  0  0  0  0  0  0  0  # atno 10718 bound_to 10713
  153.3045  135.6958  153.7172 H   0  0  0  0  0  0  0  0  0  0  0  0  # atno 10763 bound_to 10752
  153.6074  135.3451  155.2967 H   0  0  0  0  0  0  0  0  0  0  0  0  # atno 10764 bound_to 10752
  154.8559  135.4355  154.2165 H   0  0  0  0  0  0  0  0  0  0  0  0  # atno 10765 bound_to 10752
  140.5966  134.4990  157.5200 H   0  0  0  0  0  0  0  0  0  0  0  0  # atno 11005 bound_to 11000
  145.5740  141.0391  143.2159 LP  0  0  0  0  0  0  0  0  0  0  0  0  # atno 17320 bound_to 7965
  144.7480  139.7270  143.7284 LP  0  0  0  0  0  0  0  0  0  0  0  0  # atno 17321 bound_to 7965
  140.5097  144.1044  150.5992 LP  0  0  0  0  0  0  0  0  0  0  0  0  # atno 17342 bound_to 10162
  140.3965  143.2725  151.9998 LP  0  0  0  0  0  0  0  0  0  0  0  0  # atno 17343 bound_to 10162
  156.7025  130.8938  151.3601 LP  0  0  0  0  0  0  0  0  0  0  0  0  # atno 17370 bound_to 10713
  157.6960  130.9282  150.0645 LP  0  0  0  0  0  0  0  0  0  0  0  0  # atno 17371 bound_to 10713
  139.9251  134.8073  156.1094 LP  0  0  0  0  0  0  0  0  0  0  0  0  # atno 17394 bound_to 11000
  141.0900  133.6718  156.2519 LP  0  0  0  0  0  0  0  0  0  0  0  0  # atno 17395 bound_to 11000

$$$$
