AV-unprocessed.smi:1762|AV-procd|sdf|7112|dock1
  -GOLD-   22720 8333D 1   1.00000     0.00000
 Structure written by MMmdl.
 53 54  0  0  0  0  0  0  0  0  2 V2000
  145.7438  131.7024  150.1014 C   0  0  0  0  0  0  0  0  0  0  0  0
  145.7467  132.6869  151.2759 C   0  0  1  0  0  0  0  0  0  0  0  0
  147.0968  133.4193  151.4146 C   0  0  0  0  0  0  0  0  0  0  0  0
  147.0642  134.4059  152.5293 N   0  3  2  0  0  0  0  0  0  0  0  0
  147.1180  133.8449  153.9262 C   0  0  2  0  0  0  0  0  0  0  0  0
  147.5066  134.9342  154.9484 C   0  0  0  0  0  0  0  0  0  0  0  0
  147.4906  134.6864  156.1545 O   0  0  0  0  0  0  0  0  0  0  0  0
  147.8510  136.1322  154.4503 N   0  0  0  0  0  0  0  0  0  0  0  0
  148.2447  137.2878  155.2471 C   0  0  0  0  0  0  0  0  0  0  0  0
  148.5018  138.5224  154.3676 C   0  0  0  0  0  0  0  0  0  0  0  0
  149.5675  139.4276  154.9555 C   0  0  0  0  0  0  0  0  0  0  0  0
  150.8900  138.9662  155.1271 C   0  0  0  0  0  0  0  0  0  0  0  0
  151.8382  139.8422  155.6904 C   0  0  0  0  0  0  0  0  0  0  0  0
  151.4290  141.1380  156.0597 C   0  0  0  0  0  0  0  0  0  0  0  0
  150.0838  141.5016  155.8493 C   0  0  0  0  0  0  0  0  0  0  0  0
  149.1666  140.6688  155.3111 N   0  0  0  0  0  0  0  0  0  0  0  0
  148.0459  132.5923  154.0761 C   0  0  0  0  0  0  0  0  0  0  0  0
  149.4648  132.8131  153.5146 C   0  0  0  0  0  0  0  0  0  0  0  0
  147.4466  131.2925  153.5003 C   0  0  0  0  0  0  0  0  0  0  0  0
  145.9364  135.3491  152.2771 C   0  0  0  0  0  0  0  0  0  0  0  0
  144.5977  134.5998  152.0971 C   0  0  1  0  0  0  0  0  0  0  0  0
  143.4512  135.5525  151.7417 C   0  0  0  0  0  0  0  0  0  0  0  0
  144.7268  133.6528  151.0416 O   0  0  0  0  0  0  0  0  0  0  0  0
  146.5030  130.9312  150.2338 H   0  0  0  0  0  0  0  0  0  0  0  0
  145.9441  132.2113  149.1580 H   0  0  0  0  0  0  0  0  0  0  0  0
  144.7779  131.2048  150.0121 H   0  0  0  0  0  0  0  0  0  0  0  0
  145.5206  132.1329  152.1880 H   0  0  0  0  0  0  0  0  0  0  0  0
  147.9231  132.7171  151.4978 H   0  0  0  0  0  0  0  0  0  0  0  0
  147.2966  133.9675  150.4926 H   0  0  0  0  0  0  0  0  0  0  0  0
  146.1110  133.5130  154.1792 H   0  0  0  0  0  0  0  0  0  0  0  0
  147.8336  136.2556  153.4481 H   0  0  0  0  0  0  0  0  0  0  0  0
  147.4824  137.5021  155.9982 H   0  0  0  0  0  0  0  0  0  0  0  0
  149.1526  137.0275  155.7922 H   0  0  0  0  0  0  0  0  0  0  0  0
  148.8062  138.2122  153.3669 H   0  0  0  0  0  0  0  0  0  0  0  0
  147.5823  139.0965  154.2422 H   0  0  0  0  0  0  0  0  0  0  0  0
  151.1726  137.9645  154.8378 H   0  0  0  0  0  0  0  0  0  0  0  0
  152.8600  139.5254  155.8380 H   0  0  0  0  0  0  0  0  0  0  0  0
  152.1285  141.8366  156.4948 H   0  0  0  0  0  0  0  0  0  0  0  0
  149.7352  142.4868  156.1215 H   0  0  0  0  0  0  0  0  0  0  0  0
  148.2124  132.4306  155.1401 H   0  0  0  0  0  0  0  0  0  0  0  0
  149.4702  132.8780  152.4259 H   0  0  0  0  0  0  0  0  0  0  0  0
  150.1235  131.9889  153.7901 H   0  0  0  0  0  0  0  0  0  0  0  0
  149.9076  133.7285  153.9079 H   0  0  0  0  0  0  0  0  0  0  0  0
  147.3575  131.3350  152.4147 H   0  0  0  0  0  0  0  0  0  0  0  0
  146.4566  131.0831  153.9041 H   0  0  0  0  0  0  0  0  0  0  0  0
  148.0790  130.4370  153.7389 H   0  0  0  0  0  0  0  0  0  0  0  0
  145.8470  136.1056  153.0558 H   0  0  0  0  0  0  0  0  0  0  0  0
  146.1615  135.9033  151.3646 H   0  0  0  0  0  0  0  0  0  0  0  0
  144.3285  134.0767  153.0153 H   0  0  0  0  0  0  0  0  0  0  0  0
  143.2978  136.2911  152.5291 H   0  0  0  0  0  0  0  0  0  0  0  0
  142.5161  135.0073  151.6121 H   0  0  0  0  0  0  0  0  0  0  0  0
  143.6547  136.0890  150.8145 H   0  0  0  0  0  0  0  0  0  0  0  0
  147.9107  134.9509  152.4422 H   0  0  0  0  0  0  0  0  0  0  0  0
  1  2  1  0  0  0  0
  1 24  1  0  0  0  0
  1 25  1  0  0  0  0
  1 26  1  0  0  0  0
  2 23  1  0  0  0  0
  2  3  1  0  0  0  0
  2 27  1  0  0  0  0
  3  4  1  0  0  0  0
  3 28  1  0  0  0  0
  3 29  1  0  0  0  0
  4  5  1  0  0  0  0
  4 20  1  0  0  0  0
  4 53  1  0  0  0  0
  5  6  1  0  0  0  0
  5 17  1  0  0  0  0
  5 30  1  0  0  0  0
  6  7  2  0  0  0  0
  6  8  1  0  0  0  0
  8  9  1  0  0  0  0
  8 31  1  0  0  0  0
  9 10  1  0  0  0  0
  9 32  1  0  0  0  0
  9 33  1  0  0  0  0
 10 11  1  0  0  0  0
 10 34  1  0  0  0  0
 10 35  1  0  0  0  0
 11 16  1  0  0  0  0
 11 12  2  0  0  0  0
 12 13  1  0  0  0  0
 12 36  1  0  0  0  0
 13 14  2  0  0  0  0
 13 37  1  0  0  0  0
 14 15  1  0  0  0  0
 14 38  1  0  0  0  0
 15 16  2  0  0  0  0
 15 39  1  0  0  0  0
 17 18  1  0  0  0  0
 17 19  1  0  0  0  0
 17 40  1  0  0  0  0
 18 41  1  0  0  0  0
 18 42  1  0  0  0  0
 18 43  1  0  0  0  0
 19 44  1  0  0  0  0
 19 45  1  0  0  0  0
 19 46  1  0  0  0  0
 20 21  1  0  0  0  0
 20 47  1  0  0  0  0
 20 48  1  0  0  0  0
 21 22  1  0  0  0  0
 21 23  1  0  0  0  0
 21 49  1  0  0  0  0
 22 50  1  0  0  0  0
 22 51  1  0  0  0  0
 22 52  1  0  0  0  0
M  CHG  1   4   1
M  END
> <s_m_source_file>
AV-unprocessed.smi

> <i_m_source_file_index>
1762

> <i_lp_mmshare_version>
43012

> <i_f3d_flags>
0

> <s_epik_input>
W0NIM11bQ0BASF0xW0NIMl1OKFtDSDJdW0NASF0oTzEpW0NIM10pW0NAQEhdKFtDSF0oW0NIM10pW0NIM10pQyg9TylbTkhdW0NIMl1bQ0gyXWMyW2NIXVtjSF1bY0hdW2NIXW4y

> <s_epik_cmdline>
J2VwaWtfcHl0aG9uJywgJy1waCcsICc3LjAnLCAnLXRuJywgJzgnLCAnLW1hJywgJzIwMCcsICctbWV0YWxfYmluZGluZycsICctaW1hZScsICc8aW5maWxlLm1hZT4nLCAnLW9tYWUnLCAnPG91dGZpbGUubWFlPic=

> <r_epik_Ionization_Penalty>
2.27005

> <r_epik_Ionization_Penalty_Charging>
2.24983

> <r_epik_Ionization_Penalty_Neutral>
0.0202209

> <r_epik_State_Penalty>
2.40228

> <r_epik_Charging_Adjusted_Penalty>
4.65211

> <i_epik_Tot_Q>
1

> <i_epik_Tot_abs_Q>
1

> <r_epik_Metal_State_Penalty>
2.40762

> <b_epik_Metal_Only>
0

> <s_lp_Force_Field>
OPLS_2005

> <r_lp_Energy>
22.1735

> <b_lp_Chiralities_Consistent>
1

> <s_lp_Variant>
AV-unprocessed.smi:1762-14

> <Gold.Version>
5.8.1

> <Gold.Id.Protein>
6NUR|6NUR_protein|mol2

> <Gold.PLP.Fitness>
43.9045

> <Gold.PLP.PLP>
-33.3192

> <Gold.PLP.part.hbond>
-2.0000

> <Gold.PLP.part.metal>
0.0000

> <Gold.PLP.part.buried>
-5.3717

> <Gold.PLP.part.nonpolar>
-25.9964

> <Gold.PLP.part.repulsive>
0.2265

> <Gold.PLP.ligand.clash>
0.0226

> <Gold.PLP.ligand.torsion>
0.7584

> <Gold.PLP.Chemscore.Hbond>
2.8640

> <Gold.PLP.Chemscore.CHOScore>
1.0000

> <Gold.PLP.Chemscore.Metal>
0.0000

> <Gold.Chemscore.Hbonds>
donor molecule, donor type, donor heavy atom, donor atom, acceptor molecule, acceptor atom, score
      L1  H     4    53       P1  7948  2.00
      L1  H     8    31       P1  7948  0.86
      L1  C    15    39       P1  8028  1.00

> <Gold.PLP.Chemscore.Internal.Correction>
0.5328

> <Gold.Rescore>
     Score         DG    S(hbond)    S(metal)    S(lipo)     H(rot)  DE(clash)    DE(int)     intcor
     16.61     -18.84       1.82        0.00      98.48       1.66       0.19       2.03       ----

> <Gold.Chemscore.Fitness>
16.6148

> <Gold.Chemscore.DG>
-18.8374

> <Gold.Chemscore.ZeroCoef>
-5.4800

> <Gold.Chemscore.Hbond>
1.8244

> <Gold.Chemscore.Metal>
0.0000

> <Gold.Chemscore.Lipo>
98.4844

> <Gold.Chemscore.Internal_Hbond>
0.0000

> <Gold.Chemscore.DEClash>
0.1948

> <Gold.Chemscore.DEInternal>
2.0277

> <Gold.Chemscore.Rot>
1.6635

> <Gold.Chemscore.Internal.Correction>
   9.000000E+99

> <Gold.Chemscore.Hbonds>
donor molecule, donor type, donor heavy atom, donor atom, acceptor molecule, acceptor atom, score
      L1  H     4    53       P1  7948  0.84
      L1  H     8    31       P1  7948  0.84

> <Gold.Chemscore.Hbond.Weighted>
-6.0933

> <Gold.Chemscore.Metal.Weighted>
-0.0000

> <Gold.Chemscore.Lipo.Weighted>
-11.5227

> <Gold.Chemscore.Internal_Hbond.Weighted>
0.0000

> <Gold.Chemscore.DEClash.Weighted>
0.1948

> <Gold.Chemscore.DEInternal.Weighted>
2.0277

> <Gold.Chemscore.Rot.Weighted>
4.2586

> <Gold.Chemscore.Internal.Correction.Weighted>
   9.000000E+99

> <Gold.Protein.RotatedTorsions>
[ 6907 6896 6895 6894 ] final  -98.14 input  -60.11 | X-H torsion
[ 7974 7965 7964 7962 ] final -100.45 input  175.53 | X-H torsion
[ 8008 7997 7996 7995 ] final  158.94 input   59.86 | X-H torsion
[ 10167 10162 10161 10158 ] final -112.04 input  -65.29 | X-H torsion
[ 10718 10713 10712 10709 ] final  -74.75 input   66.30 | X-H torsion
[ 10763 10752 10751 10750 ] final   55.38 input  -60.55 | X-H torsion
[ 11005 11000 10999 10996 ] final   96.07 input  -57.11 | X-H torsion

> <Gold.Protein.ActiveResidues>
 VAL166  LYS551  ARG553  GLY616  TRP617  ASP618  TYR619  PRO620  LYS621  CYS622 
 ASP623  PHE694  ASN695  SER759  ASP760  ASP761  ALA762  ILE779  LEU786  VAL792 
 PHE793  MET794  SER795  GLU796  ALA797  LYS798  CYS799  TRP800  GLU811  SER814 

> <Gold.Protein.RotatedAtoms>
  150.7037  134.1240  159.4044 H   0  0  0  0  0  0  0  0  0  0  0  0  # atno 6907 bound_to 6896
  151.9226  135.0289  160.0532 H   0  0  0  0  0  0  0  0  0  0  0  0  # atno 6908 bound_to 6896
  152.2243  133.4973  159.5217 H   0  0  0  0  0  0  0  0  0  0  0  0  # atno 6909 bound_to 6896
  145.2944  140.9361  143.2859 H   0  0  0  0  0  0  0  0  0  0  0  0  # atno 7974 bound_to 7965
  156.2271  140.1845  156.7336 H   0  0  0  0  0  0  0  0  0  0  0  0  # atno 8008 bound_to 7997
  154.5959  140.0643  156.9331 H   0  0  0  0  0  0  0  0  0  0  0  0  # atno 8009 bound_to 7997
  155.2256  140.3311  155.4312 H   0  0  0  0  0  0  0  0  0  0  0  0  # atno 8010 bound_to 7997
  140.1270  143.4393  152.1653 H   0  0  0  0  0  0  0  0  0  0  0  0  # atno 10167 bound_to 10162
  156.0231  130.4424  150.2939 H   0  0  0  0  0  0  0  0  0  0  0  0  # atno 10718 bound_to 10713
  152.9816  135.5713  154.5057 H   0  0  0  0  0  0  0  0  0  0  0  0  # atno 10763 bound_to 10752
  154.4569  135.2780  155.1743 H   0  0  0  0  0  0  0  0  0  0  0  0  # atno 10764 bound_to 10752
  154.3347  135.6242  153.5621 H   0  0  0  0  0  0  0  0  0  0  0  0  # atno 10765 bound_to 10752
  139.8784  134.8932  156.4105 H   0  0  0  0  0  0  0  0  0  0  0  0  # atno 11005 bound_to 11000
  144.9146  139.4486  143.6570 LP  0  0  0  0  0  0  0  0  0  0  0  0  # atno 17320 bound_to 7965
  146.3174  139.7973  142.8973 LP  0  0  0  0  0  0  0  0  0  0  0  0  # atno 17321 bound_to 7965
  139.5539  144.7358  151.4353 LP  0  0  0  0  0  0  0  0  0  0  0  0  # atno 17342 bound_to 10162
  140.6839  143.8019  150.7159 LP  0  0  0  0  0  0  0  0  0  0  0  0  # atno 17343 bound_to 10162
  157.1042  131.0204  151.3073 LP  0  0  0  0  0  0  0  0  0  0  0  0  # atno 17370 bound_to 10713
  157.4755  130.7734  149.7364 LP  0  0  0  0  0  0  0  0  0  0  0  0  # atno 17371 bound_to 10713
  140.9204  133.7649  155.9899 LP  0  0  0  0  0  0  0  0  0  0  0  0  # atno 17394 bound_to 11000
  140.8446  134.3026  157.5300 LP  0  0  0  0  0  0  0  0  0  0  0  0  # atno 17395 bound_to 11000

$$$$
