AV-unprocessed.smi:2463|AV-procd|sdf|9720|dock5
  -GOLD-   2272013363D 1   1.00000     0.00000
 Structure written by MMmdl.
 47 48  0  0  0  0  0  0  0  0  1 V2000
  144.8316  144.0614  154.4935 C   0  0  0  0  0  0  0  0  0  0  0  0
  145.8825  143.1182  153.8981 C   0  0  0  0  0  0  0  0  0  0  0  0
  146.5262  142.2131  154.9589 C   0  0  0  0  0  0  0  0  0  0  0  0
  147.0799  141.0078  154.3729 N   0  0  0  0  0  0  0  0  0  0  0  0
  146.4073  139.9790  153.7440 C   0  0  0  0  0  0  0  0  0  0  0  0
  147.3688  139.0822  153.3728 C   0  0  0  0  0  0  0  0  0  0  0  0
  147.2314  137.8472  152.6903 N   0  0  0  0  0  0  0  0  0  0  0  0
  146.0923  137.1949  152.4075 C   0  0  0  0  0  0  0  0  0  0  0  0
  144.9634  137.5735  152.7205 O   0  0  0  0  0  0  0  0  0  0  0  0
  146.3357  136.0605  151.7373 N   0  0  0  0  0  0  0  0  0  0  0  0
  145.3180  135.1073  151.2995 C   0  0  1  0  0  0  0  0  0  0  0  0
  145.9386  133.8200  150.7940 C   0  0  0  0  0  0  0  0  0  0  0  0
  144.8063  132.7993  150.9620 C   0  0  0  0  0  0  0  0  0  0  0  0
  143.9190  132.7133  149.7081 C   0  0  0  0  0  0  0  0  0  0  0  0
  145.3276  131.4109  151.3630 C   0  0  0  0  0  0  0  0  0  0  0  0
  143.9948  133.3030  152.0223 O   0  0  0  0  0  0  0  0  0  0  0  0
  144.3976  134.6086  152.4345 C   0  0  0  0  0  0  0  0  0  0  0  0
  145.1023  134.4396  153.7970 C   0  0  0  0  0  0  0  0  0  0  0  0
  143.1327  135.4687  152.5808 C   0  0  0  0  0  0  0  0  0  0  0  0
  148.6015  139.6328  153.8094 C   0  0  0  0  0  0  0  0  0  0  0  0
  148.4187  140.7964  154.4148 N   0  0  0  0  0  0  0  0  0  0  0  0
  144.3929  144.6922  153.7199 H   0  0  0  0  0  0  0  0  0  0  0  0
  145.2710  144.7156  155.2474 H   0  0  0  0  0  0  0  0  0  0  0  0
  144.0229  143.5016  154.9644 H   0  0  0  0  0  0  0  0  0  0  0  0
  145.4172  142.5058  153.1245 H   0  0  0  0  0  0  0  0  0  0  0  0
  146.6548  143.7077  153.4021 H   0  0  0  0  0  0  0  0  0  0  0  0
  147.3263  142.7447  155.4759 H   0  0  0  0  0  0  0  0  0  0  0  0
  145.7933  141.9301  155.7162 H   0  0  0  0  0  0  0  0  0  0  0  0
  145.3342  139.9847  153.6236 H   0  0  0  0  0  0  0  0  0  0  0  0
  148.0913  137.4164  152.3836 H   0  0  0  0  0  0  0  0  0  0  0  0
  147.2950  135.8296  151.5243 H   0  0  0  0  0  0  0  0  0  0  0  0
  144.7204  135.5333  150.4911 H   0  0  0  0  0  0  0  0  0  0  0  0
  146.2982  133.8976  149.7672 H   0  0  0  0  0  0  0  0  0  0  0  0
  146.7908  133.5468  151.4184 H   0  0  0  0  0  0  0  0  0  0  0  0
  144.4837  132.3493  148.8493 H   0  0  0  0  0  0  0  0  0  0  0  0
  143.5040  133.6861  149.4430 H   0  0  0  0  0  0  0  0  0  0  0  0
  143.0814  132.0332  149.8654 H   0  0  0  0  0  0  0  0  0  0  0  0
  145.9733  130.9936  150.5898 H   0  0  0  0  0  0  0  0  0  0  0  0
  144.5052  130.7128  151.5226 H   0  0  0  0  0  0  0  0  0  0  0  0
  145.9025  131.4559  152.2884 H   0  0  0  0  0  0  0  0  0  0  0  0
  145.4086  135.3997  154.2130 H   0  0  0  0  0  0  0  0  0  0  0  0
  145.9902  133.8122  153.7166 H   0  0  0  0  0  0  0  0  0  0  0  0
  144.4377  133.9697  154.5225 H   0  0  0  0  0  0  0  0  0  0  0  0
  143.3775  136.4822  152.8985 H   0  0  0  0  0  0  0  0  0  0  0  0
  142.4526  135.0452  153.3204 H   0  0  0  0  0  0  0  0  0  0  0  0
  142.5895  135.5373  151.6379 H   0  0  0  0  0  0  0  0  0  0  0  0
  149.6012  139.2363  153.7102 H   0  0  0  0  0  0  0  0  0  0  0  0
  1  2  1  0  0  0  0
  1 22  1  0  0  0  0
  1 23  1  0  0  0  0
  1 24  1  0  0  0  0
  2  3  1  0  0  0  0
  2 25  1  0  0  0  0
  2 26  1  0  0  0  0
  3  4  1  0  0  0  0
  3 27  1  0  0  0  0
  3 28  1  0  0  0  0
  4 21  1  0  0  0  0
  4  5  1  0  0  0  0
  5  6  2  0  0  0  0
  5 29  1  0  0  0  0
  6  7  1  0  0  0  0
  6 20  1  0  0  0  0
  7  8  1  0  0  0  0
  7 30  1  0  0  0  0
  8  9  2  0  0  0  0
  8 10  1  0  0  0  0
 10 11  1  0  0  0  0
 10 31  1  0  0  0  0
 11 17  1  0  0  0  0
 11 12  1  0  0  0  0
 11 32  1  0  0  0  0
 12 13  1  0  0  0  0
 12 33  1  0  0  0  0
 12 34  1  0  0  0  0
 13 14  1  0  0  0  0
 13 15  1  0  0  0  0
 13 16  1  0  0  0  0
 14 35  1  0  0  0  0
 14 36  1  0  0  0  0
 14 37  1  0  0  0  0
 15 38  1  0  0  0  0
 15 39  1  0  0  0  0
 15 40  1  0  0  0  0
 16 17  1  0  0  0  0
 17 18  1  0  0  0  0
 17 19  1  0  0  0  0
 18 41  1  0  0  0  0
 18 42  1  0  0  0  0
 18 43  1  0  0  0  0
 19 44  1  0  0  0  0
 19 45  1  0  0  0  0
 19 46  1  0  0  0  0
 20 21  2  0  0  0  0
 20 47  1  0  0  0  0
M  END
> <s_m_source_file>
AV-unprocessed.smi

> <i_m_source_file_index>
2463

> <i_lp_mmshare_version>
43012

> <i_f3d_flags>
0

> <s_epik_input>
W0NIM11bQ0gyXVtDSDJdbjFbY0hdYyhbY0hdbjEpW05IXUMoPU8pW05IXVtDQEBIXShDKE8yKShbQ0gzXSlbQ0gzXSlbQ0gyXUMyKFtDSDNdKVtDSDNd

> <s_epik_cmdline>
J2VwaWtfcHl0aG9uJywgJy1waCcsICc3LjAnLCAnLXRuJywgJzgnLCAnLW1hJywgJzIwMCcsICctbWV0YWxfYmluZGluZycsICctaW1hZScsICc8aW5maWxlLm1hZT4nLCAnLW9tYWUnLCAnPG91dGZpbGUubWFlPic=

> <r_lp_tautomer_probability>
1

> <r_epik_Ionization_Penalty>
3.69628e-05

> <r_epik_Ionization_Penalty_Charging>
0

> <r_epik_Ionization_Penalty_Neutral>
3.69628e-05

> <r_epik_State_Penalty>
-0

> <r_epik_Charging_Adjusted_Penalty>
0

> <i_epik_Tot_Q>
0

> <i_epik_Tot_abs_Q>
0

> <r_epik_Metal_State_Penalty>
-0

> <b_epik_Metal_Only>
0

> <s_lp_Force_Field>
OPLS_2005

> <r_lp_Energy>
21.7925

> <b_lp_Chiralities_Consistent>
1

> <s_lp_Variant>
AV-unprocessed.smi:2463-2

> <Gold.Version>
5.8.1

> <Gold.Id.Protein>
6NUR|6NUR_protein|mol2

> <Gold.PLP.Fitness>
43.2277

> <Gold.PLP.PLP>
-34.5036

> <Gold.PLP.part.hbond>
-1.8449

> <Gold.PLP.part.metal>
0.0000

> <Gold.PLP.part.buried>
-2.8821

> <Gold.PLP.part.nonpolar>
-31.1403

> <Gold.PLP.part.repulsive>
0.6336

> <Gold.PLP.ligand.clash>
0.0000

> <Gold.PLP.ligand.torsion>
0.2299

> <Gold.PLP.Chemscore.Hbond>
1.9280

> <Gold.PLP.Chemscore.CHOScore>
1.1258

> <Gold.PLP.Chemscore.Metal>
0.0000

> <Gold.Chemscore.Hbonds>
donor molecule, donor type, donor heavy atom, donor atom, acceptor molecule, acceptor atom, score
      L1  H     7    30       P1  7948  1.00
      L1  H    10    31       P1  7948  0.93
      L1  C     5    29       P1 10175  1.00
      L1  C    20    47       P1  7957  0.12

> <Gold.PLP.Chemscore.Internal.Correction>
0.0226

> <Gold.Rescore>
     Score         DG    S(hbond)    S(metal)    S(lipo)     H(rot)  DE(clash)    DE(int)     intcor
     14.74     -18.09       1.90        0.00      81.57       1.29       0.08       3.27       ----

> <Gold.Chemscore.Fitness>
14.7446

> <Gold.Chemscore.DG>
-18.0926

> <Gold.Chemscore.ZeroCoef>
-5.4800

> <Gold.Chemscore.Hbond>
1.9044

> <Gold.Chemscore.Metal>
0.0000

> <Gold.Chemscore.Lipo>
81.5706

> <Gold.Chemscore.Internal_Hbond>
0.0000

> <Gold.Chemscore.DEClash>
0.0799

> <Gold.Chemscore.DEInternal>
3.2681

> <Gold.Chemscore.Rot>
1.2859

> <Gold.Chemscore.Internal.Correction>
   9.000000E+99

> <Gold.Chemscore.Hbonds>
donor molecule, donor type, donor heavy atom, donor atom, acceptor molecule, acceptor atom, score
      L1  H     7    30       P1  7948  0.93
      L1  H    10    31       P1  7948  0.89

> <Gold.Chemscore.Hbond.Weighted>
-6.3607

> <Gold.Chemscore.Metal.Weighted>
-0.0000

> <Gold.Chemscore.Lipo.Weighted>
-9.5438

> <Gold.Chemscore.Internal_Hbond.Weighted>
0.0000

> <Gold.Chemscore.DEClash.Weighted>
0.0799

> <Gold.Chemscore.DEInternal.Weighted>
3.2681

> <Gold.Chemscore.Rot.Weighted>
3.2919

> <Gold.Chemscore.Internal.Correction.Weighted>
   9.000000E+99

> <Gold.Protein.RotatedTorsions>
[ 6907 6896 6895 6894 ] final   13.64 input  -60.11 | X-H torsion
[ 7974 7965 7964 7962 ] final  -18.54 input  175.53 | X-H torsion
[ 8008 7997 7996 7995 ] final   16.34 input   59.86 | X-H torsion
[ 10167 10162 10161 10158 ] final  117.66 input  -65.29 | X-H torsion
[ 10718 10713 10712 10709 ] final  114.25 input   66.30 | X-H torsion
[ 10763 10752 10751 10750 ] final  -49.49 input  -60.55 | X-H torsion
[ 11005 11000 10999 10996 ] final  -73.63 input  -57.11 | X-H torsion

> <Gold.Protein.ActiveResidues>
 VAL166  LYS551  ARG553  GLY616  TRP617  ASP618  TYR619  PRO620  LYS621  CYS622 
 ASP623  PHE694  ASN695  SER759  ASP760  ASP761  ALA762  ILE779  LEU786  VAL792 
 PHE793  MET794  SER795  GLU796  ALA797  LYS798  CYS799  TRP800  GLU811  SER814 

> <Gold.Protein.RotatedAtoms>
  151.7895  135.0740  160.0384 H   0  0  0  0  0  0  0  0  0  0  0  0  # atno 6907 bound_to 6896
  152.3167  133.5805  159.5725 H   0  0  0  0  0  0  0  0  0  0  0  0  # atno 6908 bound_to 6896
  150.7348  133.9989  159.3673 H   0  0  0  0  0  0  0  0  0  0  0  0  # atno 6909 bound_to 6896
  146.1887  140.3935  142.8466 H   0  0  0  0  0  0  0  0  0  0  0  0  # atno 7974 bound_to 7965
  154.8756  140.2965  155.5455 H   0  0  0  0  0  0  0  0  0  0  0  0  # atno 8008 bound_to 7997
  156.3022  140.2452  156.3685 H   0  0  0  0  0  0  0  0  0  0  0  0  # atno 8009 bound_to 7997
  154.8771  140.0399  157.1749 H   0  0  0  0  0  0  0  0  0  0  0  0  # atno 8010 bound_to 7997
  139.6164  144.7092  151.2731 H   0  0  0  0  0  0  0  0  0  0  0  0  # atno 10167 bound_to 10162
  157.6292  131.0996  150.7158 H   0  0  0  0  0  0  0  0  0  0  0  0  # atno 10718 bound_to 10713
  154.0950  135.6572  153.4858 H   0  0  0  0  0  0  0  0  0  0  0  0  # atno 10763 bound_to 10752
  153.0308  135.5211  154.7343 H   0  0  0  0  0  0  0  0  0  0  0  0  # atno 10764 bound_to 10752
  154.6478  135.2997  154.9993 H   0  0  0  0  0  0  0  0  0  0  0  0  # atno 10765 bound_to 10752
  141.1625  133.6884  156.7240 H   0  0  0  0  0  0  0  0  0  0  0  0  # atno 11005 bound_to 11000
  144.8445  140.6908  143.6208 LP  0  0  0  0  0  0  0  0  0  0  0  0  # atno 17320 bound_to 7965
  145.3860  139.1626  143.4255 LP  0  0  0  0  0  0  0  0  0  0  0  0  # atno 17321 bound_to 7965
  140.7353  143.6740  150.8058 LP  0  0  0  0  0  0  0  0  0  0  0  0  # atno 17342 bound_to 10162
  140.0343  143.5411  152.2746 LP  0  0  0  0  0  0  0  0  0  0  0  0  # atno 17343 bound_to 10162
  156.7500  130.4766  149.5458 LP  0  0  0  0  0  0  0  0  0  0  0  0  # atno 17370 bound_to 10713
  156.1484  130.6293  151.0563 LP  0  0  0  0  0  0  0  0  0  0  0  0  # atno 17371 bound_to 10713
  140.2794  134.8328  157.3920 LP  0  0  0  0  0  0  0  0  0  0  0  0  # atno 17394 bound_to 11000
  140.1447  134.4927  155.8005 LP  0  0  0  0  0  0  0  0  0  0  0  0  # atno 17395 bound_to 11000

$$$$
