AV-unprocessed.smi:2973|AV-procd|sdf|11348|dock10
  -GOLD-   2272016263D 1   1.00000     0.00000
 Structure written by MMmdl.
 48 50  0  0  0  0  0  0  0  0  2 V2000
  148.6528  142.2935  158.4871 C   0  0  0  0  0  0  0  0  0  0  0  0
  149.7839  143.3250  158.2796 C   0  0  1  0  0  0  0  0  0  0  0  0
  150.1507  143.9815  159.6293 C   0  0  0  0  0  0  0  0  0  0  0  0
  151.2183  145.0729  159.4658 C   0  0  0  0  0  0  0  0  0  0  0  0
  152.4788  144.5195  158.7898 C   0  0  0  0  0  0  0  0  0  0  0  0
  152.1389  143.8716  157.4363 C   0  0  0  0  0  0  0  0  0  0  0  0
  151.0449  142.7738  157.5326 C   0  0  2  0  0  0  0  0  0  0  0  0
  150.6924  142.3581  156.1860 N   0  5  0  0  0  0  0  0  0  0  0  0
  151.0027  141.0507  156.0287 C   0  0  0  0  0  0  0  0  0  0  0  0
  150.8473  140.3754  155.0116 O   0  0  0  0  0  0  0  0  0  0  0  0
  151.5232  140.5385  157.1593 N   0  0  0  0  0  0  0  0  0  0  0  0
  151.9799  139.1517  157.3187 C   0  0  0  0  0  0  0  0  0  0  0  0
  151.0905  138.3284  158.2603 C   0  0  0  0  0  0  0  0  0  0  0  0
  151.0141  138.5991  159.4595 O   0  0  0  0  0  0  0  0  0  0  0  0
  150.4020  137.3290  157.6892 N   0  0  0  0  0  0  0  0  0  0  0  0
  149.5006  136.4244  158.3922 C   0  0  0  0  0  0  0  0  0  0  0  0
  148.4377  137.1924  159.1954 C   0  0  0  0  0  0  0  0  0  0  0  0
  148.0233  136.4501  160.4513 C   0  0  0  0  0  0  0  0  0  0  0  0
  147.8356  135.0514  160.4323 C   0  0  0  0  0  0  0  0  0  0  0  0
  147.4595  134.4086  161.6277 C   0  0  0  0  0  0  0  0  0  0  0  0
  147.2885  135.1848  162.7904 C   0  0  0  0  0  0  0  0  0  0  0  0
  147.5019  136.5752  162.7053 C   0  0  0  0  0  0  0  0  0  0  0  0
  147.8627  137.2013  161.5644 N   0  0  0  0  0  0  0  0  0  0  0  0
  151.5993  141.4737  158.1125 C   0  0  0  0  0  0  0  0  0  0  0  0
  152.0309  141.3344  159.2579 O   0  0  0  0  0  0  0  0  0  0  0  0
  148.9603  141.4799  159.1443 H   0  0  0  0  0  0  0  0  0  0  0  0
  148.3287  141.8556  157.5430 H   0  0  0  0  0  0  0  0  0  0  0  0
  147.7786  142.7628  158.9385 H   0  0  0  0  0  0  0  0  0  0  0  0
  149.3645  144.1151  157.6541 H   0  0  0  0  0  0  0  0  0  0  0  0
  149.2597  144.4206  160.0791 H   0  0  0  0  0  0  0  0  0  0  0  0
  150.5026  143.2278  160.3340 H   0  0  0  0  0  0  0  0  0  0  0  0
  150.8143  145.8924  158.8701 H   0  0  0  0  0  0  0  0  0  0  0  0
  151.4726  145.4936  160.4390 H   0  0  0  0  0  0  0  0  0  0  0  0
  153.1996  145.3237  158.6407 H   0  0  0  0  0  0  0  0  0  0  0  0
  152.9637  143.7969  159.4460 H   0  0  0  0  0  0  0  0  0  0  0  0
  151.8071  144.6548  156.7526 H   0  0  0  0  0  0  0  0  0  0  0  0
  153.0511  143.4636  156.9967 H   0  0  0  0  0  0  0  0  0  0  0  0
  152.0128  138.6490  156.3509 H   0  0  0  0  0  0  0  0  0  0  0  0
  153.0068  139.1458  157.6888 H   0  0  0  0  0  0  0  0  0  0  0  0
  150.5216  137.1781  156.6982 H   0  0  0  0  0  0  0  0  0  0  0  0
  149.0161  135.7895  157.6499 H   0  0  0  0  0  0  0  0  0  0  0  0
  150.0711  135.7606  159.0444 H   0  0  0  0  0  0  0  0  0  0  0  0
  148.8141  138.1767  159.4780 H   0  0  0  0  0  0  0  0  0  0  0  0
  147.5572  137.3687  158.5760 H   0  0  0  0  0  0  0  0  0  0  0  0
  147.9777  134.4829  159.5246 H   0  0  0  0  0  0  0  0  0  0  0  0
  147.3061  133.3398  161.6525 H   0  0  0  0  0  0  0  0  0  0  0  0
  147.0013  134.7263  163.7251 H   0  0  0  0  0  0  0  0  0  0  0  0
  147.3797  137.2010  163.5772 H   0  0  0  0  0  0  0  0  0  0  0  0
  1  2  1  0  0  0  0
  1 26  1  0  0  0  0
  1 27  1  0  0  0  0
  1 28  1  0  0  0  0
  2  7  1  0  0  0  0
  2  3  1  0  0  0  0
  2 29  1  0  0  0  0
  3  4  1  0  0  0  0
  3 30  1  0  0  0  0
  3 31  1  0  0  0  0
  4  5  1  0  0  0  0
  4 32  1  0  0  0  0
  4 33  1  0  0  0  0
  5  6  1  0  0  0  0
  5 34  1  0  0  0  0
  5 35  1  0  0  0  0
  6  7  1  0  0  0  0
  6 36  1  0  0  0  0
  6 37  1  0  0  0  0
  7 24  1  0  0  0  0
  7  8  1  0  0  0  0
  8  9  1  0  0  0  0
  9 10  2  0  0  0  0
  9 11  1  0  0  0  0
 11 12  1  0  0  0  0
 11 24  1  0  0  0  0
 12 13  1  0  0  0  0
 12 38  1  0  0  0  0
 12 39  1  0  0  0  0
 13 14  2  0  0  0  0
 13 15  1  0  0  0  0
 15 16  1  0  0  0  0
 15 40  1  0  0  0  0
 16 17  1  0  0  0  0
 16 41  1  0  0  0  0
 16 42  1  0  0  0  0
 17 18  1  0  0  0  0
 17 43  1  0  0  0  0
 17 44  1  0  0  0  0
 18 23  1  0  0  0  0
 18 19  2  0  0  0  0
 19 20  1  0  0  0  0
 19 45  1  0  0  0  0
 20 21  2  0  0  0  0
 20 46  1  0  0  0  0
 21 22  1  0  0  0  0
 21 47  1  0  0  0  0
 22 23  2  0  0  0  0
 22 48  1  0  0  0  0
 24 25  2  0  0  0  0
M  CHG  1   8  -1
M  END
> <s_m_source_file>
AV-unprocessed.smi

> <i_m_source_file_index>
2973

> <i_lp_mmshare_version>
43012

> <i_f3d_flags>
0

> <s_epik_input>
W0NIMl0xW0NIMl1bQ0gyXVtDSDJdW0NAQEhdKFtDSDNdKVtDQF0xMltOSF1DKD1PKU4oQzI9TylbQ0gyXUMoPU8pW05IXVtDSDJdW0NIMl1jM1tjSF1bY0hdW2NIXVtjSF1uMw==

> <s_epik_cmdline>
J2VwaWtfcHl0aG9uJywgJy1waCcsICc3LjAnLCAnLXRuJywgJzgnLCAnLW1hJywgJzIwMCcsICctbWV0YWxfYmluZGluZycsICctaW1hZScsICc8aW5maWxlLm1hZT4nLCAnLW9tYWUnLCAnPG91dGZpbGUubWFlPic=

> <r_lp_tautomer_probability>
1

> <r_epik_Ionization_Penalty>
6.04175

> <r_epik_Ionization_Penalty_Charging>
6.01728

> <r_epik_Ionization_Penalty_Neutral>
0.0244696

> <r_epik_State_Penalty>
6.03712

> <r_epik_Charging_Adjusted_Penalty>
12.0544

> <i_epik_Tot_Q>
-1

> <i_epik_Tot_abs_Q>
1

> <r_epik_Metal_State_Penalty>
2.01153

> <b_epik_Metal_Only>
1

> <s_lp_Force_Field>
OPLS_2005

> <r_lp_Energy>
9.40787

> <b_lp_Chiralities_Consistent>
1

> <s_lp_Variant>
AV-unprocessed.smi:2973-12

> <Gold.Version>
5.8.1

> <Gold.Id.Protein>
6NUR|6NUR_protein|mol2

> <Gold.PLP.Fitness>
54.1073

> <Gold.PLP.PLP>
-47.2734

> <Gold.PLP.part.hbond>
-4.0000

> <Gold.PLP.part.metal>
0.0000

> <Gold.PLP.part.buried>
-4.6553

> <Gold.PLP.part.nonpolar>
-40.1338

> <Gold.PLP.part.repulsive>
0.9453

> <Gold.PLP.ligand.clash>
0.0000

> <Gold.PLP.ligand.torsion>
0.6127

> <Gold.PLP.Chemscore.Hbond>
2.6820

> <Gold.PLP.Chemscore.CHOScore>
0.0000

> <Gold.PLP.Chemscore.Metal>
0.0000

> <Gold.Chemscore.Hbonds>
donor molecule, donor type, donor heavy atom, donor atom, acceptor molecule, acceptor atom, score
      P1  H  6931  6943       L1    23  1.00
      P1  H  6934  6947       L1    23  0.68
      P1  H  7989  7998       L1    10  1.00

> <Gold.PLP.Chemscore.Internal.Correction>
0.0134

> <Gold.Rescore>
     Score         DG    S(hbond)    S(metal)    S(lipo)     H(rot)  DE(clash)    DE(int)     intcor
     17.24     -21.44       2.30        0.00     110.40       1.81       1.38       2.81       ----

> <Gold.Chemscore.Fitness>
17.2448

> <Gold.Chemscore.DG>
-21.4361

> <Gold.Chemscore.ZeroCoef>
-5.4800

> <Gold.Chemscore.Hbond>
2.2964

> <Gold.Chemscore.Metal>
0.0000

> <Gold.Chemscore.Lipo>
110.4029

> <Gold.Chemscore.Internal_Hbond>
0.0000

> <Gold.Chemscore.DEClash>
1.3798

> <Gold.Chemscore.DEInternal>
2.8114

> <Gold.Chemscore.Rot>
1.8090

> <Gold.Chemscore.Internal.Correction>
   9.000000E+99

> <Gold.Chemscore.Hbonds>
donor molecule, donor type, donor heavy atom, donor atom, acceptor molecule, acceptor atom, score
      P1  H  6931  6943       L1    23  0.59
      P1  H  6934  6947       L1    23  0.38
      P1  H  7989  7998       L1    10  0.95

> <Gold.Chemscore.Hbond.Weighted>
-7.6699

> <Gold.Chemscore.Metal.Weighted>
-0.0000

> <Gold.Chemscore.Lipo.Weighted>
-12.9171

> <Gold.Chemscore.Internal_Hbond.Weighted>
0.0000

> <Gold.Chemscore.DEClash.Weighted>
1.3798

> <Gold.Chemscore.DEInternal.Weighted>
2.8114

> <Gold.Chemscore.Rot.Weighted>
4.6310

> <Gold.Chemscore.Internal.Correction.Weighted>
   9.000000E+99

> <Gold.Protein.RotatedTorsions>
[ 6907 6896 6895 6894 ] final   20.39 input  -60.11 | X-H torsion
[ 7974 7965 7964 7962 ] final  110.04 input  175.53 | X-H torsion
[ 8008 7997 7996 7995 ] final  -28.20 input   59.86 | X-H torsion
[ 10167 10162 10161 10158 ] final   -0.89 input  -65.29 | X-H torsion
[ 10718 10713 10712 10709 ] final  -97.82 input   66.30 | X-H torsion
[ 10763 10752 10751 10750 ] final  -94.09 input  -60.55 | X-H torsion
[ 11005 11000 10999 10996 ] final  -98.63 input  -57.11 | X-H torsion

> <Gold.Protein.ActiveResidues>
 VAL166  LYS551  ARG553  GLY616  TRP617  ASP618  TYR619  PRO620  LYS621  CYS622 
 ASP623  PHE694  ASN695  SER759  ASP760  ASP761  ALA762  ILE779  LEU786  VAL792 
 PHE793  MET794  SER795  GLU796  ALA797  LYS798  CYS799  TRP800  GLU811  SER814 

> <Gold.Protein.RotatedAtoms>
  151.8957  135.0398  160.0501 H   0  0  0  0  0  0  0  0  0  0  0  0  # atno 6907 bound_to 6896
  152.2399  133.5122  159.5272 H   0  0  0  0  0  0  0  0  0  0  0  0  # atno 6908 bound_to 6896
  150.7050  134.1019  159.4011 H   0  0  0  0  0  0  0  0  0  0  0  0  # atno 6909 bound_to 6896
  145.2601  139.2706  143.4021 H   0  0  0  0  0  0  0  0  0  0  0  0  # atno 7974 bound_to 7965
  154.4342  140.1851  156.1053 H   0  0  0  0  0  0  0  0  0  0  0  0  # atno 8008 bound_to 7997
  156.0260  140.3335  155.7064 H   0  0  0  0  0  0  0  0  0  0  0  0  # atno 8009 bound_to 7997
  155.5907  140.0630  157.2750 H   0  0  0  0  0  0  0  0  0  0  0  0  # atno 8010 bound_to 7997
  140.6787  143.6841  150.8081 H   0  0  0  0  0  0  0  0  0  0  0  0  # atno 10167 bound_to 10162
  156.0092  130.5211  150.6431 H   0  0  0  0  0  0  0  0  0  0  0  0  # atno 10718 bound_to 10713
  154.7022  135.5170  153.8543 H   0  0  0  0  0  0  0  0  0  0  0  0  # atno 10763 bound_to 10752
  153.0713  135.6602  154.0251 H   0  0  0  0  0  0  0  0  0  0  0  0  # atno 10764 bound_to 10752
  154.0108  135.3002  155.3372 H   0  0  0  0  0  0  0  0  0  0  0  0  # atno 10765 bound_to 10752
  141.1338  133.8260  157.0865 H   0  0  0  0  0  0  0  0  0  0  0  0  # atno 11005 bound_to 11000
  146.3278  140.3015  142.8621 LP  0  0  0  0  0  0  0  0  0  0  0  0  # atno 17320 bound_to 7965
  144.9426  140.8094  143.5621 LP  0  0  0  0  0  0  0  0  0  0  0  0  # atno 17321 bound_to 7965
  140.0538  143.5223  152.2661 LP  0  0  0  0  0  0  0  0  0  0  0  0  # atno 17342 bound_to 10162
  139.6095  144.7605  151.2985 LP  0  0  0  0  0  0  0  0  0  0  0  0  # atno 17343 bound_to 10162
  157.4207  131.0836  151.1133 LP  0  0  0  0  0  0  0  0  0  0  0  0  # atno 17370 bound_to 10713
  157.1736  130.6278  149.5648 LP  0  0  0  0  0  0  0  0  0  0  0  0  # atno 17371 bound_to 10713
  140.0419  134.9850  157.0977 LP  0  0  0  0  0  0  0  0  0  0  0  0  # atno 17394 bound_to 11000
  140.4123  134.1968  155.7163 LP  0  0  0  0  0  0  0  0  0  0  0  0  # atno 17395 bound_to 11000

$$$$
