AV-unprocessed.smi:40|AV-procd|sdf|380|dock5
  -GOLD-   2262016233D 1   1.00000     0.00000
 Structure written by MMmdl.
 47 48  0  0  0  0  0  0  0  0  1 V2000
  152.2231  144.5813  158.5172 C   0  0  0  0  0  0  0  0  0  0  0  0
  151.6219  143.8201  159.7037 C   0  0  0  0  0  0  0  0  0  0  0  0
  152.3978  142.5371  160.0314 C   0  0  0  0  0  0  0  0  0  0  0  0
  152.0678  141.3833  159.0704 C   0  0  0  0  0  0  0  0  0  0  0  0
  153.1370  140.2823  159.0619 C   0  0  0  0  0  0  0  0  0  0  0  0
  152.9593  139.4696  157.9139 O   0  0  0  0  0  0  0  0  0  0  0  0
  152.1396  138.4042  157.9473 C   0  0  0  0  0  0  0  0  0  0  0  0
  151.4586  138.0900  158.9232 O   0  0  0  0  0  0  0  0  0  0  0  0
  152.1339  137.6944  156.6779 N   0  0  0  0  0  0  0  0  0  0  0  0
  151.4435  136.5831  156.3191 C   0  0  0  0  0  0  0  0  0  0  0  0
  151.6018  135.4159  156.9205 N   0  0  0  0  0  0  0  0  0  0  0  0
  150.9136  134.2781  156.5955 C   0  0  0  0  0  0  0  0  0  0  0  0
  151.1976  133.2203  157.1544 O   0  0  0  0  0  0  0  0  0  0  0  0
  149.9001  134.3835  155.6030 N   0  0  0  0  0  0  0  0  0  0  0  0
  149.1247  133.1534  155.1293 C   0  0  1  0  0  0  0  0  0  0  0  0
  147.9440  133.5475  154.4864 O   0  0  0  0  0  0  0  0  0  0  0  0
  148.1438  133.6134  153.0842 C   0  0  2  0  0  0  0  0  0  0  0  0
  146.8151  133.7294  152.3228 C   0  0  0  0  0  0  0  0  0  0  0  0
  148.9690  132.3527  152.8373 C   0  0  2  0  0  0  0  0  0  0  0  0
  148.1353  131.2057  152.7959 O   0  0  0  0  0  0  0  0  0  0  0  0
  149.9085  132.3623  154.0430 C   0  0  2  0  0  0  0  0  0  0  0  0
  150.2822  131.0602  154.4542 O   0  0  0  0  0  0  0  0  0  0  0  0
  149.7669  135.5897  154.9236 C   0  0  0  0  0  0  0  0  0  0  0  0
  150.4756  136.6912  155.2520 C   0  0  0  0  0  0  0  0  0  0  0  0
  150.2925  137.8479  154.5917 F   0  0  0  0  0  0  0  0  0  0  0  0
  148.9094  132.5923  156.0396 H   0  0  0  0  0  0  0  0  0  0  0  0
  148.7550  134.4920  152.8680 H   0  0  0  0  0  0  0  0  0  0  0  0
  149.5192  132.4073  151.8973 H   0  0  0  0  0  0  0  0  0  0  0  0
  150.8001  132.9087  153.7379 H   0  0  0  0  0  0  0  0  0  0  0  0
  151.6516  145.4852  158.3055 H   0  0  0  0  0  0  0  0  0  0  0  0
  152.2217  143.9681  157.6153 H   0  0  0  0  0  0  0  0  0  0  0  0
  153.2523  144.8779  158.7204 H   0  0  0  0  0  0  0  0  0  0  0  0
  151.6025  144.4712  160.5783 H   0  0  0  0  0  0  0  0  0  0  0  0
  150.5836  143.5721  159.4795 H   0  0  0  0  0  0  0  0  0  0  0  0
  153.4660  142.7516  159.9929 H   0  0  0  0  0  0  0  0  0  0  0  0
  152.1829  142.2311  161.0558 H   0  0  0  0  0  0  0  0  0  0  0  0
  151.1111  140.9435  159.3533 H   0  0  0  0  0  0  0  0  0  0  0  0
  151.9402  141.7698  158.0586 H   0  0  0  0  0  0  0  0  0  0  0  0
  154.1364  140.7193  159.0581 H   0  0  0  0  0  0  0  0  0  0  0  0
  153.0470  139.6734  159.9627 H   0  0  0  0  0  0  0  0  0  0  0  0
  152.7451  138.0946  155.9810 H   0  0  0  0  0  0  0  0  0  0  0  0
  146.9788  133.7083  151.2451 H   0  0  0  0  0  0  0  0  0  0  0  0
  146.3151  134.6673  152.5649 H   0  0  0  0  0  0  0  0  0  0  0  0
  146.1305  132.9199  152.5763 H   0  0  0  0  0  0  0  0  0  0  0  0
  148.1476  130.8611  151.9159 H   0  0  0  0  0  0  0  0  0  0  0  0
  149.5997  130.4571  154.2025 H   0  0  0  0  0  0  0  0  0  0  0  0
  149.0832  135.6752  154.0922 H   0  0  0  0  0  0  0  0  0  0  0  0
  1  2  1  0  0  0  0
  1 30  1  0  0  0  0
  1 31  1  0  0  0  0
  1 32  1  0  0  0  0
  2  3  1  0  0  0  0
  2 33  1  0  0  0  0
  2 34  1  0  0  0  0
  3  4  1  0  0  0  0
  3 35  1  0  0  0  0
  3 36  1  0  0  0  0
  4  5  1  0  0  0  0
  4 37  1  0  0  0  0
  4 38  1  0  0  0  0
  5  6  1  0  0  0  0
  5 39  1  0  0  0  0
  5 40  1  0  0  0  0
  6  7  1  0  0  0  0
  7  8  2  0  0  0  0
  7  9  1  0  0  0  0
  9 10  1  0  0  0  0
  9 41  1  0  0  0  0
 10 24  1  0  0  0  0
 10 11  2  0  0  0  0
 11 12  1  0  0  0  0
 12 13  2  0  0  0  0
 12 14  1  0  0  0  0
 14 15  1  0  0  0  0
 14 23  1  0  0  0  0
 15 26  1  0  0  0  0
 15 21  1  0  0  0  0
 15 16  1  0  0  0  0
 16 17  1  0  0  0  0
 17 27  1  0  0  0  0
 17 18  1  0  0  0  0
 17 19  1  0  0  0  0
 18 42  1  0  0  0  0
 18 43  1  0  0  0  0
 18 44  1  0  0  0  0
 19 28  1  0  0  0  0
 19 20  1  0  0  0  0
 19 21  1  0  0  0  0
 20 45  1  0  0  0  0
 21 29  1  0  0  0  0
 21 22  1  0  0  0  0
 22 46  1  0  0  0  0
 23 24  2  0  0  0  0
 23 47  1  0  0  0  0
 24 25  1  0  0  0  0
M  END
> <s_m_source_file>
AV-unprocessed.smi

> <i_m_source_file_index>
40

> <i_lp_mmshare_version>
43012

> <i_f3d_flags>
0

> <s_epik_input>
W0NIM11bQ0gyXVtDSDJdW0NIMl1bQ0gyXU9DKD1PKVtOSF1jMW5jKD1PKW4oW2NIXWMxRilbQ0BASF0yT1tDQEhdKFtDSDNdKVtDQEBIXShbT0hdKVtDQEhdMltPSF0=

> <s_epik_cmdline>
J2VwaWtfcHl0aG9uJywgJy1waCcsICc3LjAnLCAnLXRuJywgJzgnLCAnLW1hJywgJzIwMCcsICctbWV0YWxfYmluZGluZycsICctaW1hZScsICc8aW5maWxlLm1hZT4nLCAnLW9tYWUnLCAnPG91dGZpbGUubWFlPic=

> <r_lp_tautomer_probability>
1

> <r_epik_Ionization_Penalty>
2.29506e-06

> <r_epik_Ionization_Penalty_Charging>
8.26867e-09

> <r_epik_Ionization_Penalty_Neutral>
2.2868e-06

> <r_epik_State_Penalty>
-0

> <r_epik_Charging_Adjusted_Penalty>
8.26867e-09

> <i_epik_Tot_Q>
0

> <i_epik_Tot_abs_Q>
0

> <r_epik_Metal_State_Penalty>
-0

> <b_epik_Metal_Only>
0

> <s_epik_Chemistry_Notes>
This compound has an ester and may undergo hydrolysis at high or low pH. This compound contains an acetal/aminal-like group ( X-CH(R)-Y where X, Y are N, S, or O) that may be acid/base labile, releasing an aldehyde.

> <s_lp_Force_Field>
OPLS_2005

> <r_lp_Energy>
41.2702

> <b_lp_Chiralities_Consistent>
1

> <s_lp_Variant>
AV-unprocessed.smi:40-14

> <Gold.Version>
5.8.1

> <Gold.Id.Protein>
6NUR|6NUR_protein|mol2

> <Gold.PLP.Fitness>
44.0760

> <Gold.PLP.PLP>
-38.9916

> <Gold.PLP.part.hbond>
-3.8581

> <Gold.PLP.part.metal>
0.0000

> <Gold.PLP.part.buried>
-2.0325

> <Gold.PLP.part.nonpolar>
-32.9563

> <Gold.PLP.part.repulsive>
0.1680

> <Gold.PLP.ligand.clash>
0.0000

> <Gold.PLP.ligand.torsion>
1.6520

> <Gold.PLP.Chemscore.Hbond>
1.7259

> <Gold.PLP.Chemscore.CHOScore>
1.0000

> <Gold.PLP.Chemscore.Metal>
0.0000

> <Gold.Chemscore.Hbonds>
donor molecule, donor type, donor heavy atom, donor atom, acceptor molecule, acceptor atom, score
      L1  H    20    45       P1 10747  0.93
      P1  H  6896  6907       L1    13  0.73
      L1  C    23    47       P1  7948  1.00

> <Gold.PLP.Chemscore.Internal.Correction>
0.2107

> <Gold.Rescore>
     Score         DG    S(hbond)    S(metal)    S(lipo)     H(rot)  DE(clash)    DE(int)     intcor
      9.40     -11.62       1.58        0.00      88.26       3.70       0.45       1.78       ----

> <Gold.Chemscore.Fitness>
9.3983

> <Gold.Chemscore.DG>
-11.6197

> <Gold.Chemscore.ZeroCoef>
-5.4800

> <Gold.Chemscore.Hbond>
1.5792

> <Gold.Chemscore.Metal>
0.0000

> <Gold.Chemscore.Lipo>
88.2564

> <Gold.Chemscore.Internal_Hbond>
0.0000

> <Gold.Chemscore.DEClash>
0.4456

> <Gold.Chemscore.DEInternal>
1.7759

> <Gold.Chemscore.Rot>
3.6957

> <Gold.Chemscore.Internal.Correction>
   9.000000E+99

> <Gold.Chemscore.Hbonds>
donor molecule, donor type, donor heavy atom, donor atom, acceptor molecule, acceptor atom, score
      L1  H    20    45       P1 10747  0.91
      P1  H  6896  6907       L1    13  0.48

> <Gold.Chemscore.Hbond.Weighted>
-5.2747

> <Gold.Chemscore.Metal.Weighted>
-0.0000

> <Gold.Chemscore.Lipo.Weighted>
-10.3260

> <Gold.Chemscore.Internal_Hbond.Weighted>
0.0000

> <Gold.Chemscore.DEClash.Weighted>
0.4456

> <Gold.Chemscore.DEInternal.Weighted>
1.7759

> <Gold.Chemscore.Rot.Weighted>
9.4610

> <Gold.Chemscore.Internal.Correction.Weighted>
   9.000000E+99

> <Gold.Protein.RotatedTorsions>
[ 6907 6896 6895 6894 ] final -143.92 input  -60.11 | X-H torsion
[ 7974 7965 7964 7962 ] final  -36.55 input  175.53 | X-H torsion
[ 8008 7997 7996 7995 ] final  -56.71 input   59.86 | X-H torsion
[ 10167 10162 10161 10158 ] final  141.71 input  -65.29 | X-H torsion
[ 10718 10713 10712 10709 ] final -174.16 input   66.30 | X-H torsion
[ 10763 10752 10751 10750 ] final  126.00 input  -60.55 | X-H torsion
[ 11005 11000 10999 10996 ] final  -69.98 input  -57.11 | X-H torsion

> <Gold.Protein.ActiveResidues>
 VAL166  LYS551  ARG553  GLY616  TRP617  ASP618  TYR619  PRO620  LYS621  CYS622 
 ASP623  PHE694  ASN695  SER759  ASP760  ASP761  ALA762  ILE779  LEU786  VAL792 
 PHE793  MET794  SER795  GLU796  ALA797  LYS798  CYS799  TRP800  GLU811  SER814 

> <Gold.Protein.RotatedAtoms>
  151.1070  133.5201  159.2607 H   0  0  0  0  0  0  0  0  0  0  0  0  # atno 6907 bound_to 6896
  151.2009  135.0442  159.8882 H   0  0  0  0  0  0  0  0  0  0  0  0  # atno 6908 bound_to 6896
  152.5447  134.0899  159.8325 H   0  0  0  0  0  0  0  0  0  0  0  0  # atno 6909 bound_to 6896
  146.0651  140.6292  142.8978 H   0  0  0  0  0  0  0  0  0  0  0  0  # atno 7974 bound_to 7965
  154.4240  140.1123  156.5682 H   0  0  0  0  0  0  0  0  0  0  0  0  # atno 8008 bound_to 7997
  155.6240  140.3495  155.4642 H   0  0  0  0  0  0  0  0  0  0  0  0  # atno 8009 bound_to 7997
  156.0001  140.1197  157.0545 H   0  0  0  0  0  0  0  0  0  0  0  0  # atno 8010 bound_to 7997
  139.5013  144.6154  151.6175 H   0  0  0  0  0  0  0  0  0  0  0  0  # atno 10167 bound_to 10162
  156.7810  130.9483  151.3120 H   0  0  0  0  0  0  0  0  0  0  0  0  # atno 10718 bound_to 10713
  153.6862  135.3306  155.3191 H   0  0  0  0  0  0  0  0  0  0  0  0  # atno 10763 bound_to 10752
  154.8452  135.4421  154.1555 H   0  0  0  0  0  0  0  0  0  0  0  0  # atno 10764 bound_to 10752
  153.2584  135.6988  153.7681 H   0  0  0  0  0  0  0  0  0  0  0  0  # atno 10765 bound_to 10752
  141.1565  133.6778  156.6682 H   0  0  0  0  0  0  0  0  0  0  0  0  # atno 11005 bound_to 11000
  144.7198  140.4334  143.7017 LP  0  0  0  0  0  0  0  0  0  0  0  0  # atno 17320 bound_to 7965
  145.6491  139.1562  143.2872 LP  0  0  0  0  0  0  0  0  0  0  0  0  # atno 17321 bound_to 7965
  140.5841  143.9895  150.6285 LP  0  0  0  0  0  0  0  0  0  0  0  0  # atno 17342 bound_to 10162
  140.3054  143.3233  152.0931 LP  0  0  0  0  0  0  0  0  0  0  0  0  # atno 17343 bound_to 10162
  157.6646  130.8996  149.9905 LP  0  0  0  0  0  0  0  0  0  0  0  0  # atno 17370 bound_to 10713
  156.1218  130.3645  149.9874 LP  0  0  0  0  0  0  0  0  0  0  0  0  # atno 17371 bound_to 10713
  140.3195  134.8020  157.4241 LP  0  0  0  0  0  0  0  0  0  0  0  0  # atno 17394 bound_to 11000
  140.1109  134.5347  155.8267 LP  0  0  0  0  0  0  0  0  0  0  0  0  # atno 17395 bound_to 11000

$$$$
