AV-unprocessed.smi:1679|AV-procd|sdf|6733|dock4
  -GOLD-   22720 7483D 1   1.00000     0.00000
 Structure written by MMmdl.
 44 45  0  0  0  0  0  0  0  0  2 V2000
  146.2170  130.2201  151.4712 C   0  0  0  0  0  0  0  0  0  0  0  0
  145.6549  131.6136  151.7953 C   0  0  2  0  0  0  0  0  0  0  0  0
  144.4970  131.9703  150.8408 C   0  0  0  0  0  0  0  0  0  0  0  0
  143.9194  133.3628  151.1389 C   0  0  0  0  0  0  0  0  0  0  0  0
  145.0141  134.4368  151.0809 C   0  0  0  0  0  0  0  0  0  0  0  0
  146.1649  134.0946  152.0364 C   0  0  0  0  0  0  0  0  0  0  0  0
  146.7547  132.6981  151.7489 C   0  0  1  0  0  0  0  0  0  0  0  0
  147.7108  132.4025  152.7573 O   0  0  0  0  0  0  0  0  0  0  0  0
  148.7777  133.3355  152.8497 C   0  0  0  0  0  0  0  0  0  0  0  0
  148.6958  134.0325  154.2108 C   0  0  0  0  0  0  0  0  0  0  0  0
  149.6996  135.0839  154.2769 N   0  0  0  0  0  0  0  0  0  0  0  0
  150.3943  135.4349  155.3694 C   0  0  0  0  0  0  0  0  0  0  0  0
  150.2411  134.8863  156.4602 O   0  0  0  0  0  0  0  0  0  0  0  0
  151.4312  136.5637  155.2326 C   0  0  0  0  0  0  0  0  0  0  0  0
  150.8599  137.9024  154.9920 N   0  0  0  0  0  0  0  0  0  0  0  0
  149.4597  138.0063  154.9138 C   0  0  0  0  0  0  0  0  0  0  0  0
  148.8443  139.1863  154.7087 C   0  0  0  0  0  0  0  0  0  0  0  0
  149.6695  140.3789  154.5630 C   0  0  0  0  0  0  0  0  0  0  0  0
  149.1250  141.4659  154.3804 O   0  0  0  0  0  0  0  0  0  0  0  0
  151.0238  140.2268  154.6446 N   0  5  0  0  0  0  0  0  0  0  0  0
  151.6354  139.0216  154.8644 C   0  0  0  0  0  0  0  0  0  0  0  0
  152.8580  138.9109  154.9568 O   0  0  0  0  0  0  0  0  0  0  0  0
  146.6470  130.1892  150.4697 H   0  0  0  0  0  0  0  0  0  0  0  0
  145.4363  129.4608  151.5223 H   0  0  0  0  0  0  0  0  0  0  0  0
  146.9972  129.9336  152.1769 H   0  0  0  0  0  0  0  0  0  0  0  0
  145.2529  131.5824  152.8093 H   0  0  0  0  0  0  0  0  0  0  0  0
  144.8478  131.9378  149.8084 H   0  0  0  0  0  0  0  0  0  0  0  0
  143.7051  131.2246  150.9206 H   0  0  0  0  0  0  0  0  0  0  0  0
  143.1285  133.5992  150.4268 H   0  0  0  0  0  0  0  0  0  0  0  0
  143.4577  133.3650  152.1273 H   0  0  0  0  0  0  0  0  0  0  0  0
  145.3948  134.5221  150.0625 H   0  0  0  0  0  0  0  0  0  0  0  0
  144.5945  135.4096  151.3396 H   0  0  0  0  0  0  0  0  0  0  0  0
  146.9336  134.8642  151.9695 H   0  0  0  0  0  0  0  0  0  0  0  0
  145.7970  134.1191  153.0620 H   0  0  0  0  0  0  0  0  0  0  0  0
  147.2222  132.6832  150.7621 H   0  0  0  0  0  0  0  0  0  0  0  0
  149.7243  132.8052  152.7422 H   0  0  0  0  0  0  0  0  0  0  0  0
  148.7372  134.0834  152.0563 H   0  0  0  0  0  0  0  0  0  0  0  0
  147.7034  134.4575  154.3666 H   0  0  0  0  0  0  0  0  0  0  0  0
  148.8702  133.3076  155.0072 H   0  0  0  0  0  0  0  0  0  0  0  0
  149.8765  135.5967  153.4244 H   0  0  0  0  0  0  0  0  0  0  0  0
  152.0575  136.5687  156.1260 H   0  0  0  0  0  0  0  0  0  0  0  0
  152.1081  136.3022  154.4180 H   0  0  0  0  0  0  0  0  0  0  0  0
  148.9235  137.0768  155.0382 H   0  0  0  0  0  0  0  0  0  0  0  0
  147.7673  139.2492  154.6559 H   0  0  0  0  0  0  0  0  0  0  0  0
  1  2  1  0  0  0  0
  1 23  1  0  0  0  0
  1 24  1  0  0  0  0
  1 25  1  0  0  0  0
  2  7  1  0  0  0  0
  2  3  1  0  0  0  0
  2 26  1  0  0  0  0
  3  4  1  0  0  0  0
  3 27  1  0  0  0  0
  3 28  1  0  0  0  0
  4  5  1  0  0  0  0
  4 29  1  0  0  0  0
  4 30  1  0  0  0  0
  5  6  1  0  0  0  0
  5 31  1  0  0  0  0
  5 32  1  0  0  0  0
  6  7  1  0  0  0  0
  6 33  1  0  0  0  0
  6 34  1  0  0  0  0
  7  8  1  0  0  0  0
  7 35  1  0  0  0  0
  8  9  1  0  0  0  0
  9 10  1  0  0  0  0
  9 36  1  0  0  0  0
  9 37  1  0  0  0  0
 10 11  1  0  0  0  0
 10 38  1  0  0  0  0
 10 39  1  0  0  0  0
 11 12  1  0  0  0  0
 11 40  1  0  0  0  0
 12 13  2  0  0  0  0
 12 14  1  0  0  0  0
 14 15  1  0  0  0  0
 14 41  1  0  0  0  0
 14 42  1  0  0  0  0
 15 21  1  0  0  0  0
 15 16  1  0  0  0  0
 16 17  2  0  0  0  0
 16 43  1  0  0  0  0
 17 18  1  0  0  0  0
 17 44  1  0  0  0  0
 18 19  2  0  0  0  0
 18 20  1  0  0  0  0
 20 21  1  0  0  0  0
 21 22  2  0  0  0  0
M  CHG  1  20  -1
M  END
> <s_m_source_file>
AV-unprocessed.smi

> <i_m_source_file_index>
1679

> <i_lp_mmshare_version>
43012

> <i_f3d_flags>
0

> <s_epik_input>
W0NIM11bQ0BASF0xW0NIMl1bQ0gyXVtDSDJdW0NIMl1bQ0BIXTFPW0NIMl1bQ0gyXVtOSF1DKD1PKVtDSDJdbjJbY0hdW2NIXWMoPU8pW25IXWMyPU8=

> <s_epik_cmdline>
J2VwaWtfcHl0aG9uJywgJy1waCcsICc3LjAnLCAnLXRuJywgJzgnLCAnLW1hJywgJzIwMCcsICctbWV0YWxfYmluZGluZycsICctaW1hZScsICc8aW5maWxlLm1hZT4nLCAnLW9tYWUnLCAnPG91dGZpbGUubWFlPic=

> <r_lp_tautomer_probability>
0.999537

> <r_epik_Ionization_Penalty>
3.07454

> <r_epik_Ionization_Penalty_Charging>
2.80088e-08

> <r_epik_Ionization_Penalty_Neutral>
3.07454

> <r_epik_State_Penalty>
3.07357

> <r_epik_Charging_Adjusted_Penalty>
3.07357

> <i_epik_Tot_Q>
-1

> <i_epik_Tot_abs_Q>
1

> <r_epik_Metal_State_Penalty>
0.45948

> <b_epik_Metal_Only>
1

> <s_lp_Force_Field>
OPLS_2005

> <r_lp_Energy>
18.3585

> <b_lp_Chiralities_Consistent>
1

> <s_lp_Variant>
AV-unprocessed.smi:1679-5

> <Gold.Version>
5.8.1

> <Gold.Id.Protein>
6NUR|6NUR_protein|mol2

> <Gold.PLP.Fitness>
46.7413

> <Gold.PLP.PLP>
-40.2038

> <Gold.PLP.part.hbond>
-4.0546

> <Gold.PLP.part.metal>
0.0000

> <Gold.PLP.part.buried>
-4.2165

> <Gold.PLP.part.nonpolar>
-31.6893

> <Gold.PLP.part.repulsive>
0.4269

> <Gold.PLP.ligand.clash>
0.0000

> <Gold.PLP.ligand.torsion>
0.6158

> <Gold.PLP.Chemscore.Hbond>
2.5641

> <Gold.PLP.Chemscore.CHOScore>
0.0000

> <Gold.PLP.Chemscore.Metal>
0.0000

> <Gold.Chemscore.Hbonds>
donor molecule, donor type, donor heavy atom, donor atom, acceptor molecule, acceptor atom, score
      L1  H    11    40       P1  7948  0.33
      P1  H  7989  7998       L1    20  0.80
      P1  H  7997  8010       L1    22  0.46
      P1  H  8011  8017       L1    19  0.12

> <Gold.PLP.Chemscore.Internal.Correction>
0.0767

> <Gold.Rescore>
     Score         DG    S(hbond)    S(metal)    S(lipo)     H(rot)  DE(clash)    DE(int)     intcor
     11.29     -13.16       1.68        0.00      71.24       2.45       0.19       1.68       ----

> <Gold.Chemscore.Fitness>
11.2877

> <Gold.Chemscore.DG>
-13.1636

> <Gold.Chemscore.ZeroCoef>
-5.4800

> <Gold.Chemscore.Hbond>
1.6818

> <Gold.Chemscore.Metal>
0.0000

> <Gold.Chemscore.Lipo>
71.2445

> <Gold.Chemscore.Internal_Hbond>
0.0000

> <Gold.Chemscore.DEClash>
0.1949

> <Gold.Chemscore.DEInternal>
1.6810

> <Gold.Chemscore.Rot>
2.4490

> <Gold.Chemscore.Internal.Correction>
   9.000000E+99

> <Gold.Chemscore.Hbonds>
donor molecule, donor type, donor heavy atom, donor atom, acceptor molecule, acceptor atom, score
      L1  H    11    40       P1  7948  0.01
      P1  H  7989  7998       L1    20  0.38
      P1  H  7997  8010       L1    22  0.46
      P1  H  8011  8017       L1    19  0.10

> <Gold.Chemscore.Hbond.Weighted>
-5.6174

> <Gold.Chemscore.Metal.Weighted>
-0.0000

> <Gold.Chemscore.Lipo.Weighted>
-8.3356

> <Gold.Chemscore.Internal_Hbond.Weighted>
0.0000

> <Gold.Chemscore.DEClash.Weighted>
0.1949

> <Gold.Chemscore.DEInternal.Weighted>
1.6810

> <Gold.Chemscore.Rot.Weighted>
6.2694

> <Gold.Chemscore.Internal.Correction.Weighted>
   9.000000E+99

> <Gold.Protein.RotatedTorsions>
[ 6907 6896 6895 6894 ] final -103.91 input  -60.11 | X-H torsion
[ 7974 7965 7964 7962 ] final  -25.39 input  175.53 | X-H torsion
[ 8008 7997 7996 7995 ] final   95.60 input   59.86 | X-H torsion
[ 10167 10162 10161 10158 ] final  -56.77 input  -65.29 | X-H torsion
[ 10718 10713 10712 10709 ] final  -55.40 input   66.30 | X-H torsion
[ 10763 10752 10751 10750 ] final  118.69 input  -60.55 | X-H torsion
[ 11005 11000 10999 10996 ] final  -53.26 input  -57.11 | X-H torsion

> <Gold.Protein.ActiveResidues>
 VAL166  LYS551  ARG553  GLY616  TRP617  ASP618  TYR619  PRO620  LYS621  CYS622 
 ASP623  PHE694  ASN695  SER759  ASP760  ASP761  ALA762  ILE779  LEU786  VAL792 
 PHE793  MET794  SER795  GLU796  ALA797  LYS798  CYS799  TRP800  GLU811  SER814 

> <Gold.Protein.RotatedAtoms>
  150.7262  134.0357  159.3748 H   0  0  0  0  0  0  0  0  0  0  0  0  # atno 6907 bound_to 6896
  151.8328  135.0613  160.0448 H   0  0  0  0  0  0  0  0  0  0  0  0  # atno 6908 bound_to 6896
  152.2920  133.5535  159.5600 H   0  0  0  0  0  0  0  0  0  0  0  0  # atno 6909 bound_to 6896
  146.1494  140.4879  142.8618 H   0  0  0  0  0  0  0  0  0  0  0  0  # atno 7974 bound_to 7965
  156.0706  140.3284  155.7571 H   0  0  0  0  0  0  0  0  0  0  0  0  # atno 8008 bound_to 7997
  155.5311  140.0593  157.2906 H   0  0  0  0  0  0  0  0  0  0  0  0  # atno 8009 bound_to 7997
  154.4528  140.1927  156.0485 H   0  0  0  0  0  0  0  0  0  0  0  0  # atno 8010 bound_to 7997
  140.6297  143.2454  151.5272 H   0  0  0  0  0  0  0  0  0  0  0  0  # atno 10167 bound_to 10162
  156.1372  130.4156  150.0166 H   0  0  0  0  0  0  0  0  0  0  0  0  # atno 10718 bound_to 10713
  153.5714  135.3501  155.2839 H   0  0  0  0  0  0  0  0  0  0  0  0  # atno 10763 bound_to 10752
  154.8681  135.4160  154.2720 H   0  0  0  0  0  0  0  0  0  0  0  0  # atno 10764 bound_to 10752
  153.3487  135.7054  153.6876 H   0  0  0  0  0  0  0  0  0  0  0  0  # atno 10765 bound_to 10752
  141.0966  133.6623  156.4145 H   0  0  0  0  0  0  0  0  0  0  0  0  # atno 11005 bound_to 11000
  144.7886  140.5986  143.6557 LP  0  0  0  0  0  0  0  0  0  0  0  0  # atno 17320 bound_to 7965
  145.4859  139.1492  143.3736 LP  0  0  0  0  0  0  0  0  0  0  0  0  # atno 17321 bound_to 7965
  139.5513  144.2389  152.1535 LP  0  0  0  0  0  0  0  0  0  0  0  0  # atno 17342 bound_to 10162
  140.1629  144.5008  150.6622 LP  0  0  0  0  0  0  0  0  0  0  0  0  # atno 17343 bound_to 10162
  156.8062  130.9308  151.3645 LP  0  0  0  0  0  0  0  0  0  0  0  0  # atno 17370 bound_to 10713
  157.6543  130.8910  149.9696 LP  0  0  0  0  0  0  0  0  0  0  0  0  # atno 17371 bound_to 10713
  140.5124  134.6383  157.5289 LP  0  0  0  0  0  0  0  0  0  0  0  0  # atno 17394 bound_to 11000
  139.9805  134.7145  155.9868 LP  0  0  0  0  0  0  0  0  0  0  0  0  # atno 17395 bound_to 11000

$$$$
