#       Name:                AV-unprocessed.smi:3176
#       Creating user name   scv26
#       Creation time:       Fri Mar 27 17:56:51 2020


#       File generated by GOLD software.
#

@<TRIPOS>MOLECULE
AV-unprocessed.smi:3176
    37    38     1
SMALL
NO_CHARGES


@<TRIPOS>ATOM
      1 ****         0.2940   2.6175   1.0077 O.2            1 S1                 0.0000
      2 ****        -0.0281   1.5067   1.4295 C.2            1 S1                 0.0000
      3 ****         0.8605   0.5234   1.6411 N.am           1 S1                 0.0000
      4 ****         2.2868   0.5949   1.3394 C.3            1 S1                 0.0000
      5 ****         2.5813   0.5248  -0.1734 C.3            1 S1                 0.0000
      6 ****         1.8617  -0.6117  -0.8798 C.ar           1 S1                 0.0000
      7 ****         0.7074  -0.3962  -1.6644 C.ar           1 S1                 0.0000
      8 ****         0.0741  -1.4974  -2.2764 C.ar           1 S1                 0.0000
      9 ****         0.6091  -2.7895  -2.0938 C.ar           1 S1                 0.0000
     10 ****         1.7658  -2.9473  -1.3031 C.ar           1 S1                 0.0000
     11 ****         2.3430  -1.8671  -0.7321 N.pl3          1 S1                 1.0000
     12 ****        -1.4976   1.1690   1.7350 C.3            1 S1                 0.0000
     13 ****        -2.5196   2.0279   0.9725 C.3            1 S1                 0.0000
     14 ****        -2.7631   1.2182  -0.2820 C.3            1 S1                 0.0000
     15 ****        -2.7206  -0.2015   0.2679 C.3            1 S1                 0.0000
     16 ****        -1.7530  -0.1746   1.3133 O.3            1 S1                 0.0000
     17 ****         0.5114  -0.3534   2.0014 H              1 S1                 0.0000
     18 ****         2.7224   1.4964   1.7729 H              1 S1                 0.0000
     19 ****         2.7634  -0.2483   1.8397 H              1 S1                 0.0000
     20 ****         2.2952   1.4655  -0.6457 H              1 S1                 0.0000
     21 ****         3.6551   0.4239  -0.3356 H              1 S1                 0.0000
     22 ****         0.3061   0.5993  -1.7886 H              1 S1                 0.0000
     23 ****        -0.8126  -1.3525  -2.8759 H              1 S1                 0.0000
     24 ****         0.1388  -3.6468  -2.5531 H              1 S1                 0.0000
     25 ****         2.2417  -3.8976  -1.1095 H              1 S1                 0.0000
     26 ****        -1.6517   1.2551   2.8111 H              1 S1                 0.0000
     27 ****        -3.4415   2.0994   1.5510 H              1 S1                 0.0000
     28 ****        -2.1929   3.0464   0.7599 H              1 S1                 0.0000
     29 ****        -3.7070   1.4579  -0.7719 H              1 S1                 0.0000
     30 ****        -1.9547   1.3750  -0.9970 H              1 S1                 0.0000
     31 ****        -3.6872  -0.4720   0.6947 H              1 S1                 0.0000
     32 ****        -2.4667  -0.9391  -0.4934 H              1 S1                 0.0000
     33 ****         3.1772  -2.0052  -0.1612 H              1 S1                 0.0000
     34 ****         1.2532   2.8175   0.8075 LP             1 S1                 0.0000
     35 ****        -0.4034   3.3198   0.8652 LP             1 S1                 0.0000
     36 ****        -2.0952  -0.7027   2.0905 LP             1 S1                 0.0000
     37 ****        -0.9016  -0.5819   0.9826 LP             1 S1                 0.0000
@<TRIPOS>BOND
    1    1    2 2     
    2    2    3 am    
    3    2   12 1     
    4    3    4 1     
    5    3   17 1     
    6    4    5 1     
    7    4   18 1     
    8    4   19 1     
    9    5    6 1     
   10    5   20 1     
   11    5   21 1     
   12    6   11 ar    
   13    6    7 ar    
   14    7    8 ar    
   15    7   22 1     
   16    8    9 ar    
   17    8   23 1     
   18    9   10 ar    
   19    9   24 1     
   20   10   11 ar    
   21   10   25 1     
   22   11   33 1     
   23   12   16 1     
   24   12   13 1     
   25   12   26 1     
   26   13   14 1     
   27   13   27 1     
   28   13   28 1     
   29   14   15 1     
   30   14   29 1     
   31   14   30 1     
   32   15   16 1     
   33   15   31 1     
   34   15   32 1     
   35    1   34 1     
   36    1   35 1     
   37   16   36 1     
   38   16   37 1     
@<TRIPOS>SUBSTRUCTURE
      1 S1             1
@<TRIPOS>SET
LONE_PAIRS      STATIC     ATOMS    <user>   **** ""
4 34 35 36 37
DONOR_HYDROGENS      STATIC     ATOMS    <user>   **** ""
2 17 33
ATOM$BLUE        STATIC     ATOMS    COLORGROUP SYSTEM
4 34 35 36 37
ATOM$RED        STATIC     ATOMS    COLORGROUP SYSTEM
2 17 33
