AV-unprocessed.smi:287|AV-procd|sdf|2193|dock2
  -GOLD-   2262021593D 1   1.00000     0.00000
 Structure written by MMmdl.
 55 58  0  0  0  0  0  0  0  0  1 V2000
  141.5124  134.3774  163.6842 C   0  0  0  0  0  0  0  0  0  0  0  0
  142.6989  134.8972  162.9476 C   0  0  0  0  0  0  0  0  0  0  0  0
  142.9269  136.0080  162.1887 C   0  0  0  0  0  0  0  0  0  0  0  0
  144.2792  135.9456  161.7370 C   0  0  0  0  0  0  0  0  0  0  0  0
  144.9801  136.9745  160.8600 C   0  0  1  0  0  0  0  0  0  0  0  0
  144.1394  138.2602  160.7946 C   0  0  0  0  0  0  0  0  0  0  0  0
  146.2355  137.3716  161.3766 O   0  0  0  0  0  0  0  0  0  0  0  0
  145.2579  136.4486  159.4331 C   0  0  0  0  0  0  0  0  0  0  0  0
  146.0000  137.3973  158.6128 N   0  0  0  0  0  0  0  0  0  0  0  0
  145.7592  137.5048  157.2898 C   0  0  0  0  0  0  0  0  0  0  0  0
  146.1458  138.6713  156.7198 N   0  0  0  0  0  0  0  0  0  0  0  0
  145.9612  138.8751  155.4125 C   0  0  0  0  0  0  0  0  0  0  0  0
  145.4168  138.0574  154.5096 N   0  0  0  0  0  0  0  0  0  0  0  0
  145.0182  136.8836  155.0787 C   0  0  0  0  0  0  0  0  0  0  0  0
  145.1505  136.5247  156.4503 C   0  0  0  0  0  0  0  0  0  0  0  0
  144.6289  135.2482  156.6394 N   0  0  0  0  0  0  0  0  0  0  0  0
  144.2229  134.8818  155.4536 C   0  0  0  0  0  0  0  0  0  0  0  0
  144.4229  135.8101  154.4567 N   0  0  0  0  0  0  0  0  0  0  0  0
  144.0972  135.7183  153.0019 C   0  0  2  0  0  0  0  0  0  0  0  0
  143.5971  134.4539  152.7307 O   0  0  0  0  0  0  0  0  0  0  0  0
  143.6992  134.2506  151.3287 C   0  0  2  0  0  0  0  0  0  0  0  0
  143.7009  132.7443  151.0285 C   0  0  0  0  0  0  0  0  0  0  0  0
  143.1987  132.5028  149.7313 O   0  0  0  0  0  0  0  0  0  0  0  0
  144.9888  134.9883  150.9108 C   0  0  1  0  0  0  0  0  0  0  0  0
  144.7316  135.7800  149.7676 O   0  0  0  0  0  0  0  0  0  0  0  0
  145.3306  135.8831  152.1036 C   0  0  2  0  0  0  0  0  0  0  0  0
  146.5318  135.4593  152.7238 O   0  0  0  0  0  0  0  0  0  0  0  0
  144.7776  134.7869  162.2828 C   0  0  0  0  0  0  0  0  0  0  0  0
  146.1088  134.1115  162.2445 C   0  0  0  0  0  0  0  0  0  0  0  0
  143.8249  134.1435  163.0139 O   0  0  0  0  0  0  0  0  0  0  0  0
  143.3282  136.4721  152.8236 H   0  0  0  0  0  0  0  0  0  0  0  0
  142.8209  134.7207  150.8804 H   0  0  0  0  0  0  0  0  0  0  0  0
  145.8002  134.2928  150.6896 H   0  0  0  0  0  0  0  0  0  0  0  0
  145.4358  136.9358  151.8365 H   0  0  0  0  0  0  0  0  0  0  0  0
  140.6142  134.9346  163.4176 H   0  0  0  0  0  0  0  0  0  0  0  0
  141.6577  134.4641  164.7612 H   0  0  0  0  0  0  0  0  0  0  0  0
  141.3398  133.3270  163.4487 H   0  0  0  0  0  0  0  0  0  0  0  0
  142.2018  136.7790  161.9746 H   0  0  0  0  0  0  0  0  0  0  0  0
  143.1529  138.0658  160.3718 H   0  0  0  0  0  0  0  0  0  0  0  0
  144.6165  139.0201  160.1742 H   0  0  0  0  0  0  0  0  0  0  0  0
  143.9917  138.6886  161.7870 H   0  0  0  0  0  0  0  0  0  0  0  0
  146.2246  137.2514  162.3138 H   0  0  0  0  0  0  0  0  0  0  0  0
  145.8648  135.5455  159.5096 H   0  0  0  0  0  0  0  0  0  0  0  0
  144.3280  136.1648  158.9388 H   0  0  0  0  0  0  0  0  0  0  0  0
  146.7643  137.8681  159.0756 H   0  0  0  0  0  0  0  0  0  0  0  0
  146.2995  139.8295  155.0363 H   0  0  0  0  0  0  0  0  0  0  0  0
  143.7709  133.9169  155.2738 H   0  0  0  0  0  0  0  0  0  0  0  0
  144.7036  132.3258  151.1215 H   0  0  0  0  0  0  0  0  0  0  0  0
  143.0652  132.2194  151.7420 H   0  0  0  0  0  0  0  0  0  0  0  0
  142.5488  133.1598  149.5330 H   0  0  0  0  0  0  0  0  0  0  0  0
  144.4476  136.6351  150.0533 H   0  0  0  0  0  0  0  0  0  0  0  0
  147.2432  135.5945  152.1160 H   0  0  0  0  0  0  0  0  0  0  0  0
  146.8955  134.7918  162.5706 H   0  0  0  0  0  0  0  0  0  0  0  0
  146.3443  133.7794  161.2335 H   0  0  0  0  0  0  0  0  0  0  0  0
  146.1289  133.2388  162.8976 H   0  0  0  0  0  0  0  0  0  0  0  0
  1  2  1  0  0  0  0
  1 35  1  0  0  0  0
  1 36  1  0  0  0  0
  1 37  1  0  0  0  0
  2 30  1  0  0  0  0
  2  3  2  0  0  0  0
  3  4  1  0  0  0  0
  3 38  1  0  0  0  0
  4  5  1  0  0  0  0
  4 28  2  0  0  0  0
  5  6  1  0  0  0  0
  5  7  1  0  0  0  0
  5  8  1  0  0  0  0
  6 39  1  0  0  0  0
  6 40  1  0  0  0  0
  6 41  1  0  0  0  0
  7 42  1  0  0  0  0
  8  9  1  0  0  0  0
  8 43  1  0  0  0  0
  8 44  1  0  0  0  0
  9 10  1  0  0  0  0
  9 45  1  0  0  0  0
 10 15  1  0  0  0  0
 10 11  2  0  0  0  0
 11 12  1  0  0  0  0
 12 13  2  0  0  0  0
 12 46  1  0  0  0  0
 13 14  1  0  0  0  0
 14 18  1  0  0  0  0
 14 15  2  0  0  0  0
 15 16  1  0  0  0  0
 16 17  2  0  0  0  0
 17 18  1  0  0  0  0
 17 47  1  0  0  0  0
 18 19  1  0  0  0  0
 19 31  1  0  0  0  0
 19 26  1  0  0  0  0
 19 20  1  0  0  0  0
 20 21  1  0  0  0  0
 21 32  1  0  0  0  0
 21 22  1  0  0  0  0
 21 24  1  0  0  0  0
 22 23  1  0  0  0  0
 22 48  1  0  0  0  0
 22 49  1  0  0  0  0
 23 50  1  0  0  0  0
 24 33  1  0  0  0  0
 24 25  1  0  0  0  0
 24 26  1  0  0  0  0
 25 51  1  0  0  0  0
 26 34  1  0  0  0  0
 26 27  1  0  0  0  0
 27 52  1  0  0  0  0
 28 29  1  0  0  0  0
 28 30  1  0  0  0  0
 29 53  1  0  0  0  0
 29 54  1  0  0  0  0
 29 55  1  0  0  0  0
M  END
> <s_m_source_file>
AV-unprocessed.smi

> <i_m_source_file_index>
287

> <i_lp_mmshare_version>
43012

> <i_f3d_flags>
0

> <s_epik_input>
W0NIM11jMVtjSF1jKGMobzEpW0NIM10pW0NAQF0oW0NIM10pKFtPSF0pW0NIMl1bTkhdYyhuW2NIXW4yKWMoYzIzKW5bY0hdbjNbQ0BASF00T1tDQEhdKFtDSDJdW09IXSlbQ0BASF0oW09IXSlbQ0BIXTRbT0hd

> <s_epik_cmdline>
J2VwaWtfcHl0aG9uJywgJy1waCcsICc3LjAnLCAnLXRuJywgJzgnLCAnLW1hJywgJzIwMCcsICctbWV0YWxfYmluZGluZycsICctaW1hZScsICc8aW5maWxlLm1hZT4nLCAnLW9tYWUnLCAnPG91dGZpbGUubWFlPic=

> <r_lp_tautomer_probability>
1

> <r_epik_Ionization_Penalty>
0.000992612

> <r_epik_Ionization_Penalty_Charging>
0

> <r_epik_Ionization_Penalty_Neutral>
0.000992612

> <r_epik_State_Penalty>
-0

> <r_epik_Charging_Adjusted_Penalty>
0

> <i_epik_Tot_Q>
0

> <i_epik_Tot_abs_Q>
0

> <r_epik_Metal_State_Penalty>
-0

> <b_epik_Metal_Only>
0

> <s_epik_Chemistry_Notes>
This compound contains an acetal/aminal-like group ( X-CH(R)-Y where X, Y are N, S, or O) that may be acid/base labile, releasing an aldehyde.

> <s_lp_Force_Field>
OPLS_2005

> <r_lp_Energy>
41.001

> <b_lp_Chiralities_Consistent>
1

> <s_lp_Variant>
AV-unprocessed.smi:287-17

> <Gold.Version>
5.8.1

> <Gold.Id.Protein>
6NUR|6NUR_protein|mol2

> <Gold.PLP.Fitness>
49.2924

> <Gold.PLP.PLP>
-36.2006

> <Gold.PLP.part.hbond>
-5.4424

> <Gold.PLP.part.metal>
0.0000

> <Gold.PLP.part.buried>
-8.2666

> <Gold.PLP.part.nonpolar>
-22.9773

> <Gold.PLP.part.repulsive>
0.4172

> <Gold.PLP.ligand.clash>
0.0000

> <Gold.PLP.ligand.torsion>
1.0345

> <Gold.PLP.Chemscore.Hbond>
4.0000

> <Gold.PLP.Chemscore.CHOScore>
1.0000

> <Gold.PLP.Chemscore.Metal>
0.0000

> <Gold.Chemscore.Hbonds>
donor molecule, donor type, donor heavy atom, donor atom, acceptor molecule, acceptor atom, score
      L1  H    23    50       P1 10186  1.00
      L1  H    25    51       P1 10171  1.00
      L1  H    27    52       P1  7948  0.96
      P1  H  6934  6947       L1     7  1.00
      L1  C    17    47       P1 10957  1.00

> <Gold.PLP.Chemscore.Internal.Correction>
0.1608

> <Gold.Rescore>
     Score         DG    S(hbond)    S(metal)    S(lipo)     H(rot)  DE(clash)    DE(int)     intcor
     11.61     -12.76       3.79        0.00      69.34       5.27       0.02       1.13       ----

> <Gold.Chemscore.Fitness>
11.6113

> <Gold.Chemscore.DG>
-12.7591

> <Gold.Chemscore.ZeroCoef>
-5.4800

> <Gold.Chemscore.Hbond>
3.7874

> <Gold.Chemscore.Metal>
0.0000

> <Gold.Chemscore.Lipo>
69.3426

> <Gold.Chemscore.Internal_Hbond>
0.0000

> <Gold.Chemscore.DEClash>
0.0174

> <Gold.Chemscore.DEInternal>
1.1304

> <Gold.Chemscore.Rot>
5.2672

> <Gold.Chemscore.Internal.Correction>
   9.000000E+99

> <Gold.Chemscore.Hbonds>
donor molecule, donor type, donor heavy atom, donor atom, acceptor molecule, acceptor atom, score
      L1  H    23    50       P1 10186  0.97
      L1  H    25    51       P1 10171  0.91
      L1  H    27    52       P1  7948  0.92
      P1  H  6934  6947       L1     7  0.68

> <Gold.Chemscore.Hbond.Weighted>
-12.6500

> <Gold.Chemscore.Metal.Weighted>
-0.0000

> <Gold.Chemscore.Lipo.Weighted>
-8.1131

> <Gold.Chemscore.Internal_Hbond.Weighted>
0.0000

> <Gold.Chemscore.DEClash.Weighted>
0.0174

> <Gold.Chemscore.DEInternal.Weighted>
1.1304

> <Gold.Chemscore.Rot.Weighted>
13.4839

> <Gold.Chemscore.Internal.Correction.Weighted>
   9.000000E+99

> <Gold.Protein.RotatedTorsions>
[ 6907 6896 6895 6894 ] final  120.37 input  -60.11 | X-H torsion
[ 7974 7965 7964 7962 ] final -106.79 input  175.53 | X-H torsion
[ 8008 7997 7996 7995 ] final  151.54 input   59.86 | X-H torsion
[ 10167 10162 10161 10158 ] final  154.44 input  -65.29 | X-H torsion
[ 10718 10713 10712 10709 ] final  144.06 input   66.30 | X-H torsion
[ 10763 10752 10751 10750 ] final  135.97 input  -60.55 | X-H torsion
[ 11005 11000 10999 10996 ] final  -30.51 input  -57.11 | X-H torsion

> <Gold.Protein.ActiveResidues>
 VAL166  LYS551  ARG553  GLY616  TRP617  ASP618  TYR619  PRO620  LYS621  CYS622 
 ASP623  PHE694  ASN695  SER759  ASP760  ASP761  ALA762  ILE779  LEU786  VAL792 
 PHE793  MET794  SER795  GLU796  ALA797  LYS798  CYS799  TRP800  GLU811  SER814 

> <Gold.Protein.RotatedAtoms>
  152.4403  133.7436  159.6654 H   0  0  0  0  0  0  0  0  0  0  0  0  # atno 6907 bound_to 6896
  150.8293  133.8108  159.3111 H   0  0  0  0  0  0  0  0  0  0  0  0  # atno 6908 bound_to 6896
  151.5767  135.1062  160.0059 H   0  0  0  0  0  0  0  0  0  0  0  0  # atno 6909 bound_to 6896
  145.2135  140.9106  143.3301 H   0  0  0  0  0  0  0  0  0  0  0  0  # atno 7974 bound_to 7965
  156.2669  140.2045  156.6192 H   0  0  0  0  0  0  0  0  0  0  0  0  # atno 8008 bound_to 7997
  154.6770  140.0544  157.0250 H   0  0  0  0  0  0  0  0  0  0  0  0  # atno 8009 bound_to 7997
  155.1055  140.3210  155.4538 H   0  0  0  0  0  0  0  0  0  0  0  0  # atno 8010 bound_to 7997
  139.4823  144.5186  151.7912 H   0  0  0  0  0  0  0  0  0  0  0  0  # atno 10167 bound_to 10162
  157.3616  131.0966  151.0910 H   0  0  0  0  0  0  0  0  0  0  0  0  # atno 10718 bound_to 10713
  153.8488  135.3082  155.3431 H   0  0  0  0  0  0  0  0  0  0  0  0  # atno 10763 bound_to 10752
  154.7900  135.4788  154.0035 H   0  0  0  0  0  0  0  0  0  0  0  0  # atno 10764 bound_to 10752
  153.1531  135.6847  153.8946 H   0  0  0  0  0  0  0  0  0  0  0  0  # atno 10765 bound_to 10752
  140.9389  133.7291  156.1046 H   0  0  0  0  0  0  0  0  0  0  0  0  # atno 11005 bound_to 11000
  144.9833  139.3761  143.6251 LP  0  0  0  0  0  0  0  0  0  0  0  0  # atno 17320 bound_to 7965
  146.3392  139.8984  142.8798 LP  0  0  0  0  0  0  0  0  0  0  0  0  # atno 17321 bound_to 7965
  140.4697  144.1604  150.5916 LP  0  0  0  0  0  0  0  0  0  0  0  0  # atno 17342 bound_to 10162
  140.4395  143.2532  151.9491 LP  0  0  0  0  0  0  0  0  0  0  0  0  # atno 17343 bound_to 10162
  157.2047  130.6411  149.5751 LP  0  0  0  0  0  0  0  0  0  0  0  0  # atno 17370 bound_to 10713
  155.9738  130.4679  150.6342 LP  0  0  0  0  0  0  0  0  0  0  0  0  # atno 17371 bound_to 10713
  140.7761  134.3777  157.5497 LP  0  0  0  0  0  0  0  0  0  0  0  0  # atno 17394 bound_to 11000
  139.8815  134.9053  156.2896 LP  0  0  0  0  0  0  0  0  0  0  0  0  # atno 17395 bound_to 11000

$$$$
