AV-unprocessed.smi:2327|AV-procd|sdf|9298|dock8
  -GOLD-   2272012523D 1   1.00000     0.00000
 Structure written by MMmdl.
 40 41  0  0  0  0  0  0  0  0  1 V2000
  144.1341  132.7248  148.3443 C   0  0  0  0  0  0  0  0  0  0  0  0
  144.7915  133.1859  149.6071 C   0  0  0  0  0  0  0  0  0  0  0  0
  145.9568  132.7087  150.1529 C   0  0  0  0  0  0  0  0  0  0  0  0
  146.3614  133.5268  151.6366 S   0  0  0  0  0  0  0  0  0  0  0  0
  144.9061  134.5022  151.4614 C   0  0  0  0  0  0  0  0  0  0  0  0
  144.5208  135.5803  152.4300 C   0  0  2  0  0  0  0  0  0  0  0  0
  143.0190  135.5676  152.7476 C   0  0  0  0  0  0  0  0  0  0  0  0
  145.0398  136.9736  152.0155 C   0  0  0  0  0  0  0  0  0  0  0  0
  146.4254  137.1808  152.4218 N   0  0  0  0  0  0  0  0  0  0  0  0
  146.8401  138.0692  153.3393 C   0  0  0  0  0  0  0  0  0  0  0  0
  146.1034  138.9103  153.8507 O   0  0  0  0  0  0  0  0  0  0  0  0
  148.1434  137.9757  153.6570 N   0  0  0  0  0  0  0  0  0  0  0  0
  148.8956  138.7911  154.6133 C   0  0  0  0  0  0  0  0  0  0  0  0
  148.9163  140.2530  154.1432 C   0  0  0  0  0  0  0  0  0  0  0  0
  149.8168  141.1033  155.0537 C   0  0  0  0  0  0  0  0  0  0  0  0
  151.1298  140.5541  155.0886 O   0  0  0  0  0  0  0  0  0  0  0  0
  151.1667  139.2390  155.6325 C   0  0  0  0  0  0  0  0  0  0  0  0
  150.3402  138.2823  154.7579 C   0  0  0  0  0  0  0  0  0  0  0  0
  144.2091  134.2102  150.3587 N   0  0  0  0  0  0  0  0  0  0  0  0
  144.6481  131.8626  147.9189 H   0  0  0  0  0  0  0  0  0  0  0  0
  144.1328  133.5128  147.5910 H   0  0  0  0  0  0  0  0  0  0  0  0
  143.0984  132.4345  148.5223 H   0  0  0  0  0  0  0  0  0  0  0  0
  146.5992  131.9274  149.7747 H   0  0  0  0  0  0  0  0  0  0  0  0
  145.0239  135.3328  153.3661 H   0  0  0  0  0  0  0  0  0  0  0  0
  142.7079  134.5966  153.1339 H   0  0  0  0  0  0  0  0  0  0  0  0
  142.4236  135.7799  151.8589 H   0  0  0  0  0  0  0  0  0  0  0  0
  142.7714  136.3170  153.5000 H   0  0  0  0  0  0  0  0  0  0  0  0
  145.0037  137.0690  150.9299 H   0  0  0  0  0  0  0  0  0  0  0  0
  144.3995  137.7611  152.4163 H   0  0  0  0  0  0  0  0  0  0  0  0
  147.1093  136.5447  152.0386 H   0  0  0  0  0  0  0  0  0  0  0  0
  148.6934  137.3340  153.1040 H   0  0  0  0  0  0  0  0  0  0  0  0
  148.4062  138.7656  155.5892 H   0  0  0  0  0  0  0  0  0  0  0  0
  149.2880  140.3101  153.1190 H   0  0  0  0  0  0  0  0  0  0  0  0
  147.9047  140.6609  154.1325 H   0  0  0  0  0  0  0  0  0  0  0  0
  149.8723  142.1245  154.6763 H   0  0  0  0  0  0  0  0  0  0  0  0
  149.4070  141.1596  156.0635 H   0  0  0  0  0  0  0  0  0  0  0  0
  152.2036  138.9051  155.6749 H   0  0  0  0  0  0  0  0  0  0  0  0
  150.7935  139.2478  156.6579 H   0  0  0  0  0  0  0  0  0  0  0  0
  150.3542  137.2813  155.1902 H   0  0  0  0  0  0  0  0  0  0  0  0
  150.8054  138.2035  153.7744 H   0  0  0  0  0  0  0  0  0  0  0  0
  1  2  1  0  0  0  0
  1 20  1  0  0  0  0
  1 21  1  0  0  0  0
  1 22  1  0  0  0  0
  2 19  1  0  0  0  0
  2  3  2  0  0  0  0
  3  4  1  0  0  0  0
  3 23  1  0  0  0  0
  4  5  1  0  0  0  0
  5  6  1  0  0  0  0
  5 19  2  0  0  0  0
  6  7  1  0  0  0  0
  6  8  1  0  0  0  0
  6 24  1  0  0  0  0
  7 25  1  0  0  0  0
  7 26  1  0  0  0  0
  7 27  1  0  0  0  0
  8  9  1  0  0  0  0
  8 28  1  0  0  0  0
  8 29  1  0  0  0  0
  9 10  1  0  0  0  0
  9 30  1  0  0  0  0
 10 11  2  0  0  0  0
 10 12  1  0  0  0  0
 12 13  1  0  0  0  0
 12 31  1  0  0  0  0
 13 18  1  0  0  0  0
 13 14  1  0  0  0  0
 13 32  1  0  0  0  0
 14 15  1  0  0  0  0
 14 33  1  0  0  0  0
 14 34  1  0  0  0  0
 15 16  1  0  0  0  0
 15 35  1  0  0  0  0
 15 36  1  0  0  0  0
 16 17  1  0  0  0  0
 17 18  1  0  0  0  0
 17 37  1  0  0  0  0
 17 38  1  0  0  0  0
 18 39  1  0  0  0  0
 18 40  1  0  0  0  0
M  END
> <s_m_source_file>
AV-unprocessed.smi

> <i_m_source_file_index>
2327

> <i_lp_mmshare_version>
43012

> <i_f3d_flags>
0

> <s_epik_input>
W0NIM11jMVtjSF1zYyhuMSlbQ0BIXShbQ0gzXSlbQ0gyXVtOSF1DKD1PKVtOSF1bQ0hdMltDSDJdW0NIMl1PW0NIMl1bQ0gyXTI=

> <s_epik_cmdline>
J2VwaWtfcHl0aG9uJywgJy1waCcsICc3LjAnLCAnLXRuJywgJzgnLCAnLW1hJywgJzIwMCcsICctbWV0YWxfYmluZGluZycsICctaW1hZScsICc8aW5maWxlLm1hZT4nLCAnLW9tYWUnLCAnPG91dGZpbGUubWFlPic=

> <r_epik_Ionization_Penalty>
0.0015425

> <r_epik_Ionization_Penalty_Charging>
0

> <r_epik_Ionization_Penalty_Neutral>
0.0015425

> <r_epik_State_Penalty>
0.000998134

> <r_epik_Charging_Adjusted_Penalty>
0.000998134

> <i_epik_Tot_Q>
0

> <i_epik_Tot_abs_Q>
0

> <r_epik_Metal_State_Penalty>
-0

> <b_epik_Metal_Only>
0

> <s_lp_Force_Field>
OPLS_2005

> <r_lp_Energy>
7.05585

> <b_lp_Chiralities_Consistent>
1

> <s_lp_Variant>
AV-unprocessed.smi:2327-1

> <Gold.Version>
5.8.1

> <Gold.Id.Protein>
6NUR|6NUR_protein|mol2

> <Gold.PLP.Fitness>
41.4568

> <Gold.PLP.PLP>
-31.7418

> <Gold.PLP.part.hbond>
-2.9729

> <Gold.PLP.part.metal>
0.0000

> <Gold.PLP.part.buried>
-1.8290

> <Gold.PLP.part.nonpolar>
-26.6943

> <Gold.PLP.part.repulsive>
0.4119

> <Gold.PLP.ligand.clash>
0.0000

> <Gold.PLP.ligand.torsion>
0.9433

> <Gold.PLP.Chemscore.Hbond>
2.8240

> <Gold.PLP.Chemscore.CHOScore>
1.0000

> <Gold.PLP.Chemscore.Metal>
0.0000

> <Gold.Chemscore.Hbonds>
donor molecule, donor type, donor heavy atom, donor atom, acceptor molecule, acceptor atom, score
      L1  H     9    30       P1  7948  0.90
      L1  H    12    31       P1  7948  1.00
      P1  H  7989  7998       L1    16  0.94
      L1  C     3    23       P1 10747  0.73

> <Gold.PLP.Chemscore.Internal.Correction>
0.1298

> <Gold.Rescore>
     Score         DG    S(hbond)    S(metal)    S(lipo)     H(rot)  DE(clash)    DE(int)     intcor
     18.74     -20.07       2.46        0.00      88.02       1.53       0.24       1.10       ----

> <Gold.Chemscore.Fitness>
18.7400

> <Gold.Chemscore.DG>
-20.0721

> <Gold.Chemscore.ZeroCoef>
-5.4800

> <Gold.Chemscore.Hbond>
2.4602

> <Gold.Chemscore.Metal>
0.0000

> <Gold.Chemscore.Lipo>
88.0193

> <Gold.Chemscore.Internal_Hbond>
0.0000

> <Gold.Chemscore.DEClash>
0.2359

> <Gold.Chemscore.DEInternal>
1.0962

> <Gold.Chemscore.Rot>
1.5325

> <Gold.Chemscore.Internal.Correction>
   9.000000E+99

> <Gold.Chemscore.Hbonds>
donor molecule, donor type, donor heavy atom, donor atom, acceptor molecule, acceptor atom, score
      L1  H     9    30       P1  7948  0.88
      L1  H    12    31       P1  7948  0.98
      P1  H  7989  7998       L1    16  0.23

> <Gold.Chemscore.Hbond.Weighted>
-8.2171

> <Gold.Chemscore.Metal.Weighted>
-0.0000

> <Gold.Chemscore.Lipo.Weighted>
-10.2983

> <Gold.Chemscore.Internal_Hbond.Weighted>
0.0000

> <Gold.Chemscore.DEClash.Weighted>
0.2359

> <Gold.Chemscore.DEInternal.Weighted>
1.0962

> <Gold.Chemscore.Rot.Weighted>
3.9233

> <Gold.Chemscore.Internal.Correction.Weighted>
   9.000000E+99

> <Gold.Protein.RotatedTorsions>
[ 6907 6896 6895 6894 ] final  -92.75 input  -60.11 | X-H torsion
[ 7974 7965 7964 7962 ] final    6.46 input  175.53 | X-H torsion
[ 8008 7997 7996 7995 ] final   61.28 input   59.86 | X-H torsion
[ 10167 10162 10161 10158 ] final  -42.12 input  -65.29 | X-H torsion
[ 10718 10713 10712 10709 ] final  -96.50 input   66.30 | X-H torsion
[ 10763 10752 10751 10750 ] final  -26.36 input  -60.55 | X-H torsion
[ 11005 11000 10999 10996 ] final  113.08 input  -57.11 | X-H torsion

> <Gold.Protein.ActiveResidues>
 VAL166  LYS551  ARG553  GLY616  TRP617  ASP618  TYR619  PRO620  LYS621  CYS622 
 ASP623  PHE694  ASN695  SER759  ASP760  ASP761  ALA762  ILE779  LEU786  VAL792 
 PHE793  MET794  SER795  GLU796  ALA797  LYS798  CYS799  TRP800  GLU811  SER814 

> <Gold.Protein.RotatedAtoms>
  150.6911  134.2074  159.4345 H   0  0  0  0  0  0  0  0  0  0  0  0  # atno 6907 bound_to 6896
  152.0037  134.9912  160.0575 H   0  0  0  0  0  0  0  0  0  0  0  0  # atno 6908 bound_to 6896
  152.1554  133.4513  159.4871 H   0  0  0  0  0  0  0  0  0  0  0  0  # atno 6909 bound_to 6896
  146.2434  140.0229  142.8396 H   0  0  0  0  0  0  0  0  0  0  0  0  # atno 7974 bound_to 7965
  155.5958  140.3493  155.4579 H   0  0  0  0  0  0  0  0  0  0  0  0  # atno 8008 bound_to 7997
  156.0266  140.1265  157.0326 H   0  0  0  0  0  0  0  0  0  0  0  0  # atno 8009 bound_to 7997
  154.4336  140.1051  156.6026 H   0  0  0  0  0  0  0  0  0  0  0  0  # atno 8010 bound_to 7997
  140.6980  143.3055  151.3164 H   0  0  0  0  0  0  0  0  0  0  0  0  # atno 10167 bound_to 10162
  156.0063  130.5154  150.6235 H   0  0  0  0  0  0  0  0  0  0  0  0  # atno 10718 bound_to 10713
  153.7146  135.6948  153.5028 H   0  0  0  0  0  0  0  0  0  0  0  0  # atno 10763 bound_to 10752
  153.2247  135.4357  155.0528 H   0  0  0  0  0  0  0  0  0  0  0  0  # atno 10764 bound_to 10752
  154.8304  135.3469  154.6682 H   0  0  0  0  0  0  0  0  0  0  0  0  # atno 10765 bound_to 10752
  139.8943  134.9543  156.6684 H   0  0  0  0  0  0  0  0  0  0  0  0  # atno 11005 bound_to 11000
  145.1224  140.9470  143.4592 LP  0  0  0  0  0  0  0  0  0  0  0  0  # atno 17320 bound_to 7965
  145.0468  139.3214  143.5949 LP  0  0  0  0  0  0  0  0  0  0  0  0  # atno 17321 bound_to 7965
  139.6459  144.0451  152.2590 LP  0  0  0  0  0  0  0  0  0  0  0  0  # atno 17342 bound_to 10162
  139.9972  144.6319  150.7762 LP  0  0  0  0  0  0  0  0  0  0  0  0  # atno 17343 bound_to 10162
  157.4046  131.0815  151.1277 LP  0  0  0  0  0  0  0  0  0  0  0  0  # atno 17370 bound_to 10713
  157.1928  130.6359  149.5710 LP  0  0  0  0  0  0  0  0  0  0  0  0  # atno 17371 bound_to 10713
  140.7393  133.8992  155.8266 LP  0  0  0  0  0  0  0  0  0  0  0  0  # atno 17394 bound_to 11000
  141.0091  134.1045  157.4240 LP  0  0  0  0  0  0  0  0  0  0  0  0  # atno 17395 bound_to 11000

$$$$
