AV-unprocessed.smi:2023|AV-procd|sdf|8190|dock7
  -GOLD-   2272010443D 1   1.00000     0.00000
 Structure written by MMmdl.
 34 35  0  0  0  0  0  0  0  0  2 V2000
  154.1682  137.3164  157.5565 O   0  0  0  0  0  0  0  0  0  0  0  0
  153.1714  138.2537  158.0995 S   0  0  0  0  0  0  0  0  0  0  0  0
  152.3251  137.7881  159.2105 O   0  0  0  0  0  0  0  0  0  0  0  0
  153.7400  139.7527  158.3294 N   0  5  0  0  0  0  0  0  0  0  0  0
  154.4147  140.0728  159.5747 C   0  0  0  0  0  0  0  0  0  0  0  0
  153.4209  140.7074  160.5718 C   0  0  0  0  0  0  0  0  0  0  0  0
  153.0161  142.1413  160.2445 C   0  0  0  0  0  0  0  0  0  0  0  0
  152.9158  142.5815  158.9068 C   0  0  0  0  0  0  0  0  0  0  0  0
  152.5274  143.9110  158.6541 C   0  0  0  0  0  0  0  0  0  0  0  0
  152.2508  144.7485  159.7528 C   0  0  0  0  0  0  0  0  0  0  0  0
  152.3349  144.3405  161.0369 N   0  0  0  0  0  0  0  0  0  0  0  0
  152.7103  143.0641  161.2706 C   0  0  0  0  0  0  0  0  0  0  0  0
  152.0975  138.6214  156.7844 N   0  0  0  0  0  0  0  0  0  0  0  0
  152.4656  138.0955  155.4589 C   0  0  0  0  0  0  0  0  0  0  0  0
  151.3185  138.2749  154.4513 C   0  0  0  0  0  0  0  0  0  0  0  0
  150.9146  139.6342  154.4031 O   0  0  0  0  0  0  0  0  0  0  0  0
  150.4154  140.0664  155.6591 C   0  0  0  0  0  0  0  0  0  0  0  0
  151.5186  139.9794  156.7252 C   0  0  0  0  0  0  0  0  0  0  0  0
  154.8691  139.1926  160.0308 H   0  0  0  0  0  0  0  0  0  0  0  0
  155.2311  140.7759  159.4082 H   0  0  0  0  0  0  0  0  0  0  0  0
  152.5164  140.0993  160.6050 H   0  0  0  0  0  0  0  0  0  0  0  0
  153.8348  140.6763  161.5808 H   0  0  0  0  0  0  0  0  0  0  0  0
  153.1343  141.9122  158.0878 H   0  0  0  0  0  0  0  0  0  0  0  0
  152.4437  144.2797  157.6427 H   0  0  0  0  0  0  0  0  0  0  0  0
  151.9502  145.7737  159.5950 H   0  0  0  0  0  0  0  0  0  0  0  0
  152.7690  142.7701  162.3084 H   0  0  0  0  0  0  0  0  0  0  0  0
  153.3588  138.6153  155.1104 H   0  0  0  0  0  0  0  0  0  0  0  0
  152.7186  137.0384  155.5353 H   0  0  0  0  0  0  0  0  0  0  0  0
  151.6442  137.9684  153.4574 H   0  0  0  0  0  0  0  0  0  0  0  0
  150.4701  137.6412  154.7149 H   0  0  0  0  0  0  0  0  0  0  0  0
  150.0685  141.0955  155.5658 H   0  0  0  0  0  0  0  0  0  0  0  0
  149.5506  139.4666  155.9475 H   0  0  0  0  0  0  0  0  0  0  0  0
  151.1062  140.2632  157.6926 H   0  0  0  0  0  0  0  0  0  0  0  0
  152.3136  140.6905  156.4989 H   0  0  0  0  0  0  0  0  0  0  0  0
  1  2  2  0  0  0  0
  2  3  2  0  0  0  0
  2  4  1  0  0  0  0
  2 13  1  0  0  0  0
  4  5  1  0  0  0  0
  5  6  1  0  0  0  0
  5 19  1  0  0  0  0
  5 20  1  0  0  0  0
  6  7  1  0  0  0  0
  6 21  1  0  0  0  0
  6 22  1  0  0  0  0
  7 12  1  0  0  0  0
  7  8  2  0  0  0  0
  8  9  1  0  0  0  0
  8 23  1  0  0  0  0
  9 10  2  0  0  0  0
  9 24  1  0  0  0  0
 10 11  1  0  0  0  0
 10 25  1  0  0  0  0
 11 12  2  0  0  0  0
 12 26  1  0  0  0  0
 13 18  1  0  0  0  0
 13 14  1  0  0  0  0
 14 15  1  0  0  0  0
 14 27  1  0  0  0  0
 14 28  1  0  0  0  0
 15 16  1  0  0  0  0
 15 29  1  0  0  0  0
 15 30  1  0  0  0  0
 16 17  1  0  0  0  0
 17 18  1  0  0  0  0
 17 31  1  0  0  0  0
 17 32  1  0  0  0  0
 18 33  1  0  0  0  0
 18 34  1  0  0  0  0
M  CHG  1   4  -1
M  END
> <s_m_source_file>
AV-unprocessed.smi

> <i_m_source_file_index>
2023

> <i_lp_mmshare_version>
43012

> <i_f3d_flags>
0

> <s_epik_input>
W0NIMl0xW0NIMl1PW0NIMl1bQ0gyXU4xUyg9TykoPU8pW05IXVtDSDJdW0NIMl1jMltjSF1bY0hdW2NIXW5bY0hdMg==

> <s_epik_cmdline>
J2VwaWtfcHl0aG9uJywgJy1waCcsICc3LjAnLCAnLXRuJywgJzgnLCAnLW1hJywgJzIwMCcsICctbWV0YWxfYmluZGluZycsICctaW1hZScsICc8aW5maWxlLm1hZT4nLCAnLW9tYWUnLCAnPG91dGZpbGUubWFlPic=

> <r_epik_Ionization_Penalty>
1.23471

> <r_epik_Ionization_Penalty_Charging>
1.20871

> <r_epik_Ionization_Penalty_Neutral>
0.025996

> <r_epik_State_Penalty>
1.46261

> <r_epik_Charging_Adjusted_Penalty>
2.67132

> <i_epik_Tot_Q>
-1

> <i_epik_Tot_abs_Q>
1

> <r_epik_Metal_State_Penalty>
0.521406

> <b_epik_Metal_Only>
0

> <s_lp_Force_Field>
OPLS_2005

> <r_lp_Energy>
4.19534

> <b_lp_Chiralities_Consistent>
1

> <s_lp_Variant>
AV-unprocessed.smi:2023-2

> <Gold.Version>
5.8.1

> <Gold.Id.Protein>
6NUR|6NUR_protein|mol2

> <Gold.PLP.Fitness>
45.0560

> <Gold.PLP.PLP>
-38.3548

> <Gold.PLP.part.hbond>
-2.0000

> <Gold.PLP.part.metal>
0.0000

> <Gold.PLP.part.buried>
-4.9828

> <Gold.PLP.part.nonpolar>
-32.1928

> <Gold.PLP.part.repulsive>
0.2571

> <Gold.PLP.ligand.clash>
0.0205

> <Gold.PLP.ligand.torsion>
1.9105

> <Gold.PLP.Chemscore.Hbond>
3.0000

> <Gold.PLP.Chemscore.CHOScore>
0.0000

> <Gold.PLP.Chemscore.Metal>
0.0000

> <Gold.Chemscore.Hbonds>
donor molecule, donor type, donor heavy atom, donor atom, acceptor molecule, acceptor atom, score
      P1  H  7989  7998       L1    16  1.00
      P1  H  7997  8008       L1     4  2.00

> <Gold.PLP.Chemscore.Internal.Correction>
1.5428

> <Gold.Rescore>
     Score         DG    S(hbond)    S(metal)    S(lipo)     H(rot)  DE(clash)    DE(int)     intcor
     16.11     -17.93       1.35        0.00     102.18       1.56       0.07       1.75       ----

> <Gold.Chemscore.Fitness>
16.1115

> <Gold.Chemscore.DG>
-17.9268

> <Gold.Chemscore.ZeroCoef>
-5.4800

> <Gold.Chemscore.Hbond>
1.3450

> <Gold.Chemscore.Metal>
0.0000

> <Gold.Chemscore.Lipo>
102.1847

> <Gold.Chemscore.Internal_Hbond>
0.0000

> <Gold.Chemscore.DEClash>
0.0688

> <Gold.Chemscore.DEInternal>
1.7464

> <Gold.Chemscore.Rot>
1.5630

> <Gold.Chemscore.Internal.Correction>
   9.000000E+99

> <Gold.Chemscore.Hbonds>
donor molecule, donor type, donor heavy atom, donor atom, acceptor molecule, acceptor atom, score
      P1  H  7989  7998       L1    16  0.88
      P1  H  7997  8008       L1     4  0.22

> <Gold.Chemscore.Hbond.Weighted>
-4.4924

> <Gold.Chemscore.Metal.Weighted>
-0.0000

> <Gold.Chemscore.Lipo.Weighted>
-11.9556

> <Gold.Chemscore.Internal_Hbond.Weighted>
0.0000

> <Gold.Chemscore.DEClash.Weighted>
0.0688

> <Gold.Chemscore.DEInternal.Weighted>
1.7464

> <Gold.Chemscore.Rot.Weighted>
4.0013

> <Gold.Chemscore.Internal.Correction.Weighted>
   9.000000E+99

> <Gold.Protein.RotatedTorsions>
[ 6907 6896 6895 6894 ] final -126.58 input  -60.11 | X-H torsion
[ 7974 7965 7964 7962 ] final  174.42 input  175.53 | X-H torsion
[ 8008 7997 7996 7995 ] final -107.82 input   59.86 | X-H torsion
[ 10167 10162 10161 10158 ] final  154.74 input  -65.29 | X-H torsion
[ 10718 10713 10712 10709 ] final  107.54 input   66.30 | X-H torsion
[ 10763 10752 10751 10750 ] final  151.43 input  -60.55 | X-H torsion
[ 11005 11000 10999 10996 ] final   77.07 input  -57.11 | X-H torsion

> <Gold.Protein.ActiveResidues>
 VAL166  LYS551  ARG553  GLY616  TRP617  ASP618  TYR619  PRO620  LYS621  CYS622 
 ASP623  PHE694  ASN695  SER759  ASP760  ASP761  ALA762  ILE779  LEU786  VAL792 
 PHE793  MET794  SER795  GLU796  ALA797  LYS798  CYS799  TRP800  GLU811  SER814 

> <Gold.Protein.RotatedAtoms>
  150.8984  133.7150  159.2885 H   0  0  0  0  0  0  0  0  0  0  0  0  # atno 6907 bound_to 6896
  151.4677  135.1042  159.9752 H   0  0  0  0  0  0  0  0  0  0  0  0  # atno 6908 bound_to 6896
  152.4862  133.8332  159.7169 H   0  0  0  0  0  0  0  0  0  0  0  0  # atno 6909 bound_to 6896
  144.7222  139.9795  143.6438 H   0  0  0  0  0  0  0  0  0  0  0  0  # atno 7974 bound_to 7965
  154.9350  140.0404  157.2067 H   0  0  0  0  0  0  0  0  0  0  0  0  # atno 8008 bound_to 7997
  154.8124  140.2870  155.5822 H   0  0  0  0  0  0  0  0  0  0  0  0  # atno 8009 bound_to 7997
  156.2972  140.2534  156.3015 H   0  0  0  0  0  0  0  0  0  0  0  0  # atno 8010 bound_to 7997
  139.4822  144.5160  151.7951 H   0  0  0  0  0  0  0  0  0  0  0  0  # atno 10167 bound_to 10162
  157.6624  131.0875  150.6172 H   0  0  0  0  0  0  0  0  0  0  0  0  # atno 10718 bound_to 10713
  154.1036  135.2844  155.3246 H   0  0  0  0  0  0  0  0  0  0  0  0  # atno 10763 bound_to 10752
  154.6538  135.5359  153.7937 H   0  0  0  0  0  0  0  0  0  0  0  0  # atno 10764 bound_to 10752
  153.0370  135.6517  154.1198 H   0  0  0  0  0  0  0  0  0  0  0  0  # atno 10765 bound_to 10752
  139.9270  134.7653  156.1475 H   0  0  0  0  0  0  0  0  0  0  0  0  # atno 11005 bound_to 11000
  146.0499  139.3501  143.0646 LP  0  0  0  0  0  0  0  0  0  0  0  0  # atno 17320 bound_to 7965
  145.8228  140.9670  143.0890 LP  0  0  0  0  0  0  0  0  0  0  0  0  # atno 17321 bound_to 7965
  140.4669  144.1643  150.5913 LP  0  0  0  0  0  0  0  0  0  0  0  0  # atno 17342 bound_to 10162
  140.4425  143.2520  151.9454 LP  0  0  0  0  0  0  0  0  0  0  0  0  # atno 17343 bound_to 10162
  156.6474  130.4475  149.5731 LP  0  0  0  0  0  0  0  0  0  0  0  0  # atno 17370 bound_to 10713
  156.2163  130.6710  151.1322 LP  0  0  0  0  0  0  0  0  0  0  0  0  # atno 17371 bound_to 10713
  141.0835  133.6744  156.2386 LP  0  0  0  0  0  0  0  0  0  0  0  0  # atno 17394 bound_to 11000
  140.6307  134.5266  157.5559 LP  0  0  0  0  0  0  0  0  0  0  0  0  # atno 17395 bound_to 11000

$$$$
