#       Name:                AV-unprocessed.smi:2483
#       Creating user name   scv26
#       Creation time:       Fri Mar 27 13:42:38 2020


#       File generated by GOLD software.
#

@<TRIPOS>MOLECULE
AV-unprocessed.smi:2483
    42    43     1
SMALL
NO_CHARGES


@<TRIPOS>ATOM
      1 ****        -2.1092  -1.5768  -3.6241 C.3            1 S1                 0.0000
      2 ****        -1.3944  -0.6865  -2.7176 N.3            1 S1                 0.0000
      3 ****        -1.9911   0.6245  -2.5015 C.3            1 S1                 0.0000
      4 ****         0.0089  -0.6540  -2.8434 C.ar           1 S1                 0.0000
      5 ****         0.5380  -0.7799  -4.0823 N.ar           1 S1                 0.0000
      6 ****         1.8636  -0.7364  -4.2462 C.ar           1 S1                 0.0000
      7 ****         2.7169  -0.5739  -3.2271 N.pl3          1 S1                 1.0000
      8 ****         2.2393  -0.4468  -1.9662 C.ar           1 S1                 0.0000
      9 ****         0.8460  -0.4774  -1.7147 C.ar           1 S1                 0.0000
     10 ****         0.2664  -0.3805  -0.4156 N.am           1 S1                 0.0000
     11 ****         0.8439  -0.0569   0.7535 C.2            1 S1                 0.0000
     12 ****         2.0368   0.1982   0.9117 O.2            1 S1                 0.0000
     13 ****        -0.0598  -0.0396   1.7459 N.am           1 S1                 0.0000
     14 ****         0.1884   0.2654   3.1620 C.3            1 S1                 0.0000
     15 ****         1.0040  -0.8563   3.8066 C.3            1 S1                 0.0000
     16 ****         0.6284   1.7337   3.3649 C.3            1 S1                 0.0000
     17 ****        -0.8418   2.1349   3.5026 C.3            1 S1                 0.0000
     18 ****        -1.1408   0.6698   3.8307 C.3            1 S1                 0.0000
     19 ****        -1.6252  -2.5530  -3.6736 H              1 S1                 0.0000
     20 ****        -2.1526  -1.1582  -4.6305 H              1 S1                 0.0000
     21 ****        -3.1309  -1.7278  -3.2748 H              1 S1                 0.0000
     22 ****        -1.4501   1.2010  -1.7510 H              1 S1                 0.0000
     23 ****        -3.0215   0.5176  -2.1613 H              1 S1                 0.0000
     24 ****        -1.9971   1.1964  -3.4302 H              1 S1                 0.0000
     25 ****         2.2949  -0.8361  -5.2315 H              1 S1                 0.0000
     26 ****         3.0068  -0.3378  -1.2166 H              1 S1                 0.0000
     27 ****        -0.7306  -0.5386  -0.3829 H              1 S1                 0.0000
     28 ****        -1.0150  -0.2612   1.5055 H              1 S1                 0.0000
     29 ****         1.1210  -0.6927   4.8781 H              1 S1                 0.0000
     30 ****         2.0061  -0.9264   3.3833 H              1 S1                 0.0000
     31 ****         0.5206  -1.8253   3.6780 H              1 S1                 0.0000
     32 ****         1.1822   1.8780   4.2940 H              1 S1                 0.0000
     33 ****         1.1463   2.2031   2.5282 H              1 S1                 0.0000
     34 ****        -1.0497   2.8366   4.3108 H              1 S1                 0.0000
     35 ****        -1.2833   2.4583   2.5587 H              1 S1                 0.0000
     36 ****        -2.0423   0.2735   3.3610 H              1 S1                 0.0000
     37 ****        -1.1453   0.4819   4.9058 H              1 S1                 0.0000
     38 ****         3.7240  -0.5498  -3.3888 H              1 S1                 0.0000
     39 ****        -1.5416  -1.1667  -1.8529 LP             1 S1                 0.0000
     40 ****        -0.0612  -0.9052  -4.8731 LP             1 S1                 0.0000
     41 ****         2.6611   0.1735   0.1309 LP             1 S1                 0.0000
     42 ****         2.3821   0.4302   1.8210 LP             1 S1                 0.0000
@<TRIPOS>BOND
    1    1    2 1     
    2    1   19 1     
    3    1   20 1     
    4    1   21 1     
    5    2    3 1     
    6    2    4 1     
    7    3   22 1     
    8    3   23 1     
    9    3   24 1     
   10    4    9 ar    
   11    4    5 ar    
   12    5    6 ar    
   13    6    7 ar    
   14    6   25 1     
   15    7    8 ar    
   16    7   38 1     
   17    8    9 ar    
   18    8   26 1     
   19    9   10 1     
   20   10   11 am    
   21   10   27 1     
   22   11   12 2     
   23   11   13 am    
   24   13   14 1     
   25   13   28 1     
   26   14   18 1     
   27   14   15 1     
   28   14   16 1     
   29   15   29 1     
   30   15   30 1     
   31   15   31 1     
   32   16   17 1     
   33   16   32 1     
   34   16   33 1     
   35   17   18 1     
   36   17   34 1     
   37   17   35 1     
   38   18   36 1     
   39   18   37 1     
   40    2   39 1     
   41    5   40 1     
   42   12   41 1     
   43   12   42 1     
@<TRIPOS>SUBSTRUCTURE
      1 S1             1
@<TRIPOS>SET
LONE_PAIRS      STATIC     ATOMS    <user>   **** ""
4 39 40 41 42
DONOR_HYDROGENS      STATIC     ATOMS    <user>   **** ""
3 38 27 28
ATOM$BLUE        STATIC     ATOMS    COLORGROUP SYSTEM
4 39 40 41 42
ATOM$RED        STATIC     ATOMS    COLORGROUP SYSTEM
3 38 27 28
