#       Name:                AV-unprocessed.smi:144
#       Creating user name   scv26
#       Creation time:       Thu Mar 26 18:35:31 2020


#       File generated by GOLD software.
#

@<TRIPOS>MOLECULE
AV-unprocessed.smi:144
    54    56     1
SMALL
NO_CHARGES


@<TRIPOS>ATOM
      1 ****        -0.0975   2.1592  -3.2786 O.2            1 S1                 0.0000
      2 ****         0.4077   1.5250  -2.3536 C.2            1 S1                 0.0000
      3 ****         1.8521   1.8627  -1.9390 C.3            1 S1                 0.0000
      4 ****         2.3942   1.0506  -0.8246 N.am           1 S1                 0.0000
      5 ****         3.0762  -0.1542  -1.1284 C.2            1 S1                 0.0000
      6 ****         3.2207  -0.5288  -2.2928 O.2            1 S1                 0.0000
      7 ****         3.5667  -0.9081   0.0199 C.2            1 S1                 0.0000
      8 ****         4.2201  -2.0661  -0.1742 F              1 S1                 0.0000
      9 ****         3.3656  -0.4657   1.2781 C.2            1 S1                 0.0000
     10 ****         2.6969   0.7117   1.5600 N.am           1 S1                 0.0000
     11 ****         2.4729   1.1714   2.9842 C.3            1 S1                 0.0000
     12 ****         1.1066   0.6906   3.4862 C.3            1 S1                 0.0000
     13 ****         1.4663  -0.6157   4.1598 C.3            1 S1                 0.0000
     14 ****         2.8391  -0.2937   4.7400 C.3            1 S1                 0.0000
     15 ****         3.4470   0.5998   3.8097 O.3            1 S1                 0.0000
     16 ****         2.1848   1.4944   0.5030 C.2            1 S1                 0.0000
     17 ****         1.5562   2.5297   0.7335 O.2            1 S1                 0.0000
     18 ****        -0.2182   0.5330  -1.6890 N.am           1 S1                 0.0000
     19 ****        -1.5363   0.0346  -1.8660 C.ar           1 S1                 0.0000
     20 ****        -1.7838  -1.2901  -1.4534 C.ar           1 S1                 0.0000
     21 ****        -3.0713  -1.8547  -1.5771 C.ar           1 S1                 0.0000
     22 ****        -3.3359  -3.2909  -1.1507 C.3            1 S1                 0.0000
     23 ****        -4.5137  -3.3802  -0.5320 F              1 S1                 0.0000
     24 ****        -3.3576  -4.0713  -2.2303 F              1 S1                 0.0000
     25 ****        -2.3930  -3.7361  -0.3193 F              1 S1                 0.0000
     26 ****        -4.1183  -1.0795  -2.1177 C.ar           1 S1                 0.0000
     27 ****        -3.8915   0.2557  -2.5152 C.ar           1 S1                 0.0000
     28 ****        -5.0149   1.1098  -3.0841 C.3            1 S1                 0.0000
     29 ****        -5.1158   2.2410  -2.3860 F              1 S1                 0.0000
     30 ****        -4.7416   1.4112  -4.3532 F              1 S1                 0.0000
     31 ****        -6.1911   0.4828  -3.0407 F              1 S1                 0.0000
     32 ****        -2.6010   0.8092  -2.3833 C.ar           1 S1                 0.0000
     33 ****         2.4847   1.7778  -2.8239 H              1 S1                 0.0000
     34 ****         1.8931   2.9255  -1.6955 H              1 S1                 0.0000
     35 ****         3.7430  -1.0710   2.0888 H              1 S1                 0.0000
     36 ****         2.5877   2.2565   2.9751 H              1 S1                 0.0000
     37 ****         0.7331   1.4079   4.2182 H              1 S1                 0.0000
     38 ****         0.3757   0.5918   2.6825 H              1 S1                 0.0000
     39 ****         0.7439  -0.9211   4.9171 H              1 S1                 0.0000
     40 ****         1.5446  -1.4137   3.4204 H              1 S1                 0.0000
     41 ****         2.7345   0.2186   5.6973 H              1 S1                 0.0000
     42 ****         3.4483  -1.1842   4.8962 H              1 S1                 0.0000
     43 ****         0.3465   0.0332  -1.0177 H              1 S1                 0.0000
     44 ****        -0.9735  -1.8783  -1.0476 H              1 S1                 0.0000
     45 ****        -5.0997  -1.5180  -2.2200 H              1 S1                 0.0000
     46 ****        -2.4529   1.8376  -2.6748 H              1 S1                 0.0000
     47 ****         0.4280   2.8734  -3.7409 LP             1 S1                 0.0000
     48 ****        -1.0338   1.9606  -3.5684 LP             1 S1                 0.0000
     49 ****         2.8538   0.0202  -3.0439 LP             1 S1                 0.0000
     50 ****         3.7049  -1.3819  -2.4872 LP             1 S1                 0.0000
     51 ****         3.9232   1.3235   4.3092 LP             1 S1                 0.0000
     52 ****         4.1026   0.0959   3.2474 LP             1 S1                 0.0000
     53 ****         1.1860   3.0688  -0.0230 LP             1 S1                 0.0000
     54 ****         1.4165   2.8303   1.6769 LP             1 S1                 0.0000
@<TRIPOS>BOND
    1    1    2 2     
    2    2    3 1     
    3    2   18 am    
    4    3    4 1     
    5    3   33 1     
    6    3   34 1     
    7    4   16 am    
    8    4    5 am    
    9    5    6 2     
   10    5    7 1     
   11    7    8 1     
   12    7    9 2     
   13    9   10 1     
   14    9   35 1     
   15   10   11 1     
   16   10   16 am    
   17   11   15 1     
   18   11   12 1     
   19   11   36 1     
   20   12   13 1     
   21   12   37 1     
   22   12   38 1     
   23   13   14 1     
   24   13   39 1     
   25   13   40 1     
   26   14   15 1     
   27   14   41 1     
   28   14   42 1     
   29   16   17 2     
   30   18   19 1     
   31   18   43 1     
   32   19   32 ar    
   33   19   20 ar    
   34   20   21 ar    
   35   20   44 1     
   36   21   22 1     
   37   21   26 ar    
   38   22   23 1     
   39   22   24 1     
   40   22   25 1     
   41   26   27 ar    
   42   26   45 1     
   43   27   28 1     
   44   27   32 ar    
   45   28   29 1     
   46   28   30 1     
   47   28   31 1     
   48   32   46 1     
   49    1   47 1     
   50    1   48 1     
   51    6   49 1     
   52    6   50 1     
   53   15   51 1     
   54   15   52 1     
   55   17   53 1     
   56   17   54 1     
@<TRIPOS>SUBSTRUCTURE
      1 S1             1
@<TRIPOS>SET
LONE_PAIRS      STATIC     ATOMS    <user>   **** ""
8 47 48 49 50 51 52 53 54
DONOR_HYDROGENS      STATIC     ATOMS    <user>   **** ""
1 43
ATOM$BLUE        STATIC     ATOMS    COLORGROUP SYSTEM
8 47 48 49 50 51 52 53 54
ATOM$RED        STATIC     ATOMS    COLORGROUP SYSTEM
1 43
