AV-unprocessed.smi:1047|AV-procd|sdf|4599|dock7
  -GOLD-   22720 3 93D 1   1.00000     0.00000
 Structure written by MMmdl.
 57 59  0  0  0  0  0  0  0  0  3 V2000
  145.9908  136.9840  154.1645 C   0  0  0  0  0  0  0  0  0  0  0  0
  146.0773  135.4887  153.8274 C   0  0  0  0  0  0  0  0  0  0  0  0
  147.4715  134.9788  153.8365 N   0  3  2  0  0  0  0  0  0  0  0  0
  147.5807  133.5361  153.5080 C   0  0  0  0  0  0  0  0  0  0  0  0
  149.0533  133.0940  153.5186 C   0  0  0  0  0  0  0  0  0  0  0  0
  149.6331  133.3922  154.7823 O   0  0  0  0  0  0  0  0  0  0  0  0
  149.6295  134.7885  155.0621 C   0  0  2  0  0  0  0  0  0  0  0  0
  150.3429  135.0112  156.4040 C   0  0  0  0  0  0  0  0  0  0  0  0
  150.5762  136.4302  156.6531 N   0  0  0  0  0  0  0  0  0  0  0  0
  151.2712  137.0971  155.5556 C   0  0  0  0  0  0  0  0  0  0  0  0
  150.9403  138.5979  155.4995 C   0  0  2  0  0  0  0  0  0  0  0  0
  151.4535  139.1024  154.2835 O   0  0  0  0  0  0  0  0  0  0  0  0
  151.5468  139.3847  156.6805 C   0  0  0  0  0  0  0  0  0  0  0  0
  151.1694  140.8063  156.6797 N   0  0  0  0  0  0  0  0  0  0  0  0
  150.4015  141.4995  155.7958 C   0  0  0  0  0  0  0  0  0  0  0  0
  150.3325  142.7875  156.2327 N   0  3  0  0  0  0  0  0  0  0  0  0
  151.0668  142.9196  157.4130 C   0  0  0  0  0  0  0  0  0  0  0  0
  151.2910  144.0245  158.2259 C   0  0  0  0  0  0  0  0  0  0  0  0
  152.0977  143.8310  159.3698 C   0  0  0  0  0  0  0  0  0  0  0  0
  152.3613  145.0181  160.2808 C   0  0  0  0  0  0  0  0  0  0  0  0
  152.6520  142.5586  159.6648 C   0  0  0  0  0  0  0  0  0  0  0  0
  153.5224  142.3627  160.8947 C   0  0  0  0  0  0  0  0  0  0  0  0
  152.4106  141.4468  158.8263 C   0  0  0  0  0  0  0  0  0  0  0  0
  151.6102  141.6531  157.7047 C   0  0  0  0  0  0  0  0  0  0  0  0
  148.1663  135.2703  155.1133 C   0  0  0  0  0  0  0  0  0  0  0  0
  144.9495  137.2970  154.2457 H   0  0  0  0  0  0  0  0  0  0  0  0
  146.4530  137.6035  153.3964 H   0  0  0  0  0  0  0  0  0  0  0  0
  146.4764  137.2043  155.1154 H   0  0  0  0  0  0  0  0  0  0  0  0
  145.4964  134.9445  154.5733 H   0  0  0  0  0  0  0  0  0  0  0  0
  145.6106  135.2850  152.8628 H   0  0  0  0  0  0  0  0  0  0  0  0
  147.0113  132.9502  154.2314 H   0  0  0  0  0  0  0  0  0  0  0  0
  147.1547  133.3339  152.5259 H   0  0  0  0  0  0  0  0  0  0  0  0
  149.1240  132.0206  153.3423 H   0  0  0  0  0  0  0  0  0  0  0  0
  149.6140  133.5848  152.7214 H   0  0  0  0  0  0  0  0  0  0  0  0
  150.1596  135.3282  154.2745 H   0  0  0  0  0  0  0  0  0  0  0  0
  149.7286  134.6052  157.2089 H   0  0  0  0  0  0  0  0  0  0  0  0
  151.2830  134.4583  156.4219 H   0  0  0  0  0  0  0  0  0  0  0  0
  149.6901  136.8949  156.8259 H   0  0  0  0  0  0  0  0  0  0  0  0
  152.3492  136.9594  155.6522 H   0  0  0  0  0  0  0  0  0  0  0  0
  150.9828  136.6307  154.6123 H   0  0  0  0  0  0  0  0  0  0  0  0
  149.8582  138.7357  155.4813 H   0  0  0  0  0  0  0  0  0  0  0  0
  152.3064  138.7224  154.1381 H   0  0  0  0  0  0  0  0  0  0  0  0
  151.1995  138.9652  157.6255 H   0  0  0  0  0  0  0  0  0  0  0  0
  152.6332  139.2990  156.6949 H   0  0  0  0  0  0  0  0  0  0  0  0
  149.9292  141.0998  154.9100 H   0  0  0  0  0  0  0  0  0  0  0  0
  150.8671  144.9908  157.9941 H   0  0  0  0  0  0  0  0  0  0  0  0
  151.9831  144.8218  161.2843 H   0  0  0  0  0  0  0  0  0  0  0  0
  151.8732  145.9206  159.9118 H   0  0  0  0  0  0  0  0  0  0  0  0
  153.4303  145.2215  160.3466 H   0  0  0  0  0  0  0  0  0  0  0  0
  153.8677  141.3318  160.9801 H   0  0  0  0  0  0  0  0  0  0  0  0
  152.9647  142.6026  161.8001 H   0  0  0  0  0  0  0  0  0  0  0  0
  154.4018  143.0050  160.8482 H   0  0  0  0  0  0  0  0  0  0  0  0
  152.8374  140.4806  159.0511 H   0  0  0  0  0  0  0  0  0  0  0  0
  148.1416  136.3438  155.3056 H   0  0  0  0  0  0  0  0  0  0  0  0
  147.6367  134.7854  155.9353 H   0  0  0  0  0  0  0  0  0  0  0  0
  147.9711  135.4853  153.1196 H   0  0  0  0  0  0  0  0  0  0  0  0
  149.8194  143.5200  155.7589 H   0  0  0  0  0  0  0  0  0  0  0  0
  1  2  1  0  0  0  0
  1 26  1  0  0  0  0
  1 27  1  0  0  0  0
  1 28  1  0  0  0  0
  2  3  1  0  0  0  0
  2 29  1  0  0  0  0
  2 30  1  0  0  0  0
  3 25  1  0  0  0  0
  3  4  1  0  0  0  0
  3 56  1  0  0  0  0
  4  5  1  0  0  0  0
  4 31  1  0  0  0  0
  4 32  1  0  0  0  0
  5  6  1  0  0  0  0
  5 33  1  0  0  0  0
  5 34  1  0  0  0  0
  6  7  1  0  0  0  0
  7  8  1  0  0  0  0
  7 25  1  0  0  0  0
  7 35  1  0  0  0  0
  8  9  1  0  0  0  0
  8 36  1  0  0  0  0
  8 37  1  0  0  0  0
  9 10  1  0  0  0  0
  9 38  1  0  0  0  0
 10 11  1  0  0  0  0
 10 39  1  0  0  0  0
 10 40  1  0  0  0  0
 11 12  1  0  0  0  0
 11 13  1  0  0  0  0
 11 41  1  0  0  0  0
 12 42  1  0  0  0  0
 13 14  1  0  0  0  0
 13 43  1  0  0  0  0
 13 44  1  0  0  0  0
 14 24  1  0  0  0  0
 14 15  1  0  0  0  0
 15 16  2  0  0  0  0
 15 45  1  0  0  0  0
 16 17  1  0  0  0  0
 16 57  1  0  0  0  0
 17 24  2  0  0  0  0
 17 18  1  0  0  0  0
 18 19  2  0  0  0  0
 18 46  1  0  0  0  0
 19 20  1  0  0  0  0
 19 21  1  0  0  0  0
 20 47  1  0  0  0  0
 20 48  1  0  0  0  0
 20 49  1  0  0  0  0
 21 22  1  0  0  0  0
 21 23  2  0  0  0  0
 22 50  1  0  0  0  0
 22 51  1  0  0  0  0
 22 52  1  0  0  0  0
 23 24  1  0  0  0  0
 23 53  1  0  0  0  0
 25 54  1  0  0  0  0
 25 55  1  0  0  0  0
M  CHG  1   3   1
M  CHG  1  16   1
M  END
> <s_m_source_file>
AV-unprocessed.smi

> <i_m_source_file_index>
1047

> <i_lp_mmshare_version>
43012

> <i_f3d_flags>
0

> <s_epik_input>
W0NIM11bQ0gyXU4xW0NIMl1bQ0gyXU9bQ0BIXShbQ0gyXTEpW0NIMl1bTkhdW0NIMl1bQ0BIXShbT0hdKVtDSDJdbihbY0hdbjIpYyhjMjMpW2NIXWMoW0NIM10pYyhbY0hdMylbQ0gzXQ==

> <s_epik_cmdline>
J2VwaWtfcHl0aG9uJywgJy1waCcsICc3LjAnLCAnLXRuJywgJzgnLCAnLW1hJywgJzIwMCcsICctbWV0YWxfYmluZGluZycsICctaW1hZScsICc8aW5maWxlLm1hZT4nLCAnLW9tYWUnLCAnPG91dGZpbGUubWFlPic=

> <r_epik_Ionization_Penalty>
2.03028

> <r_epik_Ionization_Penalty_Charging>
1.21256

> <r_epik_Ionization_Penalty_Neutral>
0.817715

> <r_epik_State_Penalty>
2.54959

> <r_epik_Charging_Adjusted_Penalty>
3.76215

> <i_epik_Tot_Q>
2

> <i_epik_Tot_abs_Q>
2

> <r_epik_Metal_State_Penalty>
6.52811

> <b_epik_Metal_Only>
0

> <s_lp_Force_Field>
OPLS_2005

> <r_lp_Energy>
31.8247

> <b_lp_Chiralities_Consistent>
1

> <s_lp_Variant>
AV-unprocessed.smi:1047-40

> <Gold.Version>
5.8.1

> <Gold.Id.Protein>
6NUR|6NUR_protein|mol2

> <Gold.PLP.Fitness>
61.7892

> <Gold.PLP.PLP>
-47.2409

> <Gold.PLP.part.hbond>
-2.8503

> <Gold.PLP.part.metal>
0.0000

> <Gold.PLP.part.buried>
-5.8268

> <Gold.PLP.part.nonpolar>
-39.3599

> <Gold.PLP.part.repulsive>
0.1944

> <Gold.PLP.ligand.clash>
0.0000

> <Gold.PLP.ligand.torsion>
0.2824

> <Gold.PLP.Chemscore.Hbond>
5.0000

> <Gold.PLP.Chemscore.CHOScore>
0.0000

> <Gold.PLP.Chemscore.Metal>
0.0000

> <Gold.Chemscore.Hbonds>
donor molecule, donor type, donor heavy atom, donor atom, acceptor molecule, acceptor atom, score
      L1  H     3    56       P1  7948  2.00
      L1  H    16    57       P1  8028  1.95
      P1  H  7989  7998       L1    12  1.00

> <Gold.PLP.Chemscore.Internal.Correction>
0.1130

> <Gold.Rescore>
     Score         DG    S(hbond)    S(metal)    S(lipo)     H(rot)  DE(clash)    DE(int)     intcor
     21.67     -22.00       2.69        0.00     123.63       2.71       0.03       0.31       ----

> <Gold.Chemscore.Fitness>
21.6700

> <Gold.Chemscore.DG>
-22.0033

> <Gold.Chemscore.ZeroCoef>
-5.4800

> <Gold.Chemscore.Hbond>
2.6927

> <Gold.Chemscore.Metal>
0.0000

> <Gold.Chemscore.Lipo>
123.6279

> <Gold.Chemscore.Internal_Hbond>
0.0000

> <Gold.Chemscore.DEClash>
0.0255

> <Gold.Chemscore.DEInternal>
0.3079

> <Gold.Chemscore.Rot>
2.7088

> <Gold.Chemscore.Internal.Correction>
   9.000000E+99

> <Gold.Chemscore.Hbonds>
donor molecule, donor type, donor heavy atom, donor atom, acceptor molecule, acceptor atom, score
      L1  H     3    56       P1  7948  1.00
      L1  H    16    57       P1  8028  0.90
      P1  H  7989  7998       L1    12  0.34

> <Gold.Chemscore.Hbond.Weighted>
-8.9935

> <Gold.Chemscore.Metal.Weighted>
-0.0000

> <Gold.Chemscore.Lipo.Weighted>
-14.4645

> <Gold.Chemscore.Internal_Hbond.Weighted>
0.0000

> <Gold.Chemscore.DEClash.Weighted>
0.0255

> <Gold.Chemscore.DEInternal.Weighted>
0.3079

> <Gold.Chemscore.Rot.Weighted>
6.9346

> <Gold.Chemscore.Internal.Correction.Weighted>
   9.000000E+99

> <Gold.Protein.RotatedTorsions>
[ 6907 6896 6895 6894 ] final -129.31 input  -60.11 | X-H torsion
[ 7974 7965 7964 7962 ] final  -56.40 input  175.53 | X-H torsion
[ 8008 7997 7996 7995 ] final -158.51 input   59.86 | X-H torsion
[ 10167 10162 10161 10158 ] final    7.67 input  -65.29 | X-H torsion
[ 10718 10713 10712 10709 ] final   29.63 input   66.30 | X-H torsion
[ 10763 10752 10751 10750 ] final  -98.85 input  -60.55 | X-H torsion
[ 11005 11000 10999 10996 ] final  153.34 input  -57.11 | X-H torsion

> <Gold.Protein.ActiveResidues>
 VAL166  LYS551  ARG553  GLY616  TRP617  ASP618  TYR619  PRO620  LYS621  CYS622 
 ASP623  PHE694  ASN695  SER759  ASP760  ASP761  ALA762  ILE779  LEU786  VAL792 
 PHE793  MET794  SER795  GLU796  ALA797  LYS798  CYS799  TRP800  GLU811  SER814 

> <Gold.Protein.RotatedAtoms>
  150.9273  133.6808  159.2818 H   0  0  0  0  0  0  0  0  0  0  0  0  # atno 6907 bound_to 6896
  151.4242  135.1000  159.9632 H   0  0  0  0  0  0  0  0  0  0  0  0  # atno 6908 bound_to 6896
  152.5009  133.8718  159.7357 H   0  0  0  0  0  0  0  0  0  0  0  0  # atno 6909 bound_to 6896
  145.8631  140.8271  142.9926 H   0  0  0  0  0  0  0  0  0  0  0  0  # atno 7974 bound_to 7965
  155.7486  140.0823  157.2212 H   0  0  0  0  0  0  0  0  0  0  0  0  # atno 8008 bound_to 7997
  154.4014  140.1564  156.2754 H   0  0  0  0  0  0  0  0  0  0  0  0  # atno 8009 bound_to 7997
  155.8952  140.3413  155.5988 H   0  0  0  0  0  0  0  0  0  0  0  0  # atno 8010 bound_to 7997
  140.6358  143.7889  150.7358 H   0  0  0  0  0  0  0  0  0  0  0  0  # atno 10167 bound_to 10162
  157.2491  130.7106  149.6396 H   0  0  0  0  0  0  0  0  0  0  0  0  # atno 10718 bound_to 10713
  154.7448  135.4994  153.9186 H   0  0  0  0  0  0  0  0  0  0  0  0  # atno 10763 bound_to 10752
  153.1081  135.6702  153.9558 H   0  0  0  0  0  0  0  0  0  0  0  0  # atno 10764 bound_to 10752
  153.9325  135.3076  155.3424 H   0  0  0  0  0  0  0  0  0  0  0  0  # atno 10765 bound_to 10752
  140.1389  134.8752  157.2304 H   0  0  0  0  0  0  0  0  0  0  0  0  # atno 11005 bound_to 11000
  144.6726  140.1126  143.7454 LP  0  0  0  0  0  0  0  0  0  0  0  0  # atno 17320 bound_to 7965
  145.9224  139.2554  143.1373 LP  0  0  0  0  0  0  0  0  0  0  0  0  # atno 17321 bound_to 7965
  140.1510  143.4358  152.2131 LP  0  0  0  0  0  0  0  0  0  0  0  0  # atno 17342 bound_to 10162
  139.5569  144.7379  151.4268 LP  0  0  0  0  0  0  0  0  0  0  0  0  # atno 17343 bound_to 10162
  155.9667  130.4433  150.5417 LP  0  0  0  0  0  0  0  0  0  0  0  0  # atno 17370 bound_to 10713
  157.3297  131.0697  151.1870 LP  0  0  0  0  0  0  0  0  0  0  0  0  # atno 17371 bound_to 10713
  140.2747  134.3419  155.7362 LP  0  0  0  0  0  0  0  0  0  0  0  0  # atno 17394 bound_to 11000
  141.2183  133.7444  156.9275 LP  0  0  0  0  0  0  0  0  0  0  0  0  # atno 17395 bound_to 11000

$$$$
