AV-unprocessed.smi:34|AV-procd|sdf|223|dock9
  -GOLD-   2262015543D 1   1.00000     0.00000
 Structure written by MMmdl.
 55 59  0  0  0  0  0  0  0  0  1 V2000
  151.7494  139.8861  158.6657 O   0  0  0  0  0  0  0  0  0  0  0  0
  151.6553  140.8621  157.9210 C   0  0  0  0  0  0  0  0  0  0  0  0
  151.4840  140.7255  156.4850 N   0  0  0  0  0  0  0  0  0  0  0  0
  151.3394  139.5893  155.7632 C   0  0  0  0  0  0  0  0  0  0  0  0
  151.8103  139.4658  154.4946 N   0  0  0  0  0  0  0  0  0  0  0  0
  151.6380  138.3248  153.8220 C   0  0  0  0  0  0  0  0  0  0  0  0
  151.0339  137.2047  154.2230 N   0  0  0  0  0  0  0  0  0  0  0  0
  150.5582  137.3165  155.4966 C   0  0  0  0  0  0  0  0  0  0  0  0
  150.6721  138.4691  156.3244 C   0  0  0  0  0  0  0  0  0  0  0  0
  150.0741  138.2274  157.5537 N   0  0  0  0  0  0  0  0  0  0  0  0
  149.6326  137.0030  157.4540 C   0  0  0  0  0  0  0  0  0  0  0  0
  149.8748  136.3798  156.2496 N   0  0  0  0  0  0  0  0  0  0  0  0
  149.4700  134.9875  155.8621 C   0  0  2  0  0  0  0  0  0  0  0  0
  148.5696  134.4741  156.8007 O   0  0  0  0  0  0  0  0  0  0  0  0
  149.1307  133.3288  157.4364 C   0  0  1  0  0  0  0  0  0  0  0  0
  148.0324  132.3661  157.9039 C   0  0  0  0  0  0  0  0  0  0  0  0
  147.4878  132.8328  159.1280 O   0  0  0  0  0  0  0  0  0  0  0  0
  146.2676  132.4213  159.5243 C   0  0  0  0  0  0  0  0  0  0  0  0
  145.6638  131.4795  159.0066 O   0  0  0  0  0  0  0  0  0  0  0  0
  145.7238  133.2228  160.6586 C   0  0  0  0  0  0  0  0  0  0  0  0
  144.3852  133.0218  161.0694 C   0  0  0  0  0  0  0  0  0  0  0  0
  143.8430  133.7640  162.1365 C   0  0  0  0  0  0  0  0  0  0  0  0
  144.6321  134.7177  162.8052 C   0  0  0  0  0  0  0  0  0  0  0  0
  145.9649  134.9275  162.4060 C   0  0  0  0  0  0  0  0  0  0  0  0
  146.5096  134.1850  161.3400 C   0  0  0  0  0  0  0  0  0  0  0  0
  150.0981  132.7587  156.3983 C   0  0  1  0  0  0  0  0  0  0  0  0
  149.4404  132.0560  155.4731 F   0  0  0  0  0  0  0  0  0  0  0  0
  150.6647  134.0155  155.7648 C   0  0  2  0  0  0  0  0  0  0  0  0
  151.8305  134.4447  156.4466 O   0  0  0  0  0  0  0  0  0  0  0  0
  151.7941  142.2646  158.4380 C   0  0  0  0  0  0  0  0  0  0  0  0
  151.4098  143.3571  157.6283 C   0  0  0  0  0  0  0  0  0  0  0  0
  151.5501  144.6774  158.0980 C   0  0  0  0  0  0  0  0  0  0  0  0
  152.0834  144.9174  159.3781 C   0  0  0  0  0  0  0  0  0  0  0  0
  152.4799  143.8359  160.1871 C   0  0  0  0  0  0  0  0  0  0  0  0
  152.3397  142.5147  159.7188 C   0  0  0  0  0  0  0  0  0  0  0  0
  151.4564  141.5878  155.9608 H   0  0  0  0  0  0  0  0  0  0  0  0
  152.0402  138.3072  152.8198 H   0  0  0  0  0  0  0  0  0  0  0  0
  149.1068  136.5175  158.2633 H   0  0  0  0  0  0  0  0  0  0  0  0
  148.9493  135.1101  154.9114 H   0  0  0  0  0  0  0  0  0  0  0  0
  149.7017  133.6676  158.3012 H   0  0  0  0  0  0  0  0  0  0  0  0
  147.2371  132.3201  157.1590 H   0  0  0  0  0  0  0  0  0  0  0  0
  148.4312  131.3569  158.0165 H   0  0  0  0  0  0  0  0  0  0  0  0
  143.7603  132.2945  160.5713 H   0  0  0  0  0  0  0  0  0  0  0  0
  142.8200  133.6008  162.4418 H   0  0  0  0  0  0  0  0  0  0  0  0
  144.2156  135.2869  163.6231 H   0  0  0  0  0  0  0  0  0  0  0  0
  146.5721  135.6595  162.9180 H   0  0  0  0  0  0  0  0  0  0  0  0
  147.5355  134.3717  161.0584 H   0  0  0  0  0  0  0  0  0  0  0  0
  150.8547  132.1002  156.8270 H   0  0  0  0  0  0  0  0  0  0  0  0
  150.9243  133.8620  154.7168 H   0  0  0  0  0  0  0  0  0  0  0  0
  152.5228  134.5586  155.8134 H   0  0  0  0  0  0  0  0  0  0  0  0
  151.0000  143.1902  156.6425 H   0  0  0  0  0  0  0  0  0  0  0  0
  151.2491  145.5063  157.4745 H   0  0  0  0  0  0  0  0  0  0  0  0
  152.1916  145.9301  159.7373 H   0  0  0  0  0  0  0  0  0  0  0  0
  152.8951  144.0194  161.1672 H   0  0  0  0  0  0  0  0  0  0  0  0
  152.6593  141.7005  160.3528 H   0  0  0  0  0  0  0  0  0  0  0  0
  1  2  2  0  0  0  0
  2  3  1  0  0  0  0
  2 30  1  0  0  0  0
  3  4  1  0  0  0  0
  3 36  1  0  0  0  0
  4  9  1  0  0  0  0
  4  5  2  0  0  0  0
  5  6  1  0  0  0  0
  6  7  2  0  0  0  0
  6 37  1  0  0  0  0
  7  8  1  0  0  0  0
  8 12  1  0  0  0  0
  8  9  2  0  0  0  0
  9 10  1  0  0  0  0
 10 11  2  0  0  0  0
 11 12  1  0  0  0  0
 11 38  1  0  0  0  0
 12 13  1  0  0  0  0
 13 28  1  0  0  0  0
 13 14  1  0  0  0  0
 13 39  1  0  0  0  0
 14 15  1  0  0  0  0
 15 16  1  0  0  0  0
 15 26  1  0  0  0  0
 15 40  1  0  0  0  0
 16 17  1  0  0  0  0
 16 41  1  0  0  0  0
 16 42  1  0  0  0  0
 17 18  1  0  0  0  0
 18 19  2  0  0  0  0
 18 20  1  0  0  0  0
 20 25  1  0  0  0  0
 20 21  2  0  0  0  0
 21 22  1  0  0  0  0
 21 43  1  0  0  0  0
 22 23  2  0  0  0  0
 22 44  1  0  0  0  0
 23 24  1  0  0  0  0
 23 45  1  0  0  0  0
 24 25  2  0  0  0  0
 24 46  1  0  0  0  0
 25 47  1  0  0  0  0
 26 27  1  0  0  0  0
 26 28  1  0  0  0  0
 26 48  1  0  0  0  0
 28 29  1  0  0  0  0
 28 49  1  0  0  0  0
 29 50  1  0  0  0  0
 30 35  1  0  0  0  0
 30 31  2  0  0  0  0
 31 32  1  0  0  0  0
 31 51  1  0  0  0  0
 32 33  2  0  0  0  0
 32 52  1  0  0  0  0
 33 34  1  0  0  0  0
 33 53  1  0  0  0  0
 34 35  2  0  0  0  0
 34 54  1  0  0  0  0
 35 55  1  0  0  0  0
M  END
> <s_m_source_file>
AV-unprocessed.smi

> <i_m_source_file_index>
34

> <i_lp_mmshare_version>
43012

> <i_f3d_flags>
0

> <s_epik_input>
W2NIXTFbY0hdW2NIXVtjSF1bY0hdYzFDKD1PKVtOSF1jKG5bY0hdbjIpYyhjMjMpbltjSF1uM1tDQEBIXTRPW0NASF0oW0NAQEhdKEYpW0NASF00W09IXSlbQ0gyXU9DKD1PKWM1W2NIXVtjSF1bY0hdW2NIXVtjSF01

> <s_epik_cmdline>
J2VwaWtfcHl0aG9uJywgJy1waCcsICc3LjAnLCAnLXRuJywgJzgnLCAnLW1hJywgJzIwMCcsICctbWV0YWxfYmluZGluZycsICctaW1hZScsICc8aW5maWxlLm1hZT4nLCAnLW9tYWUnLCAnPG91dGZpbGUubWFlPic=

> <r_lp_tautomer_probability>
1

> <r_epik_Ionization_Penalty>
0.00257489

> <r_epik_Ionization_Penalty_Charging>
0

> <r_epik_Ionization_Penalty_Neutral>
0.00257489

> <r_epik_State_Penalty>
0.00519398

> <r_epik_Charging_Adjusted_Penalty>
0.00519398

> <i_epik_Tot_Q>
0

> <i_epik_Tot_abs_Q>
0

> <r_epik_Metal_State_Penalty>
0.335891

> <b_epik_Metal_Only>
0

> <s_epik_Chemistry_Notes>
This compound has an ester and may undergo hydrolysis at high or low pH. This compound contains an acetal/aminal-like group ( X-CH(R)-Y where X, Y are N, S, or O) that may be acid/base labile, releasing an aldehyde.

> <s_lp_Force_Field>
OPLS_2005

> <r_lp_Energy>
53.1328

> <b_lp_Chiralities_Consistent>
1

> <s_lp_Variant>
AV-unprocessed.smi:34-9

> <Gold.Version>
5.8.1

> <Gold.Id.Protein>
6NUR|6NUR_protein|mol2

> <Gold.PLP.Fitness>
56.4539

> <Gold.PLP.PLP>
-52.5011

> <Gold.PLP.part.hbond>
-3.5301

> <Gold.PLP.part.metal>
0.0000

> <Gold.PLP.part.buried>
-6.2281

> <Gold.PLP.part.nonpolar>
-43.0552

> <Gold.PLP.part.repulsive>
0.3698

> <Gold.PLP.ligand.clash>
0.0000

> <Gold.PLP.ligand.torsion>
1.0205

> <Gold.PLP.Chemscore.Hbond>
1.8564

> <Gold.PLP.Chemscore.CHOScore>
0.0730

> <Gold.PLP.Chemscore.Metal>
0.0000

> <Gold.Chemscore.Hbonds>
donor molecule, donor type, donor heavy atom, donor atom, acceptor molecule, acceptor atom, score
      P1  H  7989  7998       L1     5  1.00
      L1  C     6    37       P1  7949  0.20

> <Gold.PLP.Chemscore.Internal.Correction>
0.2053

> <Gold.Rescore>
     Score         DG    S(hbond)    S(metal)    S(lipo)     H(rot)  DE(clash)    DE(int)     intcor
     11.12     -15.02       0.89        0.00     115.67       2.72       0.09       3.81       ----

> <Gold.Chemscore.Fitness>
11.1232

> <Gold.Chemscore.DG>
-15.0232

> <Gold.Chemscore.ZeroCoef>
-5.4800

> <Gold.Chemscore.Hbond>
0.8914

> <Gold.Chemscore.Metal>
0.0000

> <Gold.Chemscore.Lipo>
115.6671

> <Gold.Chemscore.Internal_Hbond>
0.0000

> <Gold.Chemscore.DEClash>
0.0910

> <Gold.Chemscore.DEInternal>
3.8090

> <Gold.Chemscore.Rot>
2.7215

> <Gold.Chemscore.Internal.Correction>
   9.000000E+99

> <Gold.Chemscore.Hbonds>
donor molecule, donor type, donor heavy atom, donor atom, acceptor molecule, acceptor atom, score
      P1  H  7989  7998       L1     5  0.73
      P1  H 10752 10763       L1     7  0.01

> <Gold.Chemscore.Hbond.Weighted>
-2.9772

> <Gold.Chemscore.Metal.Weighted>
-0.0000

> <Gold.Chemscore.Lipo.Weighted>
-13.5331

> <Gold.Chemscore.Internal_Hbond.Weighted>
0.0000

> <Gold.Chemscore.DEClash.Weighted>
0.0910

> <Gold.Chemscore.DEInternal.Weighted>
3.8090

> <Gold.Chemscore.Rot.Weighted>
6.9670

> <Gold.Chemscore.Internal.Correction.Weighted>
   9.000000E+99

> <Gold.Protein.RotatedTorsions>
[ 6907 6896 6895 6894 ] final -101.13 input  -60.11 | X-H torsion
[ 7974 7965 7964 7962 ] final  115.49 input  175.53 | X-H torsion
[ 8008 7997 7996 7995 ] final  -27.32 input   59.86 | X-H torsion
[ 10167 10162 10161 10158 ] final -138.29 input  -65.29 | X-H torsion
[ 10718 10713 10712 10709 ] final  -61.01 input   66.30 | X-H torsion
[ 10763 10752 10751 10750 ] final   42.10 input  -60.55 | X-H torsion
[ 11005 11000 10999 10996 ] final   96.19 input  -57.11 | X-H torsion

> <Gold.Protein.ActiveResidues>
 VAL166  LYS551  ARG553  GLY616  TRP617  ASP618  TYR619  PRO620  LYS621  CYS622 
 ASP623  PHE694  ASN695  SER759  ASP760  ASP761  ALA762  ILE779  LEU786  VAL792 
 PHE793  MET794  SER795  GLU796  ALA797  LYS798  CYS799  TRP800  GLU811  SER814 

> <Gold.Protein.RotatedAtoms>
  150.7142  134.0781  159.3887 H   0  0  0  0  0  0  0  0  0  0  0  0  # atno 6907 bound_to 6896
  151.8764  135.0468  160.0494 H   0  0  0  0  0  0  0  0  0  0  0  0  # atno 6908 bound_to 6896
  152.2602  133.5255  159.5414 H   0  0  0  0  0  0  0  0  0  0  0  0  # atno 6909 bound_to 6896
  145.1914  139.2998  143.4366 H   0  0  0  0  0  0  0  0  0  0  0  0  # atno 7974 bound_to 7965
  154.4383  140.1875  156.0913 H   0  0  0  0  0  0  0  0  0  0  0  0  # atno 8008 bound_to 7997
  156.0363  140.3325  155.7168 H   0  0  0  0  0  0  0  0  0  0  0  0  # atno 8009 bound_to 7997
  155.5765  140.0617  157.2784 H   0  0  0  0  0  0  0  0  0  0  0  0  # atno 8010 bound_to 7997
  139.8493  143.7219  152.2659 H   0  0  0  0  0  0  0  0  0  0  0  0  # atno 10167 bound_to 10162
  156.0951  130.4194  150.0935 H   0  0  0  0  0  0  0  0  0  0  0  0  # atno 10718 bound_to 10713
  152.9891  135.6142  154.2894 H   0  0  0  0  0  0  0  0  0  0  0  0  # atno 10763 bound_to 10752
  154.2620  135.2782  155.2776 H   0  0  0  0  0  0  0  0  0  0  0  0  # atno 10764 bound_to 10752
  154.5197  135.5818  153.6728 H   0  0  0  0  0  0  0  0  0  0  0  0  # atno 10765 bound_to 10752
  139.8783  134.8938  156.4123 H   0  0  0  0  0  0  0  0  0  0  0  0  # atno 11005 bound_to 11000
  146.3435  140.2127  142.8590 LP  0  0  0  0  0  0  0  0  0  0  0  0  # atno 17320 bound_to 7965
  145.0038  140.8655  143.5266 LP  0  0  0  0  0  0  0  0  0  0  0  0  # atno 17321 bound_to 7965
  139.7481  144.7541  151.0548 LP  0  0  0  0  0  0  0  0  0  0  0  0  # atno 17342 bound_to 10162
  140.7789  143.4892  150.9915 LP  0  0  0  0  0  0  0  0  0  0  0  0  # atno 17343 bound_to 10162
  156.8936  130.9596  151.3585 LP  0  0  0  0  0  0  0  0  0  0  0  0  # atno 17370 bound_to 10713
  157.6109  130.8582  149.8951 LP  0  0  0  0  0  0  0  0  0  0  0  0  # atno 17371 bound_to 10713
  140.9192  133.7657  155.9885 LP  0  0  0  0  0  0  0  0  0  0  0  0  # atno 17394 bound_to 11000
  140.8459  134.3012  157.5295 LP  0  0  0  0  0  0  0  0  0  0  0  0  # atno 17395 bound_to 11000

$$$$
