AV-unprocessed.smi:1385|AV-procd|sdf|5628|dock2
  -GOLD-   22720 5243D 1   1.00000     0.00000
 Structure written by MMmdl.
 38 39  0  0  0  0  0  0  0  0  1 V2000
  136.4040  140.3686  154.2881 C   0  0  0  0  0  0  0  0  0  0  0  0
  137.8877  140.2586  154.1999 C   0  0  0  0  0  0  0  0  0  0  0  0
  138.7156  141.1114  154.8157 N   0  0  0  0  0  0  0  0  0  0  0  0
  140.0503  140.8023  154.5926 N   0  0  0  0  0  0  0  0  0  0  0  0
  140.1892  139.7211  153.8131 C   0  0  0  0  0  0  0  0  0  0  0  0
  141.4447  139.1818  153.4269 N   0  0  0  0  0  0  0  0  0  0  0  0
  141.8397  137.8966  153.4413 C   0  0  0  0  0  0  0  0  0  0  0  0
  141.1506  136.9438  153.8064 O   0  0  0  0  0  0  0  0  0  0  0  0
  143.1015  137.7720  153.0045 N   0  0  0  0  0  0  0  0  0  0  0  0
  143.8336  136.5132  152.8988 C   0  0  0  0  0  0  0  0  0  0  0  0
  145.0475  136.6589  151.9666 C   0  0  0  0  0  0  0  0  0  0  0  0
  145.7450  135.3057  151.7410 C   0  0  0  0  0  0  0  0  0  0  0  0
  144.8023  134.3218  151.1875 N   0  0  0  0  0  0  0  0  0  0  0  0
  145.4488  133.0210  150.8944 C   0  0  0  0  0  0  0  0  0  0  0  0
  144.6806  132.1277  149.9132 C   0  0  0  0  0  0  0  0  0  0  0  0
  144.6812  132.4940  148.6289 N   0  0  0  0  0  0  0  0  0  0  0  0
  144.0903  131.1263  150.3119 O   0  0  0  0  0  0  0  0  0  0  0  0
  143.6900  134.1066  152.1191 C   0  0  0  0  0  0  0  0  0  0  0  0
  142.9135  135.4152  152.3479 C   0  0  0  0  0  0  0  0  0  0  0  0
  138.6857  138.9869  153.2828 S   0  0  0  0  0  0  0  0  0  0  0  0
  136.1106  141.3824  154.5623 H   0  0  0  0  0  0  0  0  0  0  0  0
  136.0251  139.6777  155.0412 H   0  0  0  0  0  0  0  0  0  0  0  0
  135.9513  140.1233  153.3272 H   0  0  0  0  0  0  0  0  0  0  0  0
  142.1230  139.8554  153.1028 H   0  0  0  0  0  0  0  0  0  0  0  0
  143.5938  138.6082  152.7260 H   0  0  0  0  0  0  0  0  0  0  0  0
  144.1762  136.2096  153.8901 H   0  0  0  0  0  0  0  0  0  0  0  0
  144.7327  137.0676  151.0051 H   0  0  0  0  0  0  0  0  0  0  0  0
  145.7594  137.3712  152.3854 H   0  0  0  0  0  0  0  0  0  0  0  0
  146.5827  135.4686  151.0629 H   0  0  0  0  0  0  0  0  0  0  0  0
  146.1659  134.9370  152.6781 H   0  0  0  0  0  0  0  0  0  0  0  0
  146.4550  133.1896  150.5054 H   0  0  0  0  0  0  0  0  0  0  0  0
  145.5662  132.4560  151.8203 H   0  0  0  0  0  0  0  0  0  0  0  0
  144.1810  131.9397  147.9493 H   0  0  0  0  0  0  0  0  0  0  0  0
  145.1746  133.3279  148.3451 H   0  0  0  0  0  0  0  0  0  0  0  0
  143.0065  133.3594  151.7136 H   0  0  0  0  0  0  0  0  0  0  0  0
  144.0592  133.7153  153.0690 H   0  0  0  0  0  0  0  0  0  0  0  0
  142.0888  135.2370  153.0389 H   0  0  0  0  0  0  0  0  0  0  0  0
  142.4649  135.7388  151.4073 H   0  0  0  0  0  0  0  0  0  0  0  0
  1  2  1  0  0  0  0
  1 21  1  0  0  0  0
  1 22  1  0  0  0  0
  1 23  1  0  0  0  0
  2 20  1  0  0  0  0
  2  3  2  0  0  0  0
  3  4  1  0  0  0  0
  4  5  2  0  0  0  0
  5  6  1  0  0  0  0
  5 20  1  0  0  0  0
  6  7  1  0  0  0  0
  6 24  1  0  0  0  0
  7  8  2  0  0  0  0
  7  9  1  0  0  0  0
  9 10  1  0  0  0  0
  9 25  1  0  0  0  0
 10 19  1  0  0  0  0
 10 11  1  0  0  0  0
 10 26  1  0  0  0  0
 11 12  1  0  0  0  0
 11 27  1  0  0  0  0
 11 28  1  0  0  0  0
 12 13  1  0  0  0  0
 12 29  1  0  0  0  0
 12 30  1  0  0  0  0
 13 14  1  0  0  0  0
 13 18  1  0  0  0  0
 14 15  1  0  0  0  0
 14 31  1  0  0  0  0
 14 32  1  0  0  0  0
 15 16  1  0  0  0  0
 15 17  2  0  0  0  0
 16 33  1  0  0  0  0
 16 34  1  0  0  0  0
 18 19  1  0  0  0  0
 18 35  1  0  0  0  0
 18 36  1  0  0  0  0
 19 37  1  0  0  0  0
 19 38  1  0  0  0  0
M  END
> <s_m_source_file>
AV-unprocessed.smi

> <i_m_source_file_index>
1385

> <i_lp_mmshare_version>
43012

> <i_f3d_flags>
0

> <s_epik_input>
W0NIM11jMW5uYyhzMSlbTkhdQyg9TylbTkhdW0NIXTJbQ0gyXVtDSDJdTihbQ0gyXVtDSDJdMilbQ0gyXUMoPU8pW05IMl0=

> <s_epik_cmdline>
J2VwaWtfcHl0aG9uJywgJy1waCcsICc3LjAnLCAnLXRuJywgJzgnLCAnLW1hJywgJzIwMCcsICctbWV0YWxfYmluZGluZycsICctaW1hZScsICc8aW5maWxlLm1hZT4nLCAnLW9tYWUnLCAnPG91dGZpbGUubWFlPic=

> <r_lp_tautomer_probability>
1

> <r_epik_Ionization_Penalty>
0.159363

> <r_epik_Ionization_Penalty_Charging>
0

> <r_epik_Ionization_Penalty_Neutral>
0.159363

> <r_epik_State_Penalty>
0.146692

> <r_epik_Charging_Adjusted_Penalty>
0.146692

> <i_epik_Tot_Q>
0

> <i_epik_Tot_abs_Q>
0

> <r_epik_Metal_State_Penalty>
0.501772

> <b_epik_Metal_Only>
0

> <s_lp_Force_Field>
OPLS_2005

> <r_lp_Energy>
10.053

> <b_lp_Chiralities_Consistent>
1

> <s_lp_Variant>
AV-unprocessed.smi:1385-1

> <Gold.Version>
5.8.1

> <Gold.Id.Protein>
6NUR|6NUR_protein|mol2

> <Gold.PLP.Fitness>
37.4404

> <Gold.PLP.PLP>
-28.7671

> <Gold.PLP.part.hbond>
-5.0000

> <Gold.PLP.part.metal>
0.0000

> <Gold.PLP.part.buried>
-2.6548

> <Gold.PLP.part.nonpolar>
-22.6635

> <Gold.PLP.part.repulsive>
1.1532

> <Gold.PLP.ligand.clash>
0.0000

> <Gold.PLP.ligand.torsion>
0.9427

> <Gold.PLP.Chemscore.Hbond>
3.5148

> <Gold.PLP.Chemscore.CHOScore>
0.0000

> <Gold.PLP.Chemscore.Metal>
0.0000

> <Gold.Chemscore.Hbonds>
donor molecule, donor type, donor heavy atom, donor atom, acceptor molecule, acceptor atom, score
      L1  H     6    24       P1 10175  1.00
      L1  H     9    25       P1 10175  1.00
      L1  H    16    34       P1  7921  1.00
      P1  H 10785 10796       L1    17  0.51

> <Gold.PLP.Chemscore.Internal.Correction>
0.0142

> <Gold.Rescore>
     Score         DG    S(hbond)    S(metal)    S(lipo)     H(rot)  DE(clash)    DE(int)     intcor
     14.07     -17.19       3.49        0.00      45.13       2.04       0.56       2.56       ----

> <Gold.Chemscore.Fitness>
14.0724

> <Gold.Chemscore.DG>
-17.1938

> <Gold.Chemscore.ZeroCoef>
-5.4800

> <Gold.Chemscore.Hbond>
3.4904

> <Gold.Chemscore.Metal>
0.0000

> <Gold.Chemscore.Lipo>
45.1291

> <Gold.Chemscore.Internal_Hbond>
0.0000

> <Gold.Chemscore.DEClash>
0.5608

> <Gold.Chemscore.DEInternal>
2.5606

> <Gold.Chemscore.Rot>
2.0407

> <Gold.Chemscore.Internal.Correction>
   9.000000E+99

> <Gold.Chemscore.Hbonds>
donor molecule, donor type, donor heavy atom, donor atom, acceptor molecule, acceptor atom, score
      L1  H     6    24       P1 10175  0.60
      L1  H     9    25       P1 10175  0.94
      L1  H    16    34       P1  7921  0.40
      P1  H 10785 10796       L1    17  0.39

> <Gold.Chemscore.Hbond.Weighted>
-11.6580

> <Gold.Chemscore.Metal.Weighted>
-0.0000

> <Gold.Chemscore.Lipo.Weighted>
-5.2801

> <Gold.Chemscore.Internal_Hbond.Weighted>
0.0000

> <Gold.Chemscore.DEClash.Weighted>
0.5608

> <Gold.Chemscore.DEInternal.Weighted>
2.5606

> <Gold.Chemscore.Rot.Weighted>
5.2243

> <Gold.Chemscore.Internal.Correction.Weighted>
   9.000000E+99

> <Gold.Protein.RotatedTorsions>
[ 6907 6896 6895 6894 ] final  154.97 input  -60.11 | X-H torsion
[ 7974 7965 7964 7962 ] final  -61.46 input  175.53 | X-H torsion
[ 8008 7997 7996 7995 ] final  -36.68 input   59.86 | X-H torsion
[ 10167 10162 10161 10158 ] final   80.42 input  -65.29 | X-H torsion
[ 10718 10713 10712 10709 ] final  161.04 input   66.30 | X-H torsion
[ 10763 10752 10751 10750 ] final  148.31 input  -60.55 | X-H torsion
[ 11005 11000 10999 10996 ] final  -94.80 input  -57.11 | X-H torsion

> <Gold.Protein.ActiveResidues>
 VAL166  LYS551  ARG553  GLY616  TRP617  ASP618  TYR619  PRO620  LYS621  CYS622 
 ASP623  PHE694  ASN695  SER759  ASP760  ASP761  ALA762  ILE779  LEU786  VAL792 
 PHE793  MET794  SER795  GLU796  ALA797  LYS798  CYS799  TRP800  GLU811  SER814 

> <Gold.Protein.RotatedAtoms>
  152.0508  133.4018  159.4376 H   0  0  0  0  0  0  0  0  0  0  0  0  # atno 6907 bound_to 6896
  150.6870  134.3310  159.4836 H   0  0  0  0  0  0  0  0  0  0  0  0  # atno 6908 bound_to 6896
  152.1120  134.9267  160.0617 H   0  0  0  0  0  0  0  0  0  0  0  0  # atno 6909 bound_to 6896
  145.8032  140.8643  143.0220 H   0  0  0  0  0  0  0  0  0  0  0  0  # atno 7974 bound_to 7965
  154.4068  140.1624  156.2413 H   0  0  0  0  0  0  0  0  0  0  0  0  # atno 8008 bound_to 7997
  155.9199  140.3422  155.6142 H   0  0  0  0  0  0  0  0  0  0  0  0  # atno 8009 bound_to 7997
  155.7235  140.0771  157.2311 H   0  0  0  0  0  0  0  0  0  0  0  0  # atno 8010 bound_to 7997
  139.9500  144.6033  150.8170 H   0  0  0  0  0  0  0  0  0  0  0  0  # atno 10167 bound_to 10162
  157.1421  131.0543  151.2322 H   0  0  0  0  0  0  0  0  0  0  0  0  # atno 10718 bound_to 10713
  154.0527  135.2880  155.3338 H   0  0  0  0  0  0  0  0  0  0  0  0  # atno 10763 bound_to 10752
  154.6859  135.5245  153.8328 H   0  0  0  0  0  0  0  0  0  0  0  0  # atno 10764 bound_to 10752
  153.0554  135.6593  154.0722 H   0  0  0  0  0  0  0  0  0  0  0  0  # atno 10765 bound_to 10752
  141.1460  133.7981  157.0347 H   0  0  0  0  0  0  0  0  0  0  0  0  # atno 11005 bound_to 11000
  144.6766  140.0288  143.7483 LP  0  0  0  0  0  0  0  0  0  0  0  0  # atno 17320 bound_to 7965
  145.9856  139.2975  143.1015 LP  0  0  0  0  0  0  0  0  0  0  0  0  # atno 17321 bound_to 7965
  140.7586  143.3110  151.2845 LP  0  0  0  0  0  0  0  0  0  0  0  0  # atno 17342 bound_to 10162
  139.6636  144.0145  152.2708 LP  0  0  0  0  0  0  0  0  0  0  0  0  # atno 17343 bound_to 10162
  157.4298  130.7484  149.6980 LP  0  0  0  0  0  0  0  0  0  0  0  0  # atno 17370 bound_to 10713
  155.9786  130.4049  150.3635 LP  0  0  0  0  0  0  0  0  0  0  0  0  # atno 17371 bound_to 10713
  140.0731  134.9691  157.1500 LP  0  0  0  0  0  0  0  0  0  0  0  0  # atno 17394 bound_to 11000
  140.3682  134.2419  155.7180 LP  0  0  0  0  0  0  0  0  0  0  0  0  # atno 17395 bound_to 11000

$$$$
