AV-unprocessed.smi:2746|AV-procd|sdf|10573|dock9
  -GOLD-   2272015 23D 1   1.00000     0.00000
 Structure written by MMmdl.
 39 40  0  0  0  0  0  0  0  0  2 V2000
  142.1948  135.3245  153.5067 C   0  0  0  0  0  0  0  0  0  0  0  0
  143.1477  136.2729  153.4933 C   0  0  0  0  0  0  0  0  0  0  0  0
  143.8612  136.8347  152.2699 C   0  0  2  0  0  0  0  0  0  0  0  0
  144.5815  135.7233  151.4955 C   0  0  0  0  0  0  0  0  0  0  0  0
  144.8187  137.8866  152.6106 N   0  0  0  0  0  0  0  0  0  0  0  0
  145.9454  137.7249  153.3244 C   0  0  0  0  0  0  0  0  0  0  0  0
  146.2892  136.6585  153.8345 O   0  0  0  0  0  0  0  0  0  0  0  0
  146.7650  138.9653  153.5237 C   0  0  0  0  0  0  0  0  0  0  0  0
  148.1111  138.9221  153.9577 C   0  0  0  0  0  0  0  0  0  0  0  0
  148.8203  140.1299  154.1594 C   0  0  0  0  0  0  0  0  0  0  0  0
  150.1540  140.1417  154.5895 N   0  0  0  0  0  0  0  0  0  0  0  0
  150.7927  138.8331  154.5275 C   0  0  0  0  0  0  0  0  0  0  0  0
  152.2821  138.9573  154.8929 C   0  0  0  0  0  0  0  0  0  0  0  0
  152.4088  139.5630  156.1762 O   0  0  0  0  0  0  0  0  0  0  0  0
  151.8500  140.8734  156.2071 C   0  0  0  0  0  0  0  0  0  0  0  0
  150.3493  140.8006  155.8755 C   0  0  0  0  0  0  0  0  0  0  0  0
  148.1613  141.3548  153.9228 C   0  0  0  0  0  0  0  0  0  0  0  0
  146.8169  141.3440  153.5023 C   0  0  0  0  0  0  0  0  0  0  0  0
  146.1774  140.1679  153.3256 N   0  3  0  0  0  0  0  0  0  0  0  0
  141.8345  134.8556  152.6032 H   0  0  0  0  0  0  0  0  0  0  0  0
  141.7576  135.0020  154.4403 H   0  0  0  0  0  0  0  0  0  0  0  0
  143.4561  136.6950  154.4389 H   0  0  0  0  0  0  0  0  0  0  0  0
  143.0861  137.2393  151.6168 H   0  0  0  0  0  0  0  0  0  0  0  0
  143.8853  134.9400  151.1935 H   0  0  0  0  0  0  0  0  0  0  0  0
  145.3623  135.2591  152.0991 H   0  0  0  0  0  0  0  0  0  0  0  0
  145.0479  136.1141  150.5906 H   0  0  0  0  0  0  0  0  0  0  0  0
  144.6120  138.8105  152.2597 H   0  0  0  0  0  0  0  0  0  0  0  0
  148.5972  137.9748  154.1422 H   0  0  0  0  0  0  0  0  0  0  0  0
  150.3003  138.1470  155.2181 H   0  0  0  0  0  0  0  0  0  0  0  0
  150.6868  138.4157  153.5253 H   0  0  0  0  0  0  0  0  0  0  0  0
  152.7472  137.9717  154.9168 H   0  0  0  0  0  0  0  0  0  0  0  0
  152.8185  139.5457  154.1468 H   0  0  0  0  0  0  0  0  0  0  0  0
  151.9957  141.2988  157.2001 H   0  0  0  0  0  0  0  0  0  0  0  0
  152.3742  141.5207  155.5021 H   0  0  0  0  0  0  0  0  0  0  0  0
  149.9237  141.8044  155.8456 H   0  0  0  0  0  0  0  0  0  0  0  0
  149.8275  140.2510  156.6600 H   0  0  0  0  0  0  0  0  0  0  0  0
  148.6770  142.2931  154.0684 H   0  0  0  0  0  0  0  0  0  0  0  0
  146.2366  142.2338  153.3072 H   0  0  0  0  0  0  0  0  0  0  0  0
  145.2013  140.1833  153.0274 H   0  0  0  0  0  0  0  0  0  0  0  0
  1  2  2  0  0  0  0
  1 20  1  0  0  0  0
  1 21  1  0  0  0  0
  2  3  1  0  0  0  0
  2 22  1  0  0  0  0
  3  4  1  0  0  0  0
  3  5  1  0  0  0  0
  3 23  1  0  0  0  0
  4 24  1  0  0  0  0
  4 25  1  0  0  0  0
  4 26  1  0  0  0  0
  5  6  1  0  0  0  0
  5 27  1  0  0  0  0
  6  7  2  0  0  0  0
  6  8  1  0  0  0  0
  8 19  1  0  0  0  0
  8  9  2  0  0  0  0
  9 10  1  0  0  0  0
  9 28  1  0  0  0  0
 10 11  1  0  0  0  0
 10 17  2  0  0  0  0
 11 16  1  0  0  0  0
 11 12  1  0  0  0  0
 12 13  1  0  0  0  0
 12 29  1  0  0  0  0
 12 30  1  0  0  0  0
 13 14  1  0  0  0  0
 13 31  1  0  0  0  0
 13 32  1  0  0  0  0
 14 15  1  0  0  0  0
 15 16  1  0  0  0  0
 15 33  1  0  0  0  0
 15 34  1  0  0  0  0
 16 35  1  0  0  0  0
 16 36  1  0  0  0  0
 17 18  1  0  0  0  0
 17 37  1  0  0  0  0
 18 19  2  0  0  0  0
 18 38  1  0  0  0  0
 19 39  1  0  0  0  0
M  CHG  1  19   1
M  END
> <s_m_source_file>
AV-unprocessed.smi

> <i_m_source_file_index>
2746

> <i_lp_mmshare_version>
43012

> <i_f3d_flags>
0

> <s_epik_input>
W0NIMl09W0NIXVtDQEhdKFtDSDNdKVtOSF1DKD1PKWMxW2NIXWMoW2NIXVtjSF1uMSlOMltDSDJdW0NIMl1PW0NIMl1bQ0gyXTI=

> <s_epik_cmdline>
J2VwaWtfcHl0aG9uJywgJy1waCcsICc3LjAnLCAnLXRuJywgJzgnLCAnLW1hJywgJzIwMCcsICctbWV0YWxfYmluZGluZycsICctaW1hZScsICc8aW5maWxlLm1hZT4nLCAnLW9tYWUnLCAnPG91dGZpbGUubWFlPic=

> <r_lp_tautomer_probability>
1

> <r_epik_Ionization_Penalty>
0.451073

> <r_epik_Ionization_Penalty_Charging>
0.450607

> <r_epik_Ionization_Penalty_Neutral>
0.000466544

> <r_epik_State_Penalty>
0.453375

> <r_epik_Charging_Adjusted_Penalty>
0.903982

> <i_epik_Tot_Q>
1

> <i_epik_Tot_abs_Q>
1

> <r_epik_Metal_State_Penalty>
1.0249

> <b_epik_Metal_Only>
0

> <s_lp_Force_Field>
OPLS_2005

> <r_lp_Energy>
26.9967

> <b_lp_Chiralities_Consistent>
1

> <s_lp_Variant>
AV-unprocessed.smi:2746-3

> <Gold.Version>
5.8.1

> <Gold.Id.Protein>
6NUR|6NUR_protein|mol2

> <Gold.PLP.Fitness>
47.1790

> <Gold.PLP.PLP>
-34.8838

> <Gold.PLP.part.hbond>
-4.9611

> <Gold.PLP.part.metal>
0.0000

> <Gold.PLP.part.buried>
-4.2389

> <Gold.PLP.part.nonpolar>
-26.4758

> <Gold.PLP.part.repulsive>
0.1851

> <Gold.PLP.ligand.clash>
0.2632

> <Gold.PLP.ligand.torsion>
0.3017

> <Gold.PLP.Chemscore.Hbond>
4.3420

> <Gold.PLP.Chemscore.CHOScore>
0.0000

> <Gold.PLP.Chemscore.Metal>
0.0000

> <Gold.Chemscore.Hbonds>
donor molecule, donor type, donor heavy atom, donor atom, acceptor molecule, acceptor atom, score
      L1  H     5    27       P1 10175  0.98
      L1  H    19    39       P1 10175  2.00
      P1  H  7989  7998       L1    11  0.45
      P1  H  7997  8008       L1    14  0.80

> <Gold.PLP.Chemscore.Internal.Correction>
0.1357

> <Gold.Rescore>
     Score         DG    S(hbond)    S(metal)    S(lipo)     H(rot)  DE(clash)    DE(int)     intcor
     17.71     -18.15       2.04        0.00      78.66       1.30       0.12       0.33       ----

> <Gold.Chemscore.Fitness>
17.7059

> <Gold.Chemscore.DG>
-18.1484

> <Gold.Chemscore.ZeroCoef>
-5.4800

> <Gold.Chemscore.Hbond>
2.0350

> <Gold.Chemscore.Metal>
0.0000

> <Gold.Chemscore.Lipo>
78.6554

> <Gold.Chemscore.Internal_Hbond>
0.0000

> <Gold.Chemscore.DEClash>
0.1156

> <Gold.Chemscore.DEInternal>
0.3269

> <Gold.Chemscore.Rot>
1.3013

> <Gold.Chemscore.Internal.Correction>
   9.000000E+99

> <Gold.Chemscore.Hbonds>
donor molecule, donor type, donor heavy atom, donor atom, acceptor molecule, acceptor atom, score
      L1  H     5    27       P1 10175  0.93
      L1  H    19    39       P1 10175  0.99
      P1  H  7989  7998       L1    11  0.01
      P1  H  7997  8008       L1    14  0.05

> <Gold.Chemscore.Hbond.Weighted>
-6.7970

> <Gold.Chemscore.Metal.Weighted>
-0.0000

> <Gold.Chemscore.Lipo.Weighted>
-9.2027

> <Gold.Chemscore.Internal_Hbond.Weighted>
0.0000

> <Gold.Chemscore.DEClash.Weighted>
0.1156

> <Gold.Chemscore.DEInternal.Weighted>
0.3269

> <Gold.Chemscore.Rot.Weighted>
3.3313

> <Gold.Chemscore.Internal.Correction.Weighted>
   9.000000E+99

> <Gold.Protein.RotatedTorsions>
[ 6907 6896 6895 6894 ] final -177.88 input  -60.11 | X-H torsion
[ 7974 7965 7964 7962 ] final  131.42 input  175.53 | X-H torsion
[ 8008 7997 7996 7995 ] final  -38.23 input   59.86 | X-H torsion
[ 10167 10162 10161 10158 ] final   66.96 input  -65.29 | X-H torsion
[ 10718 10713 10712 10709 ] final  124.55 input   66.30 | X-H torsion
[ 10763 10752 10751 10750 ] final -117.93 input  -60.55 | X-H torsion
[ 11005 11000 10999 10996 ] final  144.12 input  -57.11 | X-H torsion

> <Gold.Protein.ActiveResidues>
 VAL166  LYS551  ARG553  GLY616  TRP617  ASP618  TYR619  PRO620  LYS621  CYS622 
 ASP623  PHE694  ASN695  SER759  ASP760  ASP761  ALA762  ILE779  LEU786  VAL792 
 PHE793  MET794  SER795  GLU796  ALA797  LYS798  CYS799  TRP800  GLU811  SER814 

> <Gold.Protein.RotatedAtoms>
  151.6282  133.3334  159.3102 H   0  0  0  0  0  0  0  0  0  0  0  0  # atno 6907 bound_to 6896
  150.8070  134.7205  159.6665 H   0  0  0  0  0  0  0  0  0  0  0  0  # atno 6908 bound_to 6896
  152.4166  134.6035  160.0058 H   0  0  0  0  0  0  0  0  0  0  0  0  # atno 6909 bound_to 6896
  145.0075  139.4252  143.5261 H   0  0  0  0  0  0  0  0  0  0  0  0  # atno 7974 bound_to 7965
  154.4040  140.1583  156.2665 H   0  0  0  0  0  0  0  0  0  0  0  0  # atno 8008 bound_to 7997
  155.8990  140.3434  155.5990 H   0  0  0  0  0  0  0  0  0  0  0  0  # atno 8009 bound_to 7997
  155.7470  140.0800  157.2210 H   0  0  0  0  0  0  0  0  0  0  0  0  # atno 8010 bound_to 7997
  140.0947  144.4956  150.7075 H   0  0  0  0  0  0  0  0  0  0  0  0  # atno 10167 bound_to 10162
  157.5576  131.1091  150.8595 H   0  0  0  0  0  0  0  0  0  0  0  0  # atno 10718 bound_to 10713
  154.8571  135.4292  154.2058 H   0  0  0  0  0  0  0  0  0  0  0  0  # atno 10763 bound_to 10752
  153.3094  135.6974  153.7135 H   0  0  0  0  0  0  0  0  0  0  0  0  # atno 10764 bound_to 10752
  153.6234  135.3498  155.2992 H   0  0  0  0  0  0  0  0  0  0  0  0  # atno 10765 bound_to 10752
  140.0608  134.9206  157.1180 H   0  0  0  0  0  0  0  0  0  0  0  0  # atno 11005 bound_to 11000
  146.3464  139.9499  142.8730 LP  0  0  0  0  0  0  0  0  0  0  0  0  # atno 17320 bound_to 7965
  145.2069  140.9879  143.4123 LP  0  0  0  0  0  0  0  0  0  0  0  0  # atno 17321 bound_to 7965
  140.7010  143.2434  151.4865 LP  0  0  0  0  0  0  0  0  0  0  0  0  # atno 17342 bound_to 10162
  139.5704  144.1941  152.1828 LP  0  0  0  0  0  0  0  0  0  0  0  0  # atno 17343 bound_to 10162
  156.9102  130.5278  149.5280 LP  0  0  0  0  0  0  0  0  0  0  0  0  # atno 17370 bound_to 10713
  156.0632  130.5681  150.9236 LP  0  0  0  0  0  0  0  0  0  0  0  0  # atno 17371 bound_to 10713
  140.3774  134.2324  155.7173 LP  0  0  0  0  0  0  0  0  0  0  0  0  # atno 17394 bound_to 11000
  141.1972  133.8065  157.0638 LP  0  0  0  0  0  0  0  0  0  0  0  0  # atno 17395 bound_to 11000

$$$$
