AV-unprocessed.smi:161|AV-procd|sdf|1375|dock5
  -GOLD-   2262019 93D 1   1.00000     0.00000
 Structure written by MMmdl.
 52 55  0  0  0  0  0  0  0  0  1 V2000
  144.6620  134.4134  150.7261 C   0  0  0  0  0  0  0  0  0  0  0  0
  145.3257  135.1726  151.8771 C   0  0  0  0  0  0  0  0  0  0  0  0
  146.0958  134.2637  152.6465 O   0  0  0  0  0  0  0  0  0  0  0  0
  146.8010  134.6972  153.7055 C   0  0  0  0  0  0  0  0  0  0  0  0
  146.7021  135.8345  154.1683 O   0  0  0  0  0  0  0  0  0  0  0  0
  147.7010  133.6068  154.2380 C   0  0  2  0  0  0  0  0  0  0  0  0
  148.4130  132.7075  153.2214 C   0  0  0  0  0  0  0  0  0  0  0  0
  148.4795  131.8750  154.5148 C   0  0  2  0  0  0  0  0  0  0  0  0
  148.9038  130.4152  154.5221 C   0  0  0  0  0  0  0  0  0  0  0  0
  147.0142  132.3022  154.6687 C   0  0  0  0  0  0  0  0  0  0  0  0
  149.2005  132.6735  155.4685 O   0  0  0  0  0  0  0  0  0  0  0  0
  148.6991  134.0043  155.3239 C   0  0  0  0  0  0  0  0  0  0  0  0
  148.0557  134.4883  156.6556 C   0  0  0  0  0  0  0  0  0  0  0  0
  149.1139  134.8583  157.7093 C   0  0  0  0  0  0  0  0  0  0  0  0
  150.0225  135.8528  157.1279 N   0  0  0  0  0  0  0  0  0  0  0  0
  149.9472  137.1977  157.2910 C   0  0  0  0  0  0  0  0  0  0  0  0
  149.2228  137.7186  158.1398 O   0  0  0  0  0  0  0  0  0  0  0  0
  150.8093  138.0692  156.4598 C   0  0  0  0  0  0  0  0  0  0  0  0
  151.0522  138.1729  155.1180 C   0  0  0  0  0  0  0  0  0  0  0  0
  151.9541  139.2100  154.8991 N   0  0  0  0  0  0  0  0  0  0  0  0
  152.2636  139.7505  156.0339 N   0  0  0  0  0  0  0  0  0  0  0  0
  151.5807  139.0901  157.0012 N   0  0  0  0  0  0  0  0  0  0  0  0
  151.7603  139.5051  158.3867 C   0  0  0  0  0  0  0  0  0  0  0  0
  151.3870  140.9777  158.6017 C   0  0  0  0  0  0  0  0  0  0  0  0
  150.8167  135.2510  156.0540 C   0  0  0  0  0  0  0  0  0  0  0  0
  149.8690  134.9353  154.8838 C   0  0  0  0  0  0  0  0  0  0  0  0
  144.0494  135.0827  150.1223 H   0  0  0  0  0  0  0  0  0  0  0  0
  144.0187  133.6170  151.1005 H   0  0  0  0  0  0  0  0  0  0  0  0
  145.4095  133.9632  150.0724 H   0  0  0  0  0  0  0  0  0  0  0  0
  145.9583  135.9657  151.4761 H   0  0  0  0  0  0  0  0  0  0  0  0
  144.5718  135.6405  152.5107 H   0  0  0  0  0  0  0  0  0  0  0  0
  147.8007  132.2970  152.4129 H   0  0  0  0  0  0  0  0  0  0  0  0
  149.3732  133.0592  152.8479 H   0  0  0  0  0  0  0  0  0  0  0  0
  148.3396  129.8358  153.7909 H   0  0  0  0  0  0  0  0  0  0  0  0
  148.7404  129.9623  155.5000 H   0  0  0  0  0  0  0  0  0  0  0  0
  149.9618  130.3112  154.2811 H   0  0  0  0  0  0  0  0  0  0  0  0
  146.6279  132.2624  155.6857 H   0  0  0  0  0  0  0  0  0  0  0  0
  146.3064  131.8599  153.9611 H   0  0  0  0  0  0  0  0  0  0  0  0
  147.4333  135.3626  156.4645 H   0  0  0  0  0  0  0  0  0  0  0  0
  147.3925  133.7356  157.0776 H   0  0  0  0  0  0  0  0  0  0  0  0
  148.6240  135.1870  158.6222 H   0  0  0  0  0  0  0  0  0  0  0  0
  149.6796  133.9703  157.9948 H   0  0  0  0  0  0  0  0  0  0  0  0
  150.6559  137.5904  154.2995 H   0  0  0  0  0  0  0  0  0  0  0  0
  151.1443  138.8746  159.0296 H   0  0  0  0  0  0  0  0  0  0  0  0
  152.7926  139.3234  158.6847 H   0  0  0  0  0  0  0  0  0  0  0  0
  151.4674  141.2456  159.6551 H   0  0  0  0  0  0  0  0  0  0  0  0
  150.3630  141.1772  158.2851 H   0  0  0  0  0  0  0  0  0  0  0  0
  152.0466  141.6425  158.0446 H   0  0  0  0  0  0  0  0  0  0  0  0
  151.6290  135.8986  155.7205 H   0  0  0  0  0  0  0  0  0  0  0  0
  151.2969  134.3383  156.4096 H   0  0  0  0  0  0  0  0  0  0  0  0
  150.4462  134.4999  154.0703 H   0  0  0  0  0  0  0  0  0  0  0  0
  149.4786  135.8806  154.5090 H   0  0  0  0  0  0  0  0  0  0  0  0
  1  2  1  0  0  0  0
  1 27  1  0  0  0  0
  1 28  1  0  0  0  0
  1 29  1  0  0  0  0
  2  3  1  0  0  0  0
  2 30  1  0  0  0  0
  2 31  1  0  0  0  0
  3  4  1  0  0  0  0
  4  5  2  0  0  0  0
  4  6  1  0  0  0  0
  6 10  1  0  0  0  0
  6 12  1  0  0  0  0
  6  7  1  0  0  0  0
  7  8  1  0  0  0  0
  7 32  1  0  0  0  0
  7 33  1  0  0  0  0
  8  9  1  0  0  0  0
  8 10  1  0  0  0  0
  8 11  1  0  0  0  0
  9 34  1  0  0  0  0
  9 35  1  0  0  0  0
  9 36  1  0  0  0  0
 10 37  1  0  0  0  0
 10 38  1  0  0  0  0
 11 12  1  0  0  0  0
 12 26  1  0  0  0  0
 12 13  1  0  0  0  0
 13 14  1  0  0  0  0
 13 39  1  0  0  0  0
 13 40  1  0  0  0  0
 14 15  1  0  0  0  0
 14 41  1  0  0  0  0
 14 42  1  0  0  0  0
 15 16  1  0  0  0  0
 15 25  1  0  0  0  0
 16 17  2  0  0  0  0
 16 18  1  0  0  0  0
 18 22  1  0  0  0  0
 18 19  2  0  0  0  0
 19 20  1  0  0  0  0
 19 43  1  0  0  0  0
 20 21  2  0  0  0  0
 21 22  1  0  0  0  0
 22 23  1  0  0  0  0
 23 24  1  0  0  0  0
 23 44  1  0  0  0  0
 23 45  1  0  0  0  0
 24 46  1  0  0  0  0
 24 47  1  0  0  0  0
 24 48  1  0  0  0  0
 25 26  1  0  0  0  0
 25 49  1  0  0  0  0
 25 50  1  0  0  0  0
 26 51  1  0  0  0  0
 26 52  1  0  0  0  0
M  END
> <s_m_source_file>
AV-unprocessed.smi

> <i_m_source_file_index>
161

> <i_lp_mmshare_version>
43012

> <i_f3d_flags>
2

> <s_epik_input>
W0NIM11bQ0gyXU9DKD1PKVtDQEBdMShbQ0gyXVtDQF0oTzIpKFtDSDNdKVtDSDJdMSlDMjNbQ0gyXVtDSDJdTihbQ0gyXVtDSDJdMylDKD1PKWM0W2NIXW5ubjRbQ0gyXVtDSDNd

> <s_epik_cmdline>
J2VwaWtfcHl0aG9uJywgJy1waCcsICc3LjAnLCAnLXRuJywgJzgnLCAnLW1hJywgJzIwMCcsICctbWV0YWxfYmluZGluZycsICctaW1hZScsICc8aW5maWxlLm1hZT4nLCAnLW9tYWUnLCAnPG91dGZpbGUubWFlPic=

> <r_lp_tautomer_probability>
1

> <r_epik_Ionization_Penalty>
1.75517e-07

> <r_epik_Ionization_Penalty_Charging>
0

> <r_epik_Ionization_Penalty_Neutral>
1.75517e-07

> <r_epik_State_Penalty>
-0

> <r_epik_Charging_Adjusted_Penalty>
0

> <i_epik_Tot_Q>
0

> <i_epik_Tot_abs_Q>
0

> <r_epik_Metal_State_Penalty>
-0

> <b_epik_Metal_Only>
0

> <s_epik_Chemistry_Notes>
This compound has an ester and may undergo hydrolysis at high or low pH.

> <s_lp_Force_Field>
OPLS_2005

> <r_lp_Energy>
59.4881

> <b_lp_Chiralities_Consistent>
0

> <s_lp_Variant>
AV-unprocessed.smi:161-1

> <Gold.Version>
5.8.1

> <Gold.Id.Protein>
6NUR|6NUR_protein|mol2

> <Gold.PLP.Fitness>
33.9611

> <Gold.PLP.PLP>
-30.0977

> <Gold.PLP.part.hbond>
-2.0000

> <Gold.PLP.part.metal>
0.0000

> <Gold.PLP.part.buried>
-3.1331

> <Gold.PLP.part.nonpolar>
-25.7372

> <Gold.PLP.part.repulsive>
0.5891

> <Gold.PLP.ligand.clash>
0.0000

> <Gold.PLP.ligand.torsion>
1.3234

> <Gold.PLP.Chemscore.Hbond>
1.8960

> <Gold.PLP.Chemscore.CHOScore>
0.0000

> <Gold.PLP.Chemscore.Metal>
0.0000

> <Gold.Chemscore.Hbonds>
donor molecule, donor type, donor heavy atom, donor atom, acceptor molecule, acceptor atom, score
      P1  H  7989  7998       L1    20  0.59
      P1  H  7997  8008       L1    21  0.67

> <Gold.PLP.Chemscore.Internal.Correction>
0.8222

> <Gold.Rescore>
     Score         DG    S(hbond)    S(metal)    S(lipo)     H(rot)  DE(clash)    DE(int)     intcor
     14.64     -16.44       1.72        0.00      76.79       1.47       0.26       1.54       ----

> <Gold.Chemscore.Fitness>
14.6448

> <Gold.Chemscore.DG>
-16.4419

> <Gold.Chemscore.ZeroCoef>
-5.4800

> <Gold.Chemscore.Hbond>
1.7152

> <Gold.Chemscore.Metal>
0.0000

> <Gold.Chemscore.Lipo>
76.7874

> <Gold.Chemscore.Internal_Hbond>
0.0000

> <Gold.Chemscore.DEClash>
0.2575

> <Gold.Chemscore.DEInternal>
1.5396

> <Gold.Chemscore.Rot>
1.4652

> <Gold.Chemscore.Internal.Correction>
   9.000000E+99

> <Gold.Chemscore.Hbonds>
donor molecule, donor type, donor heavy atom, donor atom, acceptor molecule, acceptor atom, score
      P1  H  7989  7998       L1    20  0.32
      P1  H  7997  8008       L1    21  0.46

> <Gold.Chemscore.Hbond.Weighted>
-5.7288

> <Gold.Chemscore.Metal.Weighted>
-0.0000

> <Gold.Chemscore.Lipo.Weighted>
-8.9841

> <Gold.Chemscore.Internal_Hbond.Weighted>
0.0000

> <Gold.Chemscore.DEClash.Weighted>
0.2575

> <Gold.Chemscore.DEInternal.Weighted>
1.5396

> <Gold.Chemscore.Rot.Weighted>
3.7510

> <Gold.Chemscore.Internal.Correction.Weighted>
   9.000000E+99

> <Gold.Protein.RotatedTorsions>
[ 6907 6896 6895 6894 ] final  142.32 input  -60.11 | X-H torsion
[ 7974 7965 7964 7962 ] final  -30.58 input  175.53 | X-H torsion
[ 8008 7997 7996 7995 ] final  -24.12 input   59.86 | X-H torsion
[ 10167 10162 10161 10158 ] final   56.35 input  -65.29 | X-H torsion
[ 10718 10713 10712 10709 ] final  174.19 input   66.30 | X-H torsion
[ 10763 10752 10751 10750 ] final -178.16 input  -60.55 | X-H torsion
[ 11005 11000 10999 10996 ] final   -7.55 input  -57.11 | X-H torsion

> <Gold.Protein.ActiveResidues>
 VAL166  LYS551  ARG553  GLY616  TRP617  ASP618  TYR619  PRO620  LYS621  CYS622 
 ASP623  PHE694  ASN695  SER759  ASP760  ASP761  ALA762  ILE779  LEU786  VAL792 
 PHE793  MET794  SER795  GLU796  ALA797  LYS798  CYS799  TRP800  GLU811  SER814 

> <Gold.Protein.RotatedAtoms>
  152.2201  133.4977  159.5157 H   0  0  0  0  0  0  0  0  0  0  0  0  # atno 6907 bound_to 6896
  150.7011  134.1353  159.4094 H   0  0  0  0  0  0  0  0  0  0  0  0  # atno 6908 bound_to 6896
  151.9274  135.0271  160.0577 H   0  0  0  0  0  0  0  0  0  0  0  0  # atno 6909 bound_to 6896
  146.1132  140.5558  142.8768 H   0  0  0  0  0  0  0  0  0  0  0  0  # atno 7974 bound_to 7965
  154.4546  140.1962  156.0416 H   0  0  0  0  0  0  0  0  0  0  0  0  # atno 8008 bound_to 7997
  156.0720  140.3283  155.7560 H   0  0  0  0  0  0  0  0  0  0  0  0  # atno 8009 bound_to 7997
  155.5247  140.0573  157.2891 H   0  0  0  0  0  0  0  0  0  0  0  0  # atno 8010 bound_to 7997
  140.2097  144.3902  150.6494 H   0  0  0  0  0  0  0  0  0  0  0  0  # atno 10167 bound_to 10162
  156.9533  131.0038  151.2944 H   0  0  0  0  0  0  0  0  0  0  0  0  # atno 10718 bound_to 10713
  154.5512  135.2813  155.1007 H   0  0  0  0  0  0  0  0  0  0  0  0  # atno 10763 bound_to 10752
  154.2452  135.6349  153.5224 H   0  0  0  0  0  0  0  0  0  0  0  0  # atno 10764 bound_to 10752
  153.0003  135.5569  154.6078 H   0  0  0  0  0  0  0  0  0  0  0  0  # atno 10765 bound_to 10752
  140.7139  133.8885  155.8771 H   0  0  0  0  0  0  0  0  0  0  0  0  # atno 11005 bound_to 11000
  144.7530  140.5238  143.6789 LP  0  0  0  0  0  0  0  0  0  0  0  0  # atno 17320 bound_to 7965
  145.5620  139.1480  143.3336 LP  0  0  0  0  0  0  0  0  0  0  0  0  # atno 17321 bound_to 7965
  140.6332  143.2190  151.6451 LP  0  0  0  0  0  0  0  0  0  0  0  0  # atno 17342 bound_to 10162
  139.5185  144.3283  152.0849 LP  0  0  0  0  0  0  0  0  0  0  0  0  # atno 17343 bound_to 10162
  157.5707  130.8308  149.8388 LP  0  0  0  0  0  0  0  0  0  0  0  0  # atno 17370 bound_to 10713
  156.0353  130.3753  150.1576 LP  0  0  0  0  0  0  0  0  0  0  0  0  # atno 17371 bound_to 10713
  141.0061  134.1085  157.4269 LP  0  0  0  0  0  0  0  0  0  0  0  0  # atno 17394 bound_to 11000
  139.8864  135.0081  156.6499 LP  0  0  0  0  0  0  0  0  0  0  0  0  # atno 17395 bound_to 11000

$$$$
