#       Name:                AV-unprocessed.smi:2213
#       Creating user name   scv26
#       Creation time:       Fri Mar 27 12:17:19 2020


#       File generated by GOLD software.
#

@<TRIPOS>MOLECULE
AV-unprocessed.smi:2213
    45    46     1
SMALL
NO_CHARGES


@<TRIPOS>ATOM
      1 ****        -2.5399   5.5037   0.3483 C.3            1 S1                 0.0000
      2 ****        -1.9692   4.0986   0.2730 C.2            1 S1                 0.0000
      3 ****        -1.6504   3.6442  -1.0100 N.2            1 S1                 0.0000
      4 ****        -1.1658   2.4566  -1.1716 C.2            1 S1                 0.0000
      5 ****        -0.9448   1.5958  -0.0842 N.am           1 S1                 0.0000
      6 ****        -0.3954   0.2679  -0.4051 C.3            1 S1                 0.0000
      7 ****         1.1316   0.1939  -0.1789 C.3            1 S1                 0.0000
      8 ****         1.8229   0.7374  -1.2857 O.3            1 S1                 0.0000
      9 ****         1.6393  -1.2431   0.0302 C.3            1 S1                 0.0000
     10 ****         1.0594  -2.1046  -0.9417 O.3            1 S1                 0.0000
     11 ****         1.3907  -3.4431  -0.9199 C.ar           1 S1                 0.0000
     12 ****         2.2716  -4.0250   0.0272 C.ar           1 S1                 0.0000
     13 ****         2.5625  -5.4026  -0.0187 C.ar           1 S1                 0.0000
     14 ****         3.6370  -6.0954   1.1399 Cl             1 S1                 0.0000
     15 ****         1.9783  -6.2150  -1.0079 C.ar           1 S1                 0.0000
     16 ****         1.1019  -5.6480  -1.9508 C.ar           1 S1                 0.0000
     17 ****         0.8095  -4.2707  -1.9066 C.ar           1 S1                 0.0000
     18 ****        -0.2718  -3.5997  -3.0750 Cl             1 S1                 0.0000
     19 ****        -1.2140   1.9649   1.2015 C.2            1 S1                 0.0000
     20 ****        -0.9969   1.2086   2.1502 O.2            1 S1                 0.0000
     21 ****        -1.7731   3.3161   1.3692 C.2            1 S1                 0.0000
     22 ****        -2.1020   3.7571   2.7900 C.3            1 S1                 0.0000
     23 ****        -3.5477   5.4840   0.7637 H              1 S1                 0.0000
     24 ****        -2.5951   5.9634  -0.6394 H              1 S1                 0.0000
     25 ****        -1.9145   6.1379   0.9769 H              1 S1                 0.0000
     26 ****        -0.8982   2.0558  -2.1508 H              1 S1                 0.0000
     27 ****        -0.8884  -0.4697   0.2312 H              1 S1                 0.0000
     28 ****        -0.6462  -0.0461  -1.4208 H              1 S1                 0.0000
     29 ****         1.4147   0.7768   0.6983 H              1 S1                 0.0000
     30 ****         1.5841   1.6475  -1.3730 H              1 S1                 0.0000
     31 ****         2.7295  -1.2724  -0.0148 H              1 S1                 0.0000
     32 ****         1.3393  -1.5789   1.0242 H              1 S1                 0.0000
     33 ****         2.7374  -3.4340   0.8009 H              1 S1                 0.0000
     34 ****         2.2004  -7.2714  -1.0446 H              1 S1                 0.0000
     35 ****         0.6529  -6.2719  -2.7096 H              1 S1                 0.0000
     36 ****        -1.2007   3.7503   3.4035 H              1 S1                 0.0000
     37 ****        -2.8229   3.0733   3.2392 H              1 S1                 0.0000
     38 ****        -2.5255   4.7587   2.8421 H              1 S1                 0.0000
     39 ****        -1.7970   4.2370  -1.8019 LP             1 S1                 0.0000
     40 ****         1.5708   0.2417  -2.1168 LP             1 S1                 0.0000
     41 ****         2.8089   0.6605  -1.1379 LP             1 S1                 0.0000
     42 ****         1.3187  -1.7515  -1.8406 LP             1 S1                 0.0000
     43 ****         0.0670  -2.0449  -0.8337 LP             1 S1                 0.0000
     44 ****        -0.6142   0.2992   1.9872 LP             1 S1                 0.0000
     45 ****        -1.2035   1.5043   3.0828 LP             1 S1                 0.0000
@<TRIPOS>BOND
    1    1    2 1     
    2    1   23 1     
    3    1   24 1     
    4    1   25 1     
    5    2   21 2     
    6    2    3 1     
    7    3    4 2     
    8    4    5 1     
    9    4   26 1     
   10    5    6 1     
   11    5   19 am    
   12    6    7 1     
   13    6   27 1     
   14    6   28 1     
   15    7    8 1     
   16    7    9 1     
   17    7   29 1     
   18    8   30 1     
   19    9   10 1     
   20    9   31 1     
   21    9   32 1     
   22   10   11 1     
   23   11   17 ar    
   24   11   12 ar    
   25   12   13 ar    
   26   12   33 1     
   27   13   14 1     
   28   13   15 ar    
   29   15   16 ar    
   30   15   34 1     
   31   16   17 ar    
   32   16   35 1     
   33   17   18 1     
   34   19   20 2     
   35   19   21 1     
   36   21   22 1     
   37   22   36 1     
   38   22   37 1     
   39   22   38 1     
   40    3   39 1     
   41    8   40 1     
   42    8   41 1     
   43   10   42 1     
   44   10   43 1     
   45   20   44 1     
   46   20   45 1     
@<TRIPOS>SUBSTRUCTURE
      1 S1             1
@<TRIPOS>SET
LONE_PAIRS      STATIC     ATOMS    <user>   **** ""
7 39 40 41 42 43 44 45
DONOR_HYDROGENS      STATIC     ATOMS    <user>   **** ""
1 30
ATOM$BLUE        STATIC     ATOMS    COLORGROUP SYSTEM
7 39 40 41 42 43 44 45
ATOM$RED        STATIC     ATOMS    COLORGROUP SYSTEM
1 30
