AV-unprocessed.smi:2189|AV-procd|sdf|8886|dock3
  -GOLD-   2272012 83D 1   1.00000     0.00000
 Structure written by MMmdl.
 38 40  0  0  0  0  0  0  0  0  2 V2000
  153.4814  136.4464  158.6478 O   0  0  0  0  0  0  0  0  0  0  0  0
  153.0655  137.3653  157.9299 C   0  0  0  0  0  0  0  0  0  0  0  0
  153.3647  138.6908  158.0928 N   0  5  0  0  0  0  0  0  0  0  0  0
  152.5229  139.6799  158.7722 C   0  0  0  0  0  0  0  0  0  0  0  0
  152.0533  140.7624  157.7717 C   0  0  0  0  0  0  0  0  0  0  0  0
  152.0261  142.1876  158.3218 C   0  0  0  0  0  0  0  0  0  0  0  0
  152.4320  142.4514  159.6500 C   0  0  0  0  0  0  0  0  0  0  0  0
  152.3970  143.7788  160.1172 C   0  0  0  0  0  0  0  0  0  0  0  0
  151.9487  144.7916  159.2484 C   0  0  0  0  0  0  0  0  0  0  0  0
  151.5512  144.4287  157.9464 C   0  0  0  0  0  0  0  0  0  0  0  0
  151.5801  143.1592  157.4878 N   0  0  0  0  0  0  0  0  0  0  0  0
  152.1512  137.0431  156.8179 C   0  0  0  0  0  0  0  0  0  0  0  0
  151.7441  138.0515  156.0027 C   0  0  0  0  0  0  0  0  0  0  0  0
  150.8615  137.8197  154.8867 C   0  0  0  0  0  0  0  0  0  0  0  0
  150.4182  136.5743  154.6859 C   0  0  0  0  0  0  0  0  0  0  0  0
  150.7675  135.4984  155.5004 N   0  0  0  0  0  0  0  0  0  0  0  0
  150.1231  134.2203  155.2193 C   0  0  0  0  0  0  0  0  0  0  0  0
  151.1210  133.0847  155.3521 C   0  0  0  0  0  0  0  0  0  0  0  0
  151.6368  133.0774  157.1062 S   0  0  0  0  0  0  0  0  0  0  0  0
  150.4394  132.8560  157.9321 O   0  0  0  0  0  0  0  0  0  0  0  0
  152.7842  132.1669  157.2404 O   0  0  0  0  0  0  0  0  0  0  0  0
  152.1428  134.6641  157.2812 N   0  0  0  0  0  0  0  0  0  0  0  0
  151.6907  135.6602  156.5723 C   0  0  0  0  0  0  0  0  0  0  0  0
  151.6465  139.2389  159.2490 H   0  0  0  0  0  0  0  0  0  0  0  0
  153.0756  140.1681  159.5753 H   0  0  0  0  0  0  0  0  0  0  0  0
  152.7110  140.7476  156.9019 H   0  0  0  0  0  0  0  0  0  0  0  0
  151.0622  140.5090  157.3928 H   0  0  0  0  0  0  0  0  0  0  0  0
  152.7761  141.6530  160.2908 H   0  0  0  0  0  0  0  0  0  0  0  0
  152.7094  144.0152  161.1235 H   0  0  0  0  0  0  0  0  0  0  0  0
  151.9102  145.8210  159.5718 H   0  0  0  0  0  0  0  0  0  0  0  0
  151.1989  145.1794  157.2544 H   0  0  0  0  0  0  0  0  0  0  0  0
  152.0650  139.0688  156.1748 H   0  0  0  0  0  0  0  0  0  0  0  0
  150.5679  138.6281  154.2340 H   0  0  0  0  0  0  0  0  0  0  0  0
  149.7536  136.3376  153.8678 H   0  0  0  0  0  0  0  0  0  0  0  0
  149.2825  134.0829  155.9002 H   0  0  0  0  0  0  0  0  0  0  0  0
  149.7114  134.2093  154.2098 H   0  0  0  0  0  0  0  0  0  0  0  0
  150.6725  132.1205  155.1145 H   0  0  0  0  0  0  0  0  0  0  0  0
  151.9956  133.2296  154.7169 H   0  0  0  0  0  0  0  0  0  0  0  0
  1  2  2  0  0  0  0
  2  3  1  0  0  0  0
  2 12  1  0  0  0  0
  3  4  1  0  0  0  0
  4  5  1  0  0  0  0
  4 24  1  0  0  0  0
  4 25  1  0  0  0  0
  5  6  1  0  0  0  0
  5 26  1  0  0  0  0
  5 27  1  0  0  0  0
  6 11  1  0  0  0  0
  6  7  2  0  0  0  0
  7  8  1  0  0  0  0
  7 28  1  0  0  0  0
  8  9  2  0  0  0  0
  8 29  1  0  0  0  0
  9 10  1  0  0  0  0
  9 30  1  0  0  0  0
 10 11  2  0  0  0  0
 10 31  1  0  0  0  0
 12 23  1  0  0  0  0
 12 13  2  0  0  0  0
 13 14  1  0  0  0  0
 13 32  1  0  0  0  0
 14 15  2  0  0  0  0
 14 33  1  0  0  0  0
 15 16  1  0  0  0  0
 15 34  1  0  0  0  0
 16 23  1  0  0  0  0
 16 17  1  0  0  0  0
 17 18  1  0  0  0  0
 17 35  1  0  0  0  0
 17 36  1  0  0  0  0
 18 19  1  0  0  0  0
 18 37  1  0  0  0  0
 18 38  1  0  0  0  0
 19 20  2  0  0  0  0
 19 21  2  0  0  0  0
 19 22  1  0  0  0  0
 22 23  2  0  0  0  0
M  CHG  1   3  -1
M  END
> <s_m_source_file>
AV-unprocessed.smi

> <i_m_source_file_index>
2189

> <i_lp_mmshare_version>
43012

> <i_f3d_flags>
0

> <s_epik_input>
W0NIMl0xW0NIMl1TKD1PKSg9TylOPUMoTjEyKUMoPVtDSF1bQ0hdPVtDSF0yKUMoPU8pW05IXVtDSDJdW0NIMl1jM1tjSF1bY0hdW2NIXVtjSF1uMw==

> <s_epik_cmdline>
J2VwaWtfcHl0aG9uJywgJy1waCcsICc3LjAnLCAnLXRuJywgJzgnLCAnLW1hJywgJzIwMCcsICctbWV0YWxfYmluZGluZycsICctaW1hZScsICc8aW5maWxlLm1hZT4nLCAnLW9tYWUnLCAnPG91dGZpbGUubWFlPic=

> <r_epik_Ionization_Penalty>
5.6695

> <r_epik_Ionization_Penalty_Charging>
5.5942

> <r_epik_Ionization_Penalty_Neutral>
0.0753022

> <r_epik_State_Penalty>
5.60818

> <r_epik_Charging_Adjusted_Penalty>
11.2024

> <i_epik_Tot_Q>
-1

> <i_epik_Tot_abs_Q>
1

> <r_epik_Metal_State_Penalty>
1.61782

> <b_epik_Metal_Only>
1

> <s_lp_Force_Field>
OPLS_2005

> <r_lp_Energy>
39.8175

> <b_lp_Chiralities_Consistent>
1

> <s_lp_Variant>
AV-unprocessed.smi:2189-3

> <Gold.Version>
5.8.1

> <Gold.Id.Protein>
6NUR|6NUR_protein|mol2

> <Gold.PLP.Fitness>
45.9462

> <Gold.PLP.PLP>
-34.8531

> <Gold.PLP.part.hbond>
-3.1506

> <Gold.PLP.part.metal>
0.0000

> <Gold.PLP.part.buried>
-3.3941

> <Gold.PLP.part.nonpolar>
-28.5900

> <Gold.PLP.part.repulsive>
0.1208

> <Gold.PLP.ligand.clash>
1.0504

> <Gold.PLP.ligand.torsion>
1.0221

> <Gold.PLP.Chemscore.Hbond>
2.8000

> <Gold.PLP.Chemscore.CHOScore>
1.7890

> <Gold.PLP.Chemscore.Metal>
0.0000

> <Gold.Chemscore.Hbonds>
donor molecule, donor type, donor heavy atom, donor atom, acceptor molecule, acceptor atom, score
      P1  H  6896  6907       L1    20  0.60
      P1  H  7997  8009       L1     3  1.46
      L1  C    10    31       P1  8028  0.28
      L1  C    15    34       P1  7948  1.00

> <Gold.PLP.Chemscore.Internal.Correction>
0.4206

> <Gold.Rescore>
     Score         DG    S(hbond)    S(metal)    S(lipo)     H(rot)  DE(clash)    DE(int)     intcor
     13.99     -17.08       1.15        0.00      98.06       1.44       0.33       2.77       ----

> <Gold.Chemscore.Fitness>
13.9887

> <Gold.Chemscore.DG>
-17.0831

> <Gold.Chemscore.ZeroCoef>
-5.4800

> <Gold.Chemscore.Hbond>
1.1452

> <Gold.Chemscore.Metal>
0.0000

> <Gold.Chemscore.Lipo>
98.0610

> <Gold.Chemscore.Internal_Hbond>
0.0000

> <Gold.Chemscore.DEClash>
0.3260

> <Gold.Chemscore.DEInternal>
2.7684

> <Gold.Chemscore.Rot>
1.4433

> <Gold.Chemscore.Internal.Correction>
   9.000000E+99

> <Gold.Chemscore.Hbonds>
donor molecule, donor type, donor heavy atom, donor atom, acceptor molecule, acceptor atom, score
      P1  H  6896  6907       L1    20  0.04
      P1  H  7997  8009       L1     3  0.14

> <Gold.Chemscore.Hbond.Weighted>
-3.8248

> <Gold.Chemscore.Metal.Weighted>
-0.0000

> <Gold.Chemscore.Lipo.Weighted>
-11.4731

> <Gold.Chemscore.Internal_Hbond.Weighted>
0.0000

> <Gold.Chemscore.DEClash.Weighted>
0.3260

> <Gold.Chemscore.DEInternal.Weighted>
2.7684

> <Gold.Chemscore.Rot.Weighted>
3.6949

> <Gold.Chemscore.Internal.Correction.Weighted>
   9.000000E+99

> <Gold.Protein.RotatedTorsions>
[ 6907 6896 6895 6894 ] final -148.10 input  -60.11 | X-H torsion
[ 7974 7965 7964 7962 ] final -175.77 input  175.53 | X-H torsion
[ 8008 7997 7996 7995 ] final  157.78 input   59.86 | X-H torsion
[ 10167 10162 10161 10158 ] final -130.48 input  -65.29 | X-H torsion
[ 10718 10713 10712 10709 ] final   -4.26 input   66.30 | X-H torsion
[ 10763 10752 10751 10750 ] final -132.37 input  -60.55 | X-H torsion
[ 11005 11000 10999 10996 ] final  -78.36 input  -57.11 | X-H torsion

> <Gold.Protein.ActiveResidues>
 VAL166  LYS551  ARG553  GLY616  TRP617  ASP618  TYR619  PRO620  LYS621  CYS622 
 ASP623  PHE694  ASN695  SER759  ASP760  ASP761  ALA762  ILE779  LEU786  VAL792 
 PHE793  MET794  SER795  GLU796  ALA797  LYS798  CYS799  TRP800  GLU811  SER814 

> <Gold.Protein.RotatedAtoms>
  151.1651  133.4820  159.2593 H   0  0  0  0  0  0  0  0  0  0  0  0  # atno 6907 bound_to 6896
  151.1414  135.0181  159.8637 H   0  0  0  0  0  0  0  0  0  0  0  0  # atno 6908 bound_to 6896
  152.5462  134.1544  159.8585 H   0  0  0  0  0  0  0  0  0  0  0  0  # atno 6909 bound_to 6896
  144.7127  140.1270  143.6401 H   0  0  0  0  0  0  0  0  0  0  0  0  # atno 7974 bound_to 7965
  156.2343  140.1876  156.7161 H   0  0  0  0  0  0  0  0  0  0  0  0  # atno 8008 bound_to 7997
  154.6078  140.0626  156.9481 H   0  0  0  0  0  0  0  0  0  0  0  0  # atno 8009 bound_to 7997
  155.2067  140.3296  155.4337 H   0  0  0  0  0  0  0  0  0  0  0  0  # atno 8010 bound_to 7997
  139.9288  143.6296  152.2535 H   0  0  0  0  0  0  0  0  0  0  0  0  # atno 10167 bound_to 10162
  156.7638  130.5278  149.5780 H   0  0  0  0  0  0  0  0  0  0  0  0  # atno 10718 bound_to 10713
  154.8743  135.3800  154.4398 H   0  0  0  0  0  0  0  0  0  0  0  0  # atno 10763 bound_to 10752
  153.5084  135.7030  153.5799 H   0  0  0  0  0  0  0  0  0  0  0  0  # atno 10764 bound_to 10752
  153.4099  135.3927  155.2010 H   0  0  0  0  0  0  0  0  0  0  0  0  # atno 10765 bound_to 10752
  141.1664  133.7060  156.7960 H   0  0  0  0  0  0  0  0  0  0  0  0  # atno 11005 bound_to 11000
  145.9320  139.2613  143.1319 LP  0  0  0  0  0  0  0  0  0  0  0  0  # atno 17320 bound_to 7965
  145.9512  140.8907  143.0258 LP  0  0  0  0  0  0  0  0  0  0  0  0  # atno 17321 bound_to 7965
  139.6799  144.7656  151.1627 LP  0  0  0  0  0  0  0  0  0  0  0  0  # atno 17342 bound_to 10162
  140.7643  143.5740  150.8965 LP  0  0  0  0  0  0  0  0  0  0  0  0  # atno 17343 bound_to 10162
  156.1322  130.6185  151.0349 LP  0  0  0  0  0  0  0  0  0  0  0  0  # atno 17370 bound_to 10713
  157.6722  131.0859  150.7583 LP  0  0  0  0  0  0  0  0  0  0  0  0  # atno 17371 bound_to 10713
  140.2291  134.8699  157.3457 LP  0  0  0  0  0  0  0  0  0  0  0  0  # atno 17394 bound_to 11000
  140.1909  134.4372  155.7716 LP  0  0  0  0  0  0  0  0  0  0  0  0  # atno 17395 bound_to 11000

$$$$
