AV-unprocessed.smi:1725|AV-procd|sdf|6953|dock1
  -GOLD-   22720 8163D 1   1.00000     0.00000
 Structure written by MMmdl.
 36 37  0  0  0  0  0  0  0  0  1 V2000
  154.3455  137.5256  159.4720 C   0  0  0  0  0  0  0  0  0  0  0  0
  153.7684  138.7909  158.8204 C   0  0  2  0  0  0  0  0  0  0  0  0
  153.5517  139.7451  159.8561 O   0  0  0  0  0  0  0  0  0  0  0  0
  153.4187  141.0927  159.4222 C   0  0  0  0  0  0  0  0  0  0  0  0
  152.3138  141.7525  160.2181 C   0  0  0  0  0  0  0  0  0  0  0  0
  152.1732  143.2577  160.2284 C   0  0  0  0  0  0  0  0  0  0  0  0
  152.6270  142.5367  161.4724 C   0  0  0  0  0  0  0  0  0  0  0  0
  152.4500  138.4913  158.0887 C   0  0  0  0  0  0  0  0  0  0  0  0
  151.5226  137.9692  158.7068 O   0  0  0  0  0  0  0  0  0  0  0  0
  152.4088  138.8655  156.7942 N   0  0  0  0  0  0  0  0  0  0  0  0
  151.3755  138.7263  155.8518 C   0  0  0  0  0  0  0  0  0  0  0  0
  150.1444  139.2926  155.9531 C   0  0  0  0  0  0  0  0  0  0  0  0
  149.1183  139.0943  154.9447 C   0  0  0  0  0  0  0  0  0  0  0  0
  147.7568  139.7574  155.0783 C   0  0  0  0  0  0  0  0  0  0  0  0
  147.6497  140.4473  156.2147 F   0  0  0  0  0  0  0  0  0  0  0  0
  147.5532  140.5922  154.0599 F   0  0  0  0  0  0  0  0  0  0  0  0
  146.7933  138.8371  155.0539 F   0  0  0  0  0  0  0  0  0  0  0  0
  149.4430  138.3079  153.9017 C   0  0  0  0  0  0  0  0  0  0  0  0
  150.7020  137.7132  153.7948 N   0  0  0  0  0  0  0  0  0  0  0  0
  151.6954  137.8676  154.6989 C   0  0  0  0  0  0  0  0  0  0  0  0
  152.7791  137.3092  154.5317 O   0  0  0  0  0  0  0  0  0  0  0  0
  150.8681  137.1330  152.9849 H   0  0  0  0  0  0  0  0  0  0  0  0
  154.5226  136.7441  158.7325 H   0  0  0  0  0  0  0  0  0  0  0  0
  153.6752  137.1231  160.2324 H   0  0  0  0  0  0  0  0  0  0  0  0
  155.2982  137.7416  159.9559 H   0  0  0  0  0  0  0  0  0  0  0  0
  154.5073  139.1800  158.1168 H   0  0  0  0  0  0  0  0  0  0  0  0
  154.3544  141.6342  159.5699 H   0  0  0  0  0  0  0  0  0  0  0  0
  153.1633  141.1476  158.3637 H   0  0  0  0  0  0  0  0  0  0  0  0
  151.3821  141.1900  160.2248 H   0  0  0  0  0  0  0  0  0  0  0  0
  152.9163  143.8406  159.6878 H   0  0  0  0  0  0  0  0  0  0  0  0
  151.1656  143.6680  160.2238 H   0  0  0  0  0  0  0  0  0  0  0  0
  151.9218  142.4629  162.2979 H   0  0  0  0  0  0  0  0  0  0  0  0
  153.6716  142.6389  161.7595 H   0  0  0  0  0  0  0  0  0  0  0  0
  153.2289  139.3408  156.4454 H   0  0  0  0  0  0  0  0  0  0  0  0
  149.8733  139.9013  156.7997 H   0  0  0  0  0  0  0  0  0  0  0  0
  148.7804  138.0753  153.0811 H   0  0  0  0  0  0  0  0  0  0  0  0
  1  2  1  0  0  0  0
  1 23  1  0  0  0  0
  1 24  1  0  0  0  0
  1 25  1  0  0  0  0
  2  3  1  0  0  0  0
  2  8  1  0  0  0  0
  2 26  1  0  0  0  0
  3  4  1  0  0  0  0
  4  5  1  0  0  0  0
  4 27  1  0  0  0  0
  4 28  1  0  0  0  0
  5  7  1  0  0  0  0
  5  6  1  0  0  0  0
  5 29  1  0  0  0  0
  6  7  1  0  0  0  0
  6 30  1  0  0  0  0
  6 31  1  0  0  0  0
  7 32  1  0  0  0  0
  7 33  1  0  0  0  0
  8  9  2  0  0  0  0
  8 10  1  0  0  0  0
 10 11  1  0  0  0  0
 10 34  1  0  0  0  0
 11 20  1  0  0  0  0
 11 12  2  0  0  0  0
 12 13  1  0  0  0  0
 12 35  1  0  0  0  0
 13 14  1  0  0  0  0
 13 18  2  0  0  0  0
 14 15  1  0  0  0  0
 14 16  1  0  0  0  0
 14 17  1  0  0  0  0
 18 19  1  0  0  0  0
 18 36  1  0  0  0  0
 19 22  1  0  0  0  0
 19 20  1  0  0  0  0
 20 21  2  0  0  0  0
M  END
> <s_m_source_file>
AV-unprocessed.smi

> <i_m_source_file_index>
1725

> <i_lp_mmshare_version>
43012

> <i_f3d_flags>
0

> <s_epik_input>
W0NIMl0xW0NIMl1bQ0hdMVtDSDJdT1tDQEBIXShbQ0gzXSlDKD1PKVtOSF1jMltjSF1jKEMoRikoRilGKVtjSF1bbkhdYzI9Tw==

> <s_epik_cmdline>
J2VwaWtfcHl0aG9uJywgJy1waCcsICc3LjAnLCAnLXRuJywgJzgnLCAnLW1hJywgJzIwMCcsICctbWV0YWxfYmluZGluZycsICctaW1hZScsICc8aW5maWxlLm1hZT4nLCAnLW9tYWUnLCAnPG91dGZpbGUubWFlPic=

> <r_lp_tautomer_probability>
0.999

> <r_epik_Ionization_Penalty>
0.00763408

> <r_epik_Ionization_Penalty_Charging>
0.00763398

> <r_epik_Ionization_Penalty_Neutral>
9.25705e-08

> <r_epik_State_Penalty>
0.00571302

> <r_epik_Charging_Adjusted_Penalty>
0.013347

> <i_epik_Tot_Q>
0

> <i_epik_Tot_abs_Q>
0

> <r_epik_Metal_State_Penalty>
0.392814

> <b_epik_Metal_Only>
0

> <s_lp_Force_Field>
OPLS_2005

> <r_lp_Energy>
28.2776

> <b_lp_Chiralities_Consistent>
1

> <s_lp_Variant>
AV-unprocessed.smi:1725-1

> <Gold.Version>
5.8.1

> <Gold.Id.Protein>
6NUR|6NUR_protein|mol2

> <Gold.PLP.Fitness>
40.5908

> <Gold.PLP.PLP>
-34.3517

> <Gold.PLP.part.hbond>
-1.6240

> <Gold.PLP.part.metal>
0.0000

> <Gold.PLP.part.buried>
-2.0020

> <Gold.PLP.part.nonpolar>
-31.3587

> <Gold.PLP.part.repulsive>
0.2856

> <Gold.PLP.ligand.clash>
0.0000

> <Gold.PLP.ligand.torsion>
1.3794

> <Gold.PLP.Chemscore.Hbond>
1.4225

> <Gold.PLP.Chemscore.CHOScore>
1.3117

> <Gold.PLP.Chemscore.Metal>
0.0000

> <Gold.Chemscore.Hbonds>
donor molecule, donor type, donor heavy atom, donor atom, acceptor molecule, acceptor atom, score
      L1  H    19    22       P1  7949  0.85
      P1  H 10752 10765       L1    21  0.43
      L1  C    18    36       P1  7948  0.86
      L1  C    18    36       P1  7957  0.08

> <Gold.PLP.Chemscore.Internal.Correction>
0.7953

> <Gold.Rescore>
     Score         DG    S(hbond)    S(metal)    S(lipo)     H(rot)  DE(clash)    DE(int)     intcor
     12.24     -13.63       0.86        0.00      84.24       1.79       0.06       1.33       ----

> <Gold.Chemscore.Fitness>
12.2374

> <Gold.Chemscore.DG>
-13.6319

> <Gold.Chemscore.ZeroCoef>
-5.4800

> <Gold.Chemscore.Hbond>
0.8646

> <Gold.Chemscore.Metal>
0.0000

> <Gold.Chemscore.Lipo>
84.2414

> <Gold.Chemscore.Internal_Hbond>
0.0000

> <Gold.Chemscore.DEClash>
0.0596

> <Gold.Chemscore.DEInternal>
1.3350

> <Gold.Chemscore.Rot>
1.7938

> <Gold.Chemscore.Internal.Correction>
   9.000000E+99

> <Gold.Chemscore.Hbonds>
donor molecule, donor type, donor heavy atom, donor atom, acceptor molecule, acceptor atom, score
      L1  H    19    22       P1  7949  0.15
      P1  H 10752 10765       L1    21  0.42

> <Gold.Chemscore.Hbond.Weighted>
-2.8879

> <Gold.Chemscore.Metal.Weighted>
-0.0000

> <Gold.Chemscore.Lipo.Weighted>
-9.8562

> <Gold.Chemscore.Internal_Hbond.Weighted>
0.0000

> <Gold.Chemscore.DEClash.Weighted>
0.0596

> <Gold.Chemscore.DEInternal.Weighted>
1.3350

> <Gold.Chemscore.Rot.Weighted>
4.5922

> <Gold.Chemscore.Internal.Correction.Weighted>
   9.000000E+99

> <Gold.Protein.RotatedTorsions>
[ 6907 6896 6895 6894 ] final -103.09 input  -60.11 | X-H torsion
[ 7974 7965 7964 7962 ] final   25.49 input  175.53 | X-H torsion
[ 8008 7997 7996 7995 ] final  -78.23 input   59.86 | X-H torsion
[ 10167 10162 10161 10158 ] final   39.00 input  -65.29 | X-H torsion
[ 10718 10713 10712 10709 ] final  -40.02 input   66.30 | X-H torsion
[ 10763 10752 10751 10750 ] final  174.35 input  -60.55 | X-H torsion
[ 11005 11000 10999 10996 ] final   -3.01 input  -57.11 | X-H torsion

> <Gold.Protein.ActiveResidues>
 VAL166  LYS551  ARG553  GLY616  TRP617  ASP618  TYR619  PRO620  LYS621  CYS622 
 ASP623  PHE694  ASN695  SER759  ASP760  ASP761  ALA762  ILE779  LEU786  VAL792 
 PHE793  MET794  SER795  GLU796  ALA797  LYS798  CYS799  TRP800  GLU811  SER814 

> <Gold.Protein.RotatedAtoms>
  150.7225  134.0482  159.3788 H   0  0  0  0  0  0  0  0  0  0  0  0  # atno 6907 bound_to 6896
  151.8458  135.0572  160.0462 H   0  0  0  0  0  0  0  0  0  0  0  0  # atno 6908 bound_to 6896
  152.2828  133.5450  159.5545 H   0  0  0  0  0  0  0  0  0  0  0  0  # atno 6909 bound_to 6896
  146.1886  139.7458  142.8848 H   0  0  0  0  0  0  0  0  0  0  0  0  # atno 7974 bound_to 7965
  154.5669  140.0697  156.8906 H   0  0  0  0  0  0  0  0  0  0  0  0  # atno 8008 bound_to 7997
  155.2706  140.3365  155.4247 H   0  0  0  0  0  0  0  0  0  0  0  0  # atno 8009 bound_to 7997
  156.2088  140.1750  156.7727 H   0  0  0  0  0  0  0  0  0  0  0  0  # atno 8010 bound_to 7997
  140.3882  144.1889  150.6130 H   0  0  0  0  0  0  0  0  0  0  0  0  # atno 10167 bound_to 10162
  156.2859  130.4222  149.8288 H   0  0  0  0  0  0  0  0  0  0  0  0  # atno 10718 bound_to 10713
  154.4527  135.2765  155.1769 H   0  0  0  0  0  0  0  0  0  0  0  0  # atno 10763 bound_to 10752
  154.3589  135.6133  153.5684 H   0  0  0  0  0  0  0  0  0  0  0  0  # atno 10764 bound_to 10752
  152.9848  135.5829  154.4875 H   0  0  0  0  0  0  0  0  0  0  0  0  # atno 10765 bound_to 10752
  140.6646  133.9290  155.8457 H   0  0  0  0  0  0  0  0  0  0  0  0  # atno 11005 bound_to 11000
  145.3863  141.0366  143.3149 LP  0  0  0  0  0  0  0  0  0  0  0  0  # atno 17320 bound_to 7965
  144.8443  139.5422  143.6886 LP  0  0  0  0  0  0  0  0  0  0  0  0  # atno 17321 bound_to 7965
  140.4867  143.2361  151.8877 LP  0  0  0  0  0  0  0  0  0  0  0  0  # atno 17342 bound_to 10162
  139.4790  144.5210  151.8801 LP  0  0  0  0  0  0  0  0  0  0  0  0  # atno 17343 bound_to 10162
  156.5719  130.8428  151.3359 LP  0  0  0  0  0  0  0  0  0  0  0  0  # atno 17370 bound_to 10713
  157.7328  130.9721  150.1948 LP  0  0  0  0  0  0  0  0  0  0  0  0  # atno 17371 bound_to 10713
  141.0439  134.0582  157.3868 LP  0  0  0  0  0  0  0  0  0  0  0  0  # atno 17394 bound_to 11000
  139.9001  135.0161  156.7228 LP  0  0  0  0  0  0  0  0  0  0  0  0  # atno 17395 bound_to 11000

$$$$
