#       Name:                AV-unprocessed.smi:1560
#       Creating user name   scv26
#       Creation time:       Fri Mar 27 06:47:10 2020


#       File generated by GOLD software.
#

@<TRIPOS>MOLECULE
AV-unprocessed.smi:1560
    56    57     1
SMALL
NO_CHARGES


@<TRIPOS>ATOM
      1 ****        -2.0747  -1.5127   0.9162 C.3            1 S1                 0.0000
      2 ****        -0.8192  -0.8181   0.3591 C.3            1 S1                 0.0000
      3 ****        -1.0587   0.1524  -0.8392 C.3            1 S1                 0.0000
      4 ****        -1.8688   1.3596  -0.2963 C.3            1 S1                 0.0000
      5 ****         0.3085   0.6701  -1.3882 C.3            1 S1                 0.0000
      6 ****         1.0804   1.4297  -0.4059 N.am           1 S1                 0.0000
      7 ****         2.0964   0.9541   0.3301 C.2            1 S1                 0.0000
      8 ****         2.5309  -0.1932   0.2223 O.2            1 S1                 0.0000
      9 ****         2.7143   1.9263   1.3433 C.3            1 S1                 0.0000
     10 ****         3.0406   1.2700   2.6173 N.am           1 S1                 0.0000
     11 ****         4.3528   0.9347   2.9201 C.2            1 S1                 0.0000
     12 ****         4.7190   0.3231   4.0714 C.2            1 S1                 0.0000
     13 ****         3.7184  -0.0221   5.0757 C.2            1 S1                 0.0000
     14 ****         3.9516  -0.5753   6.1481 O.2            1 S1                 0.0000
     15 ****         2.4098   0.3292   4.7336 N.am           1 S1                 0.0000
     16 ****         2.0252   0.9589   3.5489 C.2            1 S1                 0.0000
     17 ****         0.8402   1.2215   3.3441 O.2            1 S1                 0.0000
     18 ****        -1.8341  -0.5542  -1.9236 N.4            1 S1                 1.0000
     19 ****        -2.3621   0.3062  -3.0203 C.3            1 S1                 0.0000
     20 ****        -3.2907  -0.5035  -3.9414 C.3            1 S1                 0.0000
     21 ****        -2.5938  -1.6251  -4.4654 O.3            1 S1                 0.0000
     22 ****        -2.1594  -2.5019  -3.4357 C.3            1 S1                 0.0000
     23 ****        -1.1825  -1.7602  -2.5094 C.3            1 S1                 0.0000
     24 ****         1.6826   0.1080   5.3982 H              1 S1                 0.0000
     25 ****        -1.8087  -2.1643   1.7489 H              1 S1                 0.0000
     26 ****        -2.5659  -2.1321   0.1660 H              1 S1                 0.0000
     27 ****        -2.8032  -0.7941   1.2905 H              1 S1                 0.0000
     28 ****        -0.3615  -0.2741   1.1853 H              1 S1                 0.0000
     29 ****        -0.0825  -1.5765   0.0951 H              1 S1                 0.0000
     30 ****        -1.4454   1.7451   0.6320 H              1 S1                 0.0000
     31 ****        -2.9053   1.0928  -0.0888 H              1 S1                 0.0000
     32 ****        -1.8780   2.1953  -0.9966 H              1 S1                 0.0000
     33 ****         0.9163  -0.1508  -1.7696 H              1 S1                 0.0000
     34 ****         0.1497   1.3381  -2.2340 H              1 S1                 0.0000
     35 ****         0.7994   2.3876  -0.2518 H              1 S1                 0.0000
     36 ****         3.6080   2.3610   0.8932 H              1 S1                 0.0000
     37 ****         2.0425   2.7684   1.5237 H              1 S1                 0.0000
     38 ****         5.1285   1.1675   2.2042 H              1 S1                 0.0000
     39 ****         5.7580   0.0869   4.2497 H              1 S1                 0.0000
     40 ****        -2.9363   1.1460  -2.6336 H              1 S1                 0.0000
     41 ****        -1.5396   0.7190  -3.6049 H              1 S1                 0.0000
     42 ****        -4.1817  -0.8323  -3.4039 H              1 S1                 0.0000
     43 ****        -3.6313   0.1176  -4.7701 H              1 S1                 0.0000
     44 ****        -3.0149  -2.8847  -2.8768 H              1 S1                 0.0000
     45 ****        -1.6662  -3.3609  -3.8909 H              1 S1                 0.0000
     46 ****        -0.2998  -1.4749  -3.0818 H              1 S1                 0.0000
     47 ****        -0.8546  -2.4549  -1.7388 H              1 S1                 0.0000
     48 ****        -2.6557  -0.9039  -1.4511 H              1 S1                 0.0000
     49 ****         2.1234  -0.8220  -0.4398 LP             1 S1                 0.0000
     50 ****         3.2913  -0.4959   0.7969 LP             1 S1                 0.0000
     51 ****         4.8897  -0.8249   6.3884 LP             1 S1                 0.0000
     52 ****         3.2033  -0.7758   6.7804 LP             1 S1                 0.0000
     53 ****         0.5675   1.6710   2.4935 LP             1 S1                 0.0000
     54 ****         0.1503   0.9853   4.0283 LP             1 S1                 0.0000
     55 ****        -1.7957  -1.3020  -4.9740 LP             1 S1                 0.0000
     56 ****        -3.2018  -2.1253  -5.0819 LP             1 S1                 0.0000
@<TRIPOS>BOND
    1    1    2 1     
    2    1   25 1     
    3    1   26 1     
    4    1   27 1     
    5    2    3 1     
    6    2   28 1     
    7    2   29 1     
    8    3    4 1     
    9    3    5 1     
   10    3   18 1     
   11    4   30 1     
   12    4   31 1     
   13    4   32 1     
   14    5    6 1     
   15    5   33 1     
   16    5   34 1     
   17    6    7 am    
   18    6   35 1     
   19    7    8 2     
   20    7    9 1     
   21    9   10 1     
   22    9   36 1     
   23    9   37 1     
   24   10   16 1     
   25   10   11 1     
   26   11   12 2     
   27   11   38 1     
   28   12   13 1     
   29   12   39 1     
   30   13   14 2     
   31   13   15 1     
   32   15   24 1     
   33   15   16 1     
   34   16   17 2     
   35   18   23 1     
   36   18   19 1     
   37   18   48 1     
   38   19   20 1     
   39   19   40 1     
   40   19   41 1     
   41   20   21 1     
   42   20   42 1     
   43   20   43 1     
   44   21   22 1     
   45   22   23 1     
   46   22   44 1     
   47   22   45 1     
   48   23   46 1     
   49   23   47 1     
   50    8   49 1     
   51    8   50 1     
   52   14   51 1     
   53   14   52 1     
   54   17   53 1     
   55   17   54 1     
   56   21   55 1     
   57   21   56 1     
@<TRIPOS>SUBSTRUCTURE
      1 S1             1
@<TRIPOS>SET
LONE_PAIRS      STATIC     ATOMS    <user>   **** ""
8 49 50 51 52 53 54 55 56
DONOR_HYDROGENS      STATIC     ATOMS    <user>   **** ""
3 35 24 48
ATOM$BLUE        STATIC     ATOMS    COLORGROUP SYSTEM
8 49 50 51 52 53 54 55 56
ATOM$RED        STATIC     ATOMS    COLORGROUP SYSTEM
3 35 24 48
