AV-unprocessed.smi:254|AV-procd|sdf|1945|dock8
  -GOLD-   2262021 73D 1   1.00000     0.00000
 Structure written by MMmdl.
 50 53  0  0  0  0  0  0  0  0  1 V2000
  148.8723  141.7001  153.7854 O   0  0  0  0  0  0  0  0  0  0  0  0
  148.4819  140.6615  154.3159 C   0  0  0  0  0  0  0  0  0  0  0  0
  147.6318  139.6317  153.5949 C   0  0  0  0  0  0  0  0  0  0  0  0
  147.4766  138.6136  154.6268 N   0  0  0  0  0  0  0  0  0  0  0  0
  146.7746  137.4664  154.4383 C   0  0  0  0  0  0  0  0  0  0  0  0
  146.5613  136.6632  155.5136 N   0  0  0  0  0  0  0  0  0  0  0  0
  145.8806  135.5219  155.3851 C   0  0  0  0  0  0  0  0  0  0  0  0
  145.3298  135.0007  154.2890 N   0  0  0  0  0  0  0  0  0  0  0  0
  145.5302  135.7997  153.2034 C   0  0  0  0  0  0  0  0  0  0  0  0
  146.2400  137.0362  153.1867 C   0  0  0  0  0  0  0  0  0  0  0  0
  146.2438  137.5498  151.8947 N   0  0  0  0  0  0  0  0  0  0  0  0
  145.5809  136.6726  151.1939 C   0  0  0  0  0  0  0  0  0  0  0  0
  145.0988  135.5958  151.9028 N   0  0  0  0  0  0  0  0  0  0  0  0
  144.3285  134.4786  151.3703 C   0  0  0  0  0  0  0  0  0  0  0  0
  145.1081  133.5792  150.3738 C   0  0  2  0  0  0  0  0  0  0  0  0
  144.1374  132.9010  149.3768 C   0  0  0  0  0  0  0  0  0  0  0  0
  143.6352  133.8133  148.4229 O   0  0  0  0  0  0  0  0  0  0  0  0
  146.0273  132.5614  151.1047 C   0  0  2  0  0  0  0  0  0  0  0  0
  145.2878  131.5592  151.9769 C   0  0  0  0  0  0  0  0  0  0  0  0
  146.4026  131.0094  152.8599 C   0  0  0  0  0  0  0  0  0  0  0  0
  147.3329  132.0750  153.0130 O   0  0  0  0  0  0  0  0  0  0  0  0
  146.9791  133.1511  152.1508 C   0  0  0  0  0  0  0  0  0  0  0  0
  148.1514  138.9678  155.8676 C   0  0  0  0  0  0  0  0  0  0  0  0
  148.7336  140.2660  155.5690 N   0  0  0  0  0  0  0  0  0  0  0  0
  149.5304  140.9768  156.5666 C   0  0  0  0  0  0  0  0  0  0  0  0
  150.8356  140.2377  156.9121 C   0  0  0  0  0  0  0  0  0  0  0  0
  151.6097  141.0435  157.6374 F   0  0  0  0  0  0  0  0  0  0  0  0
  150.5936  139.1349  157.6203 F   0  0  0  0  0  0  0  0  0  0  0  0
  151.4908  139.9090  155.7987 F   0  0  0  0  0  0  0  0  0  0  0  0
  146.6716  140.0583  153.3021 H   0  0  0  0  0  0  0  0  0  0  0  0
  148.1499  139.2433  152.7174 H   0  0  0  0  0  0  0  0  0  0  0  0
  145.7593  134.9447  156.2898 H   0  0  0  0  0  0  0  0  0  0  0  0
  145.4213  136.7926  150.1322 H   0  0  0  0  0  0  0  0  0  0  0  0
  143.9911  133.8762  152.2147 H   0  0  0  0  0  0  0  0  0  0  0  0
  143.4200  134.8689  150.9120 H   0  0  0  0  0  0  0  0  0  0  0  0
  145.7471  134.2504  149.7977 H   0  0  0  0  0  0  0  0  0  0  0  0
  144.6184  132.0663  148.8658 H   0  0  0  0  0  0  0  0  0  0  0  0
  143.2734  132.4985  149.9057 H   0  0  0  0  0  0  0  0  0  0  0  0
  142.8166  134.1623  148.7414 H   0  0  0  0  0  0  0  0  0  0  0  0
  146.6285  132.0190  150.3739 H   0  0  0  0  0  0  0  0  0  0  0  0
  144.5443  132.0680  152.5920 H   0  0  0  0  0  0  0  0  0  0  0  0
  144.7795  130.7745  151.4192 H   0  0  0  0  0  0  0  0  0  0  0  0
  146.0350  130.6577  153.8239 H   0  0  0  0  0  0  0  0  0  0  0  0
  146.9062  130.1790  152.3638 H   0  0  0  0  0  0  0  0  0  0  0  0
  147.8669  133.6001  151.7053 H   0  0  0  0  0  0  0  0  0  0  0  0
  146.4751  133.9126  152.7476 H   0  0  0  0  0  0  0  0  0  0  0  0
  147.4445  139.0454  156.6948 H   0  0  0  0  0  0  0  0  0  0  0  0
  148.9299  138.2448  156.1156 H   0  0  0  0  0  0  0  0  0  0  0  0
  149.7639  141.9729  156.1884 H   0  0  0  0  0  0  0  0  0  0  0  0
  148.9353  141.1266  157.4688 H   0  0  0  0  0  0  0  0  0  0  0  0
  1  2  2  0  0  0  0
  2 24  1  0  0  0  0
  2  3  1  0  0  0  0
  3  4  1  0  0  0  0
  3 30  1  0  0  0  0
  3 31  1  0  0  0  0
  4  5  1  0  0  0  0
  4 23  1  0  0  0  0
  5 10  1  0  0  0  0
  5  6  2  0  0  0  0
  6  7  1  0  0  0  0
  7  8  2  0  0  0  0
  7 32  1  0  0  0  0
  8  9  1  0  0  0  0
  9 13  1  0  0  0  0
  9 10  2  0  0  0  0
 10 11  1  0  0  0  0
 11 12  2  0  0  0  0
 12 13  1  0  0  0  0
 12 33  1  0  0  0  0
 13 14  1  0  0  0  0
 14 15  1  0  0  0  0
 14 34  1  0  0  0  0
 14 35  1  0  0  0  0
 15 16  1  0  0  0  0
 15 18  1  0  0  0  0
 15 36  1  0  0  0  0
 16 17  1  0  0  0  0
 16 37  1  0  0  0  0
 16 38  1  0  0  0  0
 17 39  1  0  0  0  0
 18 22  1  0  0  0  0
 18 19  1  0  0  0  0
 18 40  1  0  0  0  0
 19 20  1  0  0  0  0
 19 41  1  0  0  0  0
 19 42  1  0  0  0  0
 20 21  1  0  0  0  0
 20 43  1  0  0  0  0
 20 44  1  0  0  0  0
 21 22  1  0  0  0  0
 22 45  1  0  0  0  0
 22 46  1  0  0  0  0
 23 24  1  0  0  0  0
 23 47  1  0  0  0  0
 23 48  1  0  0  0  0
 24 25  1  0  0  0  0
 25 26  1  0  0  0  0
 25 49  1  0  0  0  0
 25 50  1  0  0  0  0
 26 27  1  0  0  0  0
 26 28  1  0  0  0  0
 26 29  1  0  0  0  0
M  END
> <s_m_source_file>
AV-unprocessed.smi

> <i_m_source_file_index>
254

> <i_lp_mmshare_version>
43012

> <i_f3d_flags>
0

> <s_epik_input>
RkMoRikoRilbQ0gyXU4xW0NIMl1OKFtDSDJdQzE9TyljKG5bY0hdbjIpYyhjMjMpbltjSF1uM1tDSDJdW0NASF0oW0NIMl1bT0hdKVtDQEBIXTRbQ0gyXVtDSDJdT1tDSDJdNA==

> <s_epik_cmdline>
J2VwaWtfcHl0aG9uJywgJy1waCcsICc3LjAnLCAnLXRuJywgJzgnLCAnLW1hJywgJzIwMCcsICctbWV0YWxfYmluZGluZycsICctaW1hZScsICc8aW5maWxlLm1hZT4nLCAnLW9tYWUnLCAnPG91dGZpbGUubWFlPic=

> <r_lp_tautomer_probability>
1

> <r_epik_Ionization_Penalty>
0.000292924

> <r_epik_Ionization_Penalty_Charging>
0

> <r_epik_Ionization_Penalty_Neutral>
0.000292924

> <r_epik_State_Penalty>
-0

> <r_epik_Charging_Adjusted_Penalty>
0

> <i_epik_Tot_Q>
0

> <i_epik_Tot_abs_Q>
0

> <r_epik_Metal_State_Penalty>
-0

> <b_epik_Metal_Only>
0

> <s_epik_Chemistry_Notes>
This compound contains an acetal/aminal-like group ( X-CH(R)-Y where X, Y are N, S, or O) that may be acid/base labile, releasing an aldehyde.

> <s_lp_Force_Field>
OPLS_2005

> <r_lp_Energy>
38.7096

> <b_lp_Chiralities_Consistent>
1

> <s_lp_Variant>
AV-unprocessed.smi:254-1

> <Gold.Version>
5.8.1

> <Gold.Id.Protein>
6NUR|6NUR_protein|mol2

> <Gold.PLP.Fitness>
45.0557

> <Gold.PLP.PLP>
-39.2046

> <Gold.PLP.part.hbond>
-3.0000

> <Gold.PLP.part.metal>
0.0000

> <Gold.PLP.part.buried>
-3.8037

> <Gold.PLP.part.nonpolar>
-33.0442

> <Gold.PLP.part.repulsive>
1.3212

> <Gold.PLP.ligand.clash>
0.0000

> <Gold.PLP.ligand.torsion>
0.6086

> <Gold.PLP.Chemscore.Hbond>
1.6240

> <Gold.PLP.Chemscore.CHOScore>
0.6185

> <Gold.PLP.Chemscore.Metal>
0.0000

> <Gold.Chemscore.Hbonds>
donor molecule, donor type, donor heavy atom, donor atom, acceptor molecule, acceptor atom, score
      L1  H    17    39       P1 10186  1.00
      P1  H  8011  8017       L1     1  0.62
      L1  C    12    33       P1 10171  0.58

> <Gold.PLP.Chemscore.Internal.Correction>
0.3408

> <Gold.Rescore>
     Score         DG    S(hbond)    S(metal)    S(lipo)     H(rot)  DE(clash)    DE(int)     intcor
      7.78     -10.71       1.66        0.00      69.46       3.30       1.34       1.59       ----

> <Gold.Chemscore.Fitness>
7.7780

> <Gold.Chemscore.DG>
-10.7090

> <Gold.Chemscore.ZeroCoef>
-5.4800

> <Gold.Chemscore.Hbond>
1.6598

> <Gold.Chemscore.Metal>
0.0000

> <Gold.Chemscore.Lipo>
69.4593

> <Gold.Chemscore.Internal_Hbond>
0.0000

> <Gold.Chemscore.DEClash>
1.3432

> <Gold.Chemscore.DEInternal>
1.5877

> <Gold.Chemscore.Rot>
3.2974

> <Gold.Chemscore.Internal.Correction>
   9.000000E+99

> <Gold.Chemscore.Hbonds>
donor molecule, donor type, donor heavy atom, donor atom, acceptor molecule, acceptor atom, score
      L1  H    17    39       P1 10186  0.97
      P1  H  8011  8017       L1     1  0.62

> <Gold.Chemscore.Hbond.Weighted>
-5.5437

> <Gold.Chemscore.Metal.Weighted>
-0.0000

> <Gold.Chemscore.Lipo.Weighted>
-8.1267

> <Gold.Chemscore.Internal_Hbond.Weighted>
0.0000

> <Gold.Chemscore.DEClash.Weighted>
1.3432

> <Gold.Chemscore.DEInternal.Weighted>
1.5877

> <Gold.Chemscore.Rot.Weighted>
8.4414

> <Gold.Chemscore.Internal.Correction.Weighted>
   9.000000E+99

> <Gold.Protein.RotatedTorsions>
[ 6907 6896 6895 6894 ] final    2.26 input  -60.11 | X-H torsion
[ 7974 7965 7964 7962 ] final  -73.53 input  175.53 | X-H torsion
[ 8008 7997 7996 7995 ] final  -36.74 input   59.86 | X-H torsion
[ 10167 10162 10161 10158 ] final   -9.69 input  -65.29 | X-H torsion
[ 10718 10713 10712 10709 ] final  175.73 input   66.30 | X-H torsion
[ 10763 10752 10751 10750 ] final -178.44 input  -60.55 | X-H torsion
[ 11005 11000 10999 10996 ] final -105.79 input  -57.11 | X-H torsion

> <Gold.Protein.ActiveResidues>
 VAL166  LYS551  ARG553  GLY616  TRP617  ASP618  TYR619  PRO620  LYS621  CYS622 
 ASP623  PHE694  ASN695  SER759  ASP760  ASP761  ALA762  ILE779  LEU786  VAL792 
 PHE793  MET794  SER795  GLU796  ALA797  LYS798  CYS799  TRP800  GLU811  SER814 

> <Gold.Protein.RotatedAtoms>
  151.6060  135.1044  160.0070 H   0  0  0  0  0  0  0  0  0  0  0  0  # atno 6907 bound_to 6896
  152.4233  133.7149  159.6510 H   0  0  0  0  0  0  0  0  0  0  0  0  # atno 6908 bound_to 6896
  150.8121  133.8330  159.3199 H   0  0  0  0  0  0  0  0  0  0  0  0  # atno 6909 bound_to 6896
  145.6509  140.9283  143.0985 H   0  0  0  0  0  0  0  0  0  0  0  0  # atno 7974 bound_to 7965
  154.4067  140.1622  156.2424 H   0  0  0  0  0  0  0  0  0  0  0  0  # atno 8008 bound_to 7997
  155.9190  140.3422  155.6135 H   0  0  0  0  0  0  0  0  0  0  0  0  # atno 8009 bound_to 7997
  155.7245  140.0772  157.2307 H   0  0  0  0  0  0  0  0  0  0  0  0  # atno 8010 bound_to 7997
  140.7094  143.5830  150.8972 H   0  0  0  0  0  0  0  0  0  0  0  0  # atno 10167 bound_to 10162
  156.9306  130.9969  151.2988 H   0  0  0  0  0  0  0  0  0  0  0  0  # atno 10718 bound_to 10713
  154.5476  135.2810  155.1038 H   0  0  0  0  0  0  0  0  0  0  0  0  # atno 10763 bound_to 10752
  154.2496  135.6342  153.5239 H   0  0  0  0  0  0  0  0  0  0  0  0  # atno 10764 bound_to 10752
  152.9994  135.5579  154.6033 H   0  0  0  0  0  0  0  0  0  0  0  0  # atno 10765 bound_to 10752
  141.1036  133.8838  157.1777 H   0  0  0  0  0  0  0  0  0  0  0  0  # atno 11005 bound_to 11000
  144.7123  139.8325  143.7410 LP  0  0  0  0  0  0  0  0  0  0  0  0  # atno 17320 bound_to 7965
  146.1204  139.4221  143.0232 LP  0  0  0  0  0  0  0  0  0  0  0  0  # atno 17321 bound_to 7965
  139.9556  143.6222  152.3017 LP  0  0  0  0  0  0  0  0  0  0  0  0  # atno 17342 bound_to 10162
  139.6756  144.7659  151.1702 LP  0  0  0  0  0  0  0  0  0  0  0  0  # atno 17343 bound_to 10162
  157.5849  130.8403  149.8576 LP  0  0  0  0  0  0  0  0  0  0  0  0  # atno 17370 bound_to 10713
  156.0449  130.3730  150.1342 LP  0  0  0  0  0  0  0  0  0  0  0  0  # atno 17371 bound_to 10713
  139.9897  135.0069  156.9946 LP  0  0  0  0  0  0  0  0  0  0  0  0  # atno 17394 bound_to 11000
  140.4959  134.1146  155.7241 LP  0  0  0  0  0  0  0  0  0  0  0  0  # atno 17395 bound_to 11000

$$$$
