AV-unprocessed.smi:713|AV-procd|sdf|3481|dock3
  -GOLD-   22720 0473D 1   1.00000     0.00000
 Structure written by MMmdl.
 41 42  0  0  0  0  0  0  0  0  1 V2000
  153.7142  141.0097  160.5951 C   0  0  0  0  0  0  0  0  0  0  0  0
  153.0278  141.6587  159.3756 C   0  0  1  0  0  0  0  0  0  0  0  0
  151.9730  140.7487  158.7199 C   0  0  0  0  0  0  0  0  0  0  0  0
  151.0099  140.3312  159.3643 O   0  0  0  0  0  0  0  0  0  0  0  0
  152.1796  140.4337  157.4308 N   0  0  0  0  0  0  0  0  0  0  0  0
  151.3115  139.5925  156.6145 C   0  0  1  0  0  0  0  0  0  0  0  0
  150.6017  140.4647  155.5637 C   0  0  0  0  0  0  0  0  0  0  0  0
  149.7158  139.6256  154.6302 C   0  0  0  0  0  0  0  0  0  0  0  0
  150.5083  138.4803  153.9745 C   0  0  0  0  0  0  0  0  0  0  0  0
  151.2841  137.6044  154.9849 C   0  0  2  0  0  0  0  0  0  0  0  0
  150.2004  136.4333  155.9427 S   0  0  0  0  0  0  0  0  0  0  0  0
  150.8334  134.7866  155.4174 C   0  0  0  0  0  0  0  0  0  0  0  0
  150.4989  136.6033  157.3727 O   0  0  0  0  0  0  0  0  0  0  0  0
  148.8090  136.5417  155.4808 O   0  0  0  0  0  0  0  0  0  0  0  0
  152.1317  138.4786  155.9308 C   0  0  0  0  0  0  0  0  0  0  0  0
  152.4604  142.9630  159.7036 N   0  0  0  0  0  0  0  0  0  0  0  0
  152.3437  143.5486  160.9480 C   0  0  0  0  0  0  0  0  0  0  0  0
  151.7896  144.7836  160.7707 C   0  0  0  0  0  0  0  0  0  0  0  0
  151.6046  144.8718  159.3631 C   0  0  0  0  0  0  0  0  0  0  0  0
  152.0119  143.7859  158.7271 N   0  0  0  0  0  0  0  0  0  0  0  0
  154.2038  140.0743  160.3214 H   0  0  0  0  0  0  0  0  0  0  0  0
  153.0044  140.7904  161.3938 H   0  0  0  0  0  0  0  0  0  0  0  0
  154.4797  141.6690  161.0054 H   0  0  0  0  0  0  0  0  0  0  0  0
  153.8002  141.8265  158.6235 H   0  0  0  0  0  0  0  0  0  0  0  0
  152.9944  140.8196  156.9766 H   0  0  0  0  0  0  0  0  0  0  0  0
  150.5525  139.1463  157.2583 H   0  0  0  0  0  0  0  0  0  0  0  0
  149.9953  141.2254  156.0572 H   0  0  0  0  0  0  0  0  0  0  0  0
  151.3427  140.9999  154.9679 H   0  0  0  0  0  0  0  0  0  0  0  0
  148.8626  139.2364  155.1825 H   0  0  0  0  0  0  0  0  0  0  0  0
  149.2952  140.2662  153.8548 H   0  0  0  0  0  0  0  0  0  0  0  0
  149.8448  137.8717  153.3617 H   0  0  0  0  0  0  0  0  0  0  0  0
  151.2266  138.9184  153.2807 H   0  0  0  0  0  0  0  0  0  0  0  0
  151.9671  136.9650  154.4249 H   0  0  0  0  0  0  0  0  0  0  0  0
  150.3471  134.0111  156.0089 H   0  0  0  0  0  0  0  0  0  0  0  0
  151.9099  134.7389  155.5787 H   0  0  0  0  0  0  0  0  0  0  0  0
  150.6117  134.6190  154.3644 H   0  0  0  0  0  0  0  0  0  0  0  0
  152.9390  138.9338  155.3555 H   0  0  0  0  0  0  0  0  0  0  0  0
  152.6162  137.8515  156.6802 H   0  0  0  0  0  0  0  0  0  0  0  0
  152.6631  143.0432  161.8476 H   0  0  0  0  0  0  0  0  0  0  0  0
  151.5551  145.5142  161.5305 H   0  0  0  0  0  0  0  0  0  0  0  0
  151.1937  145.6884  158.7882 H   0  0  0  0  0  0  0  0  0  0  0  0
  1  2  1  0  0  0  0
  1 21  1  0  0  0  0
  1 22  1  0  0  0  0
  1 23  1  0  0  0  0
  2  3  1  0  0  0  0
  2 16  1  0  0  0  0
  2 24  1  0  0  0  0
  3  4  2  0  0  0  0
  3  5  1  0  0  0  0
  5  6  1  0  0  0  0
  5 25  1  0  0  0  0
  6 15  1  0  0  0  0
  6  7  1  0  0  0  0
  6 26  1  0  0  0  0
  7  8  1  0  0  0  0
  7 27  1  0  0  0  0
  7 28  1  0  0  0  0
  8  9  1  0  0  0  0
  8 29  1  0  0  0  0
  8 30  1  0  0  0  0
  9 10  1  0  0  0  0
  9 31  1  0  0  0  0
  9 32  1  0  0  0  0
 10 11  1  0  0  0  0
 10 15  1  0  0  0  0
 10 33  1  0  0  0  0
 11 12  1  0  0  0  0
 11 13  2  0  0  0  0
 11 14  2  0  0  0  0
 12 34  1  0  0  0  0
 12 35  1  0  0  0  0
 12 36  1  0  0  0  0
 15 37  1  0  0  0  0
 15 38  1  0  0  0  0
 16 20  1  0  0  0  0
 16 17  1  0  0  0  0
 17 18  2  0  0  0  0
 17 39  1  0  0  0  0
 18 19  1  0  0  0  0
 18 40  1  0  0  0  0
 19 20  2  0  0  0  0
 19 41  1  0  0  0  0
M  END
> <s_m_source_file>
AV-unprocessed.smi

> <i_m_source_file_index>
713

> <i_lp_mmshare_version>
43012

> <i_f3d_flags>
0

> <s_epik_input>
bjFbY0hdW2NIXVtjSF1uMVtDQEhdKFtDSDNdKUMoPU8pW05IXVtDQEBIXTJbQ0gyXVtDSDJdW0NIMl1bQ0BIXShbQ0gyXTIpUyg9TykoPU8pW0NIM10=

> <s_epik_cmdline>
J2VwaWtfcHl0aG9uJywgJy1waCcsICc3LjAnLCAnLXRuJywgJzgnLCAnLW1hJywgJzIwMCcsICctbWV0YWxfYmluZGluZycsICctaW1hZScsICc8aW5maWxlLm1hZT4nLCAnLW9tYWUnLCAnPG91dGZpbGUubWFlPic=

> <r_lp_tautomer_probability>
1

> <r_epik_Ionization_Penalty>
4.07816e-05

> <r_epik_Ionization_Penalty_Charging>
0

> <r_epik_Ionization_Penalty_Neutral>
4.07816e-05

> <r_epik_State_Penalty>
-0

> <r_epik_Charging_Adjusted_Penalty>
0

> <i_epik_Tot_Q>
0

> <i_epik_Tot_abs_Q>
0

> <r_epik_Metal_State_Penalty>
-0

> <b_epik_Metal_Only>
0

> <s_lp_Force_Field>
OPLS_2005

> <r_lp_Energy>
4.31355

> <b_lp_Chiralities_Consistent>
1

> <s_lp_Variant>
AV-unprocessed.smi:713-8

> <Gold.Version>
5.8.1

> <Gold.Id.Protein>
6NUR|6NUR_protein|mol2

> <Gold.PLP.Fitness>
41.3086

> <Gold.PLP.PLP>
-41.6570

> <Gold.PLP.part.hbond>
-0.2075

> <Gold.PLP.part.metal>
0.0000

> <Gold.PLP.part.buried>
-4.1889

> <Gold.PLP.part.nonpolar>
-37.6199

> <Gold.PLP.part.repulsive>
0.2496

> <Gold.PLP.ligand.clash>
0.0000

> <Gold.PLP.ligand.torsion>
0.3252

> <Gold.PLP.Chemscore.Hbond>
0.0000

> <Gold.PLP.Chemscore.CHOScore>
0.0000

> <Gold.PLP.Chemscore.Metal>
0.0000

> <Gold.PLP.Chemscore.Internal.Correction>
0.3020

> <Gold.Rescore>
     Score         DG    S(hbond)    S(metal)    S(lipo)     H(rot)  DE(clash)    DE(int)     intcor
     12.87     -13.20       0.00        0.00     103.69       1.72       0.07       0.26       ----

> <Gold.Chemscore.Fitness>
12.8657

> <Gold.Chemscore.DG>
-13.1959

> <Gold.Chemscore.ZeroCoef>
-5.4800

> <Gold.Chemscore.Hbond>
0.0000

> <Gold.Chemscore.Metal>
0.0000

> <Gold.Chemscore.Lipo>
103.6894

> <Gold.Chemscore.Internal_Hbond>
0.0000

> <Gold.Chemscore.DEClash>
0.0676

> <Gold.Chemscore.DEInternal>
0.2627

> <Gold.Chemscore.Rot>
1.7249

> <Gold.Chemscore.Internal.Correction>
   9.000000E+99

> <Gold.Chemscore.Hbond.Weighted>
-0.0000

> <Gold.Chemscore.Metal.Weighted>
-0.0000

> <Gold.Chemscore.Lipo.Weighted>
-12.1317

> <Gold.Chemscore.Internal_Hbond.Weighted>
0.0000

> <Gold.Chemscore.DEClash.Weighted>
0.0676

> <Gold.Chemscore.DEInternal.Weighted>
0.2627

> <Gold.Chemscore.Rot.Weighted>
4.4157

> <Gold.Chemscore.Internal.Correction.Weighted>
   9.000000E+99

> <Gold.Protein.RotatedTorsions>
[ 6907 6896 6895 6894 ] final   66.18 input  -60.11 | X-H torsion
[ 7974 7965 7964 7962 ] final   61.14 input  175.53 | X-H torsion
[ 8008 7997 7996 7995 ] final  152.71 input   59.86 | X-H torsion
[ 10167 10162 10161 10158 ] final   25.96 input  -65.29 | X-H torsion
[ 10718 10713 10712 10709 ] final  -93.91 input   66.30 | X-H torsion
[ 10763 10752 10751 10750 ] final  106.83 input  -60.55 | X-H torsion
[ 11005 11000 10999 10996 ] final    4.94 input  -57.11 | X-H torsion

> <Gold.Protein.ActiveResidues>
 VAL166  LYS551  ARG553  GLY616  TRP617  ASP618  TYR619  PRO620  LYS621  CYS622 
 ASP623  PHE694  ASN695  SER759  ASP760  ASP761  ALA762  ILE779  LEU786  VAL792 
 PHE793  MET794  SER795  GLU796  ALA797  LYS798  CYS799  TRP800  GLU811  SER814 

> <Gold.Protein.RotatedAtoms>
  152.4462  134.5489  159.9860 H   0  0  0  0  0  0  0  0  0  0  0  0  # atno 6907 bound_to 6896
  151.5573  133.3402  159.2972 H   0  0  0  0  0  0  0  0  0  0  0  0  # atno 6908 bound_to 6896
  150.8379  134.7693  159.6972 H   0  0  0  0  0  0  0  0  0  0  0  0  # atno 6909 bound_to 6896
  145.8881  139.3491  143.0666 H   0  0  0  0  0  0  0  0  0  0  0  0  # atno 7974 bound_to 7965
  156.2616  140.2013  156.6375 H   0  0  0  0  0  0  0  0  0  0  0  0  # atno 8008 bound_to 7997
  154.6635  140.0558  157.0112 H   0  0  0  0  0  0  0  0  0  0  0  0  # atno 8009 bound_to 7997
  155.1241  140.3227  155.4493 H   0  0  0  0  0  0  0  0  0  0  0  0  # atno 8010 bound_to 7997
  140.5062  144.0234  150.6353 H   0  0  0  0  0  0  0  0  0  0  0  0  # atno 10167 bound_to 10162
  156.0019  130.5046  150.5848 H   0  0  0  0  0  0  0  0  0  0  0  0  # atno 10718 bound_to 10713
  153.3984  135.3864  155.1971 H   0  0  0  0  0  0  0  0  0  0  0  0  # atno 10763 bound_to 10752
  154.8727  135.3765  154.4650 H   0  0  0  0  0  0  0  0  0  0  0  0  # atno 10764 bound_to 10752
  153.5144  135.7087  153.5825 H   0  0  0  0  0  0  0  0  0  0  0  0  # atno 10765 bound_to 10752
  140.5763  134.0055  155.8029 H   0  0  0  0  0  0  0  0  0  0  0  0  # atno 11005 bound_to 11000
  145.8942  140.9284  143.0536 LP  0  0  0  0  0  0  0  0  0  0  0  0  # atno 17320 bound_to 7965
  144.6729  140.0947  143.7463 LP  0  0  0  0  0  0  0  0  0  0  0  0  # atno 17321 bound_to 7965
  140.3544  143.2944  152.0452 LP  0  0  0  0  0  0  0  0  0  0  0  0  # atno 17342 bound_to 10162
  139.4884  144.6350  151.6994 LP  0  0  0  0  0  0  0  0  0  0  0  0  # atno 17343 bound_to 10162
  157.3722  131.0767  151.1548 LP  0  0  0  0  0  0  0  0  0  0  0  0  # atno 17370 bound_to 10713
  157.2298  130.6520  149.5845 LP  0  0  0  0  0  0  0  0  0  0  0  0  # atno 17371 bound_to 10713
  141.1025  133.9746  157.3055 LP  0  0  0  0  0  0  0  0  0  0  0  0  # atno 17394 bound_to 11000
  139.9338  135.0198  156.8489 LP  0  0  0  0  0  0  0  0  0  0  0  0  # atno 17395 bound_to 11000

$$$$
