AV-unprocessed.smi:3263|AV-procd|sdf|12489|dock1
  -GOLD-   2272018393D 1   1.00000     0.00000
 Structure written by MMmdl.
 41 43  0  0  0  0  0  0  0  0  1 V2000
  150.8154  140.9930  155.1132 O   0  0  0  0  0  0  0  0  0  0  0  0
  150.1993  141.9206  155.6383 C   0  0  0  0  0  0  0  0  0  0  0  0
  150.9578  143.0654  156.3179 C   0  0  0  0  0  0  0  0  0  0  0  0
  150.7490  143.0956  157.8488 C   0  0  1  0  0  0  0  0  0  0  0  0
  151.6599  142.1442  158.6571 C   0  0  0  0  0  0  0  0  0  0  0  0
  152.2353  143.0662  159.7485 C   0  0  1  0  0  0  0  0  0  0  0  0
  153.2890  143.9942  159.1172 C   0  0  0  0  0  0  0  0  0  0  0  0
  152.4282  144.9770  158.3027 C   0  0  0  0  0  0  0  0  0  0  0  0
  150.9949  144.4577  158.5403 C   0  0  2  0  0  0  0  0  0  0  0  0
  151.0797  144.0286  160.0024 C   0  0  0  0  0  0  0  0  0  0  0  0
  148.8600  142.0003  155.6517 N   0  0  0  0  0  0  0  0  0  0  0  0
  147.9577  141.0376  155.0308 C   0  0  0  0  0  0  0  0  0  0  0  0
  147.0831  141.7004  153.9531 C   0  0  0  0  0  0  0  0  0  0  0  0
  145.9795  142.5524  154.5510 C   0  0  0  0  0  0  0  0  0  0  0  0
  145.2139  143.4153  153.7377 C   0  0  0  0  0  0  0  0  0  0  0  0
  144.2037  144.1875  154.3434 C   0  0  0  0  0  0  0  0  0  0  0  0
  143.9998  144.0688  155.7316 C   0  0  0  0  0  0  0  0  0  0  0  0
  144.8190  143.1798  156.4557 C   0  0  0  0  0  0  0  0  0  0  0  0
  145.7898  142.4344  155.8846 N   0  0  0  0  0  0  0  0  0  0  0  0
  152.0175  142.9801  156.0768 H   0  0  0  0  0  0  0  0  0  0  0  0
  150.6138  144.0039  155.8822 H   0  0  0  0  0  0  0  0  0  0  0  0
  149.7115  142.8233  158.0527 H   0  0  0  0  0  0  0  0  0  0  0  0
  151.0735  141.3354  159.0950 H   0  0  0  0  0  0  0  0  0  0  0  0
  152.4482  141.6911  158.0543 H   0  0  0  0  0  0  0  0  0  0  0  0
  152.5945  142.5317  160.6282 H   0  0  0  0  0  0  0  0  0  0  0  0
  153.8528  144.5247  159.8854 H   0  0  0  0  0  0  0  0  0  0  0  0
  154.0006  143.4500  158.4951 H   0  0  0  0  0  0  0  0  0  0  0  0
  152.5344  145.9868  158.7017 H   0  0  0  0  0  0  0  0  0  0  0  0
  152.7099  145.0176  157.2516 H   0  0  0  0  0  0  0  0  0  0  0  0
  150.2227  145.1980  158.3289 H   0  0  0  0  0  0  0  0  0  0  0  0
  150.1768  143.5344  160.3653 H   0  0  0  0  0  0  0  0  0  0  0  0
  151.3368  144.8441  160.6808 H   0  0  0  0  0  0  0  0  0  0  0  0
  148.4359  142.7946  156.1091 H   0  0  0  0  0  0  0  0  0  0  0  0
  148.5269  140.2078  154.6084 H   0  0  0  0  0  0  0  0  0  0  0  0
  147.3256  140.6147  155.8119 H   0  0  0  0  0  0  0  0  0  0  0  0
  147.7018  142.3201  153.3024 H   0  0  0  0  0  0  0  0  0  0  0  0
  146.6316  140.9418  153.3122 H   0  0  0  0  0  0  0  0  0  0  0  0
  145.3952  143.4858  152.6753 H   0  0  0  0  0  0  0  0  0  0  0  0
  143.5966  144.8590  153.7543 H   0  0  0  0  0  0  0  0  0  0  0  0
  143.2350  144.6454  156.2301 H   0  0  0  0  0  0  0  0  0  0  0  0
  144.6915  143.0648  157.5218 H   0  0  0  0  0  0  0  0  0  0  0  0
  1  2  2  0  0  0  0
  2  3  1  0  0  0  0
  2 11  1  0  0  0  0
  3  4  1  0  0  0  0
  3 20  1  0  0  0  0
  3 21  1  0  0  0  0
  4  9  1  0  0  0  0
  4  5  1  0  0  0  0
  4 22  1  0  0  0  0
  5  6  1  0  0  0  0
  5 23  1  0  0  0  0
  5 24  1  0  0  0  0
  6 10  1  0  0  0  0
  6  7  1  0  0  0  0
  6 25  1  0  0  0  0
  7  8  1  0  0  0  0
  7 26  1  0  0  0  0
  7 27  1  0  0  0  0
  8  9  1  0  0  0  0
  8 28  1  0  0  0  0
  8 29  1  0  0  0  0
  9 10  1  0  0  0  0
  9 30  1  0  0  0  0
 10 31  1  0  0  0  0
 10 32  1  0  0  0  0
 11 12  1  0  0  0  0
 11 33  1  0  0  0  0
 12 13  1  0  0  0  0
 12 34  1  0  0  0  0
 12 35  1  0  0  0  0
 13 14  1  0  0  0  0
 13 36  1  0  0  0  0
 13 37  1  0  0  0  0
 14 19  1  0  0  0  0
 14 15  2  0  0  0  0
 15 16  1  0  0  0  0
 15 38  1  0  0  0  0
 16 17  2  0  0  0  0
 16 39  1  0  0  0  0
 17 18  1  0  0  0  0
 17 40  1  0  0  0  0
 18 19  2  0  0  0  0
 18 41  1  0  0  0  0
M  END
> <s_m_source_file>
AV-unprocessed.smi

> <i_m_source_file_index>
3263

> <i_lp_mmshare_version>
43012

> <i_f3d_flags>
0

> <s_epik_input>
W0NIMl0xW0NIMl1bQ0BASF0oW0NIMl0yKVtDQEBIXShbQ0gyXVtDQEhdMTIpW0NIMl1DKD1PKVtOSF1bQ0gyXVtDSDJdYzNbY0hdW2NIXVtjSF1bY0hdbjM=

> <s_epik_cmdline>
J2VwaWtfcHl0aG9uJywgJy1waCcsICc3LjAnLCAnLXRuJywgJzgnLCAnLW1hJywgJzIwMCcsICctbWV0YWxfYmluZGluZycsICctaW1hZScsICc8aW5maWxlLm1hZT4nLCAnLW9tYWUnLCAnPG91dGZpbGUubWFlPic=

> <r_epik_Ionization_Penalty>
0.0273541

> <r_epik_Ionization_Penalty_Charging>
0

> <r_epik_Ionization_Penalty_Neutral>
0.0273541

> <r_epik_State_Penalty>
0.0223838

> <r_epik_Charging_Adjusted_Penalty>
0.0223838

> <i_epik_Tot_Q>
0

> <i_epik_Tot_abs_Q>
0

> <r_epik_Metal_State_Penalty>
0.0213927

> <b_epik_Metal_Only>
0

> <s_lp_Force_Field>
OPLS_2005

> <r_lp_Energy>
45.4659

> <b_lp_Chiralities_Consistent>
1

> <s_lp_Variant>
AV-unprocessed.smi:3263-4

> <Gold.Version>
5.8.1

> <Gold.Id.Protein>
6NUR|6NUR_protein|mol2

> <Gold.PLP.Fitness>
49.2888

> <Gold.PLP.PLP>
-45.0577

> <Gold.PLP.part.hbond>
-2.0000

> <Gold.PLP.part.metal>
0.0000

> <Gold.PLP.part.buried>
-7.0026

> <Gold.PLP.part.nonpolar>
-35.9425

> <Gold.PLP.part.repulsive>
0.3448

> <Gold.PLP.ligand.clash>
0.0000

> <Gold.PLP.ligand.torsion>
0.4443

> <Gold.PLP.Chemscore.Hbond>
1.6800

> <Gold.PLP.Chemscore.CHOScore>
0.0000

> <Gold.PLP.Chemscore.Metal>
0.0000

> <Gold.Chemscore.Hbonds>
donor molecule, donor type, donor heavy atom, donor atom, acceptor molecule, acceptor atom, score
      L1  H    11    33       P1  8028  0.48
      P1  H  7989  7998       L1     1  0.72

> <Gold.PLP.Chemscore.Internal.Correction>
0.0798

> <Gold.Rescore>
     Score         DG    S(hbond)    S(metal)    S(lipo)     H(rot)  DE(clash)    DE(int)     intcor
     20.63     -21.63       1.51        0.00     126.74       1.46       0.26       0.74       ----

> <Gold.Chemscore.Fitness>
20.6335

> <Gold.Chemscore.DG>
-21.6318

> <Gold.Chemscore.ZeroCoef>
-5.4800

> <Gold.Chemscore.Hbond>
1.5119

> <Gold.Chemscore.Metal>
0.0000

> <Gold.Chemscore.Lipo>
126.7360

> <Gold.Chemscore.Internal_Hbond>
0.0000

> <Gold.Chemscore.DEClash>
0.2563

> <Gold.Chemscore.DEInternal>
0.7419

> <Gold.Chemscore.Rot>
1.4555

> <Gold.Chemscore.Internal.Correction>
   9.000000E+99

> <Gold.Chemscore.Hbonds>
donor molecule, donor type, donor heavy atom, donor atom, acceptor molecule, acceptor atom, score
      L1  H    11    33       P1  8028  0.43
      P1  H  7989  7998       L1     1  0.72

> <Gold.Chemscore.Hbond.Weighted>
-5.0498

> <Gold.Chemscore.Metal.Weighted>
-0.0000

> <Gold.Chemscore.Lipo.Weighted>
-14.8281

> <Gold.Chemscore.Internal_Hbond.Weighted>
0.0000

> <Gold.Chemscore.DEClash.Weighted>
0.2563

> <Gold.Chemscore.DEInternal.Weighted>
0.7419

> <Gold.Chemscore.Rot.Weighted>
3.7260

> <Gold.Chemscore.Internal.Correction.Weighted>
   9.000000E+99

> <Gold.Protein.RotatedTorsions>
[ 6907 6896 6895 6894 ] final    4.52 input  -60.11 | X-H torsion
[ 7974 7965 7964 7962 ] final -110.10 input  175.53 | X-H torsion
[ 8008 7997 7996 7995 ] final  -50.65 input   59.86 | X-H torsion
[ 10167 10162 10161 10158 ] final  -38.30 input  -65.29 | X-H torsion
[ 10718 10713 10712 10709 ] final  103.45 input   66.30 | X-H torsion
[ 10763 10752 10751 10750 ] final  -41.10 input  -60.55 | X-H torsion
[ 11005 11000 10999 10996 ] final  -41.49 input  -57.11 | X-H torsion

> <Gold.Protein.ActiveResidues>
 VAL166  LYS551  ARG553  GLY616  TRP617  ASP618  TYR619  PRO620  LYS621  CYS622 
 ASP623  PHE694  ASN695  SER759  ASP760  ASP761  ALA762  ILE779  LEU786  VAL792 
 PHE793  MET794  SER795  GLU796  ALA797  LYS798  CYS799  TRP800  GLU811  SER814 

> <Gold.Protein.RotatedAtoms>
  151.6426  135.1011  160.0144 H   0  0  0  0  0  0  0  0  0  0  0  0  # atno 6907 bound_to 6896
  152.4046  133.6865  159.6353 H   0  0  0  0  0  0  0  0  0  0  0  0  # atno 6908 bound_to 6896
  150.7942  133.8649  159.3283 H   0  0  0  0  0  0  0  0  0  0  0  0  # atno 6909 bound_to 6896
  145.1724  140.8932  143.3527 H   0  0  0  0  0  0  0  0  0  0  0  0  # atno 7974 bound_to 7965
  154.4066  140.1267  156.4701 H   0  0  0  0  0  0  0  0  0  0  0  0  # atno 8008 bound_to 7997
  155.7188  140.3493  155.4987 H   0  0  0  0  0  0  0  0  0  0  0  0  # atno 8009 bound_to 7997
  155.9233  140.1056  157.1179 H   0  0  0  0  0  0  0  0  0  0  0  0  # atno 8010 bound_to 7997
  140.7095  143.3286  151.2622 H   0  0  0  0  0  0  0  0  0  0  0  0  # atno 10167 bound_to 10162
  157.6772  131.0779  150.5556 H   0  0  0  0  0  0  0  0  0  0  0  0  # atno 10718 bound_to 10713
  153.9570  135.6744  153.4744 H   0  0  0  0  0  0  0  0  0  0  0  0  # atno 10763 bound_to 10752
  153.0856  135.4900  154.8588 H   0  0  0  0  0  0  0  0  0  0  0  0  # atno 10764 bound_to 10752
  154.7294  135.3134  154.8877 H   0  0  0  0  0  0  0  0  0  0  0  0  # atno 10765 bound_to 10752
  141.0250  133.6845  156.2465 H   0  0  0  0  0  0  0  0  0  0  0  0  # atno 11005 bound_to 11000
  145.0219  139.3416  143.6068 LP  0  0  0  0  0  0  0  0  0  0  0  0  # atno 17320 bound_to 7965
  146.3466  139.9523  142.8727 LP  0  0  0  0  0  0  0  0  0  0  0  0  # atno 17321 bound_to 7965
  139.6761  143.9935  152.2782 LP  0  0  0  0  0  0  0  0  0  0  0  0  # atno 17342 bound_to 10162
  139.9550  144.6595  150.8135 LP  0  0  0  0  0  0  0  0  0  0  0  0  # atno 17343 bound_to 10162
  156.5860  130.4317  149.5957 LP  0  0  0  0  0  0  0  0  0  0  0  0  # atno 17370 bound_to 10713
  156.2622  130.6969  151.1741 LP  0  0  0  0  0  0  0  0  0  0  0  0  # atno 17371 bound_to 10713
  140.6507  134.5070  157.5577 LP  0  0  0  0  0  0  0  0  0  0  0  0  # atno 17394 bound_to 11000
  139.9170  134.8226  156.1334 LP  0  0  0  0  0  0  0  0  0  0  0  0  # atno 17395 bound_to 11000

$$$$
