AV-unprocessed.smi:52|AV-procd|sdf|512|dock9
  -GOLD-   2262016383D 1   1.00000     0.00000
 Structure written by MMmdl.
 26 27  0  0  0  0  0  0  0  0  2 V2000
  152.0407  137.5302  154.8765 O   0  0  0  0  0  0  0  0  0  0  0  0
  152.4609  138.6343  155.2887 C   0  0  0  0  0  0  0  0  0  0  0  0
  153.0969  139.4160  154.5477 O   0  5  0  0  0  0  0  0  0  0  0  0
  152.1960  139.0261  156.6977 C   0  0  0  0  0  0  0  0  0  0  0  0
  151.5338  138.2855  157.6443 C   0  0  0  0  0  0  0  0  0  0  0  0
  151.4916  138.9884  158.8178 O   0  0  0  0  0  0  0  0  0  0  0  0
  152.1409  140.1503  158.5354 C   0  0  0  0  0  0  0  0  0  0  0  0
  152.2738  141.1826  159.6061 C   0  0  0  0  0  0  0  0  0  0  0  0
  152.4789  142.5280  159.0802 N   0  0  0  0  0  0  0  0  0  0  0  0
  151.5238  142.9123  158.0534 C   0  0  0  0  0  0  0  0  0  0  0  0
  151.5451  144.4461  157.9888 C   0  0  0  0  0  0  0  0  0  0  0  0
  152.2418  144.8651  159.2939 C   0  0  1  0  0  0  0  0  0  0  0  0
  151.5309  145.8594  160.0005 O   0  0  0  0  0  0  0  0  0  0  0  0
  152.3390  143.5602  160.0856 C   0  0  0  0  0  0  0  0  0  0  0  0
  152.5847  140.2252  157.2826 N   0  0  0  0  0  0  0  0  0  0  0  0
  153.2444  145.2329  159.0706 H   0  0  0  0  0  0  0  0  0  0  0  0
  151.0662  137.3120  157.6402 H   0  0  0  0  0  0  0  0  0  0  0  0
  151.3859  141.1510  160.2393 H   0  0  0  0  0  0  0  0  0  0  0  0
  153.1189  140.9044  160.2369 H   0  0  0  0  0  0  0  0  0  0  0  0
  151.7644  142.4552  157.0930 H   0  0  0  0  0  0  0  0  0  0  0  0
  150.5221  142.5819  158.3339 H   0  0  0  0  0  0  0  0  0  0  0  0
  152.1097  144.7974  157.1243 H   0  0  0  0  0  0  0  0  0  0  0  0
  150.5314  144.8405  157.9078 H   0  0  0  0  0  0  0  0  0  0  0  0
  151.3197  146.5598  159.4022 H   0  0  0  0  0  0  0  0  0  0  0  0
  151.4219  143.3997  160.6557 H   0  0  0  0  0  0  0  0  0  0  0  0
  153.1747  143.5584  160.7863 H   0  0  0  0  0  0  0  0  0  0  0  0
  1  2  2  0  0  0  0
  2  3  1  0  0  0  0
  2  4  1  0  0  0  0
  4 15  1  0  0  0  0
  4  5  2  0  0  0  0
  5  6  1  0  0  0  0
  5 17  1  0  0  0  0
  6  7  1  0  0  0  0
  7  8  1  0  0  0  0
  7 15  2  0  0  0  0
  8  9  1  0  0  0  0
  8 18  1  0  0  0  0
  8 19  1  0  0  0  0
  9 14  1  0  0  0  0
  9 10  1  0  0  0  0
 10 11  1  0  0  0  0
 10 20  1  0  0  0  0
 10 21  1  0  0  0  0
 11 12  1  0  0  0  0
 11 22  1  0  0  0  0
 11 23  1  0  0  0  0
 12 16  1  0  0  0  0
 12 13  1  0  0  0  0
 12 14  1  0  0  0  0
 13 24  1  0  0  0  0
 14 25  1  0  0  0  0
 14 26  1  0  0  0  0
M  CHG  1   3  -1
M  END
> <s_m_source_file>
AV-unprocessed.smi

> <i_m_source_file_index>
52

> <i_lp_mmshare_version>
43012

> <i_f3d_flags>
0

> <s_epik_input>
Tz1DKFtPSF0pYzFbY0hdb2MobjEpW0NIMl1OMltDSDJdW0NIMl1bQ0BIXShbT0hdKVtDSDJdMg==

> <s_epik_cmdline>
J2VwaWtfcHl0aG9uJywgJy1waCcsICc3LjAnLCAnLXRuJywgJzgnLCAnLW1hJywgJzIwMCcsICctbWV0YWxfYmluZGluZycsICctaW1hZScsICc8aW5maWxlLm1hZT4nLCAnLW9tYWUnLCAnPG91dGZpbGUubWFlPic=

> <r_epik_Ionization_Penalty>
1.6537

> <r_epik_Ionization_Penalty_Charging>
0.000221913

> <r_epik_Ionization_Penalty_Neutral>
1.65348

> <r_epik_State_Penalty>
1.75577

> <r_epik_Charging_Adjusted_Penalty>
1.75599

> <i_epik_Tot_Q>
-1

> <i_epik_Tot_abs_Q>
1

> <r_epik_Metal_State_Penalty>
1.75577

> <b_epik_Metal_Only>
0

> <s_lp_Force_Field>
OPLS_2005

> <r_lp_Energy>
35.559

> <b_lp_Chiralities_Consistent>
1

> <s_lp_Variant>
AV-unprocessed.smi:52-6

> <Gold.Version>
5.8.1

> <Gold.Id.Protein>
6NUR|6NUR_protein|mol2

> <Gold.PLP.Fitness>
41.5127

> <Gold.PLP.PLP>
-31.2920

> <Gold.PLP.part.hbond>
-5.3968

> <Gold.PLP.part.metal>
0.0000

> <Gold.PLP.part.buried>
-4.9136

> <Gold.PLP.part.nonpolar>
-21.9308

> <Gold.PLP.part.repulsive>
0.0852

> <Gold.PLP.ligand.clash>
0.0000

> <Gold.PLP.ligand.torsion>
0.3870

> <Gold.PLP.Chemscore.Hbond>
3.6642

> <Gold.PLP.Chemscore.CHOScore>
0.0000

> <Gold.PLP.Chemscore.Metal>
0.0000

> <Gold.Chemscore.Hbonds>
donor molecule, donor type, donor heavy atom, donor atom, acceptor molecule, acceptor atom, score
      P1  H  7989  7998       L1     3  0.14
      P1  H  7997  8008       L1     3  1.59
      P1  H  7997  8010       L1    15  0.07
      P1  H 10752 10763       L1     1  1.07

> <Gold.PLP.Chemscore.Internal.Correction>
0.0021

> <Gold.Rescore>
     Score         DG    S(hbond)    S(metal)    S(lipo)     H(rot)  DE(clash)    DE(int)     intcor
     13.73     -14.13       1.77        0.00      66.22       1.95       0.02       0.38       ----

> <Gold.Chemscore.Fitness>
13.7319

> <Gold.Chemscore.DG>
-14.1331

> <Gold.Chemscore.ZeroCoef>
-5.4800

> <Gold.Chemscore.Hbond>
1.7653

> <Gold.Chemscore.Metal>
0.0000

> <Gold.Chemscore.Lipo>
66.2240

> <Gold.Chemscore.Internal_Hbond>
0.0000

> <Gold.Chemscore.DEClash>
0.0234

> <Gold.Chemscore.DEInternal>
0.3779

> <Gold.Chemscore.Rot>
1.9497

> <Gold.Chemscore.Internal.Correction>
   9.000000E+99

> <Gold.Chemscore.Hbonds>
donor molecule, donor type, donor heavy atom, donor atom, acceptor molecule, acceptor atom, score
      P1  H  7989  7998       L1     3  0.11
      P1  H  7997  8008       L1     3  0.60
      P1  H  7997  8010       L1    15  0.02
      P1  H 10752 10763       L1     1  0.55

> <Gold.Chemscore.Hbond.Weighted>
-5.8961

> <Gold.Chemscore.Metal.Weighted>
-0.0000

> <Gold.Chemscore.Lipo.Weighted>
-7.7482

> <Gold.Chemscore.Internal_Hbond.Weighted>
0.0000

> <Gold.Chemscore.DEClash.Weighted>
0.0234

> <Gold.Chemscore.DEInternal.Weighted>
0.3779

> <Gold.Chemscore.Rot.Weighted>
4.9912

> <Gold.Chemscore.Internal.Correction.Weighted>
   9.000000E+99

> <Gold.Protein.RotatedTorsions>
[ 6907 6896 6895 6894 ] final  146.93 input  -60.11 | X-H torsion
[ 7974 7965 7964 7962 ] final -177.52 input  175.53 | X-H torsion
[ 8008 7997 7996 7995 ] final   11.10 input   59.86 | X-H torsion
[ 10167 10162 10161 10158 ] final   21.78 input  -65.29 | X-H torsion
[ 10718 10713 10712 10709 ] final  176.69 input   66.30 | X-H torsion
[ 10763 10752 10751 10750 ] final   62.54 input  -60.55 | X-H torsion
[ 11005 11000 10999 10996 ] final -127.03 input  -57.11 | X-H torsion

> <Gold.Protein.ActiveResidues>
 VAL166  LYS551  ARG553  GLY616  TRP617  ASP618  TYR619  PRO620  LYS621  CYS622 
 ASP623  PHE694  ASN695  SER759  ASP760  ASP761  ALA762  ILE779  LEU786  VAL792 
 PHE793  MET794  SER795  GLU796  ALA797  LYS798  CYS799  TRP800  GLU811  SER814 

> <Gold.Protein.RotatedAtoms>
  152.1615  133.4584  159.4862 H   0  0  0  0  0  0  0  0  0  0  0  0  # atno 6907 bound_to 6896
  150.6907  134.2066  159.4352 H   0  0  0  0  0  0  0  0  0  0  0  0  # atno 6908 bound_to 6896
  151.9968  134.9949  160.0614 H   0  0  0  0  0  0  0  0  0  0  0  0  # atno 6909 bound_to 6896
  144.7128  140.1007  143.6416 H   0  0  0  0  0  0  0  0  0  0  0  0  # atno 7974 bound_to 7965
  154.8023  140.2854  155.5912 H   0  0  0  0  0  0  0  0  0  0  0  0  # atno 8008 bound_to 7997
  156.2978  140.2584  156.2824 H   0  0  0  0  0  0  0  0  0  0  0  0  # atno 8009 bound_to 7997
  154.9543  140.0379  157.2149 H   0  0  0  0  0  0  0  0  0  0  0  0  # atno 8010 bound_to 7997
  140.5400  143.9693  150.6514 H   0  0  0  0  0  0  0  0  0  0  0  0  # atno 10167 bound_to 10162
  156.9164  130.9926  151.3012 H   0  0  0  0  0  0  0  0  0  0  0  0  # atno 10718 bound_to 10713
  152.9986  135.5461  154.6209 H   0  0  0  0  0  0  0  0  0  0  0  0  # atno 10763 bound_to 10752
  154.5509  135.2826  155.1012 H   0  0  0  0  0  0  0  0  0  0  0  0  # atno 10764 bound_to 10752
  154.2252  135.6443  153.5210 H   0  0  0  0  0  0  0  0  0  0  0  0  # atno 10765 bound_to 10752
  140.9633  134.0906  157.3946 H   0  0  0  0  0  0  0  0  0  0  0  0  # atno 11005 bound_to 11000
  145.9540  139.2754  143.1195 LP  0  0  0  0  0  0  0  0  0  0  0  0  # atno 17320 bound_to 7965
  145.9292  140.9061  143.0365 LP  0  0  0  0  0  0  0  0  0  0  0  0  # atno 17321 bound_to 7965
  140.3091  143.3210  152.0896 LP  0  0  0  0  0  0  0  0  0  0  0  0  # atno 17342 bound_to 10162
  139.4985  144.6648  151.6382 LP  0  0  0  0  0  0  0  0  0  0  0  0  # atno 17343 bound_to 10162
  157.5935  130.8461  149.8695 LP  0  0  0  0  0  0  0  0  0  0  0  0  # atno 17370 bound_to 10713
  156.0512  130.3717  150.1198 LP  0  0  0  0  0  0  0  0  0  0  0  0  # atno 17371 bound_to 10713
  139.8886  135.0098  156.6628 LP  0  0  0  0  0  0  0  0  0  0  0  0  # atno 17394 bound_to 11000
  140.7435  133.8957  155.8295 LP  0  0  0  0  0  0  0  0  0  0  0  0  # atno 17395 bound_to 11000

$$$$
