AV-unprocessed.smi:1199|AV-procd|sdf|5014|dock8
  -GOLD-   22720 4 33D 1   1.00000     0.00000
 Structure written by MMmdl.
 40 41  0  0  0  0  0  0  0  0  2 V2000
  152.4452  138.5656  159.5710 C   0  0  0  0  0  0  0  0  0  0  0  0
  151.5585  138.5189  158.3158 C   0  0  2  0  0  0  0  0  0  0  0  0
  151.5838  139.8655  157.5598 C   0  0  0  0  0  0  0  0  0  0  0  0
  150.5648  140.0299  156.5208 N   0  0  0  0  0  0  0  0  0  0  0  0
  150.2877  141.4322  156.2153 C   0  0  0  0  0  0  0  0  0  0  0  0
  149.2514  141.5886  155.0896 C   0  0  0  0  0  0  0  0  0  0  0  0
  149.6895  140.8884  153.9302 O   0  0  0  0  0  0  0  0  0  0  0  0
  149.9139  139.5050  154.1795 C   0  0  0  0  0  0  0  0  0  0  0  0
  150.9634  139.3493  155.2931 C   0  0  0  0  0  0  0  0  0  0  0  0
  150.1873  138.2070  158.7048 N   0  0  0  0  0  0  0  0  0  0  0  0
  149.6187  136.9901  158.7078 C   0  0  0  0  0  0  0  0  0  0  0  0
  150.2353  135.9615  158.4306 O   0  0  0  0  0  0  0  0  0  0  0  0
  148.1213  136.9059  159.0519 C   0  0  0  0  0  0  0  0  0  0  0  0
  147.8302  136.2309  160.3278 N   0  0  0  0  0  0  0  0  0  0  0  0
  147.9631  137.0927  161.4990 N   0  5  0  0  0  0  0  0  0  0  0  0
  147.6525  136.5957  162.7257 C   0  0  0  0  0  0  0  0  0  0  0  0
  147.7176  137.2673  163.7526 O   0  0  0  0  0  0  0  0  0  0  0  0
  147.2282  135.2084  162.8145 C   0  0  0  0  0  0  0  0  0  0  0  0
  147.1338  134.4300  161.7187 C   0  0  0  0  0  0  0  0  0  0  0  0
  147.4401  134.9252  160.3825 C   0  0  0  0  0  0  0  0  0  0  0  0
  147.3382  134.2245  159.3758 O   0  0  0  0  0  0  0  0  0  0  0  0
  153.4817  138.7820  159.3115 H   0  0  0  0  0  0  0  0  0  0  0  0
  152.4354  137.6116  160.0990 H   0  0  0  0  0  0  0  0  0  0  0  0
  152.1079  139.3348  160.2666 H   0  0  0  0  0  0  0  0  0  0  0  0
  151.9436  137.7372  157.6582 H   0  0  0  0  0  0  0  0  0  0  0  0
  151.5411  140.6959  158.2669 H   0  0  0  0  0  0  0  0  0  0  0  0
  152.5587  139.9493  157.0777 H   0  0  0  0  0  0  0  0  0  0  0  0
  149.9078  141.9419  157.0996 H   0  0  0  0  0  0  0  0  0  0  0  0
  151.2110  141.9391  155.9305 H   0  0  0  0  0  0  0  0  0  0  0  0
  148.2789  141.2089  155.4060 H   0  0  0  0  0  0  0  0  0  0  0  0
  149.1189  142.6423  154.8427 H   0  0  0  0  0  0  0  0  0  0  0  0
  148.9777  139.0204  154.4596 H   0  0  0  0  0  0  0  0  0  0  0  0
  150.2601  139.0290  153.2622 H   0  0  0  0  0  0  0  0  0  0  0  0
  151.9182  139.7455  154.9436 H   0  0  0  0  0  0  0  0  0  0  0  0
  151.1206  138.2886  155.4919 H   0  0  0  0  0  0  0  0  0  0  0  0
  149.5990  138.9879  158.9608 H   0  0  0  0  0  0  0  0  0  0  0  0
  147.7024  137.9136  159.0583 H   0  0  0  0  0  0  0  0  0  0  0  0
  147.6183  136.3895  158.2326 H   0  0  0  0  0  0  0  0  0  0  0  0
  146.9859  134.7918  163.7809 H   0  0  0  0  0  0  0  0  0  0  0  0
  146.8153  133.4044  161.8318 H   0  0  0  0  0  0  0  0  0  0  0  0
  1  2  1  0  0  0  0
  1 22  1  0  0  0  0
  1 23  1  0  0  0  0
  1 24  1  0  0  0  0
  2  3  1  0  0  0  0
  2 10  1  0  0  0  0
  2 25  1  0  0  0  0
  3  4  1  0  0  0  0
  3 26  1  0  0  0  0
  3 27  1  0  0  0  0
  4  9  1  0  0  0  0
  4  5  1  0  0  0  0
  5  6  1  0  0  0  0
  5 28  1  0  0  0  0
  5 29  1  0  0  0  0
  6  7  1  0  0  0  0
  6 30  1  0  0  0  0
  6 31  1  0  0  0  0
  7  8  1  0  0  0  0
  8  9  1  0  0  0  0
  8 32  1  0  0  0  0
  8 33  1  0  0  0  0
  9 34  1  0  0  0  0
  9 35  1  0  0  0  0
 10 11  1  0  0  0  0
 10 36  1  0  0  0  0
 11 12  2  0  0  0  0
 11 13  1  0  0  0  0
 13 37  1  0  0  0  0
 13 38  1  0  0  0  0
 13 14  1  0  0  0  0
 14 15  1  0  0  0  0
 14 20  1  0  0  0  0
 15 16  1  0  0  0  0
 16 17  2  0  0  0  0
 16 18  1  0  0  0  0
 18 39  1  0  0  0  0
 18 19  2  0  0  0  0
 19 40  1  0  0  0  0
 19 20  1  0  0  0  0
 20 21  2  0  0  0  0
M  CHG  1  15  -1
M  END
> <s_m_source_file>
AV-unprocessed.smi

> <i_m_source_file_index>
1199

> <i_lp_mmshare_version>
43012

> <i_f3d_flags>
0

> <s_epik_input>
W0NIMl0xW0NIMl1PW0NIMl1bQ0gyXU4xW0NIMl1bQ0BASF0oW0NIM10pW05IXUMoPU8pW0NIMl1uMltuSF1jKD1PKVtjSF1bY0hdYzI9Tw==

> <s_epik_cmdline>
J2VwaWtfcHl0aG9uJywgJy1waCcsICc3LjAnLCAnLXRuJywgJzgnLCAnLW1hJywgJzIwMCcsICctbWV0YWxfYmluZGluZycsICctaW1hZScsICc8aW5maWxlLm1hZT4nLCAnLW9tYWUnLCAnPG91dGZpbGUubWFlPic=

> <r_lp_tautomer_probability>
1

> <r_epik_Ionization_Penalty>
0.334996

> <r_epik_Ionization_Penalty_Charging>
0.0976136

> <r_epik_Ionization_Penalty_Neutral>
0.237382

> <r_epik_State_Penalty>
0.26804

> <r_epik_Charging_Adjusted_Penalty>
0.365653

> <i_epik_Tot_Q>
-1

> <i_epik_Tot_abs_Q>
1

> <r_epik_Metal_State_Penalty>
0.26804

> <b_epik_Metal_Only>
0

> <s_lp_Force_Field>
OPLS_2005

> <r_lp_Energy>
38.5668

> <b_lp_Chiralities_Consistent>
1

> <s_lp_Variant>
AV-unprocessed.smi:1199-1

> <Gold.Version>
5.8.1

> <Gold.Id.Protein>
6NUR|6NUR_protein|mol2

> <Gold.PLP.Fitness>
47.2619

> <Gold.PLP.PLP>
-35.9630

> <Gold.PLP.part.hbond>
-5.4894

> <Gold.PLP.part.metal>
0.0000

> <Gold.PLP.part.buried>
-1.3771

> <Gold.PLP.part.nonpolar>
-31.1908

> <Gold.PLP.part.repulsive>
2.4111

> <Gold.PLP.ligand.clash>
0.0000

> <Gold.PLP.ligand.torsion>
0.9912

> <Gold.PLP.Chemscore.Hbond>
4.4240

> <Gold.PLP.Chemscore.CHOScore>
0.0000

> <Gold.PLP.Chemscore.Metal>
0.0000

> <Gold.Chemscore.Hbonds>
donor molecule, donor type, donor heavy atom, donor atom, acceptor molecule, acceptor atom, score
      P1  H  6896  6909       L1    12  0.58
      P1  H  6931  6943       L1    15  2.00
      P1  H  6934  6947       L1    15  0.96
      P1  H  7989  7998       L1     7  0.09
      P1  H  8011  8017       L1     7  0.51

> <Gold.PLP.Chemscore.Internal.Correction>
0.0093

> <Gold.Rescore>
     Score         DG    S(hbond)    S(metal)    S(lipo)     H(rot)  DE(clash)    DE(int)     intcor
     10.79     -13.07       1.84        0.00      62.58       2.30       1.09       1.19       ----

> <Gold.Chemscore.Fitness>
10.7908

> <Gold.Chemscore.DG>
-13.0733

> <Gold.Chemscore.ZeroCoef>
-5.4800

> <Gold.Chemscore.Hbond>
1.8409

> <Gold.Chemscore.Metal>
0.0000

> <Gold.Chemscore.Lipo>
62.5762

> <Gold.Chemscore.Internal_Hbond>
0.0000

> <Gold.Chemscore.DEClash>
1.0925

> <Gold.Chemscore.DEInternal>
1.1901

> <Gold.Chemscore.Rot>
2.2955

> <Gold.Chemscore.Internal.Correction>
   9.000000E+99

> <Gold.Chemscore.Hbonds>
donor molecule, donor type, donor heavy atom, donor atom, acceptor molecule, acceptor atom, score
      P1  H  6896  6909       L1    12  0.58
      P1  H  6931  6943       L1    15  0.25
      P1  H  6934  6947       L1    15  0.28
      P1  H  8011  8017       L1     7  0.25

> <Gold.Chemscore.Hbond.Weighted>
-6.1485

> <Gold.Chemscore.Metal.Weighted>
-0.0000

> <Gold.Chemscore.Lipo.Weighted>
-7.3214

> <Gold.Chemscore.Internal_Hbond.Weighted>
0.0000

> <Gold.Chemscore.DEClash.Weighted>
1.0925

> <Gold.Chemscore.DEInternal.Weighted>
1.1901

> <Gold.Chemscore.Rot.Weighted>
5.8766

> <Gold.Chemscore.Internal.Correction.Weighted>
   9.000000E+99

> <Gold.Protein.RotatedTorsions>
[ 6907 6896 6895 6894 ] final   34.58 input  -60.11 | X-H torsion
[ 7974 7965 7964 7962 ] final -176.98 input  175.53 | X-H torsion
[ 8008 7997 7996 7995 ] final  167.31 input   59.86 | X-H torsion
[ 10167 10162 10161 10158 ] final -140.43 input  -65.29 | X-H torsion
[ 10718 10713 10712 10709 ] final  177.45 input   66.30 | X-H torsion
[ 10763 10752 10751 10750 ] final  106.82 input  -60.55 | X-H torsion
[ 11005 11000 10999 10996 ] final   94.22 input  -57.11 | X-H torsion

> <Gold.Protein.ActiveResidues>
 VAL166  LYS551  ARG553  GLY616  TRP617  ASP618  TYR619  PRO620  LYS621  CYS622 
 ASP623  PHE694  ASN695  SER759  ASP760  ASP761  ALA762  ILE779  LEU786  VAL792 
 PHE793  MET794  SER795  GLU796  ALA797  LYS798  CYS799  TRP800  GLU811  SER814 

> <Gold.Protein.RotatedAtoms>
  152.1043  134.9320  160.0568 H   0  0  0  0  0  0  0  0  0  0  0  0  # atno 6907 bound_to 6896
  152.0522  133.4019  159.4390 H   0  0  0  0  0  0  0  0  0  0  0  0  # atno 6908 bound_to 6896
  150.6840  134.3216  159.4832 H   0  0  0  0  0  0  0  0  0  0  0  0  # atno 6909 bound_to 6896
  144.7127  140.1088  143.6412 H   0  0  0  0  0  0  0  0  0  0  0  0  # atno 7974 bound_to 7965
  156.1645  140.1620  156.8556 H   0  0  0  0  0  0  0  0  0  0  0  0  # atno 8008 bound_to 7997
  154.5193  140.0782  156.8177 H   0  0  0  0  0  0  0  0  0  0  0  0  # atno 8009 bound_to 7997
  155.3640  140.3397  155.4244 H   0  0  0  0  0  0  0  0  0  0  0  0  # atno 8010 bound_to 7997
  139.8282  143.7482  152.2666 H   0  0  0  0  0  0  0  0  0  0  0  0  # atno 10167 bound_to 10162
  156.9052  130.9892  151.3029 H   0  0  0  0  0  0  0  0  0  0  0  0  # atno 10718 bound_to 10713
  153.3982  135.3864  155.1970 H   0  0  0  0  0  0  0  0  0  0  0  0  # atno 10763 bound_to 10752
  154.8726  135.3765  154.4651 H   0  0  0  0  0  0  0  0  0  0  0  0  # atno 10764 bound_to 10752
  153.5146  135.7087  153.5825 H   0  0  0  0  0  0  0  0  0  0  0  0  # atno 10765 bound_to 10752
  139.8801  134.8833  156.3833 H   0  0  0  0  0  0  0  0  0  0  0  0  # atno 11005 bound_to 11000
  145.9473  139.2709  143.1233 LP  0  0  0  0  0  0  0  0  0  0  0  0  # atno 17320 bound_to 7965
  145.9361  140.9014  143.0331 LP  0  0  0  0  0  0  0  0  0  0  0  0  # atno 17321 bound_to 7965
  139.7681  144.7485  151.0264 LP  0  0  0  0  0  0  0  0  0  0  0  0  # atno 17342 bound_to 10162
  140.7808  143.4675  151.0192 LP  0  0  0  0  0  0  0  0  0  0  0  0  # atno 17343 bound_to 10162
  157.6002  130.8506  149.8790 LP  0  0  0  0  0  0  0  0  0  0  0  0  # atno 17370 bound_to 10713
  156.0562  130.3708  150.1085 LP  0  0  0  0  0  0  0  0  0  0  0  0  # atno 17371 bound_to 10713
  140.9384  133.7531  156.0114 LP  0  0  0  0  0  0  0  0  0  0  0  0  # atno 17394 bound_to 11000
  140.8249  134.3246  157.5369 LP  0  0  0  0  0  0  0  0  0  0  0  0  # atno 17395 bound_to 11000

$$$$
