AV-unprocessed.smi:1268|AV-procd|sdf|5323|dock8
  -GOLD-   22720 4453D 1   1.00000     0.00000
 Structure written by MMmdl.
 40 41  0  0  0  0  0  0  0  0  2 V2000
  142.9715  136.0377  153.5299 O   0  0  0  0  0  0  0  0  0  0  0  0
  143.1200  137.1916  153.1271 C   0  0  0  0  0  0  0  0  0  0  0  0
  144.3033  137.6910  152.7427 N   0  0  0  0  0  0  0  0  0  0  0  0
  145.5693  136.9658  152.7722 C   0  0  0  0  0  0  0  0  0  0  0  0
  146.0496  136.5726  151.3589 C   0  0  2  0  0  0  0  0  0  0  0  0
  146.3683  137.7544  150.6503 O   0  0  0  0  0  0  0  0  0  0  0  0
  144.9381  135.8567  150.5632 C   0  0  0  0  0  0  0  0  0  0  0  0
  145.2063  134.4070  150.3753 N   0  3  0  0  0  0  0  0  0  0  0  0
  143.9829  133.6557  149.9899 C   0  0  0  0  0  0  0  0  0  0  0  0
  144.3072  132.1879  149.6649 C   0  0  0  0  0  0  0  0  0  0  0  0
  145.0141  131.5073  150.8437 C   0  0  0  0  0  0  0  0  0  0  0  0
  146.2574  132.3131  151.2405 C   0  0  0  0  0  0  0  0  0  0  0  0
  145.8935  133.7782  151.5355 C   0  0  0  0  0  0  0  0  0  0  0  0
  142.1431  138.1082  153.0132 N   0  0  0  0  0  0  0  0  0  0  0  0
  140.7658  137.9656  153.3273 C   0  0  0  0  0  0  0  0  0  0  0  0
  139.8669  138.9535  153.2454 N   0  0  0  0  0  0  0  0  0  0  0  0
  138.5870  138.5292  153.6113 C   0  0  0  0  0  0  0  0  0  0  0  0
  138.5299  137.2068  153.9746 C   0  0  0  0  0  0  0  0  0  0  0  0
  140.0905  136.4367  153.8701 S   0  0  0  0  0  0  0  0  0  0  0  0
  144.3346  138.6493  152.4263 H   0  0  0  0  0  0  0  0  0  0  0  0
  146.2889  137.6494  153.2236 H   0  0  0  0  0  0  0  0  0  0  0  0
  145.5190  136.1021  153.4384 H   0  0  0  0  0  0  0  0  0  0  0  0
  146.9355  135.9422  151.4343 H   0  0  0  0  0  0  0  0  0  0  0  0
  145.5618  138.1805  150.3979 H   0  0  0  0  0  0  0  0  0  0  0  0
  143.9720  135.9794  151.0553 H   0  0  0  0  0  0  0  0  0  0  0  0
  144.8446  136.3432  149.5907 H   0  0  0  0  0  0  0  0  0  0  0  0
  143.2516  133.7104  150.7979 H   0  0  0  0  0  0  0  0  0  0  0  0
  143.5255  134.1199  149.1152 H   0  0  0  0  0  0  0  0  0  0  0  0
  143.3918  131.6493  149.4185 H   0  0  0  0  0  0  0  0  0  0  0  0
  144.9421  132.1401  148.7790 H   0  0  0  0  0  0  0  0  0  0  0  0
  144.3329  131.4368  151.6928 H   0  0  0  0  0  0  0  0  0  0  0  0
  145.2926  130.4868  150.5798 H   0  0  0  0  0  0  0  0  0  0  0  0
  146.7293  131.8625  152.1140 H   0  0  0  0  0  0  0  0  0  0  0  0
  146.9931  132.2728  150.4359 H   0  0  0  0  0  0  0  0  0  0  0  0
  146.8045  134.3228  151.7800 H   0  0  0  0  0  0  0  0  0  0  0  0
  145.2491  133.8326  152.4145 H   0  0  0  0  0  0  0  0  0  0  0  0
  142.4168  139.0180  152.6728 H   0  0  0  0  0  0  0  0  0  0  0  0
  137.7716  139.2370  153.5839 H   0  0  0  0  0  0  0  0  0  0  0  0
  137.6677  136.6414  154.2954 H   0  0  0  0  0  0  0  0  0  0  0  0
  145.8349  134.3412  149.5869 H   0  0  0  0  0  0  0  0  0  0  0  0
  1  2  2  0  0  0  0
  2  3  1  0  0  0  0
  2 14  1  0  0  0  0
  3  4  1  0  0  0  0
  3 20  1  0  0  0  0
  4  5  1  0  0  0  0
  4 21  1  0  0  0  0
  4 22  1  0  0  0  0
  5  6  1  0  0  0  0
  5  7  1  0  0  0  0
  5 23  1  0  0  0  0
  6 24  1  0  0  0  0
  7  8  1  0  0  0  0
  7 25  1  0  0  0  0
  7 26  1  0  0  0  0
  8 13  1  0  0  0  0
  8  9  1  0  0  0  0
  8 40  1  0  0  0  0
  9 10  1  0  0  0  0
  9 27  1  0  0  0  0
  9 28  1  0  0  0  0
 10 11  1  0  0  0  0
 10 29  1  0  0  0  0
 10 30  1  0  0  0  0
 11 12  1  0  0  0  0
 11 31  1  0  0  0  0
 11 32  1  0  0  0  0
 12 13  1  0  0  0  0
 12 33  1  0  0  0  0
 12 34  1  0  0  0  0
 13 35  1  0  0  0  0
 13 36  1  0  0  0  0
 14 15  1  0  0  0  0
 14 37  1  0  0  0  0
 15 19  1  0  0  0  0
 15 16  2  0  0  0  0
 16 17  1  0  0  0  0
 17 18  2  0  0  0  0
 17 38  1  0  0  0  0
 18 19  1  0  0  0  0
 18 39  1  0  0  0  0
M  CHG  1   8   1
M  END
> <s_m_source_file>
AV-unprocessed.smi

> <i_m_source_file_index>
1268

> <i_lp_mmshare_version>
43012

> <i_f3d_flags>
0

> <s_epik_input>
czFbY0hdW2NIXW5jMVtOSF1DKD1PKVtOSF1bQ0gyXVtDQEhdKFtPSF0pW0NIMl1OMltDSDJdW0NIMl1bQ0gyXVtDSDJdW0NIMl0y

> <s_epik_cmdline>
J2VwaWtfcHl0aG9uJywgJy1waCcsICc3LjAnLCAnLXRuJywgJzgnLCAnLW1hJywgJzIwMCcsICctbWV0YWxfYmluZGluZycsICctaW1hZScsICc8aW5maWxlLm1hZT4nLCAnLW9tYWUnLCAnPG91dGZpbGUubWFlPic=

> <r_lp_tautomer_probability>
0.999

> <r_epik_Ionization_Penalty>
0.00539631

> <r_epik_Ionization_Penalty_Charging>
0.00525788

> <r_epik_Ionization_Penalty_Neutral>
0.000138432

> <r_epik_State_Penalty>
0.0038355

> <r_epik_Charging_Adjusted_Penalty>
0.00909338

> <i_epik_Tot_Q>
1

> <i_epik_Tot_abs_Q>
1

> <r_epik_Metal_State_Penalty>
0.0500806

> <b_epik_Metal_Only>
0

> <s_lp_Force_Field>
OPLS_2005

> <r_lp_Energy>
16.7111

> <b_lp_Chiralities_Consistent>
1

> <s_lp_Variant>
AV-unprocessed.smi:1268-1

> <Gold.Version>
5.8.1

> <Gold.Id.Protein>
6NUR|6NUR_protein|mol2

> <Gold.PLP.Fitness>
50.4950

> <Gold.PLP.PLP>
-37.6836

> <Gold.PLP.part.hbond>
-6.3409

> <Gold.PLP.part.metal>
0.0000

> <Gold.PLP.part.buried>
-3.5053

> <Gold.PLP.part.nonpolar>
-30.6557

> <Gold.PLP.part.repulsive>
1.9913

> <Gold.PLP.ligand.clash>
0.0000

> <Gold.PLP.ligand.torsion>
0.9974

> <Gold.PLP.Chemscore.Hbond>
4.9280

> <Gold.PLP.Chemscore.CHOScore>
0.0000

> <Gold.PLP.Chemscore.Metal>
0.0000

> <Gold.Chemscore.Hbonds>
donor molecule, donor type, donor heavy atom, donor atom, acceptor molecule, acceptor atom, score
      L1  H     3    20       P1 10175  1.00
      L1  H     6    24       P1 10171  1.00
      L1  H     8    40       P1  7921  0.93
      L1  H    14    37       P1 10175  1.00
      P1  H  7954  7966       L1     6  0.99

> <Gold.PLP.Chemscore.Internal.Correction>
0.0222

> <Gold.Rescore>
     Score         DG    S(hbond)    S(metal)    S(lipo)     H(rot)  DE(clash)    DE(int)     intcor
     20.99     -24.39       4.58        0.00      86.34       2.54       1.09       2.31       ----

> <Gold.Chemscore.Fitness>
20.9890

> <Gold.Chemscore.DG>
-24.3874

> <Gold.Chemscore.ZeroCoef>
-5.4800

> <Gold.Chemscore.Hbond>
4.5820

> <Gold.Chemscore.Metal>
0.0000

> <Gold.Chemscore.Lipo>
86.3386

> <Gold.Chemscore.Internal_Hbond>
0.0000

> <Gold.Chemscore.DEClash>
1.0908

> <Gold.Chemscore.DEInternal>
2.3076

> <Gold.Chemscore.Rot>
2.5383

> <Gold.Chemscore.Internal.Correction>
   9.000000E+99

> <Gold.Chemscore.Hbonds>
donor molecule, donor type, donor heavy atom, donor atom, acceptor molecule, acceptor atom, score
      L1  H     3    20       P1 10175  0.95
      L1  H     6    24       P1 10171  1.00
      L1  H     8    40       P1  7921  0.51
      L1  H    14    37       P1 10175  0.96
      P1  H  7954  7966       L1     6  0.88

> <Gold.Chemscore.Hbond.Weighted>
-15.3039

> <Gold.Chemscore.Metal.Weighted>
-0.0000

> <Gold.Chemscore.Lipo.Weighted>
-10.1016

> <Gold.Chemscore.Internal_Hbond.Weighted>
0.0000

> <Gold.Chemscore.DEClash.Weighted>
1.0908

> <Gold.Chemscore.DEInternal.Weighted>
2.3076

> <Gold.Chemscore.Rot.Weighted>
6.4981

> <Gold.Chemscore.Internal.Correction.Weighted>
   9.000000E+99

> <Gold.Protein.RotatedTorsions>
[ 6907 6896 6895 6894 ] final  -51.54 input  -60.11 | X-H torsion
[ 7974 7965 7964 7962 ] final   45.02 input  175.53 | X-H torsion
[ 8008 7997 7996 7995 ] final -158.40 input   59.86 | X-H torsion
[ 10167 10162 10161 10158 ] final  102.88 input  -65.29 | X-H torsion
[ 10718 10713 10712 10709 ] final   35.83 input   66.30 | X-H torsion
[ 10763 10752 10751 10750 ] final -169.69 input  -60.55 | X-H torsion
[ 11005 11000 10999 10996 ] final   49.60 input  -57.11 | X-H torsion

> <Gold.Protein.ActiveResidues>
 VAL166  LYS551  ARG553  GLY616  TRP617  ASP618  TYR619  PRO620  LYS621  CYS622 
 ASP623  PHE694  ASN695  SER759  ASP760  ASP761  ALA762  ILE779  LEU786  VAL792 
 PHE793  MET794  SER795  GLU796  ALA797  LYS798  CYS799  TRP800  GLU811  SER814 

> <Gold.Protein.RotatedAtoms>
  150.8602  134.7952  159.7076 H   0  0  0  0  0  0  0  0  0  0  0  0  # atno 6907 bound_to 6896
  152.4641  134.5112  159.9764 H   0  0  0  0  0  0  0  0  0  0  0  0  # atno 6908 bound_to 6896
  151.5218  133.3427  159.2938 H   0  0  0  0  0  0  0  0  0  0  0  0  # atno 6909 bound_to 6896
  146.0517  139.5010  142.9714 H   0  0  0  0  0  0  0  0  0  0  0  0  # atno 7974 bound_to 7965
  155.7470  140.0821  157.2219 H   0  0  0  0  0  0  0  0  0  0  0  0  # atno 8008 bound_to 7997
  154.4016  140.1567  156.2736 H   0  0  0  0  0  0  0  0  0  0  0  0  # atno 8009 bound_to 7997
  155.8967  140.3412  155.5998 H   0  0  0  0  0  0  0  0  0  0  0  0  # atno 8010 bound_to 7997
  139.7311  144.7035  151.0721 H   0  0  0  0  0  0  0  0  0  0  0  0  # atno 10167 bound_to 10162
  157.3275  130.7480  149.6825 H   0  0  0  0  0  0  0  0  0  0  0  0  # atno 10718 bound_to 10713
  154.6496  135.2909  155.0004 H   0  0  0  0  0  0  0  0  0  0  0  0  # atno 10763 bound_to 10752
  154.1101  135.6564  153.4887 H   0  0  0  0  0  0  0  0  0  0  0  0  # atno 10764 bound_to 10752
  153.0369  135.5263  154.7398 H   0  0  0  0  0  0  0  0  0  0  0  0  # atno 10765 bound_to 10752
  140.1090  134.4980  155.8695 H   0  0  0  0  0  0  0  0  0  0  0  0  # atno 11005 bound_to 11000
  145.6714  141.0215  143.1656 LP  0  0  0  0  0  0  0  0  0  0  0  0  # atno 17320 bound_to 7965
  144.7126  139.8314  143.7409 LP  0  0  0  0  0  0  0  0  0  0  0  0  # atno 17321 bound_to 7965
  140.7771  143.5042  150.9733 LP  0  0  0  0  0  0  0  0  0  0  0  0  # atno 17342 bound_to 10162
  139.8730  143.7168  152.3164 LP  0  0  0  0  0  0  0  0  0  0  0  0  # atno 17343 bound_to 10162
  155.9692  130.4205  150.4425 LP  0  0  0  0  0  0  0  0  0  0  0  0  # atno 17370 bound_to 10713
  157.2451  131.0534  151.2413 LP  0  0  0  0  0  0  0  0  0  0  0  0  # atno 17371 bound_to 10713
  141.2125  133.6721  156.6667 LP  0  0  0  0  0  0  0  0  0  0  0  0  # atno 17394 bound_to 11000
  140.3117  134.8080  157.4181 LP  0  0  0  0  0  0  0  0  0  0  0  0  # atno 17395 bound_to 11000

$$$$
