AV-unprocessed.smi:1028|AV-procd|sdf|4473|dock6
  -GOLD-   22720 2453D 1   1.00000     0.00000
 Structure written by MMmdl.
 43 44  0  0  0  0  0  0  0  0  1 V2000
  143.8180  134.7734  152.6331 C   0  0  0  0  0  0  0  0  0  0  0  0
  144.7724  134.1480  151.5967 C   0  0  0  0  0  0  0  0  0  0  0  0
  144.1615  132.8471  151.0402 C   0  0  0  0  0  0  0  0  0  0  0  0
  144.9222  135.1431  150.4261 C   0  0  0  0  0  0  0  0  0  0  0  0
  146.1127  133.8544  152.2415 C   0  0  0  0  0  0  0  0  0  0  0  0
  147.1591  133.1204  151.7307 C   0  0  0  0  0  0  0  0  0  0  0  0
  148.5179  133.0568  152.8193 S   0  0  0  0  0  0  0  0  0  0  0  0
  147.6051  134.0284  153.9632 C   0  0  0  0  0  0  0  0  0  0  0  0
  148.1527  134.4807  155.2747 C   0  0  0  0  0  0  0  0  0  0  0  0
  149.6844  134.6017  155.2574 C   0  0  0  0  0  0  0  0  0  0  0  0
  150.1147  135.8982  154.7472 N   0  0  0  0  0  0  0  0  0  0  0  0
  151.0943  136.6483  155.2749 C   0  0  0  0  0  0  0  0  0  0  0  0
  151.7419  136.3095  156.2662 O   0  0  0  0  0  0  0  0  0  0  0  0
  151.3807  137.9883  154.5776 C   0  0  0  0  0  0  0  0  0  0  0  0
  152.4949  138.7872  155.2939 C   0  0  0  0  0  0  0  0  0  0  0  0
  151.8840  140.1313  155.7085 C   0  0  0  0  0  0  0  0  0  0  0  0
  150.3772  139.8950  155.7331 C   0  0  0  0  0  0  0  0  0  0  0  0
  150.1461  138.9112  154.5876 C   0  0  0  0  0  0  0  0  0  0  0  0
  146.3941  134.3667  153.5153 N   0  0  0  0  0  0  0  0  0  0  0  0
  142.8505  135.0115  152.1900 H   0  0  0  0  0  0  0  0  0  0  0  0
  144.2284  135.6971  153.0429 H   0  0  0  0  0  0  0  0  0  0  0  0
  143.6333  134.0975  153.4688 H   0  0  0  0  0  0  0  0  0  0  0  0
  143.9879  132.1147  151.8292 H   0  0  0  0  0  0  0  0  0  0  0  0
  144.8188  132.3847  150.3030 H   0  0  0  0  0  0  0  0  0  0  0  0
  143.2024  133.0333  150.5560 H   0  0  0  0  0  0  0  0  0  0  0  0
  143.9586  135.3574  149.9625 H   0  0  0  0  0  0  0  0  0  0  0  0
  145.5750  134.7496  149.6460 H   0  0  0  0  0  0  0  0  0  0  0  0
  145.3387  136.0944  150.7595 H   0  0  0  0  0  0  0  0  0  0  0  0
  147.2204  132.6154  150.7782 H   0  0  0  0  0  0  0  0  0  0  0  0
  147.7021  135.4405  155.5304 H   0  0  0  0  0  0  0  0  0  0  0  0
  147.8361  133.7732  156.0419 H   0  0  0  0  0  0  0  0  0  0  0  0
  150.0930  134.4358  156.2557 H   0  0  0  0  0  0  0  0  0  0  0  0
  150.1097  133.8292  154.6160 H   0  0  0  0  0  0  0  0  0  0  0  0
  149.6330  136.2508  153.9329 H   0  0  0  0  0  0  0  0  0  0  0  0
  151.6705  137.7943  153.5432 H   0  0  0  0  0  0  0  0  0  0  0  0
  152.8634  138.2651  156.1789 H   0  0  0  0  0  0  0  0  0  0  0  0
  153.3563  138.9388  154.6426 H   0  0  0  0  0  0  0  0  0  0  0  0
  152.2671  140.4881  156.6649 H   0  0  0  0  0  0  0  0  0  0  0  0
  152.1202  140.8857  154.9569 H   0  0  0  0  0  0  0  0  0  0  0  0
  150.0884  139.4380  156.6805 H   0  0  0  0  0  0  0  0  0  0  0  0
  149.8052  140.8161  155.6175 H   0  0  0  0  0  0  0  0  0  0  0  0
  150.0938  139.4559  153.6439 H   0  0  0  0  0  0  0  0  0  0  0  0
  149.2014  138.3759  154.6984 H   0  0  0  0  0  0  0  0  0  0  0  0
  1  2  1  0  0  0  0
  1 20  1  0  0  0  0
  1 21  1  0  0  0  0
  1 22  1  0  0  0  0
  2  3  1  0  0  0  0
  2  4  1  0  0  0  0
  2  5  1  0  0  0  0
  3 23  1  0  0  0  0
  3 24  1  0  0  0  0
  3 25  1  0  0  0  0
  4 26  1  0  0  0  0
  4 27  1  0  0  0  0
  4 28  1  0  0  0  0
  5 19  1  0  0  0  0
  5  6  2  0  0  0  0
  6  7  1  0  0  0  0
  6 29  1  0  0  0  0
  7  8  1  0  0  0  0
  8  9  1  0  0  0  0
  8 19  2  0  0  0  0
  9 10  1  0  0  0  0
  9 30  1  0  0  0  0
  9 31  1  0  0  0  0
 10 11  1  0  0  0  0
 10 32  1  0  0  0  0
 10 33  1  0  0  0  0
 11 12  1  0  0  0  0
 11 34  1  0  0  0  0
 12 13  2  0  0  0  0
 12 14  1  0  0  0  0
 14 18  1  0  0  0  0
 14 15  1  0  0  0  0
 14 35  1  0  0  0  0
 15 16  1  0  0  0  0
 15 36  1  0  0  0  0
 15 37  1  0  0  0  0
 16 17  1  0  0  0  0
 16 38  1  0  0  0  0
 16 39  1  0  0  0  0
 17 18  1  0  0  0  0
 17 40  1  0  0  0  0
 17 41  1  0  0  0  0
 18 42  1  0  0  0  0
 18 43  1  0  0  0  0
M  END
> <s_m_source_file>
AV-unprocessed.smi

> <i_m_source_file_index>
1028

> <i_lp_mmshare_version>
43012

> <i_f3d_flags>
0

> <s_epik_input>
W0NIM11DKFtDSDNdKShbQ0gzXSljMVtjSF1zYyhuMSlbQ0gyXVtDSDJdW05IXUMoPU8pW0NIXTJbQ0gyXVtDSDJdW0NIMl1bQ0gyXTI=

> <s_epik_cmdline>
J2VwaWtfcHl0aG9uJywgJy1waCcsICc3LjAnLCAnLXRuJywgJzgnLCAnLW1hJywgJzIwMCcsICctbWV0YWxfYmluZGluZycsICctaW1hZScsICc8aW5maWxlLm1hZT4nLCAnLW9tYWUnLCAnPG91dGZpbGUubWFlPic=

> <r_epik_Ionization_Penalty>
0.000842107

> <r_epik_Ionization_Penalty_Charging>
0

> <r_epik_Ionization_Penalty_Neutral>
0.000842107

> <r_epik_State_Penalty>
0.000542609

> <r_epik_Charging_Adjusted_Penalty>
0.000542609

> <i_epik_Tot_Q>
0

> <i_epik_Tot_abs_Q>
0

> <r_epik_Metal_State_Penalty>
-0

> <b_epik_Metal_Only>
0

> <s_lp_Force_Field>
OPLS_2005

> <r_lp_Energy>
10.9616

> <b_lp_Chiralities_Consistent>
1

> <s_lp_Variant>
AV-unprocessed.smi:1028-1

> <Gold.Version>
5.8.1

> <Gold.Id.Protein>
6NUR|6NUR_protein|mol2

> <Gold.PLP.Fitness>
42.6919

> <Gold.PLP.PLP>
-36.2291

> <Gold.PLP.part.hbond>
-2.0776

> <Gold.PLP.part.metal>
0.0000

> <Gold.PLP.part.buried>
-1.7607

> <Gold.PLP.part.nonpolar>
-33.3196

> <Gold.PLP.part.repulsive>
0.1674

> <Gold.PLP.ligand.clash>
0.0000

> <Gold.PLP.ligand.torsion>
0.9803

> <Gold.PLP.Chemscore.Hbond>
2.0000

> <Gold.PLP.Chemscore.CHOScore>
0.8025

> <Gold.PLP.Chemscore.Metal>
0.0000

> <Gold.Chemscore.Hbonds>
donor molecule, donor type, donor heavy atom, donor atom, acceptor molecule, acceptor atom, score
      L1  H    11    34       P1  7948  0.70
      P1  H 10752 10765       L1    13  0.67
      L1  C     6    29       P1 10747  0.86

> <Gold.PLP.Chemscore.Internal.Correction>
0.0158

> <Gold.Rescore>
     Score         DG    S(hbond)    S(metal)    S(lipo)     H(rot)  DE(clash)    DE(int)     intcor
     16.16     -17.17       1.46        0.00      89.46       1.42       0.23       0.79       ----

> <Gold.Chemscore.Fitness>
16.1620

> <Gold.Chemscore.DG>
-17.1737

> <Gold.Chemscore.ZeroCoef>
-5.4800

> <Gold.Chemscore.Hbond>
1.4579

> <Gold.Chemscore.Metal>
0.0000

> <Gold.Chemscore.Lipo>
89.4554

> <Gold.Chemscore.Internal_Hbond>
0.0000

> <Gold.Chemscore.DEClash>
0.2261

> <Gold.Chemscore.DEInternal>
0.7855

> <Gold.Chemscore.Rot>
1.4226

> <Gold.Chemscore.Internal.Correction>
   9.000000E+99

> <Gold.Chemscore.Hbonds>
donor molecule, donor type, donor heavy atom, donor atom, acceptor molecule, acceptor atom, score
      L1  H    11    34       P1  7948  0.38
      P1  H 10752 10765       L1    13  0.08

> <Gold.Chemscore.Hbond.Weighted>
-4.8693

> <Gold.Chemscore.Metal.Weighted>
-0.0000

> <Gold.Chemscore.Lipo.Weighted>
-10.4663

> <Gold.Chemscore.Internal_Hbond.Weighted>
0.0000

> <Gold.Chemscore.DEClash.Weighted>
0.2261

> <Gold.Chemscore.DEInternal.Weighted>
0.7855

> <Gold.Chemscore.Rot.Weighted>
3.6419

> <Gold.Chemscore.Internal.Correction.Weighted>
   9.000000E+99

> <Gold.Protein.RotatedTorsions>
[ 6907 6896 6895 6894 ] final  153.88 input  -60.11 | X-H torsion
[ 7974 7965 7964 7962 ] final -145.59 input  175.53 | X-H torsion
[ 8008 7997 7996 7995 ] final  142.04 input   59.86 | X-H torsion
[ 10167 10162 10161 10158 ] final -137.52 input  -65.29 | X-H torsion
[ 10718 10713 10712 10709 ] final  163.20 input   66.30 | X-H torsion
[ 10763 10752 10751 10750 ] final -137.72 input  -60.55 | X-H torsion
[ 11005 11000 10999 10996 ] final  124.55 input  -57.11 | X-H torsion

> <Gold.Protein.ActiveResidues>
 VAL166  LYS551  ARG553  GLY616  TRP617  ASP618  TYR619  PRO620  LYS621  CYS622 
 ASP623  PHE694  ASN695  SER759  ASP760  ASP761  ALA762  ILE779  LEU786  VAL792 
 PHE793  MET794  SER795  GLU796  ALA797  LYS798  CYS799  TRP800  GLU811  SER814 

> <Gold.Protein.RotatedAtoms>
  152.0664  133.4086  159.4439 H   0  0  0  0  0  0  0  0  0  0  0  0  # atno 6907 bound_to 6896
  150.6864  134.3142  159.4768 H   0  0  0  0  0  0  0  0  0  0  0  0  # atno 6908 bound_to 6896
  152.0969  134.9368  160.0621 H   0  0  0  0  0  0  0  0  0  0  0  0  # atno 6909 bound_to 6896
  144.8217  140.5563  143.5574 H   0  0  0  0  0  0  0  0  0  0  0  0  # atno 7974 bound_to 7965
  156.2956  140.2299  156.4663 H   0  0  0  0  0  0  0  0  0  0  0  0  # atno 8008 bound_to 7997
  154.7974  140.0450  157.1268 H   0  0  0  0  0  0  0  0  0  0  0  0  # atno 8009 bound_to 7997
  154.9573  140.3050  155.5050 H   0  0  0  0  0  0  0  0  0  0  0  0  # atno 8010 bound_to 7997
  139.8570  143.7126  152.2653 H   0  0  0  0  0  0  0  0  0  0  0  0  # atno 10167 bound_to 10162
  157.1118  131.0470  151.2454 H   0  0  0  0  0  0  0  0  0  0  0  0  # atno 10718 bound_to 10713
  154.8655  135.3634  154.5269 H   0  0  0  0  0  0  0  0  0  0  0  0  # atno 10763 bound_to 10752
  153.5896  135.7016  153.5433 H   0  0  0  0  0  0  0  0  0  0  0  0  # atno 10764 bound_to 10752
  153.3385  135.4104  155.1515 H   0  0  0  0  0  0  0  0  0  0  0  0  # atno 10765 bound_to 10752
  139.9364  134.9639  156.8426 H   0  0  0  0  0  0  0  0  0  0  0  0  # atno 11005 bound_to 11000
  145.5091  139.1480  143.3614 LP  0  0  0  0  0  0  0  0  0  0  0  0  # atno 17320 bound_to 7965
  146.2522  140.5232  142.8888 LP  0  0  0  0  0  0  0  0  0  0  0  0  # atno 17321 bound_to 7965
  139.7410  144.7559  151.0652 LP  0  0  0  0  0  0  0  0  0  0  0  0  # atno 17342 bound_to 10162
  140.7780  143.4972  150.9817 LP  0  0  0  0  0  0  0  0  0  0  0  0  # atno 17343 bound_to 10162
  157.4552  130.7621  149.7187 LP  0  0  0  0  0  0  0  0  0  0  0  0  # atno 17370 bound_to 10713
  155.9848  130.3988  150.3290 LP  0  0  0  0  0  0  0  0  0  0  0  0  # atno 17371 bound_to 10713
  140.6065  134.0123  155.7559 LP  0  0  0  0  0  0  0  0  0  0  0  0  # atno 17394 bound_to 11000
  141.0979  133.9814  157.3128 LP  0  0  0  0  0  0  0  0  0  0  0  0  # atno 17395 bound_to 11000

$$$$
