AV-unprocessed.smi:3263|AV-procd|sdf|12492|dock7
  -GOLD-   2272018393D 1   1.00000     0.00000
 Structure written by MMmdl.
 42 44  0  0  0  0  0  0  0  0  2 V2000
  153.6978  139.3203  157.2126 O   0  0  0  0  0  0  0  0  0  0  0  0
  152.6773  140.0046  157.2907 C   0  0  0  0  0  0  0  0  0  0  0  0
  152.3488  140.7650  158.5800 C   0  0  0  0  0  0  0  0  0  0  0  0
  152.5701  142.2904  158.4672 C   0  0  2  0  0  0  0  0  0  0  0  0
  152.8389  142.9956  159.8191 C   0  0  0  0  0  0  0  0  0  0  0  0
  151.7638  144.0965  159.8587 C   0  0  1  0  0  0  0  0  0  0  0  0
  152.0828  145.1685  158.8000 C   0  0  0  0  0  0  0  0  0  0  0  0
  151.7466  144.4507  157.4791 C   0  0  0  0  0  0  0  0  0  0  0  0
  151.3231  143.0475  157.9542 C   0  0  2  0  0  0  0  0  0  0  0  0
  150.5706  143.3813  159.2392 C   0  0  0  0  0  0  0  0  0  0  0  0
  151.8030  140.1369  156.2816 N   0  0  0  0  0  0  0  0  0  0  0  0
  151.9244  139.4914  154.9801 C   0  0  0  0  0  0  0  0  0  0  0  0
  150.7627  138.5180  154.7199 C   0  0  0  0  0  0  0  0  0  0  0  0
  149.5125  139.2322  154.2445 C   0  0  0  0  0  0  0  0  0  0  0  0
  149.1350  140.4970  154.7450 C   0  0  0  0  0  0  0  0  0  0  0  0
  147.9635  141.1106  154.2543 C   0  0  0  0  0  0  0  0  0  0  0  0
  147.1954  140.4477  153.2746 C   0  0  0  0  0  0  0  0  0  0  0  0
  147.6190  139.1859  152.8098 C   0  0  0  0  0  0  0  0  0  0  0  0
  148.7474  138.6309  153.3045 N   0  3  0  0  0  0  0  0  0  0  0  0
  151.3048  140.5662  158.8246 H   0  0  0  0  0  0  0  0  0  0  0  0
  152.9378  140.3590  159.4036 H   0  0  0  0  0  0  0  0  0  0  0  0
  153.4022  142.4677  157.7839 H   0  0  0  0  0  0  0  0  0  0  0  0
  152.7032  142.3134  160.6594 H   0  0  0  0  0  0  0  0  0  0  0  0
  153.8502  143.3991  159.8823 H   0  0  0  0  0  0  0  0  0  0  0  0
  151.5914  144.5029  160.8556 H   0  0  0  0  0  0  0  0  0  0  0  0
  151.4500  146.0472  158.9307 H   0  0  0  0  0  0  0  0  0  0  0  0
  153.1230  145.4933  158.8437 H   0  0  0  0  0  0  0  0  0  0  0  0
  150.9206  144.9512  156.9726 H   0  0  0  0  0  0  0  0  0  0  0  0
  152.5915  144.4239  156.7902 H   0  0  0  0  0  0  0  0  0  0  0  0
  150.7449  142.4981  157.2108 H   0  0  0  0  0  0  0  0  0  0  0  0
  150.2513  142.5032  159.8026 H   0  0  0  0  0  0  0  0  0  0  0  0
  149.7100  144.0336  159.0798 H   0  0  0  0  0  0  0  0  0  0  0  0
  150.9909  140.7183  156.4312 H   0  0  0  0  0  0  0  0  0  0  0  0
  151.9747  140.2458  154.1930 H   0  0  0  0  0  0  0  0  0  0  0  0
  152.8738  138.9558  154.9569 H   0  0  0  0  0  0  0  0  0  0  0  0
  151.0534  137.7773  153.9737 H   0  0  0  0  0  0  0  0  0  0  0  0
  150.5265  137.9616  155.6279 H   0  0  0  0  0  0  0  0  0  0  0  0
  149.7352  140.9938  155.4937 H   0  0  0  0  0  0  0  0  0  0  0  0
  147.6585  142.0786  154.6241 H   0  0  0  0  0  0  0  0  0  0  0  0
  146.2956  140.9012  152.8848 H   0  0  0  0  0  0  0  0  0  0  0  0
  147.0941  138.6086  152.0626 H   0  0  0  0  0  0  0  0  0  0  0  0
  149.0357  137.7178  152.9524 H   0  0  0  0  0  0  0  0  0  0  0  0
  1  2  2  0  0  0  0
  2  3  1  0  0  0  0
  2 11  1  0  0  0  0
  3  4  1  0  0  0  0
  3 20  1  0  0  0  0
  3 21  1  0  0  0  0
  4  9  1  0  0  0  0
  4  5  1  0  0  0  0
  4 22  1  0  0  0  0
  5  6  1  0  0  0  0
  5 23  1  0  0  0  0
  5 24  1  0  0  0  0
  6 10  1  0  0  0  0
  6  7  1  0  0  0  0
  6 25  1  0  0  0  0
  7  8  1  0  0  0  0
  7 26  1  0  0  0  0
  7 27  1  0  0  0  0
  8  9  1  0  0  0  0
  8 28  1  0  0  0  0
  8 29  1  0  0  0  0
  9 10  1  0  0  0  0
  9 30  1  0  0  0  0
 10 31  1  0  0  0  0
 10 32  1  0  0  0  0
 11 12  1  0  0  0  0
 11 33  1  0  0  0  0
 12 13  1  0  0  0  0
 12 34  1  0  0  0  0
 12 35  1  0  0  0  0
 13 14  1  0  0  0  0
 13 36  1  0  0  0  0
 13 37  1  0  0  0  0
 14 19  1  0  0  0  0
 14 15  2  0  0  0  0
 15 16  1  0  0  0  0
 15 38  1  0  0  0  0
 16 17  2  0  0  0  0
 16 39  1  0  0  0  0
 17 18  1  0  0  0  0
 17 40  1  0  0  0  0
 18 19  2  0  0  0  0
 18 41  1  0  0  0  0
 19 42  1  0  0  0  0
M  CHG  1  19   1
M  END
> <s_m_source_file>
AV-unprocessed.smi

> <i_m_source_file_index>
3263

> <i_lp_mmshare_version>
43012

> <i_f3d_flags>
0

> <s_epik_input>
W0NIMl0xW0NIMl1bQ0BASF0oW0NIMl0yKVtDQEBIXShbQ0gyXVtDQEhdMTIpW0NIMl1DKD1PKVtOSF1bQ0gyXVtDSDJdYzNbY0hdW2NIXVtjSF1bY0hdbjM=

> <s_epik_cmdline>
J2VwaWtfcHl0aG9uJywgJy1waCcsICc3LjAnLCAnLXRuJywgJzgnLCAnLW1hJywgJzIwMCcsICctbWV0YWxfYmluZGluZycsICctaW1hZScsICc8aW5maWxlLm1hZT4nLCAnLW9tYWUnLCAnPG91dGZpbGUubWFlPic=

> <r_epik_Ionization_Penalty>
1.83579

> <r_epik_Ionization_Penalty_Charging>
1.83579

> <r_epik_Ionization_Penalty_Neutral>
2.47288e-08

> <r_epik_State_Penalty>
1.95213

> <r_epik_Charging_Adjusted_Penalty>
3.78793

> <i_epik_Tot_Q>
1

> <i_epik_Tot_abs_Q>
1

> <r_epik_Metal_State_Penalty>
1.97847

> <b_epik_Metal_Only>
0

> <s_lp_Force_Field>
OPLS_2005

> <r_lp_Energy>
51.8999

> <b_lp_Chiralities_Consistent>
1

> <s_lp_Variant>
AV-unprocessed.smi:3263-7

> <Gold.Version>
5.8.1

> <Gold.Id.Protein>
6NUR|6NUR_protein|mol2

> <Gold.PLP.Fitness>
53.4206

> <Gold.PLP.PLP>
-46.1815

> <Gold.PLP.part.hbond>
-3.0000

> <Gold.PLP.part.metal>
0.0000

> <Gold.PLP.part.buried>
-3.5048

> <Gold.PLP.part.nonpolar>
-40.1597

> <Gold.PLP.part.repulsive>
0.1631

> <Gold.PLP.ligand.clash>
0.0000

> <Gold.PLP.ligand.torsion>
0.8963

> <Gold.PLP.Chemscore.Hbond>
3.0000

> <Gold.PLP.Chemscore.CHOScore>
0.0000

> <Gold.PLP.Chemscore.Metal>
0.0000

> <Gold.Chemscore.Hbonds>
donor molecule, donor type, donor heavy atom, donor atom, acceptor molecule, acceptor atom, score
      L1  H    19    42       P1  7948  2.00

> <Gold.PLP.Chemscore.Internal.Correction>
0.0317

> <Gold.Rescore>
     Score         DG    S(hbond)    S(metal)    S(lipo)     H(rot)  DE(clash)    DE(int)     intcor
     20.42     -22.66       1.60        0.00     135.32       1.56       1.53       0.72       ----

> <Gold.Chemscore.Fitness>
20.4153

> <Gold.Chemscore.DG>
-22.6631

> <Gold.Chemscore.ZeroCoef>
-5.4800

> <Gold.Chemscore.Hbond>
1.6032

> <Gold.Chemscore.Metal>
0.0000

> <Gold.Chemscore.Lipo>
135.3181

> <Gold.Chemscore.Internal_Hbond>
0.0000

> <Gold.Chemscore.DEClash>
1.5308

> <Gold.Chemscore.DEInternal>
0.7170

> <Gold.Chemscore.Rot>
1.5640

> <Gold.Chemscore.Internal.Correction>
   9.000000E+99

> <Gold.Chemscore.Hbonds>
donor molecule, donor type, donor heavy atom, donor atom, acceptor molecule, acceptor atom, score
      L1  H    19    42       P1  7948  0.98
      P1  H  7997  8008       L1     1  0.03

> <Gold.Chemscore.Hbond.Weighted>
-5.3547

> <Gold.Chemscore.Metal.Weighted>
-0.0000

> <Gold.Chemscore.Lipo.Weighted>
-15.8322

> <Gold.Chemscore.Internal_Hbond.Weighted>
0.0000

> <Gold.Chemscore.DEClash.Weighted>
1.5308

> <Gold.Chemscore.DEInternal.Weighted>
0.7170

> <Gold.Chemscore.Rot.Weighted>
4.0038

> <Gold.Chemscore.Internal.Correction.Weighted>
   9.000000E+99

> <Gold.Protein.RotatedTorsions>
[ 6907 6896 6895 6894 ] final   97.39 input  -60.11 | X-H torsion
[ 7974 7965 7964 7962 ] final -127.80 input  175.53 | X-H torsion
[ 8008 7997 7996 7995 ] final  -77.29 input   59.86 | X-H torsion
[ 10167 10162 10161 10158 ] final  -41.26 input  -65.29 | X-H torsion
[ 10718 10713 10712 10709 ] final  -24.61 input   66.30 | X-H torsion
[ 10763 10752 10751 10750 ] final  127.89 input  -60.55 | X-H torsion
[ 11005 11000 10999 10996 ] final  -82.86 input  -57.11 | X-H torsion

> <Gold.Protein.ActiveResidues>
 VAL166  LYS551  ARG553  GLY616  TRP617  ASP618  TYR619  PRO620  LYS621  CYS622 
 ASP623  PHE694  ASN695  SER759  ASP760  ASP761  ALA762  ILE779  LEU786  VAL792 
 PHE793  MET794  SER795  GLU796  ALA797  LYS798  CYS799  TRP800  GLU811  SER814 

> <Gold.Protein.RotatedAtoms>
  152.5424  134.0741  159.8206 H   0  0  0  0  0  0  0  0  0  0  0  0  # atno 6907 bound_to 6896
  151.0852  133.5352  159.2625 H   0  0  0  0  0  0  0  0  0  0  0  0  # atno 6908 bound_to 6896
  151.2164  135.0510  159.8986 H   0  0  0  0  0  0  0  0  0  0  0  0  # atno 6909 bound_to 6896
  144.9734  140.7568  143.4656 H   0  0  0  0  0  0  0  0  0  0  0  0  # atno 7974 bound_to 7965
  154.5582  140.0713  156.8778 H   0  0  0  0  0  0  0  0  0  0  0  0  # atno 8008 bound_to 7997
  155.2861  140.3375  155.4237 H   0  0  0  0  0  0  0  0  0  0  0  0  # atno 8009 bound_to 7997
  156.2020  140.1725  156.7864 H   0  0  0  0  0  0  0  0  0  0  0  0  # atno 8010 bound_to 7997
  140.7008  143.3105  151.3042 H   0  0  0  0  0  0  0  0  0  0  0  0  # atno 10167 bound_to 10162
  156.4754  130.4533  149.6844 H   0  0  0  0  0  0  0  0  0  0  0  0  # atno 10718 bound_to 10713
  153.7167  135.3260  155.3258 H   0  0  0  0  0  0  0  0  0  0  0  0  # atno 10763 bound_to 10752
  154.8368  135.4490  154.1259 H   0  0  0  0  0  0  0  0  0  0  0  0  # atno 10764 bound_to 10752
  153.2368  135.6966  153.7908 H   0  0  0  0  0  0  0  0  0  0  0  0  # atno 10765 bound_to 10752
  141.1661  133.7265  156.8634 H   0  0  0  0  0  0  0  0  0  0  0  0  # atno 11005 bound_to 11000
  145.2526  139.2025  143.4934 LP  0  0  0  0  0  0  0  0  0  0  0  0  # atno 17320 bound_to 7965
  146.3388  140.2441  142.8596 LP  0  0  0  0  0  0  0  0  0  0  0  0  # atno 17321 bound_to 7965
  139.6525  144.0335  152.2637 LP  0  0  0  0  0  0  0  0  0  0  0  0  # atno 17342 bound_to 10162
  139.9876  144.6384  150.7843 LP  0  0  0  0  0  0  0  0  0  0  0  0  # atno 17343 bound_to 10162
  156.3576  130.7464  151.2432 LP  0  0  0  0  0  0  0  0  0  0  0  0  # atno 17370 bound_to 10713
  157.7488  131.0359  150.4386 LP  0  0  0  0  0  0  0  0  0  0  0  0  # atno 17371 bound_to 10713
  140.1832  134.9018  157.2973 LP  0  0  0  0  0  0  0  0  0  0  0  0  # atno 17394 bound_to 11000
  140.2371  134.3839  155.7496 LP  0  0  0  0  0  0  0  0  0  0  0  0  # atno 17395 bound_to 11000

$$$$
