AV-unprocessed.smi:3149|AV-procd|sdf|12006|dock3
  -GOLD-   2272017413D 1   1.00000     0.00000
 Structure written by MMmdl.
 37 38  0  0  0  0  0  0  0  0  1 V2000
  149.2570  140.6813  157.7769 C   0  0  0  0  0  0  0  0  0  0  0  0
  149.3660  141.4360  156.4366 C   0  0  1  0  0  0  0  0  0  0  0  0
  150.7052  141.9990  156.2830 N   0  0  0  0  0  0  0  0  0  0  0  0
  151.0059  143.0831  157.2244 C   0  0  0  0  0  0  0  0  0  0  0  0
  151.8348  142.5709  158.4045 C   0  0  0  0  0  0  0  0  0  0  0  0
  152.1872  141.3923  158.4449 O   0  0  0  0  0  0  0  0  0  0  0  0
  152.2515  143.4977  159.3643 N   0  0  0  0  0  0  0  0  0  0  0  0
  151.4774  144.6998  159.6327 C   0  0  0  0  0  0  0  0  0  0  0  0
  152.0463  144.6160  161.0532 C   0  0  0  0  0  0  0  0  0  0  0  0
  152.3805  143.1478  160.7713 C   0  0  0  0  0  0  0  0  0  0  0  0
  149.0314  140.5321  155.2184 C   0  0  1  0  0  0  0  0  0  0  0  0
  148.6617  141.3322  153.9533 C   0  0  0  0  0  0  0  0  0  0  0  0
  150.0483  139.5169  154.9506 N   0  0  0  0  0  0  0  0  0  0  0  0
  149.8801  138.1496  154.8642 C   0  0  0  0  0  0  0  0  0  0  0  0
  151.1061  137.5974  154.6276 C   0  0  0  0  0  0  0  0  0  0  0  0
  151.9794  138.7191  154.5907 C   0  0  0  0  0  0  0  0  0  0  0  0
  151.3464  139.8632  154.7885 N   0  0  0  0  0  0  0  0  0  0  0  0
  148.2974  140.1699  157.8564 H   0  0  0  0  0  0  0  0  0  0  0  0
  149.3262  141.3565  158.6293 H   0  0  0  0  0  0  0  0  0  0  0  0
  150.0411  139.9310  157.8841 H   0  0  0  0  0  0  0  0  0  0  0  0
  148.6431  142.2533  156.4395 H   0  0  0  0  0  0  0  0  0  0  0  0
  151.3944  141.2611  156.3207 H   0  0  0  0  0  0  0  0  0  0  0  0
  151.5399  143.8887  156.7187 H   0  0  0  0  0  0  0  0  0  0  0  0
  150.0810  143.5078  157.6142 H   0  0  0  0  0  0  0  0  0  0  0  0
  151.7997  145.5717  159.0628 H   0  0  0  0  0  0  0  0  0  0  0  0
  150.3976  144.5426  159.5913 H   0  0  0  0  0  0  0  0  0  0  0  0
  152.9292  145.2398  161.2032 H   0  0  0  0  0  0  0  0  0  0  0  0
  151.3070  144.7634  161.8410 H   0  0  0  0  0  0  0  0  0  0  0  0
  151.6112  142.4610  161.1288 H   0  0  0  0  0  0  0  0  0  0  0  0
  153.3863  142.8456  161.0647 H   0  0  0  0  0  0  0  0  0  0  0  0
  148.1290  139.9811  155.4884 H   0  0  0  0  0  0  0  0  0  0  0  0
  147.8372  142.0174  154.1523 H   0  0  0  0  0  0  0  0  0  0  0  0
  148.3484  140.6664  153.1488 H   0  0  0  0  0  0  0  0  0  0  0  0
  149.4988  141.9248  153.5832 H   0  0  0  0  0  0  0  0  0  0  0  0
  148.9107  137.6872  154.9794 H   0  0  0  0  0  0  0  0  0  0  0  0
  151.3436  136.5514  154.5032 H   0  0  0  0  0  0  0  0  0  0  0  0
  153.0474  138.7359  154.4303 H   0  0  0  0  0  0  0  0  0  0  0  0
  1  2  1  0  0  0  0
  1 18  1  0  0  0  0
  1 19  1  0  0  0  0
  1 20  1  0  0  0  0
  2  3  1  0  0  0  0
  2 11  1  0  0  0  0
  2 21  1  0  0  0  0
  3  4  1  0  0  0  0
  3 22  1  0  0  0  0
  4  5  1  0  0  0  0
  4 23  1  0  0  0  0
  4 24  1  0  0  0  0
  5  6  2  0  0  0  0
  5  7  1  0  0  0  0
  7 10  1  0  0  0  0
  7  8  1  0  0  0  0
  8  9  1  0  0  0  0
  8 25  1  0  0  0  0
  8 26  1  0  0  0  0
  9 10  1  0  0  0  0
  9 27  1  0  0  0  0
  9 28  1  0  0  0  0
 10 29  1  0  0  0  0
 10 30  1  0  0  0  0
 11 12  1  0  0  0  0
 11 13  1  0  0  0  0
 11 31  1  0  0  0  0
 12 32  1  0  0  0  0
 12 33  1  0  0  0  0
 12 34  1  0  0  0  0
 13 17  1  0  0  0  0
 13 14  1  0  0  0  0
 14 15  2  0  0  0  0
 14 35  1  0  0  0  0
 15 16  1  0  0  0  0
 15 36  1  0  0  0  0
 16 17  2  0  0  0  0
 16 37  1  0  0  0  0
M  END
> <s_m_source_file>
AV-unprocessed.smi

> <i_m_source_file_index>
3149

> <i_lp_mmshare_version>
43012

> <i_f3d_flags>
0

> <s_epik_input>
bjFbY0hdW2NIXVtjSF1uMVtDQEBIXShbQ0gzXSlbQ0BIXShbQ0gzXSlbTkhdW0NIMl1DKD1PKU4yW0NIMl1bQ0gyXVtDSDJdMg==

> <s_epik_cmdline>
J2VwaWtfcHl0aG9uJywgJy1waCcsICc3LjAnLCAnLXRuJywgJzgnLCAnLW1hJywgJzIwMCcsICctbWV0YWxfYmluZGluZycsICctaW1hZScsICc8aW5maWxlLm1hZT4nLCAnLW9tYWUnLCAnPG91dGZpbGUubWFlPic=

> <r_lp_tautomer_probability>
1

> <r_epik_Ionization_Penalty>
0.918674

> <r_epik_Ionization_Penalty_Charging>
0

> <r_epik_Ionization_Penalty_Neutral>
0.918674

> <r_epik_State_Penalty>
0.958258

> <r_epik_Charging_Adjusted_Penalty>
0.958258

> <i_epik_Tot_Q>
0

> <i_epik_Tot_abs_Q>
0

> <r_epik_Metal_State_Penalty>
0.956881

> <b_epik_Metal_Only>
0

> <s_lp_Force_Field>
OPLS_2005

> <r_lp_Energy>
24.8849

> <b_lp_Chiralities_Consistent>
1

> <s_lp_Variant>
AV-unprocessed.smi:3149-8

> <Gold.Version>
5.8.1

> <Gold.Id.Protein>
6NUR|6NUR_protein|mol2

> <Gold.PLP.Fitness>
41.0905

> <Gold.PLP.PLP>
-39.3959

> <Gold.PLP.part.hbond>
-1.0000

> <Gold.PLP.part.metal>
0.0000

> <Gold.PLP.part.buried>
-5.5193

> <Gold.PLP.part.nonpolar>
-33.0624

> <Gold.PLP.part.repulsive>
0.0671

> <Gold.PLP.ligand.clash>
0.0000

> <Gold.PLP.ligand.torsion>
1.1529

> <Gold.PLP.Chemscore.Hbond>
1.0000

> <Gold.PLP.Chemscore.CHOScore>
0.0000

> <Gold.PLP.Chemscore.Metal>
0.0000

> <Gold.Chemscore.Hbonds>
donor molecule, donor type, donor heavy atom, donor atom, acceptor molecule, acceptor atom, score
      P1  H  7989  7998       L1    17  1.00

> <Gold.PLP.Chemscore.Internal.Correction>
1.0005

> <Gold.Rescore>
     Score         DG    S(hbond)    S(metal)    S(lipo)     H(rot)  DE(clash)    DE(int)     intcor
     11.92     -14.35       0.97        0.00      87.33       1.79       0.11       2.32       ----

> <Gold.Chemscore.Fitness>
11.9204

> <Gold.Chemscore.DG>
-14.3498

> <Gold.Chemscore.ZeroCoef>
-5.4800

> <Gold.Chemscore.Hbond>
0.9666

> <Gold.Chemscore.Metal>
0.0000

> <Gold.Chemscore.Lipo>
87.3257

> <Gold.Chemscore.Internal_Hbond>
0.0000

> <Gold.Chemscore.DEClash>
0.1072

> <Gold.Chemscore.DEInternal>
2.3222

> <Gold.Chemscore.Rot>
1.7874

> <Gold.Chemscore.Internal.Correction>
   9.000000E+99

> <Gold.Chemscore.Hbonds>
donor molecule, donor type, donor heavy atom, donor atom, acceptor molecule, acceptor atom, score
      P1  H  7989  7998       L1    17  0.59

> <Gold.Chemscore.Hbond.Weighted>
-3.2285

> <Gold.Chemscore.Metal.Weighted>
-0.0000

> <Gold.Chemscore.Lipo.Weighted>
-10.2171

> <Gold.Chemscore.Internal_Hbond.Weighted>
0.0000

> <Gold.Chemscore.DEClash.Weighted>
0.1072

> <Gold.Chemscore.DEInternal.Weighted>
2.3222

> <Gold.Chemscore.Rot.Weighted>
4.5758

> <Gold.Chemscore.Internal.Correction.Weighted>
   9.000000E+99

> <Gold.Protein.RotatedTorsions>
[ 6907 6896 6895 6894 ] final  100.51 input  -60.11 | X-H torsion
[ 7974 7965 7964 7962 ] final   93.87 input  175.53 | X-H torsion
[ 8008 7997 7996 7995 ] final  -46.48 input   59.86 | X-H torsion
[ 10167 10162 10161 10158 ] final   77.55 input  -65.29 | X-H torsion
[ 10718 10713 10712 10709 ] final -129.53 input   66.30 | X-H torsion
[ 10763 10752 10751 10750 ] final  -30.59 input  -60.55 | X-H torsion
[ 11005 11000 10999 10996 ] final   80.88 input  -57.11 | X-H torsion

> <Gold.Protein.ActiveResidues>
 VAL166  LYS551  ARG553  GLY616  TRP617  ASP618  TYR619  PRO620  LYS621  CYS622 
 ASP623  PHE694  ASN695  SER759  ASP760  ASP761  ALA762  ILE779  LEU786  VAL792 
 PHE793  MET794  SER795  GLU796  ALA797  LYS798  CYS799  TRP800  GLU811  SER814 

> <Gold.Protein.RotatedAtoms>
  152.5370  134.0266  159.8005 H   0  0  0  0  0  0  0  0  0  0  0  0  # atno 6907 bound_to 6896
  151.0443  133.5671  159.2655 H   0  0  0  0  0  0  0  0  0  0  0  0  # atno 6908 bound_to 6896
  151.2629  135.0667  159.9158 H   0  0  0  0  0  0  0  0  0  0  0  0  # atno 6909 bound_to 6896
  145.4731  139.2281  143.2924 H   0  0  0  0  0  0  0  0  0  0  0  0  # atno 7974 bound_to 7965
  154.4008  140.1370  156.4019 H   0  0  0  0  0  0  0  0  0  0  0  0  # atno 8008 bound_to 7997
  155.7816  140.3481  155.5280 H   0  0  0  0  0  0  0  0  0  0  0  0  # atno 8009 bound_to 7997
  155.8668  140.0965  157.1567 H   0  0  0  0  0  0  0  0  0  0  0  0  # atno 8010 bound_to 7997
  139.9804  144.5830  150.7906 H   0  0  0  0  0  0  0  0  0  0  0  0  # atno 10167 bound_to 10162
  156.2056  130.6885  151.0590 H   0  0  0  0  0  0  0  0  0  0  0  0  # atno 10718 bound_to 10713
  153.7835  135.6903  153.4884 H   0  0  0  0  0  0  0  0  0  0  0  0  # atno 10763 bound_to 10752
  153.1796  135.4511  155.0009 H   0  0  0  0  0  0  0  0  0  0  0  0  # atno 10764 bound_to 10752
  154.8072  135.3362  154.7336 H   0  0  0  0  0  0  0  0  0  0  0  0  # atno 10765 bound_to 10752
  139.9118  134.7954  156.1967 H   0  0  0  0  0  0  0  0  0  0  0  0  # atno 11005 bound_to 11000
  146.2385  140.5511  142.8944 LP  0  0  0  0  0  0  0  0  0  0  0  0  # atno 17320 bound_to 7965
  144.7933  140.6075  143.6527 LP  0  0  0  0  0  0  0  0  0  0  0  0  # atno 17321 bound_to 7965
  140.7491  143.2933  151.3272 LP  0  0  0  0  0  0  0  0  0  0  0  0  # atno 17342 bound_to 10162
  139.6414  144.0532  152.2557 LP  0  0  0  0  0  0  0  0  0  0  0  0  # atno 17343 bound_to 10162
  157.7010  131.0776  150.6819 LP  0  0  0  0  0  0  0  0  0  0  0  0  # atno 17370 bound_to 10713
  156.6878  130.4586  149.5609 LP  0  0  0  0  0  0  0  0  0  0  0  0  # atno 17371 bound_to 10713
  141.0550  133.6870  156.1843 LP  0  0  0  0  0  0  0  0  0  0  0  0  # atno 17394 bound_to 11000
  140.6751  134.4827  157.5588 LP  0  0  0  0  0  0  0  0  0  0  0  0  # atno 17395 bound_to 11000

$$$$
