#       Name:                AV-unprocessed.smi:1827
#       Creating user name   scv26
#       Creation time:       Fri Mar 27 09:10:15 2020


#       File generated by GOLD software.
#

@<TRIPOS>MOLECULE
AV-unprocessed.smi:1827
    49    50     1
SMALL
NO_CHARGES


@<TRIPOS>ATOM
      1 ****        -4.4827  -1.9457   0.5117 C.3            1 S1                 0.0000
      2 ****        -4.8398  -0.5695   1.0011 C.2            1 S1                 0.0000
      3 ****        -6.1085  -0.3049   1.2851 N.2            1 S1                 0.0000
      4 ****        -6.0997   0.9622   1.7515 N.pl3          1 S1                 0.0000
      5 ****        -4.8455   1.5290   1.7767 C.2            1 S1                 0.0000
      6 ****        -4.6016   2.9164   2.2693 C.3            1 S1                 0.0000
      7 ****        -4.0175   0.5697   1.2699 C.2            1 S1                 0.0000
      8 ****        -2.6136   0.7162   1.1399 N.am           1 S1                 0.0000
      9 ****        -1.8373   0.2286   0.1605 C.2            1 S1                 0.0000
     10 ****        -2.2410  -0.4177  -0.8057 O.2            1 S1                 0.0000
     11 ****        -0.5499   0.5510   0.3510 N.am           1 S1                 0.0000
     12 ****         0.5479   0.1807  -0.5373 C.3            1 S1                 0.0000
     13 ****         0.9791  -1.2787  -0.3010 C.3            1 S1                 0.0000
     14 ****         2.2007  -1.6437  -1.1600 C.3            1 S1                 0.0000
     15 ****         3.3336  -0.7184  -0.9032 N.4            1 S1                 1.0000
     16 ****         4.5719  -1.1290  -1.6145 C.3            1 S1                 0.0000
     17 ****         5.8472  -0.5918  -0.9568 C.2            1 S1                 0.0000
     18 ****         6.9425  -0.5421  -1.7181 N.am           1 S1                 0.0000
     19 ****         5.8517  -0.2414   0.2220 O.2            1 S1                 0.0000
     20 ****         2.9521   0.6959  -1.1634 C.3            1 S1                 0.0000
     21 ****         1.7473   1.1134  -0.3037 C.3            1 S1                 0.0000
     22 ****        -6.9484   1.4196   2.0526 H              1 S1                 0.0000
     23 ****        -3.4980  -2.2491   0.8669 H              1 S1                 0.0000
     24 ****        -4.4752  -1.9833  -0.5774 H              1 S1                 0.0000
     25 ****        -5.1968  -2.6920   0.8616 H              1 S1                 0.0000
     26 ****        -3.5384   3.0960   2.4296 H              1 S1                 0.0000
     27 ****        -5.1165   3.0893   3.2145 H              1 S1                 0.0000
     28 ****        -4.9613   3.6501   1.5478 H              1 S1                 0.0000
     29 ****        -2.1719   1.3333   1.8053 H              1 S1                 0.0000
     30 ****        -0.3130   1.0928   1.1693 H              1 S1                 0.0000
     31 ****         0.2203   0.2944  -1.5728 H              1 S1                 0.0000
     32 ****         1.2192  -1.4290   0.7527 H              1 S1                 0.0000
     33 ****         0.1573  -1.9585  -0.5296 H              1 S1                 0.0000
     34 ****         2.5019  -2.6671  -0.9337 H              1 S1                 0.0000
     35 ****         1.9388  -1.6162  -2.2191 H              1 S1                 0.0000
     36 ****         4.6542  -2.2166  -1.6083 H              1 S1                 0.0000
     37 ****         4.5210  -0.8247  -2.6613 H              1 S1                 0.0000
     38 ****         7.8105  -0.1921  -1.3387 H              1 S1                 0.0000
     39 ****         6.8984  -0.8518  -2.6787 H              1 S1                 0.0000
     40 ****         3.7904   1.3582  -0.9460 H              1 S1                 0.0000
     41 ****         2.7188   0.8223  -2.2218 H              1 S1                 0.0000
     42 ****         1.4711   2.1433  -0.5335 H              1 S1                 0.0000
     43 ****         2.0325   1.0972   0.7495 H              1 S1                 0.0000
     44 ****         3.5418  -0.7910   0.0829 H              1 S1                 0.0000
     45 ****        -6.8972  -0.9102   1.1775 LP             1 S1                 0.0000
     46 ****        -3.2166  -0.6149  -0.9029 LP             1 S1                 0.0000
     47 ****        -1.5936  -0.7457  -1.4936 LP             1 S1                 0.0000
     48 ****         5.0148  -0.3050   0.7658 LP             1 S1                 0.0000
     49 ****         6.6922   0.1071   0.6369 LP             1 S1                 0.0000
@<TRIPOS>BOND
    1    1    2 1     
    2    1   23 1     
    3    1   24 1     
    4    1   25 1     
    5    2    7 1     
    6    2    3 2     
    7    3    4 1     
    8    4   22 1     
    9    4    5 1     
   10    5    6 1     
   11    5    7 2     
   12    6   26 1     
   13    6   27 1     
   14    6   28 1     
   15    7    8 1     
   16    8    9 am    
   17    8   29 1     
   18    9   10 2     
   19    9   11 am    
   20   11   12 1     
   21   11   30 1     
   22   12   21 1     
   23   12   13 1     
   24   12   31 1     
   25   13   14 1     
   26   13   32 1     
   27   13   33 1     
   28   14   15 1     
   29   14   34 1     
   30   14   35 1     
   31   15   16 1     
   32   15   20 1     
   33   15   44 1     
   34   16   17 1     
   35   16   36 1     
   36   16   37 1     
   37   17   18 am    
   38   17   19 2     
   39   18   38 1     
   40   18   39 1     
   41   20   21 1     
   42   20   40 1     
   43   20   41 1     
   44   21   42 1     
   45   21   43 1     
   46    3   45 1     
   47   10   46 1     
   48   10   47 1     
   49   19   48 1     
   50   19   49 1     
@<TRIPOS>SUBSTRUCTURE
      1 S1             1
@<TRIPOS>SET
LONE_PAIRS      STATIC     ATOMS    <user>   **** ""
5 45 46 47 48 49
DONOR_HYDROGENS      STATIC     ATOMS    <user>   **** ""
6 22 29 30 44 38 39
ATOM$BLUE        STATIC     ATOMS    COLORGROUP SYSTEM
5 45 46 47 48 49
ATOM$RED        STATIC     ATOMS    COLORGROUP SYSTEM
6 22 29 30 44 38 39
