AV-unprocessed.smi:148|AV-procd|sdf|1209|dock1
  -GOLD-   2262018383D 1   1.00000     0.00000
 Structure written by MMmdl.
 63 67  0  0  0  0  0  0  0  0  1 V2000
  149.9027  142.2225  156.8139 O   0  0  0  0  0  0  0  0  0  0  0  0
  150.4324  141.1815  156.0201 C   0  0  0  0  0  0  0  0  0  0  0  0
  149.3684  140.0854  155.7756 C   0  0  1  0  0  0  0  0  0  0  0  0
  148.0674  140.7114  155.2130 C   0  0  0  0  0  0  0  0  0  0  0  0
  146.9841  139.7554  155.0682 N   0  0  0  0  0  0  0  0  0  0  0  0
  146.1307  139.3171  156.0564 C   0  0  0  0  0  0  0  0  0  0  0  0
  145.2276  138.4573  155.6709 N   0  0  0  0  0  0  0  0  0  0  0  0
  145.4853  138.2869  154.3170 C   0  0  0  0  0  0  0  0  0  0  0  0
  144.8973  137.5005  153.2929 C   0  0  0  0  0  0  0  0  0  0  0  0
  143.8412  136.6938  153.5327 N   0  0  0  0  0  0  0  0  0  0  0  0
  142.6483  137.4906  153.8259 C   0  0  0  0  0  0  0  0  0  0  0  0
  141.5300  136.6234  154.4116 C   0  0  0  0  0  0  0  0  0  0  0  0
  141.2181  135.4678  153.4592 C   0  0  0  0  0  0  0  0  0  0  0  0
  142.4949  134.6666  153.1712 C   0  0  0  0  0  0  0  0  0  0  0  0
  143.6471  135.5495  152.6186 C   0  0  2  0  0  0  0  0  0  0  0  0
  144.9420  134.6909  152.3952 C   0  0  1  0  0  0  0  0  0  0  0  0
  144.7105  133.1769  152.2320 C   0  0  0  0  0  0  0  0  0  0  0  0
  145.9938  132.6087  151.6154 C   0  0  0  0  0  0  0  0  0  0  0  0
  146.7375  133.8008  151.0027 C   0  0  0  0  0  0  0  0  0  0  0  0
  145.8035  135.0068  151.1497 C   0  0  1  0  0  0  0  0  0  0  0  0
  145.0054  135.1089  149.9850 O   0  0  0  0  0  0  0  0  0  0  0  0
  145.4238  137.5808  152.0421 N   0  0  0  0  0  0  0  0  0  0  0  0
  146.4728  138.3769  151.8127 C   0  0  0  0  0  0  0  0  0  0  0  0
  147.1275  139.1641  152.6700 N   0  0  0  0  0  0  0  0  0  0  0  0
  146.5918  139.0876  153.9223 C   0  0  0  0  0  0  0  0  0  0  0  0
  149.8854  138.9001  154.9123 C   0  0  2  0  0  0  0  0  0  0  0  0
  149.2525  137.5392  155.2100 C   0  0  0  0  0  0  0  0  0  0  0  0
  150.4470  136.6033  155.3917 C   0  0  0  0  0  0  0  0  0  0  0  0
  151.4974  137.2467  154.6889 O   0  0  0  0  0  0  0  0  0  0  0  0
  151.3937  138.6287  154.9870 C   0  0  0  0  0  0  0  0  0  0  0  0
  149.5260  142.8752  156.2436 H   0  0  0  0  0  0  0  0  0  0  0  0
  150.7874  141.6042  155.0802 H   0  0  0  0  0  0  0  0  0  0  0  0
  151.3052  140.7879  156.5388 H   0  0  0  0  0  0  0  0  0  0  0  0
  149.1245  139.6561  156.7487 H   0  0  0  0  0  0  0  0  0  0  0  0
  147.7168  141.5134  155.8631 H   0  0  0  0  0  0  0  0  0  0  0  0
  148.2582  141.1652  154.2398 H   0  0  0  0  0  0  0  0  0  0  0  0
  146.1928  139.6642  157.0775 H   0  0  0  0  0  0  0  0  0  0  0  0
  142.8948  138.2875  154.5299 H   0  0  0  0  0  0  0  0  0  0  0  0
  142.2969  137.9711  152.9114 H   0  0  0  0  0  0  0  0  0  0  0  0
  141.8354  136.2329  155.3832 H   0  0  0  0  0  0  0  0  0  0  0  0
  140.6369  137.2254  154.5805 H   0  0  0  0  0  0  0  0  0  0  0  0
  140.4559  134.8195  153.8919 H   0  0  0  0  0  0  0  0  0  0  0  0
  140.8078  135.8569  152.5266 H   0  0  0  0  0  0  0  0  0  0  0  0
  142.8216  134.1715  154.0869 H   0  0  0  0  0  0  0  0  0  0  0  0
  142.2386  133.8764  152.4664 H   0  0  0  0  0  0  0  0  0  0  0  0
  143.3149  135.9473  151.6593 H   0  0  0  0  0  0  0  0  0  0  0  0
  145.5758  134.8113  153.2759 H   0  0  0  0  0  0  0  0  0  0  0  0
  144.4697  132.6861  153.1757 H   0  0  0  0  0  0  0  0  0  0  0  0
  143.8789  133.0009  151.5479 H   0  0  0  0  0  0  0  0  0  0  0  0
  146.6119  132.1358  152.3795 H   0  0  0  0  0  0  0  0  0  0  0  0
  145.7628  131.8509  150.8663 H   0  0  0  0  0  0  0  0  0  0  0  0
  147.6502  133.9810  151.5723 H   0  0  0  0  0  0  0  0  0  0  0  0
  147.0382  133.6214  149.9697 H   0  0  0  0  0  0  0  0  0  0  0  0
  146.3914  135.9166  151.2494 H   0  0  0  0  0  0  0  0  0  0  0  0
  145.5697  135.0517  149.2292 H   0  0  0  0  0  0  0  0  0  0  0  0
  146.8413  138.3821  150.7975 H   0  0  0  0  0  0  0  0  0  0  0  0
  149.6499  139.1004  153.8667 H   0  0  0  0  0  0  0  0  0  0  0  0
  148.5983  137.5311  156.0813 H   0  0  0  0  0  0  0  0  0  0  0  0
  148.6511  137.2198  154.3577 H   0  0  0  0  0  0  0  0  0  0  0  0
  150.7153  136.5211  156.4461 H   0  0  0  0  0  0  0  0  0  0  0  0
  150.2590  135.6005  155.0077 H   0  0  0  0  0  0  0  0  0  0  0  0
  151.9635  139.2327  154.2806 H   0  0  0  0  0  0  0  0  0  0  0  0
  151.7985  138.8022  155.9839 H   0  0  0  0  0  0  0  0  0  0  0  0
  1  2  1  0  0  0  0
  1 31  1  0  0  0  0
  2  3  1  0  0  0  0
  2 32  1  0  0  0  0
  2 33  1  0  0  0  0
  3  4  1  0  0  0  0
  3 26  1  0  0  0  0
  3 34  1  0  0  0  0
  4  5  1  0  0  0  0
  4 35  1  0  0  0  0
  4 36  1  0  0  0  0
  5 25  1  0  0  0  0
  5  6  1  0  0  0  0
  6  7  2  0  0  0  0
  6 37  1  0  0  0  0
  7  8  1  0  0  0  0
  8 25  2  0  0  0  0
  8  9  1  0  0  0  0
  9 10  1  0  0  0  0
  9 22  2  0  0  0  0
 10 15  1  0  0  0  0
 10 11  1  0  0  0  0
 11 12  1  0  0  0  0
 11 38  1  0  0  0  0
 11 39  1  0  0  0  0
 12 13  1  0  0  0  0
 12 40  1  0  0  0  0
 12 41  1  0  0  0  0
 13 14  1  0  0  0  0
 13 42  1  0  0  0  0
 13 43  1  0  0  0  0
 14 15  1  0  0  0  0
 14 44  1  0  0  0  0
 14 45  1  0  0  0  0
 15 16  1  0  0  0  0
 15 46  1  0  0  0  0
 16 20  1  0  0  0  0
 16 17  1  0  0  0  0
 16 47  1  0  0  0  0
 17 18  1  0  0  0  0
 17 48  1  0  0  0  0
 17 49  1  0  0  0  0
 18 19  1  0  0  0  0
 18 50  1  0  0  0  0
 18 51  1  0  0  0  0
 19 20  1  0  0  0  0
 19 52  1  0  0  0  0
 19 53  1  0  0  0  0
 20 21  1  0  0  0  0
 20 54  1  0  0  0  0
 21 55  1  0  0  0  0
 22 23  1  0  0  0  0
 23 24  2  0  0  0  0
 23 56  1  0  0  0  0
 24 25  1  0  0  0  0
 26 30  1  0  0  0  0
 26 27  1  0  0  0  0
 26 57  1  0  0  0  0
 27 28  1  0  0  0  0
 27 58  1  0  0  0  0
 27 59  1  0  0  0  0
 28 29  1  0  0  0  0
 28 60  1  0  0  0  0
 28 61  1  0  0  0  0
 29 30  1  0  0  0  0
 30 62  1  0  0  0  0
 30 63  1  0  0  0  0
M  END
> <s_m_source_file>
AV-unprocessed.smi

> <i_m_source_file_index>
148

> <i_lp_mmshare_version>
43012

> <i_f3d_flags>
0

> <s_epik_input>
W0NIMl0xT1tDSDJdW0NIMl1bQ0BIXTFbQ0BIXShbQ0gyXVtPSF0pW0NIMl1uKFtjSF1uMiljKGMyMyluW2NIXW5jM040W0NIMl1bQ0gyXVtDSDJdW0NIMl1bQ0BIXTRbQ0BASF01W0NIMl1bQ0gyXVtDSDJdW0NASF01W09IXQ==

> <s_epik_cmdline>
J2VwaWtfcHl0aG9uJywgJy1waCcsICc3LjAnLCAnLXRuJywgJzgnLCAnLW1hJywgJzIwMCcsICctbWV0YWxfYmluZGluZycsICctaW1hZScsICc8aW5maWxlLm1hZT4nLCAnLW9tYWUnLCAnPG91dGZpbGUubWFlPic=

> <r_lp_tautomer_probability>
1

> <r_epik_Ionization_Penalty>
0.00556303

> <r_epik_Ionization_Penalty_Charging>
0

> <r_epik_Ionization_Penalty_Neutral>
0.00556303

> <r_epik_State_Penalty>
0.00401767

> <r_epik_Charging_Adjusted_Penalty>
0.00401767

> <i_epik_Tot_Q>
0

> <i_epik_Tot_abs_Q>
0

> <r_epik_Metal_State_Penalty>
-0

> <b_epik_Metal_Only>
0

> <s_lp_Force_Field>
OPLS_2005

> <r_lp_Energy>
71.0858

> <b_lp_Chiralities_Consistent>
1

> <s_lp_Variant>
AV-unprocessed.smi:148-8

> <Gold.Version>
5.8.1

> <Gold.Id.Protein>
6NUR|6NUR_protein|mol2

> <Gold.PLP.Fitness>
46.3620

> <Gold.PLP.PLP>
-41.5111

> <Gold.PLP.part.hbond>
-3.0000

> <Gold.PLP.part.metal>
0.0000

> <Gold.PLP.part.buried>
-9.3050

> <Gold.PLP.part.nonpolar>
-33.4988

> <Gold.PLP.part.repulsive>
4.4263

> <Gold.PLP.ligand.clash>
0.0000

> <Gold.PLP.ligand.torsion>
2.4463

> <Gold.PLP.Chemscore.Hbond>
2.9175

> <Gold.PLP.Chemscore.CHOScore>
0.0000

> <Gold.PLP.Chemscore.Metal>
0.0000

> <Gold.Chemscore.Hbonds>
donor molecule, donor type, donor heavy atom, donor atom, acceptor molecule, acceptor atom, score
      L1  H     1    31       P1  8028  0.98
      L1  H    21    55       P1  7921  1.00
      P1  H 10752 10764       L1    29  0.63

> <Gold.PLP.Chemscore.Internal.Correction>
0.9911

> <Gold.Rescore>
     Score         DG    S(hbond)    S(metal)    S(lipo)     H(rot)  DE(clash)    DE(int)     intcor
      9.50     -14.90       2.35        0.00      86.07       3.32       0.37       5.03       ----

> <Gold.Chemscore.Fitness>
9.5040

> <Gold.Chemscore.DG>
-14.8957

> <Gold.Chemscore.ZeroCoef>
-5.4800

> <Gold.Chemscore.Hbond>
2.3488

> <Gold.Chemscore.Metal>
0.0000

> <Gold.Chemscore.Lipo>
86.0746

> <Gold.Chemscore.Internal_Hbond>
0.0000

> <Gold.Chemscore.DEClash>
0.3663

> <Gold.Chemscore.DEInternal>
5.0254

> <Gold.Chemscore.Rot>
3.3203

> <Gold.Chemscore.Internal.Correction>
   9.000000E+99

> <Gold.Chemscore.Hbonds>
donor molecule, donor type, donor heavy atom, donor atom, acceptor molecule, acceptor atom, score
      L1  H     1    31       P1  8028  0.91
      L1  H    21    55       P1  7921  1.00
      P1  H 10752 10764       L1    29  0.27

> <Gold.Chemscore.Hbond.Weighted>
-7.8450

> <Gold.Chemscore.Metal.Weighted>
-0.0000

> <Gold.Chemscore.Lipo.Weighted>
-10.0707

> <Gold.Chemscore.Internal_Hbond.Weighted>
0.0000

> <Gold.Chemscore.DEClash.Weighted>
0.3663

> <Gold.Chemscore.DEInternal.Weighted>
5.0254

> <Gold.Chemscore.Rot.Weighted>
8.5000

> <Gold.Chemscore.Internal.Correction.Weighted>
   9.000000E+99

> <Gold.Protein.RotatedTorsions>
[ 6907 6896 6895 6894 ] final  143.43 input  -60.11 | X-H torsion
[ 7974 7965 7964 7962 ] final  -38.29 input  175.53 | X-H torsion
[ 8008 7997 7996 7995 ] final  162.97 input   59.86 | X-H torsion
[ 10167 10162 10161 10158 ] final  -79.34 input  -65.29 | X-H torsion
[ 10718 10713 10712 10709 ] final  -56.90 input   66.30 | X-H torsion
[ 10763 10752 10751 10750 ] final  -76.80 input  -60.55 | X-H torsion
[ 11005 11000 10999 10996 ] final   21.67 input  -57.11 | X-H torsion

> <Gold.Protein.ActiveResidues>
 VAL166  LYS551  ARG553  GLY616  TRP617  ASP618  TYR619  PRO620  LYS621  CYS622 
 ASP623  PHE694  ASN695  SER759  ASP760  ASP761  ALA762  ILE779  LEU786  VAL792 
 PHE793  MET794  SER795  GLU796  ALA797  LYS798  CYS799  TRP800  GLU811  SER814 

> <Gold.Protein.RotatedAtoms>
  152.2063  133.4878  159.5085 H   0  0  0  0  0  0  0  0  0  0  0  0  # atno 6907 bound_to 6896
  150.6980  134.1525  159.4154 H   0  0  0  0  0  0  0  0  0  0  0  0  # atno 6908 bound_to 6896
  151.9443  135.0198  160.0588 H   0  0  0  0  0  0  0  0  0  0  0  0  # atno 6909 bound_to 6896
  146.0500  140.6494  142.9046 H   0  0  0  0  0  0  0  0  0  0  0  0  # atno 7974 bound_to 7965
  156.1992  140.1736  156.7934 H   0  0  0  0  0  0  0  0  0  0  0  0  # atno 8008 bound_to 7997
  154.5569  140.0707  156.8789 H   0  0  0  0  0  0  0  0  0  0  0  0  # atno 8009 bound_to 7997
  155.2921  140.3356  155.4254 H   0  0  0  0  0  0  0  0  0  0  0  0  # atno 8010 bound_to 7997
  140.4602  143.2456  151.8359 H   0  0  0  0  0  0  0  0  0  0  0  0  # atno 10167 bound_to 10162
  156.1252  130.4163  150.0368 H   0  0  0  0  0  0  0  0  0  0  0  0  # atno 10718 bound_to 10713
  154.5045  135.5785  153.6557 H   0  0  0  0  0  0  0  0  0  0  0  0  # atno 10763 bound_to 10752
  152.9885  135.6144  154.2959 H   0  0  0  0  0  0  0  0  0  0  0  0  # atno 10764 bound_to 10752
  154.2869  135.2849  155.2652 H   0  0  0  0  0  0  0  0  0  0  0  0  # atno 10765 bound_to 10752
  140.3890  134.1839  155.7662 H   0  0  0  0  0  0  0  0  0  0  0  0  # atno 11005 bound_to 11000
  144.7117  140.4064  143.7075 LP  0  0  0  0  0  0  0  0  0  0  0  0  # atno 17320 bound_to 7965
  145.6741  139.1605  143.2738 LP  0  0  0  0  0  0  0  0  0  0  0  0  # atno 17321 bound_to 7965
  139.4805  144.5016  151.9052 LP  0  0  0  0  0  0  0  0  0  0  0  0  # atno 17342 bound_to 10162
  140.4102  144.2379  150.5889 LP  0  0  0  0  0  0  0  0  0  0  0  0  # atno 17343 bound_to 10162
  156.8295  130.9387  151.3638 LP  0  0  0  0  0  0  0  0  0  0  0  0  # atno 17370 bound_to 10713
  157.6434  130.8824  149.9492 LP  0  0  0  0  0  0  0  0  0  0  0  0  # atno 17371 bound_to 10713
  141.1897  133.8232  157.0946 LP  0  0  0  0  0  0  0  0  0  0  0  0  # atno 17394 bound_to 11000
  140.0421  134.9849  157.0980 LP  0  0  0  0  0  0  0  0  0  0  0  0  # atno 17395 bound_to 11000

$$$$
