AV-unprocessed.smi:1824|AV-procd|sdf|7405|dock5
  -GOLD-   22720 9 83D 1   1.00000     0.00000
 Structure written by MMmdl.
 45 47  0  0  0  0  0  0  0  0  2 V2000
  146.0435  132.9049  154.5326 C   0  0  0  0  0  0  0  0  0  0  0  0
  146.2054  133.7933  153.2944 C   0  0  2  0  0  0  0  0  0  0  0  0
  146.0051  135.2858  153.6193 C   0  0  0  0  0  0  0  0  0  0  0  0
  146.0947  136.1006  152.3828 N   0  3  2  0  0  0  0  0  0  0  0  0
  145.9724  137.5618  152.6202 C   0  0  0  0  0  0  0  0  0  0  0  0
  147.3419  138.2675  152.6640 C   0  0  1  0  0  0  0  0  0  0  0  0
  147.6513  138.7382  151.3656 O   0  0  0  0  0  0  0  0  0  0  0  0
  147.3487  139.4486  153.6538 C   0  0  0  0  0  0  0  0  0  0  0  0
  148.6531  139.6606  154.2563 N   0  0  0  0  0  0  0  0  0  0  0  0
  149.8206  139.1075  153.8749 C   0  0  0  0  0  0  0  0  0  0  0  0
  150.9079  139.4432  154.5628 N   0  0  0  0  0  0  0  0  0  0  0  0
  150.3865  140.3162  155.5023 C   0  0  0  0  0  0  0  0  0  0  0  0
  151.0227  141.0341  156.5399 C   0  0  0  0  0  0  0  0  0  0  0  0
  150.2761  141.8802  157.3860 C   0  0  0  0  0  0  0  0  0  0  0  0
  150.9018  142.5623  158.3745 F   0  0  0  0  0  0  0  0  0  0  0  0
  148.8836  142.0198  157.2082 C   0  0  0  0  0  0  0  0  0  0  0  0
  148.1741  142.8341  158.0248 F   0  0  0  0  0  0  0  0  0  0  0  0
  148.2277  141.3139  156.1814 C   0  0  0  0  0  0  0  0  0  0  0  0
  148.9768  140.4720  155.3389 C   0  0  0  0  0  0  0  0  0  0  0  0
  145.1342  135.6049  151.3694 C   0  0  0  0  0  0  0  0  0  0  0  0
  145.3575  134.1041  151.1039 C   0  0  2  0  0  0  0  0  0  0  0  0
  144.3348  133.5323  150.1158 C   0  0  0  0  0  0  0  0  0  0  0  0
  145.2363  133.3933  152.3313 O   0  0  0  0  0  0  0  0  0  0  0  0
  146.7711  133.1661  155.3014 H   0  0  0  0  0  0  0  0  0  0  0  0
  146.1903  131.8543  154.2803 H   0  0  0  0  0  0  0  0  0  0  0  0
  145.0477  133.0067  154.9648 H   0  0  0  0  0  0  0  0  0  0  0  0
  147.2052  133.6371  152.8850 H   0  0  0  0  0  0  0  0  0  0  0  0
  145.0321  135.4410  154.0883 H   0  0  0  0  0  0  0  0  0  0  0  0
  146.7593  135.6029  154.3389 H   0  0  0  0  0  0  0  0  0  0  0  0
  145.3740  138.0158  151.8285 H   0  0  0  0  0  0  0  0  0  0  0  0
  145.4232  137.7301  153.5481 H   0  0  0  0  0  0  0  0  0  0  0  0
  148.1195  137.5649  152.9624 H   0  0  0  0  0  0  0  0  0  0  0  0
  148.3045  139.4177  151.4363 H   0  0  0  0  0  0  0  0  0  0  0  0
  147.0380  140.3693  153.1582 H   0  0  0  0  0  0  0  0  0  0  0  0
  146.6298  139.2705  154.4548 H   0  0  0  0  0  0  0  0  0  0  0  0
  149.8760  138.4209  153.0425 H   0  0  0  0  0  0  0  0  0  0  0  0
  152.0880  140.9355  156.6856 H   0  0  0  0  0  0  0  0  0  0  0  0
  147.1623  141.4211  156.0435 H   0  0  0  0  0  0  0  0  0  0  0  0
  144.1147  135.7818  151.7168 H   0  0  0  0  0  0  0  0  0  0  0  0
  145.2590  136.1633  150.4407 H   0  0  0  0  0  0  0  0  0  0  0  0
  146.3577  133.9476  150.6957 H   0  0  0  0  0  0  0  0  0  0  0  0
  144.3958  134.0373  149.1516 H   0  0  0  0  0  0  0  0  0  0  0  0
  143.3166  133.6459  150.4897 H   0  0  0  0  0  0  0  0  0  0  0  0
  144.5097  132.4698  149.9453 H   0  0  0  0  0  0  0  0  0  0  0  0
  147.0159  135.9524  151.9950 H   0  0  0  0  0  0  0  0  0  0  0  0
  1  2  1  0  0  0  0
  1 24  1  0  0  0  0
  1 25  1  0  0  0  0
  1 26  1  0  0  0  0
  2 23  1  0  0  0  0
  2  3  1  0  0  0  0
  2 27  1  0  0  0  0
  3  4  1  0  0  0  0
  3 28  1  0  0  0  0
  3 29  1  0  0  0  0
  4  5  1  0  0  0  0
  4 20  1  0  0  0  0
  4 45  1  0  0  0  0
  5  6  1  0  0  0  0
  5 30  1  0  0  0  0
  5 31  1  0  0  0  0
  6  7  1  0  0  0  0
  6  8  1  0  0  0  0
  6 32  1  0  0  0  0
  7 33  1  0  0  0  0
  8  9  1  0  0  0  0
  8 34  1  0  0  0  0
  8 35  1  0  0  0  0
  9 19  1  0  0  0  0
  9 10  1  0  0  0  0
 10 11  2  0  0  0  0
 10 36  1  0  0  0  0
 11 12  1  0  0  0  0
 12 19  2  0  0  0  0
 12 13  1  0  0  0  0
 13 14  2  0  0  0  0
 13 37  1  0  0  0  0
 14 15  1  0  0  0  0
 14 16  1  0  0  0  0
 16 17  1  0  0  0  0
 16 18  2  0  0  0  0
 18 19  1  0  0  0  0
 18 38  1  0  0  0  0
 20 21  1  0  0  0  0
 20 39  1  0  0  0  0
 20 40  1  0  0  0  0
 21 22  1  0  0  0  0
 21 23  1  0  0  0  0
 21 41  1  0  0  0  0
 22 42  1  0  0  0  0
 22 43  1  0  0  0  0
 22 44  1  0  0  0  0
M  CHG  1   4   1
M  END
> <s_m_source_file>
AV-unprocessed.smi

> <i_m_source_file_index>
1824

> <i_lp_mmshare_version>
43012

> <i_f3d_flags>
0

> <s_epik_input>
W0NIM11bQ0BASF0xW0NIMl1OKFtDSDJdW0NASF0oTzEpW0NIM10pW0NIMl1bQ0BIXShbT0hdKVtDSDJdbihbY0hdbjIpYyhjMjMpW2NIXWMoRiljKEYpW2NIXTM=

> <s_epik_cmdline>
J2VwaWtfcHl0aG9uJywgJy1waCcsICc3LjAnLCAnLXRuJywgJzgnLCAnLW1hJywgJzIwMCcsICctbWV0YWxfYmluZGluZycsICctaW1hZScsICc8aW5maWxlLm1hZT4nLCAnLW9tYWUnLCAnPG91dGZpbGUubWFlPic=

> <r_epik_Ionization_Penalty>
0.61967

> <r_epik_Ionization_Penalty_Charging>
0.608065

> <r_epik_Ionization_Penalty_Neutral>
0.0116057

> <r_epik_State_Penalty>
0.664205

> <r_epik_Charging_Adjusted_Penalty>
1.27227

> <i_epik_Tot_Q>
1

> <i_epik_Tot_abs_Q>
1

> <r_epik_Metal_State_Penalty>
0.654947

> <b_epik_Metal_Only>
0

> <s_lp_Force_Field>
OPLS_2005

> <r_lp_Energy>
20.1531

> <b_lp_Chiralities_Consistent>
1

> <s_lp_Variant>
AV-unprocessed.smi:1824-13

> <Gold.Version>
5.8.1

> <Gold.Id.Protein>
6NUR|6NUR_protein|mol2

> <Gold.PLP.Fitness>
48.1342

> <Gold.PLP.PLP>
-33.8087

> <Gold.PLP.part.hbond>
-4.7044

> <Gold.PLP.part.metal>
0.0000

> <Gold.PLP.part.buried>
0.1827

> <Gold.PLP.part.nonpolar>
-29.4435

> <Gold.PLP.part.repulsive>
0.2224

> <Gold.PLP.ligand.clash>
0.0000

> <Gold.PLP.ligand.torsion>
1.5443

> <Gold.PLP.Chemscore.Hbond>
4.7280

> <Gold.PLP.Chemscore.CHOScore>
1.0689

> <Gold.PLP.Chemscore.Metal>
0.0000

> <Gold.Chemscore.Hbonds>
donor molecule, donor type, donor heavy atom, donor atom, acceptor molecule, acceptor atom, score
      L1  H     4    45       P1  7948  2.00
      L1  H     7    33       P1  7957  0.75
      P1  H  7954  7966       L1     7  0.86
      P1  H  7989  7998       L1    11  0.65
      L1  C    10    36       P1  7948  0.81
      L1  C    10    36       P1  7957  0.41

> <Gold.PLP.Chemscore.Internal.Correction>
0.0231

> <Gold.Rescore>
     Score         DG    S(hbond)    S(metal)    S(lipo)     H(rot)  DE(clash)    DE(int)     intcor
     14.17     -17.67       2.88        0.00      72.87       2.33       1.86       1.64       ----

> <Gold.Chemscore.Fitness>
14.1689

> <Gold.Chemscore.DG>
-17.6728

> <Gold.Chemscore.ZeroCoef>
-5.4800

> <Gold.Chemscore.Hbond>
2.8800

> <Gold.Chemscore.Metal>
0.0000

> <Gold.Chemscore.Lipo>
72.8721

> <Gold.Chemscore.Internal_Hbond>
0.0000

> <Gold.Chemscore.DEClash>
1.8649

> <Gold.Chemscore.DEInternal>
1.6390

> <Gold.Chemscore.Rot>
2.3251

> <Gold.Chemscore.Internal.Correction>
   9.000000E+99

> <Gold.Chemscore.Hbonds>
donor molecule, donor type, donor heavy atom, donor atom, acceptor molecule, acceptor atom, score
      L1  H     4    45       P1  7948  0.98
      L1  H     7    33       P1  7957  0.68
      P1  H  7954  7966       L1     7  0.25
      P1  H  7989  7998       L1    11  0.02

> <Gold.Chemscore.Hbond.Weighted>
-9.6191

> <Gold.Chemscore.Metal.Weighted>
-0.0000

> <Gold.Chemscore.Lipo.Weighted>
-8.5260

> <Gold.Chemscore.Internal_Hbond.Weighted>
0.0000

> <Gold.Chemscore.DEClash.Weighted>
1.8649

> <Gold.Chemscore.DEInternal.Weighted>
1.6390

> <Gold.Chemscore.Rot.Weighted>
5.9523

> <Gold.Chemscore.Internal.Correction.Weighted>
   9.000000E+99

> <Gold.Protein.RotatedTorsions>
[ 6907 6896 6895 6894 ] final -115.57 input  -60.11 | X-H torsion
[ 7974 7965 7964 7962 ] final   93.37 input  175.53 | X-H torsion
[ 8008 7997 7996 7995 ] final  -62.40 input   59.86 | X-H torsion
[ 10167 10162 10161 10158 ] final -162.40 input  -65.29 | X-H torsion
[ 10718 10713 10712 10709 ] final  119.74 input   66.30 | X-H torsion
[ 10763 10752 10751 10750 ] final  -54.32 input  -60.55 | X-H torsion
[ 11005 11000 10999 10996 ] final  -22.46 input  -57.11 | X-H torsion

> <Gold.Protein.ActiveResidues>
 VAL166  LYS551  ARG553  GLY616  TRP617  ASP618  TYR619  PRO620  LYS621  CYS622 
 ASP623  PHE694  ASN695  SER759  ASP760  ASP761  ALA762  ILE779  LEU786  VAL792 
 PHE793  MET794  SER795  GLU796  ALA797  LYS798  CYS799  TRP800  GLU811  SER814 

> <Gold.Protein.RotatedAtoms>
  150.7988  133.8639  159.3239 H   0  0  0  0  0  0  0  0  0  0  0  0  # atno 6907 bound_to 6896
  151.6457  135.1006  160.0160 H   0  0  0  0  0  0  0  0  0  0  0  0  # atno 6908 bound_to 6896
  152.4073  133.6870  159.6403 H   0  0  0  0  0  0  0  0  0  0  0  0  # atno 6909 bound_to 6896
  145.4798  139.2279  143.2888 H   0  0  0  0  0  0  0  0  0  0  0  0  # atno 7974 bound_to 7965
  154.4498  140.0997  156.6582 H   0  0  0  0  0  0  0  0  0  0  0  0  # atno 8008 bound_to 7997
  155.5323  140.3481  155.4410 H   0  0  0  0  0  0  0  0  0  0  0  0  # atno 8009 bound_to 7997
  156.0656  140.1337  156.9879 H   0  0  0  0  0  0  0  0  0  0  0  0  # atno 8010 bound_to 7997
  139.6395  144.0286  152.2081 H   0  0  0  0  0  0  0  0  0  0  0  0  # atno 10167 bound_to 10162
  157.5940  131.1060  150.7939 H   0  0  0  0  0  0  0  0  0  0  0  0  # atno 10718 bound_to 10713
  154.1729  135.6456  153.5014 H   0  0  0  0  0  0  0  0  0  0  0  0  # atno 10763 bound_to 10752
  153.0079  135.5388  154.6594 H   0  0  0  0  0  0  0  0  0  0  0  0  # atno 10764 bound_to 10752
  154.5938  135.2937  155.0580 H   0  0  0  0  0  0  0  0  0  0  0  0  # atno 10765 bound_to 10752
  140.8659  133.7755  156.0129 H   0  0  0  0  0  0  0  0  0  0  0  0  # atno 11005 bound_to 11000
  146.2347  140.5584  142.8960 LP  0  0  0  0  0  0  0  0  0  0  0  0  # atno 17320 bound_to 7965
  144.7895  140.6004  143.6551 LP  0  0  0  0  0  0  0  0  0  0  0  0  # atno 17321 bound_to 7965
  139.9972  144.6319  150.7761 LP  0  0  0  0  0  0  0  0  0  0  0  0  # atno 17342 bound_to 10162
  140.7483  143.2920  151.3304 LP  0  0  0  0  0  0  0  0  0  0  0  0  # atno 17343 bound_to 10162
  156.8354  130.5030  149.5327 LP  0  0  0  0  0  0  0  0  0  0  0  0  # atno 17370 bound_to 10713
  156.0999  130.5961  150.9877 LP  0  0  0  0  0  0  0  0  0  0  0  0  # atno 17371 bound_to 10713
  140.8629  134.2819  157.5226 LP  0  0  0  0  0  0  0  0  0  0  0  0  # atno 17394 bound_to 11000
  139.8709  134.9527  156.4124 LP  0  0  0  0  0  0  0  0  0  0  0  0  # atno 17395 bound_to 11000

$$$$
