AV-unprocessed.smi:2340|AV-procd|sdf|9349|dock9
  -GOLD-   2272012573D 1   1.00000     0.00000
 Structure written by MMmdl.
 40 41  0  0  0  0  0  0  0  0  1 V2000
  154.1770  140.2689  159.8964 C   0  0  0  0  0  0  0  0  0  0  0  0
  153.5925  141.5575  160.3825 C   0  0  0  0  0  0  0  0  0  0  0  0
  153.5301  141.9998  161.6803 C   0  0  0  0  0  0  0  0  0  0  0  0
  152.7678  143.5617  161.7977 S   0  0  0  0  0  0  0  0  0  0  0  0
  152.5572  143.5578  160.0485 C   0  0  0  0  0  0  0  0  0  0  0  0
  151.9263  144.6843  159.2858 C   0  0  1  0  0  0  0  0  0  0  0  0
  152.6223  144.9220  157.9383 C   0  0  0  0  0  0  0  0  0  0  0  0
  150.3970  144.5261  159.1346 C   0  0  0  0  0  0  0  0  0  0  0  0
  150.0194  143.7823  157.9359 N   0  0  0  0  0  0  0  0  0  0  0  0
  150.0757  142.4500  157.8091 C   0  0  0  0  0  0  0  0  0  0  0  0
  150.4235  141.6857  158.7091 O   0  0  0  0  0  0  0  0  0  0  0  0
  149.7107  142.0548  156.5817 N   0  0  0  0  0  0  0  0  0  0  0  0
  149.6820  140.6705  156.1098 C   0  0  2  0  0  0  0  0  0  0  0  0
  151.0999  140.1102  156.0109 C   0  0  0  0  0  0  0  0  0  0  0  0
  151.1643  139.5013  154.6143 C   0  0  0  0  0  0  0  0  0  0  0  0
  150.2700  140.3058  153.8666 O   0  0  0  0  0  0  0  0  0  0  0  0
  149.1226  140.5166  154.6763 C   0  0  2  0  0  0  0  0  0  0  0  0
  148.2835  141.6745  154.1118 C   0  0  0  0  0  0  0  0  0  0  0  0
  153.0352  142.4538  159.4668 N   0  0  0  0  0  0  0  0  0  0  0  0
  154.5278  139.6521  160.7242 H   0  0  0  0  0  0  0  0  0  0  0  0
  155.0257  140.4470  159.2354 H   0  0  0  0  0  0  0  0  0  0  0  0
  153.4407  139.6867  159.3418 H   0  0  0  0  0  0  0  0  0  0  0  0
  153.8856  141.5042  162.5715 H   0  0  0  0  0  0  0  0  0  0  0  0
  152.0915  145.5880  159.8748 H   0  0  0  0  0  0  0  0  0  0  0  0
  153.6858  145.1192  158.0758 H   0  0  0  0  0  0  0  0  0  0  0  0
  152.1919  145.7799  157.4210 H   0  0  0  0  0  0  0  0  0  0  0  0
  152.5262  144.0569  157.2819 H   0  0  0  0  0  0  0  0  0  0  0  0
  149.9711  144.0518  160.0202 H   0  0  0  0  0  0  0  0  0  0  0  0
  149.9331  145.5102  159.0616 H   0  0  0  0  0  0  0  0  0  0  0  0
  149.7199  144.3244  157.1387 H   0  0  0  0  0  0  0  0  0  0  0  0
  149.4377  142.7637  155.9171 H   0  0  0  0  0  0  0  0  0  0  0  0
  149.0951  140.0509  156.7905 H   0  0  0  0  0  0  0  0  0  0  0  0
  151.8420  140.9062  156.0896 H   0  0  0  0  0  0  0  0  0  0  0  0
  151.3183  139.3789  156.7893 H   0  0  0  0  0  0  0  0  0  0  0  0
  152.1699  139.5168  154.1934 H   0  0  0  0  0  0  0  0  0  0  0  0
  150.8090  138.4695  154.6218 H   0  0  0  0  0  0  0  0  0  0  0  0
  148.5260  139.6034  154.6359 H   0  0  0  0  0  0  0  0  0  0  0  0
  147.4056  141.8616  154.7305 H   0  0  0  0  0  0  0  0  0  0  0  0
  147.9341  141.4425  153.1058 H   0  0  0  0  0  0  0  0  0  0  0  0
  148.8602  142.5977  154.0523 H   0  0  0  0  0  0  0  0  0  0  0  0
  1  2  1  0  0  0  0
  1 20  1  0  0  0  0
  1 21  1  0  0  0  0
  1 22  1  0  0  0  0
  2 19  1  0  0  0  0
  2  3  2  0  0  0  0
  3  4  1  0  0  0  0
  3 23  1  0  0  0  0
  4  5  1  0  0  0  0
  5  6  1  0  0  0  0
  5 19  2  0  0  0  0
  6  7  1  0  0  0  0
  6  8  1  0  0  0  0
  6 24  1  0  0  0  0
  7 25  1  0  0  0  0
  7 26  1  0  0  0  0
  7 27  1  0  0  0  0
  8  9  1  0  0  0  0
  8 28  1  0  0  0  0
  8 29  1  0  0  0  0
  9 10  1  0  0  0  0
  9 30  1  0  0  0  0
 10 11  2  0  0  0  0
 10 12  1  0  0  0  0
 12 13  1  0  0  0  0
 12 31  1  0  0  0  0
 13 17  1  0  0  0  0
 13 14  1  0  0  0  0
 13 32  1  0  0  0  0
 14 15  1  0  0  0  0
 14 33  1  0  0  0  0
 14 34  1  0  0  0  0
 15 16  1  0  0  0  0
 15 35  1  0  0  0  0
 15 36  1  0  0  0  0
 16 17  1  0  0  0  0
 17 18  1  0  0  0  0
 17 37  1  0  0  0  0
 18 38  1  0  0  0  0
 18 39  1  0  0  0  0
 18 40  1  0  0  0  0
M  END
> <s_m_source_file>
AV-unprocessed.smi

> <i_m_source_file_index>
2340

> <i_lp_mmshare_version>
43012

> <i_f3d_flags>
0

> <s_epik_input>
W0NIM11jMVtjSF1zYyhuMSlbQ0BIXShbQ0gzXSlbQ0gyXVtOSF1DKD1PKVtOSF1bQ0BASF0yW0NIMl1bQ0gyXU9bQ0BIXTJbQ0gzXQ==

> <s_epik_cmdline>
J2VwaWtfcHl0aG9uJywgJy1waCcsICc3LjAnLCAnLXRuJywgJzgnLCAnLW1hJywgJzIwMCcsICctbWV0YWxfYmluZGluZycsICctaW1hZScsICc8aW5maWxlLm1hZT4nLCAnLW9tYWUnLCAnPG91dGZpbGUubWFlPic=

> <r_epik_Ionization_Penalty>
0.00156622

> <r_epik_Ionization_Penalty_Charging>
0

> <r_epik_Ionization_Penalty_Neutral>
0.00156622

> <r_epik_State_Penalty>
0.00101902

> <r_epik_Charging_Adjusted_Penalty>
0.00101902

> <i_epik_Tot_Q>
0

> <i_epik_Tot_abs_Q>
0

> <r_epik_Metal_State_Penalty>
-0

> <b_epik_Metal_Only>
0

> <s_lp_Force_Field>
OPLS_2005

> <r_lp_Energy>
5.61614

> <b_lp_Chiralities_Consistent>
1

> <s_lp_Variant>
AV-unprocessed.smi:2340-6

> <Gold.Version>
5.8.1

> <Gold.Id.Protein>
6NUR|6NUR_protein|mol2

> <Gold.PLP.Fitness>
53.8171

> <Gold.PLP.PLP>
-48.0558

> <Gold.PLP.part.hbond>
-4.6989

> <Gold.PLP.part.metal>
0.0000

> <Gold.PLP.part.buried>
-6.1694

> <Gold.PLP.part.nonpolar>
-38.5460

> <Gold.PLP.part.repulsive>
0.2078

> <Gold.PLP.ligand.clash>
0.0000

> <Gold.PLP.ligand.torsion>
1.1530

> <Gold.PLP.Chemscore.Hbond>
2.6578

> <Gold.PLP.Chemscore.CHOScore>
0.0000

> <Gold.PLP.Chemscore.Metal>
0.0000

> <Gold.Chemscore.Hbonds>
donor molecule, donor type, donor heavy atom, donor atom, acceptor molecule, acceptor atom, score
      L1  H     9    30       P1  8028  1.00
      L1  H    12    31       P1  8028  0.87

> <Gold.PLP.Chemscore.Internal.Correction>
0.0940

> <Gold.Rescore>
     Score         DG    S(hbond)    S(metal)    S(lipo)     H(rot)  DE(clash)    DE(int)     intcor
     19.70     -22.36       1.88        0.00     124.18       1.53       0.29       2.38       ----

> <Gold.Chemscore.Fitness>
19.6986

> <Gold.Chemscore.DG>
-22.3647

> <Gold.Chemscore.ZeroCoef>
-5.4800

> <Gold.Chemscore.Hbond>
1.8799

> <Gold.Chemscore.Metal>
0.0000

> <Gold.Chemscore.Lipo>
124.1801

> <Gold.Chemscore.Internal_Hbond>
0.0000

> <Gold.Chemscore.DEClash>
0.2855

> <Gold.Chemscore.DEInternal>
2.3806

> <Gold.Chemscore.Rot>
1.5325

> <Gold.Chemscore.Internal.Correction>
   9.000000E+99

> <Gold.Chemscore.Hbonds>
donor molecule, donor type, donor heavy atom, donor atom, acceptor molecule, acceptor atom, score
      L1  H     9    30       P1  8028  0.40
      L1  H    12    31       P1  8028  0.81

> <Gold.Chemscore.Hbond.Weighted>
-6.2790

> <Gold.Chemscore.Metal.Weighted>
-0.0000

> <Gold.Chemscore.Lipo.Weighted>
-14.5291

> <Gold.Chemscore.Internal_Hbond.Weighted>
0.0000

> <Gold.Chemscore.DEClash.Weighted>
0.2855

> <Gold.Chemscore.DEInternal.Weighted>
2.3806

> <Gold.Chemscore.Rot.Weighted>
3.9233

> <Gold.Chemscore.Internal.Correction.Weighted>
   9.000000E+99

> <Gold.Protein.RotatedTorsions>
[ 6907 6896 6895 6894 ] final  -85.88 input  -60.11 | X-H torsion
[ 7974 7965 7964 7962 ] final  164.66 input  175.53 | X-H torsion
[ 8008 7997 7996 7995 ] final  -37.11 input   59.86 | X-H torsion
[ 10167 10162 10161 10158 ] final   33.01 input  -65.29 | X-H torsion
[ 10718 10713 10712 10709 ] final  145.58 input   66.30 | X-H torsion
[ 10763 10752 10751 10750 ] final   78.17 input  -60.55 | X-H torsion
[ 11005 11000 10999 10996 ] final -114.88 input  -57.11 | X-H torsion

> <Gold.Protein.ActiveResidues>
 VAL166  LYS551  ARG553  GLY616  TRP617  ASP618  TYR619  PRO620  LYS621  CYS622 
 ASP623  PHE694  ASN695  SER759  ASP760  ASP761  ALA762  ILE779  LEU786  VAL792 
 PHE793  MET794  SER795  GLU796  ALA797  LYS798  CYS799  TRP800  GLU811  SER814 

> <Gold.Protein.RotatedAtoms>
  150.6868  134.3137  159.4756 H   0  0  0  0  0  0  0  0  0  0  0  0  # atno 6907 bound_to 6896
  152.1020  134.9332  160.0578 H   0  0  0  0  0  0  0  0  0  0  0  0  # atno 6908 bound_to 6896
  152.0608  133.4026  159.4454 H   0  0  0  0  0  0  0  0  0  0  0  0  # atno 6909 bound_to 6896
  144.7536  139.8358  143.6358 H   0  0  0  0  0  0  0  0  0  0  0  0  # atno 7974 bound_to 7965
  154.4060  140.1613  156.2483 H   0  0  0  0  0  0  0  0  0  0  0  0  # atno 8008 bound_to 7997
  155.9141  140.3425  155.6099 H   0  0  0  0  0  0  0  0  0  0  0  0  # atno 8009 bound_to 7997
  155.7300  140.0779  157.2283 H   0  0  0  0  0  0  0  0  0  0  0  0  # atno 8010 bound_to 7997
  140.4446  144.1137  150.6180 H   0  0  0  0  0  0  0  0  0  0  0  0  # atno 10167 bound_to 10162
  157.3435  131.0939  151.1062 H   0  0  0  0  0  0  0  0  0  0  0  0  # atno 10718 bound_to 10713
  153.0854  135.4887  154.8586 H   0  0  0  0  0  0  0  0  0  0  0  0  # atno 10763 bound_to 10752
  154.7204  135.3038  154.9059 H   0  0  0  0  0  0  0  0  0  0  0  0  # atno 10764 bound_to 10752
  153.9725  135.6799  153.4800 H   0  0  0  0  0  0  0  0  0  0  0  0  # atno 10765 bound_to 10752
  141.0523  133.9667  157.2814 H   0  0  0  0  0  0  0  0  0  0  0  0  # atno 11005 bound_to 11000
  146.1517  139.4603  143.0044 LP  0  0  0  0  0  0  0  0  0  0  0  0  # atno 17320 bound_to 7965
  145.6858  141.0178  143.1582 LP  0  0  0  0  0  0  0  0  0  0  0  0  # atno 17321 bound_to 7965
  140.4278  143.2582  151.9634 LP  0  0  0  0  0  0  0  0  0  0  0  0  # atno 17342 bound_to 10162
  139.4792  144.5772  151.7992 LP  0  0  0  0  0  0  0  0  0  0  0  0  # atno 17343 bound_to 10162
  157.2264  130.6505  149.5832 LP  0  0  0  0  0  0  0  0  0  0  0  0  # atno 17370 bound_to 10713
  155.9711  130.4612  150.6102 LP  0  0  0  0  0  0  0  0  0  0  0  0  # atno 17371 bound_to 10713
  139.9361  135.0196  156.8560 LP  0  0  0  0  0  0  0  0  0  0  0  0  # atno 17394 bound_to 11000
  140.6031  134.0153  155.7545 LP  0  0  0  0  0  0  0  0  0  0  0  0  # atno 17395 bound_to 11000

$$$$
