#       Name:                AV-unprocessed.smi:1696
#       Creating user name   scv26
#       Creation time:       Fri Mar 27 07:57:01 2020


#       File generated by GOLD software.
#

@<TRIPOS>MOLECULE
AV-unprocessed.smi:1696
    42    43     1
SMALL
NO_CHARGES


@<TRIPOS>ATOM
      1 ****        -0.4820   2.6714  -1.6688 C.3            1 S1                 0.0000
      2 ****        -0.8889   1.7244  -0.5286 C.3            1 S1                 0.0000
      3 ****        -0.4182   0.2546  -0.7024 C.3            1 S1                 0.0000
      4 ****         1.1298   0.1297  -0.7241 C.3            1 S1                 0.0000
      5 ****         1.7610   0.7277   0.4478 N.am           1 S1                 0.0000
      6 ****         1.7771   0.1994   1.6795 C.2            1 S1                 0.0000
      7 ****         1.2385  -0.8904   1.8872 O.2            1 S1                 0.0000
      8 ****         2.4089   0.9696   2.5927 N.pl3          1 S1                -1.0000
      9 ****         2.4900   0.5651   3.8707 C.2            1 S1                 0.0000
     10 ****         3.5725  -0.0343   4.3794 N.2            1 S1                 0.0000
     11 ****         3.4410  -0.3650   5.7294 C.2            1 S1                 0.0000
     12 ****         2.2334  -0.0006   6.2632 C.2            1 S1                 0.0000
     13 ****         1.2189   0.7725   5.0789 S.3            1 S1                 0.0000
     14 ****        -1.0270  -0.3925  -1.9012 N.4            1 S1                 1.0000
     15 ****        -0.6829  -1.8249  -2.0908 C.3            1 S1                 0.0000
     16 ****        -1.9231  -2.5209  -2.6697 C.3            1 S1                 0.0000
     17 ****        -2.8932  -1.3905  -2.9943 C.3            1 S1                 0.0000
     18 ****        -2.4997  -0.3008  -2.0043 C.3            1 S1                 0.0000
     19 ****        -0.8803   3.6714  -1.4956 H              1 S1                 0.0000
     20 ****        -0.8614   2.3291  -2.6315 H              1 S1                 0.0000
     21 ****         0.6012   2.7642  -1.7464 H              1 S1                 0.0000
     22 ****        -0.4986   2.1239   0.4077 H              1 S1                 0.0000
     23 ****        -1.9711   1.7607  -0.4053 H              1 S1                 0.0000
     24 ****        -0.7858  -0.2975   0.1641 H              1 S1                 0.0000
     25 ****         1.4471  -0.9118  -0.7845 H              1 S1                 0.0000
     26 ****         1.5371   0.6141  -1.6113 H              1 S1                 0.0000
     27 ****         2.2182   1.6187   0.3196 H              1 S1                 0.0000
     28 ****         4.2596  -0.8578   6.2324 H              1 S1                 0.0000
     29 ****         1.8805  -0.1378   7.2741 H              1 S1                 0.0000
     30 ****         0.1716  -1.9070  -2.7633 H              1 S1                 0.0000
     31 ****        -0.4101  -2.2988  -1.1464 H              1 S1                 0.0000
     32 ****        -1.6912  -3.1300  -3.5441 H              1 S1                 0.0000
     33 ****        -2.3608  -3.1774  -1.9163 H              1 S1                 0.0000
     34 ****        -2.7273  -1.0406  -4.0142 H              1 S1                 0.0000
     35 ****        -3.9386  -1.6879  -2.9052 H              1 S1                 0.0000
     36 ****        -2.9509  -0.5055  -1.0318 H              1 S1                 0.0000
     37 ****        -2.8292   0.6846  -2.3345 H              1 S1                 0.0000
     38 ****        -0.6645   0.0904  -2.7106 H              1 S1                 0.0000
     39 ****         0.7910  -1.3779   1.1374 LP             1 S1                 0.0000
     40 ****         1.2492  -1.2865   2.8053 LP             1 S1                 0.0000
     41 ****         2.8158   1.8404   2.3169 LP             1 S1                 0.0000
     42 ****         4.3954  -0.2267   3.8448 LP             1 S1                 0.0000
@<TRIPOS>BOND
    1    1    2 1     
    2    1   19 1     
    3    1   20 1     
    4    1   21 1     
    5    2    3 1     
    6    2   22 1     
    7    2   23 1     
    8    3    4 1     
    9    3   14 1     
   10    3   24 1     
   11    4    5 1     
   12    4   25 1     
   13    4   26 1     
   14    5    6 am    
   15    5   27 1     
   16    6    7 2     
   17    6    8 1     
   18    8    9 1     
   19    9   13 1     
   20    9   10 2     
   21   10   11 1     
   22   11   12 2     
   23   11   28 1     
   24   12   13 1     
   25   12   29 1     
   26   14   18 1     
   27   14   15 1     
   28   14   38 1     
   29   15   16 1     
   30   15   30 1     
   31   15   31 1     
   32   16   17 1     
   33   16   32 1     
   34   16   33 1     
   35   17   18 1     
   36   17   34 1     
   37   17   35 1     
   38   18   36 1     
   39   18   37 1     
   40    7   39 1     
   41    7   40 1     
   42    8   41 1     
   43   10   42 1     
@<TRIPOS>SUBSTRUCTURE
      1 S1             1
@<TRIPOS>SET
LONE_PAIRS      STATIC     ATOMS    <user>   **** ""
4 39 40 41 42
DONOR_HYDROGENS      STATIC     ATOMS    <user>   **** ""
2 27 38
ATOM$BLUE        STATIC     ATOMS    COLORGROUP SYSTEM
4 39 40 41 42
ATOM$RED        STATIC     ATOMS    COLORGROUP SYSTEM
2 27 38
