#       Name:                AV-unprocessed.smi:3350
#       Creating user name   scv26
#       Creation time:       Fri Mar 27 19:37:18 2020


#       File generated by GOLD software.
#

@<TRIPOS>MOLECULE
AV-unprocessed.smi:3350
    46    47     1
SMALL
NO_CHARGES


@<TRIPOS>ATOM
      1 ****        -3.0483  -1.7193   1.0713 C.3            1 S1                 0.0000
      2 ****        -2.4664  -0.9594  -0.1281 C.3            1 S1                 0.0000
      3 ****        -2.9004  -1.5957  -1.4645 C.3            1 S1                 0.0000
      4 ****        -2.4734  -0.8191  -2.6150 N.pl3          1 S1                 0.0000
      5 ****        -3.0162   0.3482  -3.1089 C.2            1 S1                 0.0000
      6 ****        -2.2718   0.7149  -4.1933 C.2            1 S1                 0.0000
      7 ****        -1.2836  -0.3047  -4.2854 C.2            1 S1                 0.0000
      8 ****        -1.4089  -1.2237  -3.3419 N.2            1 S1                 0.0000
      9 ****        -1.0088  -0.9384  -0.0137 N.am           1 S1                 0.0000
     10 ****        -0.2276   0.1394  -0.1739 C.2            1 S1                 0.0000
     11 ****        -0.6477   1.2668  -0.4353 O.2            1 S1                 0.0000
     12 ****         1.0675  -0.1634  -0.0104 N.am           1 S1                 0.0000
     13 ****         2.1767   0.7873  -0.0638 C.3            1 S1                 0.0000
     14 ****         3.3935   0.1104  -0.7105 C.3            1 S1                 0.0000
     15 ****         2.5059   1.3527   1.3366 C.3            1 S1                 0.0000
     16 ****         2.8234   0.3192   2.4271 C.3            1 S1                 0.0000
     17 ****         2.3627   1.0316   3.6781 C.3            1 S1                 0.0000
     18 ****         1.1125   1.7413   3.1737 C.3            1 S1                 0.0000
     19 ****         1.4197   2.1306   1.8396 O.3            1 S1                 0.0000
     20 ****        -4.1380  -1.7284   1.0384 H              1 S1                 0.0000
     21 ****        -2.7519  -1.2541   2.0121 H              1 S1                 0.0000
     22 ****        -2.7073  -2.7550   1.0894 H              1 S1                 0.0000
     23 ****        -2.8599   0.0580  -0.0853 H              1 S1                 0.0000
     24 ****        -2.5111  -2.6117  -1.5514 H              1 S1                 0.0000
     25 ****        -3.9874  -1.6761  -1.5040 H              1 S1                 0.0000
     26 ****        -3.8735   0.8176  -2.6493 H              1 S1                 0.0000
     27 ****        -2.4102   1.5808  -4.8233 H              1 S1                 0.0000
     28 ****        -0.4852  -0.4040  -5.0057 H              1 S1                 0.0000
     29 ****        -0.5599  -1.8180   0.1949 H              1 S1                 0.0000
     30 ****         1.3050  -1.1229   0.1939 H              1 S1                 0.0000
     31 ****         1.9009   1.6243  -0.7078 H              1 S1                 0.0000
     32 ****         4.2329   0.8023  -0.7851 H              1 S1                 0.0000
     33 ****         3.1605  -0.2330  -1.7190 H              1 S1                 0.0000
     34 ****         3.7251  -0.7536  -0.1337 H              1 S1                 0.0000
     35 ****         3.3513   2.0374   1.2541 H              1 S1                 0.0000
     36 ****         2.2435  -0.5949   2.2986 H              1 S1                 0.0000
     37 ****         3.8787   0.0467   2.4565 H              1 S1                 0.0000
     38 ****         2.1648   0.3552   4.5098 H              1 S1                 0.0000
     39 ****         3.1093   1.7607   3.9956 H              1 S1                 0.0000
     40 ****         0.2676   1.0514   3.1492 H              1 S1                 0.0000
     41 ****         0.8357   2.5976   3.7890 H              1 S1                 0.0000
     42 ****        -0.8428  -2.0355  -3.1989 LP             1 S1                 0.0000
     43 ****        -1.6298   1.4223  -0.5414 LP             1 S1                 0.0000
     44 ****        -0.0068   2.0271  -0.5414 LP             1 S1                 0.0000
     45 ****         0.6164   1.9893   1.2610 LP             1 S1                 0.0000
     46 ****         1.6729   3.0980   1.8278 LP             1 S1                 0.0000
@<TRIPOS>BOND
    1    1    2 1     
    2    1   20 1     
    3    1   21 1     
    4    1   22 1     
    5    2    3 1     
    6    2    9 1     
    7    2   23 1     
    8    3    4 1     
    9    3   24 1     
   10    3   25 1     
   11    4    8 1     
   12    4    5 1     
   13    5    6 2     
   14    5   26 1     
   15    6    7 1     
   16    6   27 1     
   17    7    8 2     
   18    7   28 1     
   19    9   10 am    
   20    9   29 1     
   21   10   11 2     
   22   10   12 am    
   23   12   13 1     
   24   12   30 1     
   25   13   14 1     
   26   13   15 1     
   27   13   31 1     
   28   14   32 1     
   29   14   33 1     
   30   14   34 1     
   31   15   19 1     
   32   15   16 1     
   33   15   35 1     
   34   16   17 1     
   35   16   36 1     
   36   16   37 1     
   37   17   18 1     
   38   17   38 1     
   39   17   39 1     
   40   18   19 1     
   41   18   40 1     
   42   18   41 1     
   43    8   42 1     
   44   11   43 1     
   45   11   44 1     
   46   19   45 1     
   47   19   46 1     
@<TRIPOS>SUBSTRUCTURE
      1 S1             1
@<TRIPOS>SET
LONE_PAIRS      STATIC     ATOMS    <user>   **** ""
5 42 43 44 45 46
DONOR_HYDROGENS      STATIC     ATOMS    <user>   **** ""
2 29 30
ATOM$BLUE        STATIC     ATOMS    COLORGROUP SYSTEM
5 42 43 44 45 46
ATOM$RED        STATIC     ATOMS    COLORGROUP SYSTEM
2 29 30
