AV-unprocessed.smi:1258|AV-procd|sdf|5288|dock1
  -GOLD-   22720 4403D 1   1.00000     0.00000
 Structure written by MMmdl.
 33 34  0  0  0  0  0  0  0  0  1 V2000
  151.9703  145.6349  159.8920 C   0  0  0  0  0  0  0  0  0  0  0  0
  152.1840  144.2932  159.1768 C   0  0  1  0  0  0  0  0  0  0  0  0
  152.2031  143.1196  160.1746 C   0  0  0  0  0  0  0  0  0  0  0  0
  152.4145  141.7759  159.4596 C   0  0  0  0  0  0  0  0  0  0  0  0
  151.3514  141.5491  158.3740 C   0  0  0  0  0  0  0  0  0  0  0  0
  151.3250  142.7117  157.3652 C   0  0  1  0  0  0  0  0  0  0  0  0
  150.2666  142.4839  156.3867 N   0  0  0  0  0  0  0  0  0  0  0  0
  150.2341  141.4804  155.4957 C   0  0  0  0  0  0  0  0  0  0  0  0
  151.1203  140.6327  155.3925 O   0  0  0  0  0  0  0  0  0  0  0  0
  149.0121  141.4218  154.5797 C   0  0  0  0  0  0  0  0  0  0  0  0
  148.3399  140.1416  154.6940 N   0  0  0  0  0  0  0  0  0  0  0  0
  148.0496  139.2188  153.7745 C   0  0  0  0  0  0  0  0  0  0  0  0
  147.4297  138.1768  154.3073 N   0  0  0  0  0  0  0  0  0  0  0  0
  147.3473  138.5113  155.6488 N   0  0  0  0  0  0  0  0  0  0  0  0
  147.8863  139.6759  155.8845 N   0  0  0  0  0  0  0  0  0  0  0  0
  151.1188  144.0593  158.0877 C   0  0  0  0  0  0  0  0  0  0  0  0
  151.0085  145.6621  160.4049 H   0  0  0  0  0  0  0  0  0  0  0  0
  151.9944  146.4648  159.1855 H   0  0  0  0  0  0  0  0  0  0  0  0
  152.7488  145.8124  160.6346 H   0  0  0  0  0  0  0  0  0  0  0  0
  153.1585  144.3343  158.6881 H   0  0  0  0  0  0  0  0  0  0  0  0
  152.9932  143.2686  160.9115 H   0  0  0  0  0  0  0  0  0  0  0  0
  151.2648  143.0914  160.7302 H   0  0  0  0  0  0  0  0  0  0  0  0
  153.4074  141.7534  159.0088 H   0  0  0  0  0  0  0  0  0  0  0  0
  152.3854  140.9611  160.1837 H   0  0  0  0  0  0  0  0  0  0  0  0
  151.5494  140.6093  157.8571 H   0  0  0  0  0  0  0  0  0  0  0  0
  150.3724  141.4433  158.8442 H   0  0  0  0  0  0  0  0  0  0  0  0
  152.2866  142.7323  156.8485 H   0  0  0  0  0  0  0  0  0  0  0  0
  149.4921  143.1322  156.3973 H   0  0  0  0  0  0  0  0  0  0  0  0
  148.3152  142.2242  154.8277 H   0  0  0  0  0  0  0  0  0  0  0  0
  149.3154  141.5661  153.5421 H   0  0  0  0  0  0  0  0  0  0  0  0
  148.2935  139.3089  152.7262 H   0  0  0  0  0  0  0  0  0  0  0  0
  150.1250  144.0857  158.5376 H   0  0  0  0  0  0  0  0  0  0  0  0
  151.1509  144.8757  157.3648 H   0  0  0  0  0  0  0  0  0  0  0  0
  1  2  1  0  0  0  0
  1 17  1  0  0  0  0
  1 18  1  0  0  0  0
  1 19  1  0  0  0  0
  2 16  1  0  0  0  0
  2  3  1  0  0  0  0
  2 20  1  0  0  0  0
  3  4  1  0  0  0  0
  3 21  1  0  0  0  0
  3 22  1  0  0  0  0
  4  5  1  0  0  0  0
  4 23  1  0  0  0  0
  4 24  1  0  0  0  0
  5  6  1  0  0  0  0
  5 25  1  0  0  0  0
  5 26  1  0  0  0  0
  6  7  1  0  0  0  0
  6 16  1  0  0  0  0
  6 27  1  0  0  0  0
  7  8  1  0  0  0  0
  7 28  1  0  0  0  0
  8  9  2  0  0  0  0
  8 10  1  0  0  0  0
 10 11  1  0  0  0  0
 10 29  1  0  0  0  0
 10 30  1  0  0  0  0
 11 15  1  0  0  0  0
 11 12  1  0  0  0  0
 12 13  2  0  0  0  0
 12 31  1  0  0  0  0
 13 14  1  0  0  0  0
 14 15  2  0  0  0  0
 16 32  1  0  0  0  0
 16 33  1  0  0  0  0
M  END
> <s_m_source_file>
AV-unprocessed.smi

> <i_m_source_file_index>
1258

> <i_lp_mmshare_version>
43012

> <i_f3d_flags>
0

> <s_epik_input>
W0NIM11bQ0BASF0xW0NIMl1bQ0gyXVtDSDJdW0NASF0oW0NIMl0xKVtOSF1DKD1PKVtDSDJdbjJbY0hdbm5uMg==

> <s_epik_cmdline>
J2VwaWtfcHl0aG9uJywgJy1waCcsICc3LjAnLCAnLXRuJywgJzgnLCAnLW1hJywgJzIwMCcsICctbWV0YWxfYmluZGluZycsICctaW1hZScsICc8aW5maWxlLm1hZT4nLCAnLW9tYWUnLCAnPG91dGZpbGUubWFlPic=

> <r_lp_tautomer_probability>
1

> <r_epik_Ionization_Penalty>
5.03816e-07

> <r_epik_Ionization_Penalty_Charging>
0

> <r_epik_Ionization_Penalty_Neutral>
5.03816e-07

> <r_epik_State_Penalty>
-0

> <r_epik_Charging_Adjusted_Penalty>
0

> <i_epik_Tot_Q>
0

> <i_epik_Tot_abs_Q>
0

> <r_epik_Metal_State_Penalty>
-0

> <b_epik_Metal_Only>
0

> <s_lp_Force_Field>
OPLS_2005

> <r_lp_Energy>
10.5543

> <b_lp_Chiralities_Consistent>
1

> <s_lp_Variant>
AV-unprocessed.smi:1258-2

> <Gold.Version>
5.8.1

> <Gold.Id.Protein>
6NUR|6NUR_protein|mol2

> <Gold.PLP.Fitness>
41.6076

> <Gold.PLP.PLP>
-33.4973

> <Gold.PLP.part.hbond>
-2.0000

> <Gold.PLP.part.metal>
0.0000

> <Gold.PLP.part.buried>
-3.7600

> <Gold.PLP.part.nonpolar>
-27.9835

> <Gold.PLP.part.repulsive>
0.2518

> <Gold.PLP.ligand.clash>
0.0000

> <Gold.PLP.ligand.torsion>
0.0634

> <Gold.PLP.Chemscore.Hbond>
1.7440

> <Gold.PLP.Chemscore.CHOScore>
1.0000

> <Gold.PLP.Chemscore.Metal>
0.0000

> <Gold.Chemscore.Hbonds>
donor molecule, donor type, donor heavy atom, donor atom, acceptor molecule, acceptor atom, score
      L1  H     7    28       P1  8028  0.86
      P1  H  7989  7998       L1     9  0.86
      L1  C    12    31       P1  7957  1.00

> <Gold.PLP.Chemscore.Internal.Correction>
0.0050

> <Gold.Rescore>
     Score         DG    S(hbond)    S(metal)    S(lipo)     H(rot)  DE(clash)    DE(int)     intcor
     15.43     -15.51       1.51        0.00      84.47       1.92       0.04       0.04       ----

> <Gold.Chemscore.Fitness>
15.4316

> <Gold.Chemscore.DG>
-15.5138

> <Gold.Chemscore.ZeroCoef>
-5.4800

> <Gold.Chemscore.Hbond>
1.5145

> <Gold.Chemscore.Metal>
0.0000

> <Gold.Chemscore.Lipo>
84.4677

> <Gold.Chemscore.Internal_Hbond>
0.0000

> <Gold.Chemscore.DEClash>
0.0438

> <Gold.Chemscore.DEInternal>
0.0384

> <Gold.Chemscore.Rot>
1.9169

> <Gold.Chemscore.Internal.Correction>
   9.000000E+99

> <Gold.Chemscore.Hbonds>
donor molecule, donor type, donor heavy atom, donor atom, acceptor molecule, acceptor atom, score
      L1  H     7    28       P1  8028  0.85
      P1  H  7989  7998       L1     9  0.21

> <Gold.Chemscore.Hbond.Weighted>
-5.0584

> <Gold.Chemscore.Metal.Weighted>
-0.0000

> <Gold.Chemscore.Lipo.Weighted>
-9.8827

> <Gold.Chemscore.Internal_Hbond.Weighted>
0.0000

> <Gold.Chemscore.DEClash.Weighted>
0.0438

> <Gold.Chemscore.DEInternal.Weighted>
0.0384

> <Gold.Chemscore.Rot.Weighted>
4.9073

> <Gold.Chemscore.Internal.Correction.Weighted>
   9.000000E+99

> <Gold.Protein.RotatedTorsions>
[ 6907 6896 6895 6894 ] final  175.19 input  -60.11 | X-H torsion
[ 7974 7965 7964 7962 ] final    1.90 input  175.53 | X-H torsion
[ 8008 7997 7996 7995 ] final  -65.47 input   59.86 | X-H torsion
[ 10167 10162 10161 10158 ] final  -84.79 input  -65.29 | X-H torsion
[ 10718 10713 10712 10709 ] final  -10.49 input   66.30 | X-H torsion
[ 10763 10752 10751 10750 ] final  -83.58 input  -60.55 | X-H torsion
[ 11005 11000 10999 10996 ] final -176.09 input  -57.11 | X-H torsion

> <Gold.Protein.ActiveResidues>
 VAL166  LYS551  ARG553  GLY616  TRP617  ASP618  TYR619  PRO620  LYS621  CYS622 
 ASP623  PHE694  ASN695  SER759  ASP760  ASP761  ALA762  ILE779  LEU786  VAL792 
 PHE793  MET794  SER795  GLU796  ALA797  LYS798  CYS799  TRP800  GLU811  SER814 

> <Gold.Protein.RotatedAtoms>
  151.7402  133.3321  159.3363 H   0  0  0  0  0  0  0  0  0  0  0  0  # atno 6907 bound_to 6896
  150.7576  134.6285  159.6183 H   0  0  0  0  0  0  0  0  0  0  0  0  # atno 6908 bound_to 6896
  152.3535  134.6974  160.0280 H   0  0  0  0  0  0  0  0  0  0  0  0  # atno 6909 bound_to 6896
  146.2442  140.0917  142.8352 H   0  0  0  0  0  0  0  0  0  0  0  0  # atno 7974 bound_to 7965
  154.4674  140.0932  156.7055 H   0  0  0  0  0  0  0  0  0  0  0  0  # atno 8008 bound_to 7997
  155.4821  140.3468  155.4323 H   0  0  0  0  0  0  0  0  0  0  0  0  # atno 8009 bound_to 7997
  156.0979  140.1414  156.9495 H   0  0  0  0  0  0  0  0  0  0  0  0  # atno 8010 bound_to 7997
  140.4099  143.2627  151.9031 H   0  0  0  0  0  0  0  0  0  0  0  0  # atno 10167 bound_to 10162
  156.6728  130.5014  149.5995 H   0  0  0  0  0  0  0  0  0  0  0  0  # atno 10718 bound_to 10713
  154.5894  135.5551  153.7264 H   0  0  0  0  0  0  0  0  0  0  0  0  # atno 10763 bound_to 10752
  153.0111  135.6339  154.1870 H   0  0  0  0  0  0  0  0  0  0  0  0  # atno 10764 bound_to 10752
  154.1811  135.2887  155.3032 H   0  0  0  0  0  0  0  0  0  0  0  0  # atno 10765 bound_to 10752
  140.4560  134.6299  157.4822 H   0  0  0  0  0  0  0  0  0  0  0  0  # atno 11005 bound_to 11000
  145.0645  140.9111  143.4919 LP  0  0  0  0  0  0  0  0  0  0  0  0  # atno 17320 bound_to 7965
  145.1039  139.2803  143.5672 LP  0  0  0  0  0  0  0  0  0  0  0  0  # atno 17321 bound_to 7965
  139.4783  144.5547  151.8332 LP  0  0  0  0  0  0  0  0  0  0  0  0  # atno 17342 bound_to 10162
  140.4649  144.1670  150.5910 LP  0  0  0  0  0  0  0  0  0  0  0  0  # atno 17343 bound_to 10162
  156.1926  130.6569  151.1078 LP  0  0  0  0  0  0  0  0  0  0  0  0  # atno 17370 bound_to 10713
  157.7071  131.0751  150.6629 LP  0  0  0  0  0  0  0  0  0  0  0  0  # atno 17371 bound_to 10713
  139.9976  134.6887  155.9584 LP  0  0  0  0  0  0  0  0  0  0  0  0  # atno 17394 bound_to 11000
  141.1643  133.6537  156.4424 LP  0  0  0  0  0  0  0  0  0  0  0  0  # atno 17395 bound_to 11000

$$$$
