AV-unprocessed.smi:2855|AV-procd|sdf|10986|dock10
  -GOLD-   2272015443D 1   1.00000     0.00000
 Structure written by MMmdl.
 46 47  0  0  0  0  0  0  0  0  2 V2000
  152.6217  138.9892  154.6967 C   0  0  0  0  0  0  0  0  0  0  0  0
  151.2635  138.6556  155.3301 C   0  0  1  0  0  0  0  0  0  0  0  0
  150.7802  139.7872  156.2593 C   0  0  0  0  0  0  0  0  0  0  0  0
  149.3869  139.4880  156.8439 C   0  0  0  0  0  0  0  0  0  0  0  0
  148.3263  139.2647  155.7362 C   0  0  1  0  0  0  0  0  0  0  0  0
  147.9811  140.5705  154.9356 C   0  0  0  0  0  0  0  0  0  0  0  0
  146.7988  140.3773  153.9637 C   0  0  0  0  0  0  0  0  0  0  0  0
  149.1651  141.1363  154.1272 C   0  0  0  0  0  0  0  0  0  0  0  0
  148.8311  138.0473  154.9008 C   0  0  1  0  0  0  0  0  0  0  0  0
  147.8835  137.5548  153.9056 N   0  0  0  0  0  0  0  0  0  0  0  0
  146.5668  137.3806  154.0976 C   0  0  0  0  0  0  0  0  0  0  0  0
  146.0038  137.6106  155.1687 O   0  0  0  0  0  0  0  0  0  0  0  0
  145.7780  136.8372  152.8987 C   0  0  0  0  0  0  0  0  0  0  0  0
  144.4221  136.3929  153.2592 N   0  0  0  0  0  0  0  0  0  0  0  0
  143.3377  137.1562  152.7915 C   0  0  0  0  0  0  0  0  0  0  0  0
  142.0623  136.8226  153.0668 C   0  0  0  0  0  0  0  0  0  0  0  0
  141.8190  135.6328  153.8730 C   0  0  0  0  0  0  0  0  0  0  0  0
  140.6612  135.3139  154.1359 O   0  0  0  0  0  0  0  0  0  0  0  0
  142.9042  134.9239  154.3015 N   0  5  0  0  0  0  0  0  0  0  0  0
  144.1959  135.2757  154.0142 C   0  0  0  0  0  0  0  0  0  0  0  0
  145.1602  134.6233  154.4149 O   0  0  0  0  0  0  0  0  0  0  0  0
  150.2042  138.3264  154.2584 C   0  0  0  0  0  0  0  0  0  0  0  0
  152.5579  139.8761  154.0656 H   0  0  0  0  0  0  0  0  0  0  0  0
  152.9795  138.1655  154.0784 H   0  0  0  0  0  0  0  0  0  0  0  0
  153.3755  139.1786  155.4615 H   0  0  0  0  0  0  0  0  0  0  0  0
  151.4004  137.7637  155.9433 H   0  0  0  0  0  0  0  0  0  0  0  0
  151.4922  139.9230  157.0741 H   0  0  0  0  0  0  0  0  0  0  0  0
  150.7591  140.7326  155.7168 H   0  0  0  0  0  0  0  0  0  0  0  0
  149.4535  138.5898  157.4596 H   0  0  0  0  0  0  0  0  0  0  0  0
  149.0878  140.2709  157.5387 H   0  0  0  0  0  0  0  0  0  0  0  0
  147.4110  138.9593  156.2452 H   0  0  0  0  0  0  0  0  0  0  0  0
  147.6762  141.3460  155.6367 H   0  0  0  0  0  0  0  0  0  0  0  0
  146.9748  139.5420  153.2852 H   0  0  0  0  0  0  0  0  0  0  0  0
  146.6365  141.2670  153.3548 H   0  0  0  0  0  0  0  0  0  0  0  0
  145.8616  140.1989  154.4896 H   0  0  0  0  0  0  0  0  0  0  0  0
  149.6271  140.3655  153.5096 H   0  0  0  0  0  0  0  0  0  0  0  0
  149.9323  141.5715  154.7642 H   0  0  0  0  0  0  0  0  0  0  0  0
  148.8456  141.9391  153.4623 H   0  0  0  0  0  0  0  0  0  0  0  0
  148.9847  137.2168  155.5933 H   0  0  0  0  0  0  0  0  0  0  0  0
  148.2559  137.3396  152.9921 H   0  0  0  0  0  0  0  0  0  0  0  0
  145.7309  137.5928  152.1120 H   0  0  0  0  0  0  0  0  0  0  0  0
  146.3448  136.0115  152.4669 H   0  0  0  0  0  0  0  0  0  0  0  0
  143.6045  138.0171  152.1964 H   0  0  0  0  0  0  0  0  0  0  0  0
  141.2405  137.4184  152.6979 H   0  0  0  0  0  0  0  0  0  0  0  0
  150.1282  139.1399  153.5368 H   0  0  0  0  0  0  0  0  0  0  0  0
  150.5281  137.4514  153.6931 H   0  0  0  0  0  0  0  0  0  0  0  0
  1  2  1  0  0  0  0
  1 23  1  0  0  0  0
  1 24  1  0  0  0  0
  1 25  1  0  0  0  0
  2 22  1  0  0  0  0
  2  3  1  0  0  0  0
  2 26  1  0  0  0  0
  3  4  1  0  0  0  0
  3 27  1  0  0  0  0
  3 28  1  0  0  0  0
  4  5  1  0  0  0  0
  4 29  1  0  0  0  0
  4 30  1  0  0  0  0
  5  6  1  0  0  0  0
  5  9  1  0  0  0  0
  5 31  1  0  0  0  0
  6  7  1  0  0  0  0
  6  8  1  0  0  0  0
  6 32  1  0  0  0  0
  7 33  1  0  0  0  0
  7 34  1  0  0  0  0
  7 35  1  0  0  0  0
  8 36  1  0  0  0  0
  8 37  1  0  0  0  0
  8 38  1  0  0  0  0
  9 10  1  0  0  0  0
  9 22  1  0  0  0  0
  9 39  1  0  0  0  0
 10 11  1  0  0  0  0
 10 40  1  0  0  0  0
 11 12  2  0  0  0  0
 11 13  1  0  0  0  0
 13 14  1  0  0  0  0
 13 41  1  0  0  0  0
 13 42  1  0  0  0  0
 14 20  1  0  0  0  0
 14 15  1  0  0  0  0
 15 16  2  0  0  0  0
 15 43  1  0  0  0  0
 16 17  1  0  0  0  0
 16 44  1  0  0  0  0
 17 18  2  0  0  0  0
 17 19  1  0  0  0  0
 19 20  1  0  0  0  0
 20 21  2  0  0  0  0
 22 45  1  0  0  0  0
 22 46  1  0  0  0  0
M  CHG  1  19  -1
M  END
> <s_m_source_file>
AV-unprocessed.smi

> <i_m_source_file_index>
2855

> <i_lp_mmshare_version>
43012

> <i_f3d_flags>
0

> <s_epik_input>
W0NIM11bQ0BASF0xW0NIMl1bQ0gyXVtDQEBIXShbQ0hdKFtDSDNdKVtDSDNdKVtDQEhdKFtDSDJdMSlbTkhdQyg9TylbQ0gyXW4yW2NIXVtjSF1jKD1PKVtuSF1jMj1P

> <s_epik_cmdline>
J2VwaWtfcHl0aG9uJywgJy1waCcsICc3LjAnLCAnLXRuJywgJzgnLCAnLW1hJywgJzIwMCcsICctbWV0YWxfYmluZGluZycsICctaW1hZScsICc8aW5maWxlLm1hZT4nLCAnLW9tYWUnLCAnPG91dGZpbGUubWFlPic=

> <r_lp_tautomer_probability>
0.999537

> <r_epik_Ionization_Penalty>
3.12102

> <r_epik_Ionization_Penalty_Charging>
2.9581e-08

> <r_epik_Ionization_Penalty_Neutral>
3.12102

> <r_epik_State_Penalty>
3.12011

> <r_epik_Charging_Adjusted_Penalty>
3.12011

> <i_epik_Tot_Q>
-1

> <i_epik_Tot_abs_Q>
1

> <r_epik_Metal_State_Penalty>
0.463583

> <b_epik_Metal_Only>
1

> <s_lp_Force_Field>
OPLS_2005

> <r_lp_Energy>
27.3846

> <b_lp_Chiralities_Consistent>
1

> <s_lp_Variant>
AV-unprocessed.smi:2855-10

> <Gold.Version>
5.8.1

> <Gold.Id.Protein>
6NUR|6NUR_protein|mol2

> <Gold.PLP.Fitness>
38.5430

> <Gold.PLP.PLP>
-27.4431

> <Gold.PLP.part.hbond>
-2.1671

> <Gold.PLP.part.metal>
0.0000

> <Gold.PLP.part.buried>
-2.3948

> <Gold.PLP.part.nonpolar>
-22.0928

> <Gold.PLP.part.repulsive>
0.3525

> <Gold.PLP.ligand.clash>
0.1796

> <Gold.PLP.ligand.torsion>
0.3934

> <Gold.PLP.Chemscore.Hbond>
2.0000

> <Gold.PLP.Chemscore.CHOScore>
2.0000

> <Gold.PLP.Chemscore.Metal>
0.0000

> <Gold.Chemscore.Hbonds>
donor molecule, donor type, donor heavy atom, donor atom, acceptor molecule, acceptor atom, score
      L1  H    10    40       P1  7948  1.00
      P1  H 11000 11005       L1    18  1.00
      L1  C    15    43       P1 10171  1.00
      L1  C    15    43       P1 10175  1.00

> <Gold.PLP.Chemscore.Internal.Correction>
0.0663

> <Gold.Rescore>
     Score         DG    S(hbond)    S(metal)    S(lipo)     H(rot)  DE(clash)    DE(int)     intcor
     11.42     -14.53       1.94        0.00      61.54       1.81       0.06       3.05       ----

> <Gold.Chemscore.Fitness>
11.4205

> <Gold.Chemscore.DG>
-14.5280

> <Gold.Chemscore.ZeroCoef>
-5.4800

> <Gold.Chemscore.Hbond>
1.9406

> <Gold.Chemscore.Metal>
0.0000

> <Gold.Chemscore.Lipo>
61.5372

> <Gold.Chemscore.Internal_Hbond>
0.0000

> <Gold.Chemscore.DEClash>
0.0605

> <Gold.Chemscore.DEInternal>
3.0470

> <Gold.Chemscore.Rot>
1.8100

> <Gold.Chemscore.Internal.Correction>
   9.000000E+99

> <Gold.Chemscore.Hbonds>
donor molecule, donor type, donor heavy atom, donor atom, acceptor molecule, acceptor atom, score
      L1  H    10    40       P1  7948  0.96
      P1  H 11000 11005       L1    18  0.94

> <Gold.Chemscore.Hbond.Weighted>
-6.4816

> <Gold.Chemscore.Metal.Weighted>
-0.0000

> <Gold.Chemscore.Lipo.Weighted>
-7.1999

> <Gold.Chemscore.Internal_Hbond.Weighted>
0.0000

> <Gold.Chemscore.DEClash.Weighted>
0.0605

> <Gold.Chemscore.DEInternal.Weighted>
3.0470

> <Gold.Chemscore.Rot.Weighted>
4.6335

> <Gold.Chemscore.Internal.Correction.Weighted>
   9.000000E+99

> <Gold.Protein.RotatedTorsions>
[ 6907 6896 6895 6894 ] final  121.59 input  -60.11 | X-H torsion
[ 7974 7965 7964 7962 ] final   67.04 input  175.53 | X-H torsion
[ 8008 7997 7996 7995 ] final    8.27 input   59.86 | X-H torsion
[ 10167 10162 10161 10158 ] final    8.14 input  -65.29 | X-H torsion
[ 10718 10713 10712 10709 ] final  115.78 input   66.30 | X-H torsion
[ 10763 10752 10751 10750 ] final   85.23 input  -60.55 | X-H torsion
[ 11005 11000 10999 10996 ] final   49.95 input  -57.11 | X-H torsion

> <Gold.Protein.ActiveResidues>
 VAL166  LYS551  ARG553  GLY616  TRP617  ASP618  TYR619  PRO620  LYS621  CYS622 
 ASP623  PHE694  ASN695  SER759  ASP760  ASP761  ALA762  ILE779  LEU786  VAL792 
 PHE793  MET794  SER795  GLU796  ALA797  LYS798  CYS799  TRP800  GLU811  SER814 

> <Gold.Protein.RotatedAtoms>
  152.4309  133.7277  159.6568 H   0  0  0  0  0  0  0  0  0  0  0  0  # atno 6907 bound_to 6896
  150.8189  133.8278  159.3154 H   0  0  0  0  0  0  0  0  0  0  0  0  # atno 6908 bound_to 6896
  151.5966  135.1052  160.0102 H   0  0  0  0  0  0  0  0  0  0  0  0  # atno 6909 bound_to 6896
  145.8194  139.3076  143.1052 H   0  0  0  0  0  0  0  0  0  0  0  0  # atno 7974 bound_to 7965
  154.7646  140.2791  155.6186 H   0  0  0  0  0  0  0  0  0  0  0  0  # atno 8008 bound_to 7997
  156.2922  140.2653  156.2361 H   0  0  0  0  0  0  0  0  0  0  0  0  # atno 8009 bound_to 7997
  154.9974  140.0373  157.2335 H   0  0  0  0  0  0  0  0  0  0  0  0  # atno 8010 bound_to 7997
  140.6331  143.7947  150.7323 H   0  0  0  0  0  0  0  0  0  0  0  0  # atno 10167 bound_to 10162
  157.6201  131.1017  150.7379 H   0  0  0  0  0  0  0  0  0  0  0  0  # atno 10718 bound_to 10713
  153.1455  135.4625  154.9560 H   0  0  0  0  0  0  0  0  0  0  0  0  # atno 10763 bound_to 10752
  154.7782  135.3180  154.8048 H   0  0  0  0  0  0  0  0  0  0  0  0  # atno 10764 bound_to 10752
  153.8563  135.6917  153.4841 H   0  0  0  0  0  0  0  0  0  0  0  0  # atno 10765 bound_to 10752
  140.1059  134.5019  155.8720 H   0  0  0  0  0  0  0  0  0  0  0  0  # atno 11005 bound_to 11000
  145.9691  140.8774  143.0171 LP  0  0  0  0  0  0  0  0  0  0  0  0  # atno 17320 bound_to 7965
  144.6749  140.1920  143.7395 LP  0  0  0  0  0  0  0  0  0  0  0  0  # atno 17321 bound_to 7965
  140.1563  143.4314  152.2097 LP  0  0  0  0  0  0  0  0  0  0  0  0  # atno 17342 bound_to 10162
  139.5544  144.7362  151.4339 LP  0  0  0  0  0  0  0  0  0  0  0  0  # atno 17343 bound_to 10162
  156.7738  130.4837  149.5413 LP  0  0  0  0  0  0  0  0  0  0  0  0  # atno 17370 bound_to 10713
  156.1342  130.6199  151.0377 LP  0  0  0  0  0  0  0  0  0  0  0  0  # atno 17371 bound_to 10713
  141.2118  133.6711  156.6610 LP  0  0  0  0  0  0  0  0  0  0  0  0  # atno 17394 bound_to 11000
  140.3156  134.8050  157.4211 LP  0  0  0  0  0  0  0  0  0  0  0  0  # atno 17395 bound_to 11000

$$$$
