AV-unprocessed.smi:2719|AV-procd|sdf|10497|dock2
  -GOLD-   2272014543D 1   1.00000     0.00000
 Structure written by MMmdl.
 20 20  0  0  0  0  0  0  0  0  2 V2000
  153.4241  141.3892  160.1048 C   0  0  0  0  0  0  0  0  0  0  0  0
  152.7951  142.4100  159.1729 C   0  0  0  0  0  0  0  0  0  0  0  0
  153.0937  143.7785  159.3412 C   0  0  0  0  0  0  0  0  0  0  0  0
  152.5085  144.7215  158.4771 C   0  0  0  0  0  0  0  0  0  0  0  0
  151.6408  144.2560  157.4727 C   0  0  0  0  0  0  0  0  0  0  0  0
  151.3419  142.9525  157.3009 N   0  0  0  0  0  0  0  0  0  0  0  0
  151.9090  142.0375  158.1260 C   0  0  0  0  0  0  0  0  0  0  0  0
  151.5236  140.5751  157.8723 C   0  0  1  0  0  0  0  0  0  0  0  0
  150.1377  140.3205  158.0222 O   0  0  0  0  0  0  0  0  0  0  0  0
  151.9719  140.1890  156.4536 C   0  0  0  0  0  0  0  0  0  0  0  0
  151.3920  140.7586  155.5023 O   0  0  0  0  0  0  0  0  0  0  0  0
  152.8861  139.3422  156.3348 O   0  5  0  0  0  0  0  0  0  0  0  0
  154.1191  141.8631  160.7983 H   0  0  0  0  0  0  0  0  0  0  0  0
  153.9795  140.6411  159.5399 H   0  0  0  0  0  0  0  0  0  0  0  0
  152.6576  140.8849  160.6932 H   0  0  0  0  0  0  0  0  0  0  0  0
  153.7636  144.1057  160.1230 H   0  0  0  0  0  0  0  0  0  0  0  0
  152.7196  145.7751  158.5815 H   0  0  0  0  0  0  0  0  0  0  0  0
  151.1717  144.9492  156.7901 H   0  0  0  0  0  0  0  0  0  0  0  0
  152.0285  139.9335  158.5943 H   0  0  0  0  0  0  0  0  0  0  0  0
  149.7943  140.9259  158.6601 H   0  0  0  0  0  0  0  0  0  0  0  0
  1  2  1  0  0  0  0
  1 13  1  0  0  0  0
  1 14  1  0  0  0  0
  1 15  1  0  0  0  0
  2  7  1  0  0  0  0
  2  3  2  0  0  0  0
  3  4  1  0  0  0  0
  3 16  1  0  0  0  0
  4  5  2  0  0  0  0
  4 17  1  0  0  0  0
  5  6  1  0  0  0  0
  5 18  1  0  0  0  0
  6  7  2  0  0  0  0
  7  8  1  0  0  0  0
  8  9  1  0  0  0  0
  8 10  1  0  0  0  0
  8 19  1  0  0  0  0
  9 20  1  0  0  0  0
 10 11  2  0  0  0  0
 10 12  1  0  0  0  0
M  CHG  1  12  -1
M  END
> <s_m_source_file>
AV-unprocessed.smi

> <i_m_source_file_index>
2719

> <i_lp_mmshare_version>
43012

> <i_f3d_flags>
0

> <s_epik_input>
W0NIM11jMVtjSF1bY0hdW2NIXW5jMVtDQEhdKFtPSF0pQyg9TylbT0hd

> <s_epik_cmdline>
J2VwaWtfcHl0aG9uJywgJy1waCcsICc3LjAnLCAnLXRuJywgJzgnLCAnLW1hJywgJzIwMCcsICctbWV0YWxfYmluZGluZycsICctaW1hZScsICc8aW5maWxlLm1hZT4nLCAnLW9tYWUnLCAnPG91dGZpbGUubWFlPic=

> <r_epik_Ionization_Penalty>
0.910943

> <r_epik_Ionization_Penalty_Charging>
0.000126384

> <r_epik_Ionization_Penalty_Neutral>
0.910816

> <r_epik_State_Penalty>
0.951599

> <r_epik_Charging_Adjusted_Penalty>
0.951725

> <i_epik_Tot_Q>
-1

> <i_epik_Tot_abs_Q>
1

> <r_epik_Metal_State_Penalty>
0.00235542

> <b_epik_Metal_Only>
0

> <s_lp_Force_Field>
OPLS_2005

> <r_lp_Energy>
12.5504

> <b_lp_Chiralities_Consistent>
1

> <s_lp_Variant>
AV-unprocessed.smi:2719-4

> <Gold.Version>
5.8.1

> <Gold.Id.Protein>
6NUR|6NUR_protein|mol2

> <Gold.PLP.Fitness>
40.5490

> <Gold.PLP.PLP>
-29.3976

> <Gold.PLP.part.hbond>
-2.0000

> <Gold.PLP.part.metal>
0.0000

> <Gold.PLP.part.buried>
-2.4915

> <Gold.PLP.part.nonpolar>
-23.6348

> <Gold.PLP.part.repulsive>
0.1335

> <Gold.PLP.ligand.clash>
0.0000

> <Gold.PLP.ligand.torsion>
0.0549

> <Gold.PLP.Chemscore.Hbond>
2.7488

> <Gold.PLP.Chemscore.CHOScore>
0.9954

> <Gold.PLP.Chemscore.Metal>
0.0000

> <Gold.Chemscore.Hbonds>
donor molecule, donor type, donor heavy atom, donor atom, acceptor molecule, acceptor atom, score
      P1  H  7989  7998       L1    11  0.74
      P1  H  7997  8009       L1    12  2.00
      L1  C     5    18       P1  8028  0.98

> <Gold.PLP.Chemscore.Internal.Correction>
0.0288

> <Gold.Rescore>
     Score         DG    S(hbond)    S(metal)    S(lipo)     H(rot)  DE(clash)    DE(int)     intcor
     14.60     -15.45       1.92        0.00      75.45       2.06       0.14       0.72       ----

> <Gold.Chemscore.Fitness>
14.5995

> <Gold.Chemscore.DG>
-15.4544

> <Gold.Chemscore.ZeroCoef>
-5.4800

> <Gold.Chemscore.Hbond>
1.9248

> <Gold.Chemscore.Metal>
0.0000

> <Gold.Chemscore.Lipo>
75.4501

> <Gold.Chemscore.Internal_Hbond>
0.0000

> <Gold.Chemscore.DEClash>
0.1378

> <Gold.Chemscore.DEInternal>
0.7171

> <Gold.Chemscore.Rot>
2.0633

> <Gold.Chemscore.Internal.Correction>
   9.000000E+99

> <Gold.Chemscore.Hbonds>
donor molecule, donor type, donor heavy atom, donor atom, acceptor molecule, acceptor atom, score
      P1  H  7989  7998       L1    11  0.69
      P1  H  7997  8009       L1    12  0.74

> <Gold.Chemscore.Hbond.Weighted>
-6.4288

> <Gold.Chemscore.Metal.Weighted>
-0.0000

> <Gold.Chemscore.Lipo.Weighted>
-8.8277

> <Gold.Chemscore.Internal_Hbond.Weighted>
0.0000

> <Gold.Chemscore.DEClash.Weighted>
0.1378

> <Gold.Chemscore.DEInternal.Weighted>
0.7171

> <Gold.Chemscore.Rot.Weighted>
5.2820

> <Gold.Chemscore.Internal.Correction.Weighted>
   9.000000E+99

> <Gold.Protein.RotatedTorsions>
[ 6907 6896 6895 6894 ] final   20.92 input  -60.11 | X-H torsion
[ 7974 7965 7964 7962 ] final  -52.45 input  175.53 | X-H torsion
[ 8008 7997 7996 7995 ] final -177.15 input   59.86 | X-H torsion
[ 10167 10162 10161 10158 ] final    6.49 input  -65.29 | X-H torsion
[ 10718 10713 10712 10709 ] final   65.97 input   66.30 | X-H torsion
[ 10763 10752 10751 10750 ] final  120.19 input  -60.55 | X-H torsion
[ 11005 11000 10999 10996 ] final   92.75 input  -57.11 | X-H torsion

> <Gold.Protein.ActiveResidues>
 VAL166  LYS551  ARG553  GLY616  TRP617  ASP618  TYR619  PRO620  LYS621  CYS622 
 ASP623  PHE694  ASN695  SER759  ASP760  ASP761  ALA762  ILE779  LEU786  VAL792 
 PHE793  MET794  SER795  GLU796  ALA797  LYS798  CYS799  TRP800  GLU811  SER814 

> <Gold.Protein.RotatedAtoms>
  151.9039  135.0367  160.0508 H   0  0  0  0  0  0  0  0  0  0  0  0  # atno 6907 bound_to 6896
  152.2336  133.5073  159.5238 H   0  0  0  0  0  0  0  0  0  0  0  0  # atno 6908 bound_to 6896
  150.7032  134.1100  159.4039 H   0  0  0  0  0  0  0  0  0  0  0  0  # atno 6909 bound_to 6896
  145.9079  140.7940  142.9710 H   0  0  0  0  0  0  0  0  0  0  0  0  # atno 7974 bound_to 7965
  156.0035  140.1225  157.0524 H   0  0  0  0  0  0  0  0  0  0  0  0  # atno 8008 bound_to 7997
  154.4250  140.1102  156.5799 H   0  0  0  0  0  0  0  0  0  0  0  0  # atno 8009 bound_to 7997
  155.6179  140.3472  155.4645 H   0  0  0  0  0  0  0  0  0  0  0  0  # atno 8010 bound_to 7997
  140.6425  143.7741  150.7449 H   0  0  0  0  0  0  0  0  0  0  0  0  # atno 10167 bound_to 10162
  157.6139  130.9242  150.0046 H   0  0  0  0  0  0  0  0  0  0  0  0  # atno 10718 bound_to 10713
  153.5947  135.3459  155.2923 H   0  0  0  0  0  0  0  0  0  0  0  0  # atno 10763 bound_to 10752
  154.8646  135.4213  154.2478 H   0  0  0  0  0  0  0  0  0  0  0  0  # atno 10764 bound_to 10752
  153.3293  135.7043  153.7033 H   0  0  0  0  0  0  0  0  0  0  0  0  # atno 10765 bound_to 10752
  139.8819  134.8751  156.3618 H   0  0  0  0  0  0  0  0  0  0  0  0  # atno 11005 bound_to 11000
  144.6741  140.1779  143.7408 LP  0  0  0  0  0  0  0  0  0  0  0  0  # atno 17320 bound_to 7965
  145.8709  139.2271  143.1661 LP  0  0  0  0  0  0  0  0  0  0  0  0  # atno 17321 bound_to 7965
  140.1375  143.4470  152.2215 LP  0  0  0  0  0  0  0  0  0  0  0  0  # atno 17342 bound_to 10162
  139.5634  144.7420  151.4090 LP  0  0  0  0  0  0  0  0  0  0  0  0  # atno 17343 bound_to 10162
  156.1253  130.3644  149.9820 LP  0  0  0  0  0  0  0  0  0  0  0  0  # atno 17370 bound_to 10713
  156.7891  130.9249  151.3646 LP  0  0  0  0  0  0  0  0  0  0  0  0  # atno 17371 bound_to 10713
  140.9524  133.7442  156.0290 LP  0  0  0  0  0  0  0  0  0  0  0  0  # atno 17394 bound_to 11000
  140.8089  134.3422  157.5418 LP  0  0  0  0  0  0  0  0  0  0  0  0  # atno 17395 bound_to 11000

$$$$
