#       Name:                AV-unprocessed.smi:381
#       Creating user name   scv26
#       Creation time:       Thu Mar 26 22:40:26 2020


#       File generated by GOLD software.
#

@<TRIPOS>MOLECULE
AV-unprocessed.smi:381
    48    49     1
SMALL
NO_CHARGES


@<TRIPOS>ATOM
      1 ****         0.6140   3.1437  -0.2048 O.2            1 S1                 0.0000
      2 ****         0.2216   1.9802  -0.2674 C.2            1 S1                 0.0000
      3 ****         1.0469   0.9298  -0.4023 N.am           1 S1                 0.0000
      4 ****         2.4977   1.0266  -0.4763 C.3            1 S1                 0.0000
      5 ****         3.1087  -0.3149  -0.9024 C.3            1 S1                 0.0000
      6 ****         4.6217  -0.2538  -0.9781 C.ar           1 S1                 0.0000
      7 ****         5.2661   0.3197  -2.0938 C.ar           1 S1                 0.0000
      8 ****         6.6734   0.3619  -2.1170 C.ar           1 S1                 0.0000
      9 ****         7.3783  -0.1743  -1.0209 C.ar           1 S1                 0.0000
     10 ****         6.7723  -0.7269   0.0521 N.ar           1 S1                 0.0000
     11 ****         5.4223  -0.7620   0.0672 C.ar           1 S1                 0.0000
     12 ****        -1.0858   1.6688  -0.1994 N.am           1 S1                 0.0000
     13 ****        -2.2384   2.5632  -0.0532 C.3            1 S1                 0.0000
     14 ****        -3.3610   1.7863   0.6737 C.3            1 S1                 0.0000
     15 ****        -4.7179   2.5030   0.8042 C.3            1 S1                 0.0000
     16 ****        -5.7474   2.1747  -0.3012 C.3            1 S1                 0.0000
     17 ****        -5.6967   3.0804  -1.5457 C.3            1 S1                 0.0000
     18 ****        -4.8064   2.5987  -2.7110 C.3            1 S1                 0.0000
     19 ****        -3.3624   2.1925  -2.3651 C.3            1 S1                 0.0000
     20 ****        -2.6302   3.1667  -1.4216 C.3            1 S1                 0.0000
     21 ****         0.6430   0.0054  -0.4442 H              1 S1                 0.0000
     22 ****         2.7789   1.8060  -1.1868 H              1 S1                 0.0000
     23 ****         2.8838   1.3242   0.4997 H              1 S1                 0.0000
     24 ****         2.8151  -1.0996  -0.2037 H              1 S1                 0.0000
     25 ****         2.7208  -0.6101  -1.8785 H              1 S1                 0.0000
     26 ****         4.6933   0.7236  -2.9158 H              1 S1                 0.0000
     27 ****         7.1999   0.7959  -2.9540 H              1 S1                 0.0000
     28 ****         8.4580  -0.1583  -1.0057 H              1 S1                 0.0000
     29 ****         4.9690  -1.2069   0.9408 H              1 S1                 0.0000
     30 ****        -1.3088   0.6857  -0.2597 H              1 S1                 0.0000
     31 ****        -1.9588   3.3907   0.6009 H              1 S1                 0.0000
     32 ****        -3.5090   0.8006   0.2316 H              1 S1                 0.0000
     33 ****        -3.0001   1.5794   1.6823 H              1 S1                 0.0000
     34 ****        -5.1569   2.1698   1.7455 H              1 S1                 0.0000
     35 ****        -4.5855   3.5793   0.9193 H              1 S1                 0.0000
     36 ****        -5.7069   1.1221  -0.5825 H              1 S1                 0.0000
     37 ****        -6.7343   2.3107   0.1432 H              1 S1                 0.0000
     38 ****        -6.7100   3.1627  -1.9406 H              1 S1                 0.0000
     39 ****        -5.4368   4.0979  -1.2543 H              1 S1                 0.0000
     40 ****        -5.2901   1.7537  -3.2024 H              1 S1                 0.0000
     41 ****        -4.7758   3.3915  -3.4591 H              1 S1                 0.0000
     42 ****        -3.3581   1.1806  -1.9628 H              1 S1                 0.0000
     43 ****        -2.7988   2.1139  -3.2953 H              1 S1                 0.0000
     44 ****        -3.2188   4.0679  -1.2602 H              1 S1                 0.0000
     45 ****        -1.7341   3.5315  -1.9247 H              1 S1                 0.0000
     46 ****         1.5924   3.3447  -0.2545 LP             1 S1                 0.0000
     47 ****        -0.0451   3.8889  -0.1042 LP             1 S1                 0.0000
     48 ****         7.3064  -1.0984   0.8116 LP             1 S1                 0.0000
@<TRIPOS>BOND
    1    1    2 2     
    2    2    3 am    
    3    2   12 am    
    4    3    4 1     
    5    3   21 1     
    6    4    5 1     
    7    4   22 1     
    8    4   23 1     
    9    5    6 1     
   10    5   24 1     
   11    5   25 1     
   12    6   11 ar    
   13    6    7 ar    
   14    7    8 ar    
   15    7   26 1     
   16    8    9 ar    
   17    8   27 1     
   18    9   10 ar    
   19    9   28 1     
   20   10   11 ar    
   21   11   29 1     
   22   12   13 1     
   23   12   30 1     
   24   13   20 1     
   25   13   14 1     
   26   13   31 1     
   27   14   15 1     
   28   14   32 1     
   29   14   33 1     
   30   15   16 1     
   31   15   34 1     
   32   15   35 1     
   33   16   17 1     
   34   16   36 1     
   35   16   37 1     
   36   17   18 1     
   37   17   38 1     
   38   17   39 1     
   39   18   19 1     
   40   18   40 1     
   41   18   41 1     
   42   19   20 1     
   43   19   42 1     
   44   19   43 1     
   45   20   44 1     
   46   20   45 1     
   47    1   46 1     
   48    1   47 1     
   49   10   48 1     
@<TRIPOS>SUBSTRUCTURE
      1 S1             1
@<TRIPOS>SET
LONE_PAIRS      STATIC     ATOMS    <user>   **** ""
3 46 47 48
DONOR_HYDROGENS      STATIC     ATOMS    <user>   **** ""
2 21 30
ATOM$BLUE        STATIC     ATOMS    COLORGROUP SYSTEM
3 46 47 48
ATOM$RED        STATIC     ATOMS    COLORGROUP SYSTEM
2 21 30
