#       Name:                AV-unprocessed.smi:985
#       Creating user name   scv26
#       Creation time:       Fri Mar 27 02:22:32 2020


#       File generated by GOLD software.
#

@<TRIPOS>MOLECULE
AV-unprocessed.smi:985
    30    31     1
SMALL
NO_CHARGES


@<TRIPOS>ATOM
      1 ****        -4.2029  -1.6485  -0.0170 C.3            1 S1                 0.0000
      2 ****        -2.7127  -1.6496  -0.0102 C.2            1 S1                 0.0000
      3 ****        -1.9057  -0.5915   0.0015 N.2            1 S1                 0.0000
      4 ****        -0.6832  -1.1934   0.0061 C.2            1 S1                 0.0000
      5 ****         0.6040  -0.4268   0.0162 C.3            1 S1                 0.0000
      6 ****         0.7640   0.4246   1.2901 C.3            1 S1                 0.0000
      7 ****         2.0891   1.2016   1.2528 C.3            1 S1                 0.0000
      8 ****         2.2088   2.0258  -0.0403 C.3            1 S1                 0.0000
      9 ****         2.0674   1.1573  -1.2294 N.4            1 S1                 1.0000
     10 ****         0.7842   0.4204  -1.2599 C.3            1 S1                 0.0000
     11 ****        -0.6934  -2.5211  -0.0083 N.2            1 S1                 0.0000
     12 ****        -2.0600  -2.8360  -0.0179 O.3            1 S1                 0.0000
     13 ****        -4.5830  -0.6265  -0.0186 H              1 S1                 0.0000
     14 ****        -4.5809  -2.1613   0.8676 H              1 S1                 0.0000
     15 ****        -4.5729  -2.1612  -0.9049 H              1 S1                 0.0000
     16 ****         1.4138  -1.1593   0.0244 H              1 S1                 0.0000
     17 ****        -0.0653   1.1284   1.3752 H              1 S1                 0.0000
     18 ****         0.7279  -0.2092   2.1770 H              1 S1                 0.0000
     19 ****         2.1614   1.8566   2.1214 H              1 S1                 0.0000
     20 ****         2.9252   0.5043   1.3211 H              1 S1                 0.0000
     21 ****         1.4444   2.8036  -0.0683 H              1 S1                 0.0000
     22 ****         3.1758   2.5276  -0.0800 H              1 S1                 0.0000
     23 ****         2.1384   1.7260  -2.0612 H              1 S1                 0.0000
     24 ****         0.7647  -0.2155  -2.1457 H              1 S1                 0.0000
     25 ****        -0.0320   1.1370  -1.3635 H              1 S1                 0.0000
     26 ****         2.8232   0.4872  -1.2278 H              1 S1                 0.0000
     27 ****        -2.1345   0.3819   0.0057 LP             1 S1                 0.0000
     28 ****         0.0867  -3.1468  -0.0115 LP             1 S1                 0.0000
     29 ****        -2.2918  -3.3555  -0.8404 LP             1 S1                 0.0000
     30 ****        -2.2998  -3.3705   0.7925 LP             1 S1                 0.0000
@<TRIPOS>BOND
    1    1    2 1     
    2    1   13 1     
    3    1   14 1     
    4    1   15 1     
    5    2   12 1     
    6    2    3 2     
    7    3    4 1     
    8    4    5 1     
    9    4   11 2     
   10    5   10 1     
   11    5    6 1     
   12    5   16 1     
   13    6    7 1     
   14    6   17 1     
   15    6   18 1     
   16    7    8 1     
   17    7   19 1     
   18    7   20 1     
   19    8    9 1     
   20    8   21 1     
   21    8   22 1     
   22    9   10 1     
   23    9   23 1     
   24    9   26 1     
   25   10   24 1     
   26   10   25 1     
   27   11   12 1     
   28    3   27 1     
   29   11   28 1     
   30   12   29 1     
   31   12   30 1     
@<TRIPOS>SUBSTRUCTURE
      1 S1             1
@<TRIPOS>SET
LONE_PAIRS      STATIC     ATOMS    <user>   **** ""
4 27 28 29 30
DONOR_HYDROGENS      STATIC     ATOMS    <user>   **** ""
2 23 26
ATOM$BLUE        STATIC     ATOMS    COLORGROUP SYSTEM
4 27 28 29 30
ATOM$RED        STATIC     ATOMS    COLORGROUP SYSTEM
2 23 26
