#       Name:                AV-unprocessed.smi:3046
#       Creating user name   scv26
#       Creation time:       Fri Mar 27 17:00:20 2020


#       File generated by GOLD software.
#

@<TRIPOS>MOLECULE
AV-unprocessed.smi:3046
    41    41     1
SMALL
NO_CHARGES


@<TRIPOS>ATOM
      1 ****        -2.9235  -2.8614   0.6103 C.2            1 S1                 0.0000
      2 ****        -3.1511  -1.5852   0.2653 C.2            1 S1                 0.0000
      3 ****        -2.7893  -0.3899   1.1200 C.3            1 S1                 0.0000
      4 ****        -1.9440   0.5285   0.3739 N.am           1 S1                 0.0000
      5 ****        -1.3770   1.6308   0.8856 C.2            1 S1                 0.0000
      6 ****        -1.5313   1.9865   2.0543 O.2            1 S1                 0.0000
      7 ****        -0.4640   2.4324  -0.0599 C.3            1 S1                 0.0000
      8 ****        -0.7419   3.9399   0.0590 C.3            1 S1                 0.0000
      9 ****         0.9799   2.1804   0.1418 N.3            1 S1                 0.0000
     10 ****         1.4283   0.7861   0.1687 C.3            1 S1                 0.0000
     11 ****         2.9108   0.7944   0.5774 C.3            1 S1                 0.0000
     12 ****         1.1978   0.0886  -1.1930 C.3            1 S1                 0.0000
     13 ****         1.5806  -1.3111  -1.1656 N.pl3          1 S1                 0.0000
     14 ****         0.9250  -2.3596  -0.5556 C.2            1 S1                 0.0000
     15 ****         1.6504  -3.4899  -0.8008 C.2            1 S1                 0.0000
     16 ****         2.7448  -3.0256  -1.5827 C.2            1 S1                 0.0000
     17 ****         2.6992  -1.7211  -1.8015 N.2            1 S1                 0.0000
     18 ****        -2.4502  -3.1141   1.5479 H              1 S1                 0.0000
     19 ****        -3.2088  -3.6720  -0.0437 H              1 S1                 0.0000
     20 ****        -3.6295  -1.3724  -0.6799 H              1 S1                 0.0000
     21 ****        -3.7047   0.1202   1.4228 H              1 S1                 0.0000
     22 ****        -2.2777  -0.7177   2.0269 H              1 S1                 0.0000
     23 ****        -1.7595   0.3022  -0.5925 H              1 S1                 0.0000
     24 ****        -0.7177   2.1512  -1.0826 H              1 S1                 0.0000
     25 ****        -1.7978   4.1630  -0.0991 H              1 S1                 0.0000
     26 ****        -0.1770   4.5001  -0.6868 H              1 S1                 0.0000
     27 ****        -0.4629   4.3257   1.0405 H              1 S1                 0.0000
     28 ****         1.3091   2.6405   0.9787 H              1 S1                 0.0000
     29 ****         0.8937   0.2441   0.9490 H              1 S1                 0.0000
     30 ****         3.2972  -0.2182   0.6953 H              1 S1                 0.0000
     31 ****         3.0560   1.3054   1.5299 H              1 S1                 0.0000
     32 ****         3.5263   1.2986  -0.1686 H              1 S1                 0.0000
     33 ****         0.1492   0.1222  -1.4851 H              1 S1                 0.0000
     34 ****         1.7543   0.5983  -1.9815 H              1 S1                 0.0000
     35 ****         0.0090  -2.2132  -0.0023 H              1 S1                 0.0000
     36 ****         1.4325  -4.4951  -0.4720 H              1 S1                 0.0000
     37 ****         3.5651  -3.5940  -1.9957 H              1 S1                 0.0000
     38 ****        -2.1021   1.4442   2.6709 LP             1 S1                 0.0000
     39 ****        -1.0859   2.8178   2.3870 LP             1 S1                 0.0000
     40 ****         1.3826   2.5622  -0.6901 LP             1 S1                 0.0000
     41 ****         3.3473  -1.1642  -2.3209 LP             1 S1                 0.0000
@<TRIPOS>BOND
    1    1    2 2     
    2    1   18 1     
    3    1   19 1     
    4    2    3 1     
    5    2   20 1     
    6    3    4 1     
    7    3   21 1     
    8    3   22 1     
    9    4    5 am    
   10    4   23 1     
   11    5    6 2     
   12    5    7 1     
   13    7    8 1     
   14    7    9 1     
   15    7   24 1     
   16    8   25 1     
   17    8   26 1     
   18    8   27 1     
   19    9   10 1     
   20    9   28 1     
   21   10   11 1     
   22   10   12 1     
   23   10   29 1     
   24   11   30 1     
   25   11   31 1     
   26   11   32 1     
   27   12   13 1     
   28   12   33 1     
   29   12   34 1     
   30   13   17 1     
   31   13   14 1     
   32   14   15 2     
   33   14   35 1     
   34   15   16 1     
   35   15   36 1     
   36   16   17 2     
   37   16   37 1     
   38    6   38 1     
   39    6   39 1     
   40    9   40 1     
   41   17   41 1     
@<TRIPOS>SUBSTRUCTURE
      1 S1             1
@<TRIPOS>SET
LONE_PAIRS      STATIC     ATOMS    <user>   **** ""
4 38 39 40 41
DONOR_HYDROGENS      STATIC     ATOMS    <user>   **** ""
2 23 28
ATOM$BLUE        STATIC     ATOMS    COLORGROUP SYSTEM
4 38 39 40 41
ATOM$RED        STATIC     ATOMS    COLORGROUP SYSTEM
2 23 28
