AV-unprocessed.smi:97|AV-procd|sdf|861|dock8
  -GOLD-   2262017313D 1   1.00000     0.00000
 Structure written by MMmdl.
 46 49  0  0  0  0  0  0  0  0  1 V2000
  151.6235  137.5324  154.3936 O   0  0  0  0  0  0  0  0  0  0  0  0
  150.4814  137.8234  154.0345 C   0  0  0  0  0  0  0  0  0  0  0  0
  150.1654  139.2010  153.4327 C   0  0  0  0  0  0  0  0  0  0  0  0
  149.8483  140.2273  154.4499 N   0  0  0  0  0  0  0  0  0  0  0  0
  148.4865  140.5199  154.7119 C   0  0  0  0  0  0  0  0  0  0  0  0
  147.5819  139.9541  154.0960 O   0  0  0  0  0  0  0  0  0  0  0  0
  148.2449  141.5113  155.7538 C   0  0  0  0  0  0  0  0  0  0  0  0
  146.9837  141.8400  156.0814 F   0  0  0  0  0  0  0  0  0  0  0  0
  149.2705  142.1031  156.3997 C   0  0  0  0  0  0  0  0  0  0  0  0
  150.5941  141.8258  156.1192 N   0  0  0  0  0  0  0  0  0  0  0  0
  151.6769  142.5012  156.9287 C   0  0  2  0  0  0  0  0  0  0  0  0
  151.6801  142.0953  158.4146 C   0  0  0  0  0  0  0  0  0  0  0  0
  151.4984  143.4236  159.1306 C   0  0  0  0  0  0  0  0  0  0  0  0
  151.9495  144.4374  158.0851 C   0  0  0  0  0  0  0  0  0  0  0  0
  151.4840  143.8806  156.8656 O   0  0  0  0  0  0  0  0  0  0  0  0
  150.9116  140.8468  155.1494 C   0  0  0  0  0  0  0  0  0  0  0  0
  152.0816  140.5339  154.9232 O   0  0  0  0  0  0  0  0  0  0  0  0
  149.4439  136.9798  154.1391 N   0  0  0  0  0  0  0  0  0  0  0  0
  149.5132  135.6434  154.7208 C   0  0  0  0  0  0  0  0  0  0  0  0
  148.6759  134.6051  153.9858 C   0  0  0  0  0  0  0  0  0  0  0  0
  149.3231  133.5125  153.3512 C   0  0  0  0  0  0  0  0  0  0  0  0
  148.5790  132.5301  152.6591 C   0  0  0  0  0  0  0  0  0  0  0  0
  147.1831  132.6751  152.6178 C   0  0  0  0  0  0  0  0  0  0  0  0
  146.5480  133.7372  153.2268 C   0  0  0  0  0  0  0  0  0  0  0  0
  147.2644  134.7264  153.9195 C   0  0  0  0  0  0  0  0  0  0  0  0
  145.2082  133.6374  153.0342 O   0  0  0  0  0  0  0  0  0  0  0  0
  145.0148  132.4685  152.2806 C   0  0  0  0  0  0  0  0  0  0  0  0
  146.2616  131.8746  152.0239 O   0  0  0  0  0  0  0  0  0  0  0  0
  151.0075  139.5035  152.8085 H   0  0  0  0  0  0  0  0  0  0  0  0
  149.3392  139.0949  152.7272 H   0  0  0  0  0  0  0  0  0  0  0  0
  149.0369  142.8265  157.1671 H   0  0  0  0  0  0  0  0  0  0  0  0
  152.6194  142.2484  156.4407 H   0  0  0  0  0  0  0  0  0  0  0  0
  150.9008  141.3713  158.6538 H   0  0  0  0  0  0  0  0  0  0  0  0
  152.6478  141.6516  158.6507 H   0  0  0  0  0  0  0  0  0  0  0  0
  150.4466  143.5808  159.3707 H   0  0  0  0  0  0  0  0  0  0  0  0
  152.0683  143.4891  160.0576 H   0  0  0  0  0  0  0  0  0  0  0  0
  151.5372  145.4319  158.2560 H   0  0  0  0  0  0  0  0  0  0  0  0
  153.0379  144.5132  158.0607 H   0  0  0  0  0  0  0  0  0  0  0  0
  148.5398  137.2926  153.8160 H   0  0  0  0  0  0  0  0  0  0  0  0
  150.5534  135.3184  154.7034 H   0  0  0  0  0  0  0  0  0  0  0  0
  149.2210  135.6859  155.7715 H   0  0  0  0  0  0  0  0  0  0  0  0
  150.3986  133.4228  153.3978 H   0  0  0  0  0  0  0  0  0  0  0  0
  149.0674  131.6956  152.1780 H   0  0  0  0  0  0  0  0  0  0  0  0
  146.7445  135.5503  154.3855 H   0  0  0  0  0  0  0  0  0  0  0  0
  144.3870  131.7736  152.8391 H   0  0  0  0  0  0  0  0  0  0  0  0
  144.5277  132.7185  151.3376 H   0  0  0  0  0  0  0  0  0  0  0  0
  1  2  2  0  0  0  0
  2  3  1  0  0  0  0
  2 18  1  0  0  0  0
  3  4  1  0  0  0  0
  3 29  1  0  0  0  0
  3 30  1  0  0  0  0
  4 16  1  0  0  0  0
  4  5  1  0  0  0  0
  5  6  2  0  0  0  0
  5  7  1  0  0  0  0
  7  8  1  0  0  0  0
  7  9  2  0  0  0  0
  9 10  1  0  0  0  0
  9 31  1  0  0  0  0
 10 11  1  0  0  0  0
 10 16  1  0  0  0  0
 11 15  1  0  0  0  0
 11 12  1  0  0  0  0
 11 32  1  0  0  0  0
 12 13  1  0  0  0  0
 12 33  1  0  0  0  0
 12 34  1  0  0  0  0
 13 14  1  0  0  0  0
 13 35  1  0  0  0  0
 13 36  1  0  0  0  0
 14 15  1  0  0  0  0
 14 37  1  0  0  0  0
 14 38  1  0  0  0  0
 16 17  2  0  0  0  0
 18 19  1  0  0  0  0
 18 39  1  0  0  0  0
 19 20  1  0  0  0  0
 19 40  1  0  0  0  0
 19 41  1  0  0  0  0
 20 25  1  0  0  0  0
 20 21  2  0  0  0  0
 21 22  1  0  0  0  0
 21 42  1  0  0  0  0
 22 23  2  0  0  0  0
 22 43  1  0  0  0  0
 23 28  1  0  0  0  0
 23 24  1  0  0  0  0
 24 25  2  0  0  0  0
 24 26  1  0  0  0  0
 25 44  1  0  0  0  0
 26 27  1  0  0  0  0
 27 28  1  0  0  0  0
 27 45  1  0  0  0  0
 27 46  1  0  0  0  0
M  END
> <s_m_source_file>
AV-unprocessed.smi

> <i_m_source_file_index>
97

> <i_lp_mmshare_version>
43012

> <i_f3d_flags>
0

> <s_epik_input>
TzFbQ0gyXU9jKGMxMilbY0hdYyhbY0hdW2NIXTIpW0NIMl1bTkhdQyg9TylbQ0gyXW4zYyg9TyljKEYpW2NIXW4oYzM9TylbQ0BASF00W0NIMl1bQ0gyXVtDSDJdTzQ=

> <s_epik_cmdline>
J2VwaWtfcHl0aG9uJywgJy1waCcsICc3LjAnLCAnLXRuJywgJzgnLCAnLW1hJywgJzIwMCcsICctbWV0YWxfYmluZGluZycsICctaW1hZScsICc8aW5maWxlLm1hZT4nLCAnLW9tYWUnLCAnPG91dGZpbGUubWFlPic=

> <r_lp_tautomer_probability>
1

> <r_epik_Ionization_Penalty>
3.79042e-08

> <r_epik_Ionization_Penalty_Charging>
3.81036e-09

> <r_epik_Ionization_Penalty_Neutral>
3.40938e-08

> <r_epik_State_Penalty>
-0

> <r_epik_Charging_Adjusted_Penalty>
3.81036e-09

> <i_epik_Tot_Q>
0

> <i_epik_Tot_abs_Q>
0

> <r_epik_Metal_State_Penalty>
-0

> <b_epik_Metal_Only>
0

> <s_epik_Chemistry_Notes>
This compound contains an acetal/aminal-like group ( X-CH(R)-Y where X, Y are N, S, or O) that may be acid/base labile, releasing an aldehyde.

> <s_lp_Force_Field>
OPLS_2005

> <r_lp_Energy>
33.0069

> <b_lp_Chiralities_Consistent>
1

> <s_lp_Variant>
AV-unprocessed.smi:97-1

> <Gold.Version>
5.8.1

> <Gold.Id.Protein>
6NUR|6NUR_protein|mol2

> <Gold.PLP.Fitness>
52.6436

> <Gold.PLP.PLP>
-45.0141

> <Gold.PLP.part.hbond>
-3.0000

> <Gold.PLP.part.metal>
0.0000

> <Gold.PLP.part.buried>
-2.1330

> <Gold.PLP.part.nonpolar>
-41.0221

> <Gold.PLP.part.repulsive>
3.3172

> <Gold.PLP.ligand.clash>
0.0000

> <Gold.PLP.ligand.torsion>
0.9313

> <Gold.PLP.Chemscore.Hbond>
2.2829

> <Gold.PLP.Chemscore.CHOScore>
0.8654

> <Gold.PLP.Chemscore.Metal>
0.0000

> <Gold.Chemscore.Hbonds>
donor molecule, donor type, donor heavy atom, donor atom, acceptor molecule, acceptor atom, score
      P1  H  7989  7998       L1    17  0.06
      L1  C     9    31       P1  8028  0.32

> <Gold.PLP.Chemscore.Internal.Correction>
0.0472

> <Gold.Rescore>
     Score         DG    S(hbond)    S(metal)    S(lipo)     H(rot)  DE(clash)    DE(int)     intcor
     12.75     -14.38       1.97        0.00      76.35       2.58       0.16       1.46       ----

> <Gold.Chemscore.Fitness>
12.7503

> <Gold.Chemscore.DG>
-14.3789

> <Gold.Chemscore.ZeroCoef>
-5.4800

> <Gold.Chemscore.Hbond>
1.9673

> <Gold.Chemscore.Metal>
0.0000

> <Gold.Chemscore.Lipo>
76.3507

> <Gold.Chemscore.Internal_Hbond>
0.0000

> <Gold.Chemscore.DEClash>
0.1645

> <Gold.Chemscore.DEInternal>
1.4640

> <Gold.Chemscore.Rot>
2.5801

> <Gold.Chemscore.Internal.Correction>
   9.000000E+99

> <Gold.Chemscore.Hbond.Weighted>
-6.5709

> <Gold.Chemscore.Metal.Weighted>
-0.0000

> <Gold.Chemscore.Lipo.Weighted>
-8.9330

> <Gold.Chemscore.Internal_Hbond.Weighted>
0.0000

> <Gold.Chemscore.DEClash.Weighted>
0.1645

> <Gold.Chemscore.DEInternal.Weighted>
1.4640

> <Gold.Chemscore.Rot.Weighted>
6.6050

> <Gold.Chemscore.Internal.Correction.Weighted>
   9.000000E+99

> <Gold.Protein.RotatedTorsions>
[ 6907 6896 6895 6894 ] final  121.96 input  -60.11 | X-H torsion
[ 7974 7965 7964 7962 ] final  -53.11 input  175.53 | X-H torsion
[ 8008 7997 7996 7995 ] final -140.92 input   59.86 | X-H torsion
[ 10167 10162 10161 10158 ] final  -14.26 input  -65.29 | X-H torsion
[ 10718 10713 10712 10709 ] final -160.23 input   66.30 | X-H torsion
[ 10763 10752 10751 10750 ] final  -36.95 input  -60.55 | X-H torsion
[ 11005 11000 10999 10996 ] final  -77.46 input  -57.11 | X-H torsion

> <Gold.Protein.ActiveResidues>
 VAL166  LYS551  ARG553  GLY616  TRP617  ASP618  TYR619  PRO620  LYS621  CYS622 
 ASP623  PHE694  ASN695  SER759  ASP760  ASP761  ALA762  ILE779  LEU786  VAL792 
 PHE793  MET794  SER795  GLU796  ALA797  LYS798  CYS799  TRP800  GLU811  SER814 

> <Gold.Protein.RotatedAtoms>
  152.4281  133.7230  159.6543 H   0  0  0  0  0  0  0  0  0  0  0  0  # atno 6907 bound_to 6896
  150.8159  133.8328  159.3167 H   0  0  0  0  0  0  0  0  0  0  0  0  # atno 6908 bound_to 6896
  151.6025  135.1048  160.0115 H   0  0  0  0  0  0  0  0  0  0  0  0  # atno 6909 bound_to 6896
  145.9005  140.7998  142.9745 H   0  0  0  0  0  0  0  0  0  0  0  0  # atno 7974 bound_to 7965
  155.4693  140.0551  157.2981 H   0  0  0  0  0  0  0  0  0  0  0  0  # atno 8008 bound_to 7997
  154.4705  140.2038  155.9961 H   0  0  0  0  0  0  0  0  0  0  0  0  # atno 8009 bound_to 7997
  156.1047  140.3213  155.7994 H   0  0  0  0  0  0  0  0  0  0  0  0  # atno 8010 bound_to 7997
  140.7198  143.5340  150.9486 H   0  0  0  0  0  0  0  0  0  0  0  0  # atno 10167 bound_to 10162
  156.5792  130.8722  151.2859 H   0  0  0  0  0  0  0  0  0  0  0  0  # atno 10718 bound_to 10713
  153.8882  135.6815  153.4762 H   0  0  0  0  0  0  0  0  0  0  0  0  # atno 10763 bound_to 10752
  153.1196  135.4746  154.9170 H   0  0  0  0  0  0  0  0  0  0  0  0  # atno 10764 bound_to 10752
  154.7635  135.3217  154.8284 H   0  0  0  0  0  0  0  0  0  0  0  0  # atno 10765 bound_to 10752
  141.1660  133.7023  156.7823 H   0  0  0  0  0  0  0  0  0  0  0  0  # atno 11005 bound_to 11000
  144.6735  140.1670  143.7417 LP  0  0  0  0  0  0  0  0  0  0  0  0  # atno 17320 bound_to 7965
  145.8797  139.2316  143.1613 LP  0  0  0  0  0  0  0  0  0  0  0  0  # atno 17321 bound_to 7965
  139.9061  143.6776  152.3123 LP  0  0  0  0  0  0  0  0  0  0  0  0  # atno 17342 bound_to 10162
  139.7143  144.7614  151.1060 LP  0  0  0  0  0  0  0  0  0  0  0  0  # atno 17343 bound_to 10162
  157.7330  130.9724  150.1958 LP  0  0  0  0  0  0  0  0  0  0  0  0  # atno 17370 bound_to 10713
  156.2647  130.3715  149.8094 LP  0  0  0  0  0  0  0  0  0  0  0  0  # atno 17371 bound_to 10713
  140.2385  134.8631  157.3549 LP  0  0  0  0  0  0  0  0  0  0  0  0  # atno 17394 bound_to 11000
  140.1819  134.4479  155.7767 LP  0  0  0  0  0  0  0  0  0  0  0  0  # atno 17395 bound_to 11000

$$$$
