AV-unprocessed.smi:160|AV-procd|sdf|1369|dock7
  -GOLD-   2262019 83D 1   1.00000     0.00000
 Structure written by MMmdl.
 28 29  0  0  0  0  0  0  0  0  2 V2000
  153.4473  138.7174  157.5127 N   0  5  0  0  0  0  0  0  0  0  0  0
  153.0349  137.6294  156.8266 C   0  0  0  0  0  0  0  0  0  0  0  0
  153.5176  136.4994  156.8963 O   0  0  0  0  0  0  0  0  0  0  0  0
  151.8656  137.8763  155.9030 C   0  0  0  0  0  0  0  0  0  0  0  0
  151.9075  137.4626  154.5999 N   0  0  0  0  0  0  0  0  0  0  0  0
  150.7111  137.8781  154.2067 C   0  0  0  0  0  0  0  0  0  0  0  0
  149.9974  138.4804  155.1620 N   0  0  0  0  0  0  0  0  0  0  0  0
  148.6221  139.0765  155.0953 C   0  0  2  0  0  0  0  0  0  0  0  0
  147.7974  138.2085  154.3771 O   0  0  0  0  0  0  0  0  0  0  0  0
  147.6089  138.7064  153.0569 C   0  0  1  0  0  0  0  0  0  0  0  0
  146.3622  138.0878  152.3997 C   0  0  0  0  0  0  0  0  0  0  0  0
  146.5010  138.0863  150.9950 O   0  0  0  0  0  0  0  0  0  0  0  0
  147.5565  140.2252  153.2778 C   0  0  1  0  0  0  0  0  0  0  0  0
  146.2672  140.6339  153.6999 O   0  0  0  0  0  0  0  0  0  0  0  0
  148.5740  140.4553  154.3909 C   0  0  2  0  0  0  0  0  0  0  0  0
  149.8090  140.8832  153.8437 O   0  0  0  0  0  0  0  0  0  0  0  0
  150.7473  138.4964  156.2925 N   0  0  0  0  0  0  0  0  0  0  0  0
  148.2958  139.1156  156.1352 H   0  0  0  0  0  0  0  0  0  0  0  0
  148.4930  138.4809  152.4580 H   0  0  0  0  0  0  0  0  0  0  0  0
  147.7990  140.7734  152.3661 H   0  0  0  0  0  0  0  0  0  0  0  0
  148.2392  141.2120  155.1017 H   0  0  0  0  0  0  0  0  0  0  0  0
  153.7036  138.6036  158.5007 H   0  0  0  0  0  0  0  0  0  0  0  0
  150.3452  137.7369  153.2004 H   0  0  0  0  0  0  0  0  0  0  0  0
  146.1820  137.0750  152.7613 H   0  0  0  0  0  0  0  0  0  0  0  0
  145.4792  138.6816  152.6374 H   0  0  0  0  0  0  0  0  0  0  0  0
  145.8055  138.6059  150.6223 H   0  0  0  0  0  0  0  0  0  0  0  0
  145.6693  140.5322  152.9754 H   0  0  0  0  0  0  0  0  0  0  0  0
  149.7203  140.9392  152.9048 H   0  0  0  0  0  0  0  0  0  0  0  0
  1  2  1  0  0  0  0
  1 22  1  0  0  0  0
  2  3  2  0  0  0  0
  2  4  1  0  0  0  0
  4 17  2  0  0  0  0
  4  5  1  0  0  0  0
  5  6  2  0  0  0  0
  6  7  1  0  0  0  0
  6 23  1  0  0  0  0
  7  8  1  0  0  0  0
  7 17  1  0  0  0  0
  8 18  1  0  0  0  0
  8 15  1  0  0  0  0
  8  9  1  0  0  0  0
  9 10  1  0  0  0  0
 10 19  1  0  0  0  0
 10 11  1  0  0  0  0
 10 13  1  0  0  0  0
 11 12  1  0  0  0  0
 11 24  1  0  0  0  0
 11 25  1  0  0  0  0
 12 26  1  0  0  0  0
 13 20  1  0  0  0  0
 13 14  1  0  0  0  0
 13 15  1  0  0  0  0
 14 27  1  0  0  0  0
 15 21  1  0  0  0  0
 15 16  1  0  0  0  0
 16 28  1  0  0  0  0
M  CHG  1   1  -1
M  END
> <s_m_source_file>
AV-unprocessed.smi

> <i_m_source_file_index>
160

> <i_lp_mmshare_version>
43012

> <i_f3d_flags>
0

> <s_epik_input>
W05IMl1DKD1PKWMxbltjSF1uKG4xKVtDQEBIXTJPW0NASF0oW0NIMl1bT0hdKVtDQEBIXShbT0hdKVtDQEhdMltPSF0=

> <s_epik_cmdline>
J2VwaWtfcHl0aG9uJywgJy1waCcsICc3LjAnLCAnLXRuJywgJzgnLCAnLW1hJywgJzIwMCcsICctbWV0YWxfYmluZGluZycsICctaW1hZScsICc8aW5maWxlLm1hZT4nLCAnLW9tYWUnLCAnPG91dGZpbGUubWFlPic=

> <r_lp_tautomer_probability>
1

> <r_epik_Ionization_Penalty>
6.6993

> <r_epik_Ionization_Penalty_Charging>
6.6993

> <r_epik_Ionization_Penalty_Neutral>
6.01698e-06

> <r_epik_State_Penalty>
6.69929

> <r_epik_Charging_Adjusted_Penalty>
13.3986

> <i_epik_Tot_Q>
-1

> <i_epik_Tot_abs_Q>
1

> <r_epik_Metal_State_Penalty>
2.62798

> <b_epik_Metal_Only>
1

> <s_epik_Chemistry_Notes>
This compound contains an acetal/aminal-like group ( X-CH(R)-Y where X, Y are N, S, or O) that may be acid/base labile, releasing an aldehyde.

> <s_lp_Force_Field>
OPLS_2005

> <r_lp_Energy>
46.3304

> <b_lp_Chiralities_Consistent>
1

> <s_lp_Variant>
AV-unprocessed.smi:160-27

> <Gold.Version>
5.8.1

> <Gold.Id.Protein>
6NUR|6NUR_protein|mol2

> <Gold.PLP.Fitness>
45.5500

> <Gold.PLP.PLP>
-24.0783

> <Gold.PLP.part.hbond>
-9.5593

> <Gold.PLP.part.metal>
0.0000

> <Gold.PLP.part.buried>
0.8841

> <Gold.PLP.part.nonpolar>
-16.8270

> <Gold.PLP.part.repulsive>
0.2737

> <Gold.PLP.ligand.clash>
0.0000

> <Gold.PLP.ligand.torsion>
1.6683

> <Gold.PLP.Chemscore.Hbond>
7.2363

> <Gold.PLP.Chemscore.CHOScore>
1.0310

> <Gold.PLP.Chemscore.Metal>
0.0000

> <Gold.Chemscore.Hbonds>
donor molecule, donor type, donor heavy atom, donor atom, acceptor molecule, acceptor atom, score
      L1  H    12    26       P1 10171  0.83
      L1  H    14    27       P1 10175  0.86
      L1  H    16    28       P1  7957  1.00
      P1  H  7954  7966       L1    12  1.00
      P1  H  7989  7998       L1    16  0.07
      P1  H  7997  8008       L1     1  1.95
      P1  H 10752 10764       L1     5  0.57
      P1  H 10752 10765       L1     3  0.83
      L1  C     6    23       P1  7948  0.77
      L1  C     6    23       P1  7949  0.30

> <Gold.PLP.Chemscore.Internal.Correction>
0.0065

> <Gold.Rescore>
     Score         DG    S(hbond)    S(metal)    S(lipo)     H(rot)  DE(clash)    DE(int)     intcor
     14.48     -16.97       5.61        0.00      26.58       4.04       0.90       1.59       ----

> <Gold.Chemscore.Fitness>
14.4762

> <Gold.Chemscore.DG>
-16.9702

> <Gold.Chemscore.ZeroCoef>
-5.4800

> <Gold.Chemscore.Hbond>
5.6057

> <Gold.Chemscore.Metal>
0.0000

> <Gold.Chemscore.Lipo>
26.5830

> <Gold.Chemscore.Internal_Hbond>
0.0000

> <Gold.Chemscore.DEClash>
0.9022

> <Gold.Chemscore.DEInternal>
1.5918

> <Gold.Chemscore.Rot>
4.0403

> <Gold.Chemscore.Internal.Correction>
   9.000000E+99

> <Gold.Chemscore.Hbonds>
donor molecule, donor type, donor heavy atom, donor atom, acceptor molecule, acceptor atom, score
      L1  H    12    26       P1 10171  0.78
      L1  H    14    27       P1 10175  0.65
      L1  H    16    28       P1  7957  0.93
      P1  H  7954  7966       L1    12  0.90
      P1  H  7997  8008       L1     1  0.78
      P1  H 10752 10764       L1     5  0.55
      P1  H 10752 10765       L1     3  0.81

> <Gold.Chemscore.Hbond.Weighted>
-18.7230

> <Gold.Chemscore.Metal.Weighted>
-0.0000

> <Gold.Chemscore.Lipo.Weighted>
-3.1102

> <Gold.Chemscore.Internal_Hbond.Weighted>
0.0000

> <Gold.Chemscore.DEClash.Weighted>
0.9022

> <Gold.Chemscore.DEInternal.Weighted>
1.5918

> <Gold.Chemscore.Rot.Weighted>
10.3431

> <Gold.Chemscore.Internal.Correction.Weighted>
   9.000000E+99

> <Gold.Protein.RotatedTorsions>
[ 6907 6896 6895 6894 ] final   73.21 input  -60.11 | X-H torsion
[ 7974 7965 7964 7962 ] final  159.83 input  175.53 | X-H torsion
[ 8008 7997 7996 7995 ] final  -60.26 input   59.86 | X-H torsion
[ 10167 10162 10161 10158 ] final  139.25 input  -65.29 | X-H torsion
[ 10718 10713 10712 10709 ] final  -27.04 input   66.30 | X-H torsion
[ 10763 10752 10751 10750 ] final  -91.82 input  -60.55 | X-H torsion
[ 11005 11000 10999 10996 ] final -102.06 input  -57.11 | X-H torsion

> <Gold.Protein.ActiveResidues>
 VAL166  LYS551  ARG553  GLY616  TRP617  ASP618  TYR619  PRO620  LYS621  CYS622 
 ASP623  PHE694  ASN695  SER759  ASP760  ASP761  ALA762  ILE779  LEU786  VAL792 
 PHE793  MET794  SER795  GLU796  ALA797  LYS798  CYS799  TRP800  GLU811  SER814 

> <Gold.Protein.RotatedAtoms>
  152.4911  134.4455  159.9557 H   0  0  0  0  0  0  0  0  0  0  0  0  # atno 6907 bound_to 6896
  151.4442  133.3629  159.2794 H   0  0  0  0  0  0  0  0  0  0  0  0  # atno 6908 bound_to 6896
  150.9066  134.8505  159.7457 H   0  0  0  0  0  0  0  0  0  0  0  0  # atno 6909 bound_to 6896
  144.7769  139.7672  143.6275 H   0  0  0  0  0  0  0  0  0  0  0  0  # atno 7974 bound_to 7965
  154.4390  140.1043  156.6246 H   0  0  0  0  0  0  0  0  0  0  0  0  # atno 8008 bound_to 7997
  155.5671  140.3488  155.4487 H   0  0  0  0  0  0  0  0  0  0  0  0  # atno 8009 bound_to 7997
  156.0417  140.1283  157.0137 H   0  0  0  0  0  0  0  0  0  0  0  0  # atno 8010 bound_to 7997
  139.5084  144.6305  151.5828 H   0  0  0  0  0  0  0  0  0  0  0  0  # atno 10167 bound_to 10162
  156.4433  130.4469  149.7038 H   0  0  0  0  0  0  0  0  0  0  0  0  # atno 10718 bound_to 10713
  154.6799  135.5254  153.8249 H   0  0  0  0  0  0  0  0  0  0  0  0  # atno 10763 bound_to 10752
  153.0558  135.6550  154.0592 H   0  0  0  0  0  0  0  0  0  0  0  0  # atno 10764 bound_to 10752
  154.0480  135.2971  155.3324 H   0  0  0  0  0  0  0  0  0  0  0  0  # atno 10765 bound_to 10752
  141.1205  133.8528  157.1311 H   0  0  0  0  0  0  0  0  0  0  0  0  # atno 11005 bound_to 11000
  146.1954  139.5217  142.9778 LP  0  0  0  0  0  0  0  0  0  0  0  0  # atno 17320 bound_to 7965
  145.6160  141.0331  143.1940 LP  0  0  0  0  0  0  0  0  0  0  0  0  # atno 17321 bound_to 7965
  140.6037  143.9564  150.6403 LP  0  0  0  0  0  0  0  0  0  0  0  0  # atno 17342 bound_to 10162
  140.2784  143.3407  152.1174 LP  0  0  0  0  0  0  0  0  0  0  0  0  # atno 17343 bound_to 10162
  156.3894  130.7619  151.2619 LP  0  0  0  0  0  0  0  0  0  0  0  0  # atno 17370 bound_to 10713
  157.7505  131.0272  150.3996 LP  0  0  0  0  0  0  0  0  0  0  0  0  # atno 17371 bound_to 10713
  140.0159  134.9968  157.0491 LP  0  0  0  0  0  0  0  0  0  0  0  0  # atno 17394 bound_to 11000
  140.4521  134.1571  155.7182 LP  0  0  0  0  0  0  0  0  0  0  0  0  # atno 17395 bound_to 11000

$$$$
