#       Name:                AV-unprocessed.smi:1147
#       Creating user name   scv26
#       Creation time:       Fri Mar 27 03:46:14 2020


#       File generated by GOLD software.
#

@<TRIPOS>MOLECULE
AV-unprocessed.smi:1147
    46    47     1
SMALL
NO_CHARGES


@<TRIPOS>ATOM
      1 ****        -5.6518  -0.4877  -1.6215 C.3            1 S1                 0.0000
      2 ****        -5.1480   0.7266  -0.8384 C.2            1 S1                 0.0000
      3 ****        -5.9006   1.6948  -0.7298 O.2            1 S1                 0.0000
      4 ****        -3.9062   0.6994  -0.2970 N.am           1 S1                 0.0000
      5 ****        -2.9447  -0.4083  -0.4220 C.3            1 S1                 0.0000
      6 ****        -1.6916   0.0932  -1.1675 C.3            1 S1                 0.0000
      7 ****        -1.1137   1.2257  -0.4193 N.am           1 S1                 0.0000
      8 ****         0.0553   1.2221   0.2699 C.2            1 S1                 0.0000
      9 ****         0.3909   2.1285   1.0337 O.2            1 S1                 0.0000
     10 ****         0.8469   0.1629   0.0276 N.am           1 S1                 0.0000
     11 ****         2.1582  -0.0783   0.6235 C.3            1 S1                 0.0000
     12 ****         1.9975  -0.7525   1.9986 C.3            1 S1                 0.0000
     13 ****         3.0139  -0.9000  -0.3613 C.3            1 S1                 0.0000
     14 ****         4.3501  -1.1657   0.1413 N.pl3          1 S1                 0.0000
     15 ****         5.4283  -0.3078   0.1959 C.2            1 S1                 0.0000
     16 ****         6.4692  -0.9977   0.7480 C.2            1 S1                 0.0000
     17 ****         5.9238  -2.2878   0.9993 C.2            1 S1                 0.0000
     18 ****         4.6563  -2.3863   0.6324 N.2            1 S1                 0.0000
     19 ****        -2.0752   2.3337  -0.3189 C.3            1 S1                 0.0000
     20 ****        -3.3302   1.8420   0.4294 C.3            1 S1                 0.0000
     21 ****        -5.0111  -0.6868  -2.4811 H              1 S1                 0.0000
     22 ****        -6.6617  -0.3126  -1.9939 H              1 S1                 0.0000
     23 ****        -5.6813  -1.3733  -0.9862 H              1 S1                 0.0000
     24 ****        -2.6732  -0.7566   0.5757 H              1 S1                 0.0000
     25 ****        -3.3443  -1.2793  -0.9385 H              1 S1                 0.0000
     26 ****        -1.0039  -0.7392  -1.3146 H              1 S1                 0.0000
     27 ****        -1.9616   0.4287  -2.1702 H              1 S1                 0.0000
     28 ****         0.5105  -0.5332  -0.6216 H              1 S1                 0.0000
     29 ****         2.6567   0.8815   0.7722 H              1 S1                 0.0000
     30 ****         2.9587  -0.8755   2.4979 H              1 S1                 0.0000
     31 ****         1.5426  -1.7390   1.9042 H              1 S1                 0.0000
     32 ****         1.3670  -0.1576   2.6600 H              1 S1                 0.0000
     33 ****         2.5257  -1.8497  -0.5879 H              1 S1                 0.0000
     34 ****         3.1116  -0.3676  -1.3085 H              1 S1                 0.0000
     35 ****         5.3643   0.7112  -0.1567 H              1 S1                 0.0000
     36 ****         7.4680  -0.6361   0.9426 H              1 S1                 0.0000
     37 ****         6.4083  -3.1499   1.4335 H              1 S1                 0.0000
     38 ****        -1.6624   3.2071   0.1878 H              1 S1                 0.0000
     39 ****        -2.3416   2.6716  -1.3216 H              1 S1                 0.0000
     40 ****        -4.0314   2.6697   0.5415 H              1 S1                 0.0000
     41 ****        -3.0697   1.5302   1.4420 H              1 S1                 0.0000
     42 ****        -6.8092   1.6710  -1.1467 LP             1 S1                 0.0000
     43 ****        -5.6033   2.5050  -0.2247 LP             1 S1                 0.0000
     44 ****        -0.2101   2.9161   1.1695 LP             1 S1                 0.0000
     45 ****         1.2643   2.0766   1.5179 LP             1 S1                 0.0000
     46 ****         4.0590  -3.1852   0.7029 LP             1 S1                 0.0000
@<TRIPOS>BOND
    1    1    2 1     
    2    1   21 1     
    3    1   22 1     
    4    1   23 1     
    5    2    3 2     
    6    2    4 am    
    7    4   20 1     
    8    4    5 1     
    9    5    6 1     
   10    5   24 1     
   11    5   25 1     
   12    6    7 1     
   13    6   26 1     
   14    6   27 1     
   15    7    8 am    
   16    7   19 1     
   17    8    9 2     
   18    8   10 am    
   19   10   11 1     
   20   10   28 1     
   21   11   12 1     
   22   11   13 1     
   23   11   29 1     
   24   12   30 1     
   25   12   31 1     
   26   12   32 1     
   27   13   14 1     
   28   13   33 1     
   29   13   34 1     
   30   14   18 1     
   31   14   15 1     
   32   15   16 2     
   33   15   35 1     
   34   16   17 1     
   35   16   36 1     
   36   17   18 2     
   37   17   37 1     
   38   19   20 1     
   39   19   38 1     
   40   19   39 1     
   41   20   40 1     
   42   20   41 1     
   43    3   42 1     
   44    3   43 1     
   45    9   44 1     
   46    9   45 1     
   47   18   46 1     
@<TRIPOS>SUBSTRUCTURE
      1 S1             1
@<TRIPOS>SET
LONE_PAIRS      STATIC     ATOMS    <user>   **** ""
5 42 43 44 45 46
DONOR_HYDROGENS      STATIC     ATOMS    <user>   **** ""
1 28
ATOM$BLUE        STATIC     ATOMS    COLORGROUP SYSTEM
5 42 43 44 45 46
ATOM$RED        STATIC     ATOMS    COLORGROUP SYSTEM
1 28
