AV-unprocessed.smi:1328|AV-procd|sdf|5480|dock6
  -GOLD-   22720 5 53D 1   1.00000     0.00000
 Structure written by MMmdl.
 38 39  0  0  0  0  0  0  0  0  1 V2000
  148.4653  138.5098  156.4130 C   0  0  0  0  0  0  0  0  0  0  0  0
  149.7914  138.2775  155.7473 C   0  0  0  0  0  0  0  0  0  0  0  0
  150.1265  137.0546  155.3721 N   0  0  0  0  0  0  0  0  0  0  0  0
  151.3930  137.1659  154.7907 O   0  0  0  0  0  0  0  0  0  0  0  0
  151.7762  138.4670  154.8401 C   0  0  0  0  0  0  0  0  0  0  0  0
  153.1113  138.7914  154.2586 C   0  0  0  0  0  0  0  0  0  0  0  0
  150.8084  139.2265  155.4396 C   0  0  0  0  0  0  0  0  0  0  0  0
  150.8019  140.7098  155.7078 C   0  0  0  0  0  0  0  0  0  0  0  0
  150.7133  140.9532  157.2137 C   0  0  0  0  0  0  0  0  0  0  0  0
  149.6360  140.8356  157.7971 O   0  0  0  0  0  0  0  0  0  0  0  0
  151.8541  141.3096  157.8225 N   0  0  0  0  0  0  0  0  0  0  0  0
  151.9890  141.6996  159.2216 C   0  0  1  0  0  0  0  0  0  0  0  0
  153.1131  140.8846  159.8830 C   0  0  0  0  0  0  0  0  0  0  0  0
  152.2472  143.2168  159.2844 C   0  0  2  0  0  0  0  0  0  0  0  0
  152.1705  143.8265  160.6835 C   0  0  0  0  0  0  0  0  0  0  0  0
  151.8513  145.2879  160.4118 C   0  0  0  0  0  0  0  0  0  0  0  0
  151.3174  145.2934  158.9761 C   0  0  0  0  0  0  0  0  0  0  0  0
  151.2224  143.9255  158.6035 O   0  0  0  0  0  0  0  0  0  0  0  0
  148.0459  139.4747  156.1281 H   0  0  0  0  0  0  0  0  0  0  0  0
  148.5673  138.4992  157.4983 H   0  0  0  0  0  0  0  0  0  0  0  0
  147.7390  137.7440  156.1386 H   0  0  0  0  0  0  0  0  0  0  0  0
  153.0876  139.7468  153.7349 H   0  0  0  0  0  0  0  0  0  0  0  0
  153.4236  138.0282  153.5457 H   0  0  0  0  0  0  0  0  0  0  0  0
  153.8671  138.8538  155.0414 H   0  0  0  0  0  0  0  0  0  0  0  0
  151.7028  141.1880  155.3212 H   0  0  0  0  0  0  0  0  0  0  0  0
  149.9629  141.2015  155.2138 H   0  0  0  0  0  0  0  0  0  0  0  0
  152.6864  141.3766  157.2549 H   0  0  0  0  0  0  0  0  0  0  0  0
  151.0521  141.4903  159.7415 H   0  0  0  0  0  0  0  0  0  0  0  0
  153.2095  141.1282  160.9411 H   0  0  0  0  0  0  0  0  0  0  0  0
  154.0754  141.0773  159.4077 H   0  0  0  0  0  0  0  0  0  0  0  0
  152.9167  139.8142  159.8151 H   0  0  0  0  0  0  0  0  0  0  0  0
  153.2073  143.4614  158.8250 H   0  0  0  0  0  0  0  0  0  0  0  0
  151.3541  143.3735  161.2479 H   0  0  0  0  0  0  0  0  0  0  0  0
  153.0898  143.6939  161.2545 H   0  0  0  0  0  0  0  0  0  0  0  0
  151.1182  145.6707  161.1228 H   0  0  0  0  0  0  0  0  0  0  0  0
  152.7465  145.9064  160.4859 H   0  0  0  0  0  0  0  0  0  0  0  0
  150.3481  145.7854  158.8922 H   0  0  0  0  0  0  0  0  0  0  0  0
  152.0153  145.8006  158.3086 H   0  0  0  0  0  0  0  0  0  0  0  0
  1  2  1  0  0  0  0
  1 19  1  0  0  0  0
  1 20  1  0  0  0  0
  1 21  1  0  0  0  0
  2  7  1  0  0  0  0
  2  3  2  0  0  0  0
  3  4  1  0  0  0  0
  4  5  1  0  0  0  0
  5  6  1  0  0  0  0
  5  7  2  0  0  0  0
  6 22  1  0  0  0  0
  6 23  1  0  0  0  0
  6 24  1  0  0  0  0
  7  8  1  0  0  0  0
  8  9  1  0  0  0  0
  8 25  1  0  0  0  0
  8 26  1  0  0  0  0
  9 10  2  0  0  0  0
  9 11  1  0  0  0  0
 11 12  1  0  0  0  0
 11 27  1  0  0  0  0
 12 13  1  0  0  0  0
 12 14  1  0  0  0  0
 12 28  1  0  0  0  0
 13 29  1  0  0  0  0
 13 30  1  0  0  0  0
 13 31  1  0  0  0  0
 14 18  1  0  0  0  0
 14 15  1  0  0  0  0
 14 32  1  0  0  0  0
 15 16  1  0  0  0  0
 15 33  1  0  0  0  0
 15 34  1  0  0  0  0
 16 17  1  0  0  0  0
 16 35  1  0  0  0  0
 16 36  1  0  0  0  0
 17 18  1  0  0  0  0
 17 37  1  0  0  0  0
 17 38  1  0  0  0  0
M  END
> <s_m_source_file>
AV-unprocessed.smi

> <i_m_source_file_index>
1328

> <i_lp_mmshare_version>
43012

> <i_f3d_flags>
0

> <s_epik_input>
W0NIM11jMW5vYyhbQ0gzXSljMVtDSDJdQyg9TylbTkhdW0NASF0oW0NIM10pW0NAQEhdMltDSDJdW0NIMl1bQ0gyXU8y

> <s_epik_cmdline>
J2VwaWtfcHl0aG9uJywgJy1waCcsICc3LjAnLCAnLXRuJywgJzgnLCAnLW1hJywgJzIwMCcsICctbWV0YWxfYmluZGluZycsICctaW1hZScsICc8aW5maWxlLm1hZT4nLCAnLW9tYWUnLCAnPG91dGZpbGUubWFlPic=

> <r_lp_tautomer_probability>
1

> <r_epik_Ionization_Penalty>
2.66156e-08

> <r_epik_Ionization_Penalty_Charging>
0

> <r_epik_Ionization_Penalty_Neutral>
2.66156e-08

> <r_epik_State_Penalty>
-0

> <r_epik_Charging_Adjusted_Penalty>
0

> <i_epik_Tot_Q>
0

> <i_epik_Tot_abs_Q>
0

> <r_epik_Metal_State_Penalty>
-0

> <b_epik_Metal_Only>
0

> <s_lp_Force_Field>
OPLS_2005

> <r_lp_Energy>
11.7374

> <b_lp_Chiralities_Consistent>
1

> <s_lp_Variant>
AV-unprocessed.smi:1328-2

> <Gold.Version>
5.8.1

> <Gold.Id.Protein>
6NUR|6NUR_protein|mol2

> <Gold.PLP.Fitness>
38.4851

> <Gold.PLP.PLP>
-36.2244

> <Gold.PLP.part.hbond>
-1.0000

> <Gold.PLP.part.metal>
0.0000

> <Gold.PLP.part.buried>
-3.9028

> <Gold.PLP.part.nonpolar>
-29.9426

> <Gold.PLP.part.repulsive>
0.4458

> <Gold.PLP.ligand.clash>
0.0000

> <Gold.PLP.ligand.torsion>
0.3884

> <Gold.PLP.Chemscore.Hbond>
1.0000

> <Gold.PLP.Chemscore.CHOScore>
0.0000

> <Gold.PLP.Chemscore.Metal>
0.0000

> <Gold.Chemscore.Hbonds>
donor molecule, donor type, donor heavy atom, donor atom, acceptor molecule, acceptor atom, score
      P1  H 10752 10765       L1     4  0.52

> <Gold.PLP.Chemscore.Internal.Correction>
0.0375

> <Gold.Rescore>
     Score         DG    S(hbond)    S(metal)    S(lipo)     H(rot)  DE(clash)    DE(int)     intcor
     14.55     -16.32       0.89        0.00     100.30       1.52       0.06       1.71       ----

> <Gold.Chemscore.Fitness>
14.5503

> <Gold.Chemscore.DG>
-16.3199

> <Gold.Chemscore.ZeroCoef>
-5.4800

> <Gold.Chemscore.Hbond>
0.8940

> <Gold.Chemscore.Metal>
0.0000

> <Gold.Chemscore.Lipo>
100.2954

> <Gold.Chemscore.Internal_Hbond>
0.0000

> <Gold.Chemscore.DEClash>
0.0560

> <Gold.Chemscore.DEInternal>
1.7136

> <Gold.Chemscore.Rot>
1.5159

> <Gold.Chemscore.Internal.Correction>
   9.000000E+99

> <Gold.Chemscore.Hbonds>
donor molecule, donor type, donor heavy atom, donor atom, acceptor molecule, acceptor atom, score
      P1  H 10752 10765       L1     4  0.48

> <Gold.Chemscore.Hbond.Weighted>
-2.9861

> <Gold.Chemscore.Metal.Weighted>
-0.0000

> <Gold.Chemscore.Lipo.Weighted>
-11.7346

> <Gold.Chemscore.Internal_Hbond.Weighted>
0.0000

> <Gold.Chemscore.DEClash.Weighted>
0.0560

> <Gold.Chemscore.DEInternal.Weighted>
1.7136

> <Gold.Chemscore.Rot.Weighted>
3.8807

> <Gold.Chemscore.Internal.Correction.Weighted>
   9.000000E+99

> <Gold.Protein.RotatedTorsions>
[ 6907 6896 6895 6894 ] final  172.10 input  -60.11 | X-H torsion
[ 7974 7965 7964 7962 ] final  -53.19 input  175.53 | X-H torsion
[ 8008 7997 7996 7995 ] final  168.38 input   59.86 | X-H torsion
[ 10167 10162 10161 10158 ] final -113.99 input  -65.29 | X-H torsion
[ 10718 10713 10712 10709 ] final  -23.55 input   66.30 | X-H torsion
[ 10763 10752 10751 10750 ] final  159.26 input  -60.55 | X-H torsion
[ 11005 11000 10999 10996 ] final  -58.70 input  -57.11 | X-H torsion

> <Gold.Protein.ActiveResidues>
 VAL166  LYS551  ARG553  GLY616  TRP617  ASP618  TYR619  PRO620  LYS621  CYS622 
 ASP623  PHE694  ASN695  SER759  ASP760  ASP761  ALA762  ILE779  LEU786  VAL792 
 PHE793  MET794  SER795  GLU796  ALA797  LYS798  CYS799  TRP800  GLU811  SER814 

> <Gold.Protein.RotatedAtoms>
  151.7896  133.3358  159.3494 H   0  0  0  0  0  0  0  0  0  0  0  0  # atno 6907 bound_to 6896
  150.7396  134.5854  159.5970 H   0  0  0  0  0  0  0  0  0  0  0  0  # atno 6908 bound_to 6896
  152.3219  134.7371  160.0363 H   0  0  0  0  0  0  0  0  0  0  0  0  # atno 6909 bound_to 6896
  145.8996  140.8005  142.9750 H   0  0  0  0  0  0  0  0  0  0  0  0  # atno 7974 bound_to 7965
  156.1552  140.1592  156.8705 H   0  0  0  0  0  0  0  0  0  0  0  0  # atno 8008 bound_to 7997
  154.5108  140.0801  156.8021 H   0  0  0  0  0  0  0  0  0  0  0  0  # atno 8009 bound_to 7997
  155.3818  140.3405  155.4249 H   0  0  0  0  0  0  0  0  0  0  0  0  # atno 8010 bound_to 7997
  140.1059  143.4571  152.1783 H   0  0  0  0  0  0  0  0  0  0  0  0  # atno 10167 bound_to 10162
  156.4896  130.4563  149.6763 H   0  0  0  0  0  0  0  0  0  0  0  0  # atno 10718 bound_to 10713
  154.2290  135.2779  155.2897 H   0  0  0  0  0  0  0  0  0  0  0  0  # atno 10763 bound_to 10752
  154.5639  135.5639  153.7036 H   0  0  0  0  0  0  0  0  0  0  0  0  # atno 10764 bound_to 10752
  153.0024  135.6304  154.2432 H   0  0  0  0  0  0  0  0  0  0  0  0  # atno 10765 bound_to 10752
  141.1218  133.6613  156.4960 H   0  0  0  0  0  0  0  0  0  0  0  0  # atno 11005 bound_to 11000
  144.6735  140.1656  143.7418 LP  0  0  0  0  0  0  0  0  0  0  0  0  # atno 17320 bound_to 7965
  145.8807  139.2321  143.1607 LP  0  0  0  0  0  0  0  0  0  0  0  0  # atno 17321 bound_to 7965
  139.5646  144.7427  151.4059 LP  0  0  0  0  0  0  0  0  0  0  0  0  # atno 17342 bound_to 10162
  140.6952  143.7765  150.7316 LP  0  0  0  0  0  0  0  0  0  0  0  0  # atno 17343 bound_to 10162
  156.3440  130.7397  151.2347 LP  0  0  0  0  0  0  0  0  0  0  0  0  # atno 17370 bound_to 10713
  157.7475  131.0395  150.4556 LP  0  0  0  0  0  0  0  0  0  0  0  0  # atno 17371 bound_to 10713
  140.4484  134.6951  157.5027 LP  0  0  0  0  0  0  0  0  0  0  0  0  # atno 17394 bound_to 11000
  140.0182  134.6587  155.9279 LP  0  0  0  0  0  0  0  0  0  0  0  0  # atno 17395 bound_to 11000

$$$$
