AV-unprocessed.smi:1032|AV-procd|sdf|4482|dock10
  -GOLD-   22720 2463D 1   1.00000     0.00000
 Structure written by MMmdl.
 46 47  0  0  0  0  0  0  0  0  2 V2000
  143.3902  144.7420  154.7445 C   0  0  0  0  0  0  0  0  0  0  0  0
  144.5321  143.7417  154.9733 C   0  0  2  0  0  0  0  0  0  0  0  0
  145.3791  143.5477  153.7042 C   0  0  0  0  0  0  0  0  0  0  0  0
  146.4973  142.5156  153.9279 C   0  0  0  0  0  0  0  0  0  0  0  0
  145.9402  141.2141  154.3831 N   0  3  1  0  0  0  0  0  0  0  0  0
  146.9604  140.1387  154.4829 C   0  0  0  0  0  0  0  0  0  0  0  0
  147.0687  139.3053  153.1895 C   0  0  2  0  0  0  0  0  0  0  0  0
  147.0601  140.2048  152.0984 O   0  0  0  0  0  0  0  0  0  0  0  0
  145.8691  138.3481  153.0307 C   0  0  0  0  0  0  0  0  0  0  0  0
  146.2500  137.0855  152.4039 N   0  0  0  0  0  0  0  0  0  0  0  0
  145.3927  136.1280  152.0197 C   0  0  0  0  0  0  0  0  0  0  0  0
  144.1755  136.2086  152.1852 O   0  0  0  0  0  0  0  0  0  0  0  0
  146.0404  135.0894  151.4633 N   0  0  0  0  0  0  0  0  0  0  0  0
  145.5046  133.8878  150.9235 C   0  0  0  0  0  0  0  0  0  0  0  0
  146.4135  132.9409  150.4073 C   0  0  0  0  0  0  0  0  0  0  0  0
  145.9102  131.7476  149.8515 C   0  0  0  0  0  0  0  0  0  0  0  0
  144.5935  131.4615  149.7777 N   0  0  0  0  0  0  0  0  0  0  0  0
  143.7238  132.3742  150.2597 C   0  0  0  0  0  0  0  0  0  0  0  0
  144.1212  133.5976  150.8360 C   0  0  0  0  0  0  0  0  0  0  0  0
  145.1548  141.3689  155.6344 C   0  0  0  0  0  0  0  0  0  0  0  0
  144.0071  142.3757  155.4468 C   0  0  0  0  0  0  0  0  0  0  0  0
  142.7024  144.3912  153.9744 H   0  0  0  0  0  0  0  0  0  0  0  0
  143.7757  145.7119  154.4286 H   0  0  0  0  0  0  0  0  0  0  0  0
  142.8152  144.8983  155.6577 H   0  0  0  0  0  0  0  0  0  0  0  0
  145.1773  144.1477  155.7539 H   0  0  0  0  0  0  0  0  0  0  0  0
  144.7430  143.2208  152.8804 H   0  0  0  0  0  0  0  0  0  0  0  0
  145.8155  144.4991  153.3982 H   0  0  0  0  0  0  0  0  0  0  0  0
  147.0507  142.3904  152.9982 H   0  0  0  0  0  0  0  0  0  0  0  0
  147.2078  142.8878  154.6675 H   0  0  0  0  0  0  0  0  0  0  0  0
  147.9236  140.5851  154.7351 H   0  0  0  0  0  0  0  0  0  0  0  0
  146.7148  139.4670  155.3072 H   0  0  0  0  0  0  0  0  0  0  0  0
  148.0007  138.7417  153.1801 H   0  0  0  0  0  0  0  0  0  0  0  0
  147.7807  139.9880  151.5259 H   0  0  0  0  0  0  0  0  0  0  0  0
  145.4374  138.1252  154.0081 H   0  0  0  0  0  0  0  0  0  0  0  0
  145.0715  138.8142  152.4507 H   0  0  0  0  0  0  0  0  0  0  0  0
  147.2347  136.9397  152.2346 H   0  0  0  0  0  0  0  0  0  0  0  0
  147.0482  135.1458  151.4647 H   0  0  0  0  0  0  0  0  0  0  0  0
  147.4787  133.1180  150.4378 H   0  0  0  0  0  0  0  0  0  0  0  0
  146.5848  131.0043  149.4531 H   0  0  0  0  0  0  0  0  0  0  0  0
  142.6760  132.1247  150.1780 H   0  0  0  0  0  0  0  0  0  0  0  0
  143.3629  134.2827  151.1813 H   0  0  0  0  0  0  0  0  0  0  0  0
  144.7372  140.4057  155.9303 H   0  0  0  0  0  0  0  0  0  0  0  0
  145.8130  141.6913  156.4429 H   0  0  0  0  0  0  0  0  0  0  0  0
  143.4622  142.4896  156.3846 H   0  0  0  0  0  0  0  0  0  0  0  0
  143.2937  141.9814  154.7214 H   0  0  0  0  0  0  0  0  0  0  0  0
  145.2842  140.9091  153.6778 H   0  0  0  0  0  0  0  0  0  0  0  0
  1  2  1  0  0  0  0
  1 22  1  0  0  0  0
  1 23  1  0  0  0  0
  1 24  1  0  0  0  0
  2 21  1  0  0  0  0
  2  3  1  0  0  0  0
  2 25  1  0  0  0  0
  3  4  1  0  0  0  0
  3 26  1  0  0  0  0
  3 27  1  0  0  0  0
  4  5  1  0  0  0  0
  4 28  1  0  0  0  0
  4 29  1  0  0  0  0
  5  6  1  0  0  0  0
  5 20  1  0  0  0  0
  5 46  1  0  0  0  0
  6  7  1  0  0  0  0
  6 30  1  0  0  0  0
  6 31  1  0  0  0  0
  7  8  1  0  0  0  0
  7  9  1  0  0  0  0
  7 32  1  0  0  0  0
  8 33  1  0  0  0  0
  9 10  1  0  0  0  0
  9 34  1  0  0  0  0
  9 35  1  0  0  0  0
 10 11  1  0  0  0  0
 10 36  1  0  0  0  0
 11 12  2  0  0  0  0
 11 13  1  0  0  0  0
 13 14  1  0  0  0  0
 13 37  1  0  0  0  0
 14 19  1  0  0  0  0
 14 15  2  0  0  0  0
 15 16  1  0  0  0  0
 15 38  1  0  0  0  0
 16 17  2  0  0  0  0
 16 39  1  0  0  0  0
 17 18  1  0  0  0  0
 18 19  2  0  0  0  0
 18 40  1  0  0  0  0
 19 41  1  0  0  0  0
 20 21  1  0  0  0  0
 20 42  1  0  0  0  0
 20 43  1  0  0  0  0
 21 44  1  0  0  0  0
 21 45  1  0  0  0  0
M  CHG  1   5   1
M  END
> <s_m_source_file>
AV-unprocessed.smi

> <i_m_source_file_index>
1032

> <i_lp_mmshare_version>
43012

> <i_f3d_flags>
0

> <s_epik_input>
W0NIM11bQ0hdMVtDSDJdW0NIMl1OKFtDSDJdW0NIMl0xKVtDSDJdW0NASF0oW09IXSlbQ0gyXVtOSF1DKD1PKVtOSF1jMltjSF1bY0hdbltjSF1bY0hdMg==

> <s_epik_cmdline>
J2VwaWtfcHl0aG9uJywgJy1waCcsICc3LjAnLCAnLXRuJywgJzgnLCAnLW1hJywgJzIwMCcsICctbWV0YWxfYmluZGluZycsICctaW1hZScsICc8aW5maWxlLm1hZT4nLCAnLW9tYWUnLCAnPG91dGZpbGUubWFlPic=

> <r_epik_Ionization_Penalty>
0.11743

> <r_epik_Ionization_Penalty_Charging>
0.00147689

> <r_epik_Ionization_Penalty_Neutral>
0.115954

> <r_epik_State_Penalty>
0.105552

> <r_epik_Charging_Adjusted_Penalty>
0.107029

> <i_epik_Tot_Q>
1

> <i_epik_Tot_abs_Q>
1

> <r_epik_Metal_State_Penalty>
0.0881315

> <b_epik_Metal_Only>
0

> <s_lp_Force_Field>
OPLS_2005

> <r_lp_Energy>
24.9442

> <b_lp_Chiralities_Consistent>
1

> <s_lp_Variant>
AV-unprocessed.smi:1032-1

> <Gold.Version>
5.8.1

> <Gold.Id.Protein>
6NUR|6NUR_protein|mol2

> <Gold.PLP.Fitness>
55.2291

> <Gold.PLP.PLP>
-37.1923

> <Gold.PLP.part.hbond>
-4.6773

> <Gold.PLP.part.metal>
0.0000

> <Gold.PLP.part.buried>
-4.3330

> <Gold.PLP.part.nonpolar>
-30.4924

> <Gold.PLP.part.repulsive>
0.6199

> <Gold.PLP.ligand.clash>
0.0000

> <Gold.PLP.ligand.torsion>
1.1164

> <Gold.PLP.Chemscore.Hbond>
4.8812

> <Gold.PLP.Chemscore.CHOScore>
1.8652

> <Gold.PLP.Chemscore.Metal>
0.0000

> <Gold.Chemscore.Hbonds>
donor molecule, donor type, donor heavy atom, donor atom, acceptor molecule, acceptor atom, score
      L1  H     5    46       P1 10175  1.95
      L1  H     8    33       P1  7957  1.00
      L1  H    10    36       P1  7948  1.00
      L1  H    13    37       P1  7948  0.63
      P1  H 10785 10796       L1    17  0.27
      L1  C    16    39       P1 10747  0.84
      L1  C    18    40       P1 10186  0.05
      L1  C    18    40       P1 10952  0.74

> <Gold.PLP.Chemscore.Internal.Correction>
0.0302

> <Gold.Rescore>
     Score         DG    S(hbond)    S(metal)    S(lipo)     H(rot)  DE(clash)    DE(int)     intcor
     18.26     -22.15       3.55        0.00      91.21       2.29       0.48       3.41       ----

> <Gold.Chemscore.Fitness>
18.2593

> <Gold.Chemscore.DG>
-22.1488

> <Gold.Chemscore.ZeroCoef>
-5.4800

> <Gold.Chemscore.Hbond>
3.5480

> <Gold.Chemscore.Metal>
0.0000

> <Gold.Chemscore.Lipo>
91.2139

> <Gold.Chemscore.Internal_Hbond>
0.0000

> <Gold.Chemscore.DEClash>
0.4809

> <Gold.Chemscore.DEInternal>
3.4086

> <Gold.Chemscore.Rot>
2.2865

> <Gold.Chemscore.Internal.Correction>
   9.000000E+99

> <Gold.Chemscore.Hbonds>
donor molecule, donor type, donor heavy atom, donor atom, acceptor molecule, acceptor atom, score
      L1  H     5    46       P1 10175  0.76
      L1  H     8    33       P1  7957  0.95
      L1  H    10    36       P1  7948  1.00
      L1  H    13    37       P1  7948  0.55
      P1  H 10785 10796       L1    17  0.08

> <Gold.Chemscore.Hbond.Weighted>
-11.8504

> <Gold.Chemscore.Metal.Weighted>
-0.0000

> <Gold.Chemscore.Lipo.Weighted>
-10.6720

> <Gold.Chemscore.Internal_Hbond.Weighted>
0.0000

> <Gold.Chemscore.DEClash.Weighted>
0.4809

> <Gold.Chemscore.DEInternal.Weighted>
3.4086

> <Gold.Chemscore.Rot.Weighted>
5.8536

> <Gold.Chemscore.Internal.Correction.Weighted>
   9.000000E+99

> <Gold.Protein.RotatedTorsions>
[ 6907 6896 6895 6894 ] final -175.79 input  -60.11 | X-H torsion
[ 7974 7965 7964 7962 ] final -147.29 input  175.53 | X-H torsion
[ 8008 7997 7996 7995 ] final   62.88 input   59.86 | X-H torsion
[ 10167 10162 10161 10158 ] final -140.69 input  -65.29 | X-H torsion
[ 10718 10713 10712 10709 ] final   27.90 input   66.30 | X-H torsion
[ 10763 10752 10751 10750 ] final   40.01 input  -60.55 | X-H torsion
[ 11005 11000 10999 10996 ] final -143.72 input  -57.11 | X-H torsion

> <Gold.Protein.ActiveResidues>
 VAL166  LYS551  ARG553  GLY616  TRP617  ASP618  TYR619  PRO620  LYS621  CYS622 
 ASP623  PHE694  ASN695  SER759  ASP760  ASP761  ALA762  ILE779  LEU786  VAL792 
 PHE793  MET794  SER795  GLU796  ALA797  LYS798  CYS799  TRP800  GLU811  SER814 

> <Gold.Protein.RotatedAtoms>
  151.5943  133.3363  159.3033 H   0  0  0  0  0  0  0  0  0  0  0  0  # atno 6907 bound_to 6896
  150.8243  134.7469  159.6810 H   0  0  0  0  0  0  0  0  0  0  0  0  # atno 6908 bound_to 6896
  152.4334  134.5740  159.9981 H   0  0  0  0  0  0  0  0  0  0  0  0  # atno 6909 bound_to 6896
  144.8103  140.5346  143.5647 H   0  0  0  0  0  0  0  0  0  0  0  0  # atno 7974 bound_to 7965
  155.6214  140.3496  155.4653 H   0  0  0  0  0  0  0  0  0  0  0  0  # atno 8008 bound_to 7997
  156.0076  140.1226  157.0510 H   0  0  0  0  0  0  0  0  0  0  0  0  # atno 8009 bound_to 7997
  154.4270  140.1088  156.5770 H   0  0  0  0  0  0  0  0  0  0  0  0  # atno 8010 bound_to 7997
  139.8257  143.7514  152.2666 H   0  0  0  0  0  0  0  0  0  0  0  0  # atno 10167 bound_to 10162
  157.2263  130.7002  149.6293 H   0  0  0  0  0  0  0  0  0  0  0  0  # atno 10718 bound_to 10713
  152.9949  135.6204  154.2557 H   0  0  0  0  0  0  0  0  0  0  0  0  # atno 10763 bound_to 10752
  154.2294  135.2792  155.2897 H   0  0  0  0  0  0  0  0  0  0  0  0  # atno 10764 bound_to 10752
  154.5462  135.5746  153.6940 H   0  0  0  0  0  0  0  0  0  0  0  0  # atno 10765 bound_to 10752
  140.8096  134.2760  157.4946 H   0  0  0  0  0  0  0  0  0  0  0  0  # atno 11005 bound_to 11000
  145.5340  139.1475  143.3484 LP  0  0  0  0  0  0  0  0  0  0  0  0  # atno 17320 bound_to 7965
  146.2400  140.5480  142.8938 LP  0  0  0  0  0  0  0  0  0  0  0  0  # atno 17321 bound_to 7965
  139.7706  144.7478  151.0230 LP  0  0  0  0  0  0  0  0  0  0  0  0  # atno 17342 bound_to 10162
  140.7810  143.4649  151.0226 LP  0  0  0  0  0  0  0  0  0  0  0  0  # atno 17343 bound_to 10162
  155.9678  130.4503  150.5693 LP  0  0  0  0  0  0  0  0  0  0  0  0  # atno 17370 bound_to 10713
  157.3524  131.0736  151.1702 LP  0  0  0  0  0  0  0  0  0  0  0  0  # atno 17371 bound_to 10713
  139.8715  134.9476  156.3971 LP  0  0  0  0  0  0  0  0  0  0  0  0  # atno 17394 bound_to 11000
  140.9211  133.7644  155.9908 LP  0  0  0  0  0  0  0  0  0  0  0  0  # atno 17395 bound_to 11000

$$$$
