#       Name:                AV-unprocessed.smi:1862
#       Creating user name   scv26
#       Creation time:       Fri Mar 27 09:26:31 2020


#       File generated by GOLD software.
#

@<TRIPOS>MOLECULE
AV-unprocessed.smi:1862
    45    46     1
SMALL
NO_CHARGES


@<TRIPOS>ATOM
      1 ****        -2.9251   0.9905  -3.3396 C.3            1 S1                 0.0000
      2 ****        -3.5570   0.6499  -1.9784 C.3            1 S1                 0.0000
      3 ****        -3.2670  -0.7774  -1.4363 C.3            1 S1                 0.0000
      4 ****        -3.8535  -0.9254  -0.0154 C.3            1 S1                 0.0000
      5 ****        -3.9342  -1.8334  -2.3394 C.3            1 S1                 0.0000
      6 ****        -1.8281  -1.0744  -1.4206 N.am           1 S1                 0.0000
      7 ****        -0.8476  -0.4268  -0.7651 C.2            1 S1                 0.0000
      8 ****        -1.0354   0.5626  -0.0565 O.2            1 S1                 0.0000
      9 ****         0.5676  -0.9829  -0.9544 C.3            1 S1                 0.0000
     10 ****         1.3014  -1.0470   0.3547 C.2            1 S1                 0.0000
     11 ****         1.2024  -2.0308   1.3084 C.2            1 S1                 0.0000
     12 ****         2.2245  -1.7133   2.6833 S.3            1 S1                 0.0000
     13 ****         2.7667  -0.2289   1.8949 C.2            1 S1                 0.0000
     14 ****         3.7044   0.7125   2.4141 N.am           1 S1                 0.0000
     15 ****         4.0859   1.9066   1.6663 C.3            1 S1                 0.0000
     16 ****         5.0824   2.6097   2.5825 C.3            1 S1                 0.0000
     17 ****         5.1273   1.7218   3.7203 N.am           1 S1                 0.0000
     18 ****         4.3368   0.6524   3.6030 C.2            1 S1                 0.0000
     19 ****         4.2314  -0.2216   4.4614 O.2            1 S1                 0.0000
     20 ****         2.2020  -0.0332   0.6987 N.2            1 S1                 0.0000
     21 ****        -3.1757   2.0108  -3.6303 H              1 S1                 0.0000
     22 ****        -3.2849   0.3320  -4.1295 H              1 S1                 0.0000
     23 ****        -1.8378   0.9207  -3.3104 H              1 S1                 0.0000
     24 ****        -3.2235   1.3938  -1.2546 H              1 S1                 0.0000
     25 ****        -4.6359   0.7908  -2.0523 H              1 S1                 0.0000
     26 ****        -4.9373  -0.8037  -0.0239 H              1 S1                 0.0000
     27 ****        -3.4557  -0.1808   0.6742 H              1 S1                 0.0000
     28 ****        -3.6388  -1.9091   0.4040 H              1 S1                 0.0000
     29 ****        -5.0074  -1.6608  -2.4261 H              1 S1                 0.0000
     30 ****        -3.7978  -2.8393  -1.9401 H              1 S1                 0.0000
     31 ****        -3.5183  -1.8308  -3.3471 H              1 S1                 0.0000
     32 ****        -1.5463  -1.8689  -1.9761 H              1 S1                 0.0000
     33 ****         0.5213  -1.9743  -1.4072 H              1 S1                 0.0000
     34 ****         1.0956  -0.3454  -1.6645 H              1 S1                 0.0000
     35 ****         0.5871  -2.9179   1.2875 H              1 S1                 0.0000
     36 ****         4.5429   1.6353   0.7134 H              1 S1                 0.0000
     37 ****         3.2147   2.5334   1.4700 H              1 S1                 0.0000
     38 ****         6.0683   2.6987   2.1251 H              1 S1                 0.0000
     39 ****         4.7372   3.6002   2.8810 H              1 S1                 0.0000
     40 ****         5.7065   1.9055   4.5269 H              1 S1                 0.0000
     41 ****        -1.9592   0.9282   0.0569 LP             1 S1                 0.0000
     42 ****        -0.2641   1.0004   0.4054 LP             1 S1                 0.0000
     43 ****         3.6205  -0.9989   4.3111 LP             1 S1                 0.0000
     44 ****         4.7567  -0.1552   5.3097 LP             1 S1                 0.0000
     45 ****         2.4018   0.7526   0.1134 LP             1 S1                 0.0000
@<TRIPOS>BOND
    1    1    2 1     
    2    1   21 1     
    3    1   22 1     
    4    1   23 1     
    5    2    3 1     
    6    2   24 1     
    7    2   25 1     
    8    3    4 1     
    9    3    5 1     
   10    3    6 1     
   11    4   26 1     
   12    4   27 1     
   13    4   28 1     
   14    5   29 1     
   15    5   30 1     
   16    5   31 1     
   17    6    7 am    
   18    6   32 1     
   19    7    8 2     
   20    7    9 1     
   21    9   10 1     
   22    9   33 1     
   23    9   34 1     
   24   10   20 1     
   25   10   11 2     
   26   11   12 1     
   27   11   35 1     
   28   12   13 1     
   29   13   14 1     
   30   13   20 2     
   31   14   18 am    
   32   14   15 1     
   33   15   16 1     
   34   15   36 1     
   35   15   37 1     
   36   16   17 1     
   37   16   38 1     
   38   16   39 1     
   39   17   18 am    
   40   17   40 1     
   41   18   19 2     
   42    8   41 1     
   43    8   42 1     
   44   19   43 1     
   45   19   44 1     
   46   20   45 1     
@<TRIPOS>SUBSTRUCTURE
      1 S1             1
@<TRIPOS>SET
LONE_PAIRS      STATIC     ATOMS    <user>   **** ""
5 41 42 43 44 45
DONOR_HYDROGENS      STATIC     ATOMS    <user>   **** ""
2 32 40
ATOM$BLUE        STATIC     ATOMS    COLORGROUP SYSTEM
5 41 42 43 44 45
ATOM$RED        STATIC     ATOMS    COLORGROUP SYSTEM
2 32 40
