AV-unprocessed.smi:1240|AV-procd|sdf|5211|dock10
  -GOLD-   22720 4303D 1   1.00000     0.00000
 Structure written by MMmdl.
 48 50  0  0  0  0  0  0  0  0  4 V2000
  146.9758  139.2169  154.8819 O   0  0  0  0  0  0  0  0  0  0  0  0
  147.3121  138.3141  154.1069 C   0  0  0  0  0  0  0  0  0  0  0  0
  146.5015  137.4925  153.3886 N   0  5  0  0  0  0  0  0  0  0  0  0
  145.0487  137.4226  153.5385 C   0  0  0  0  0  0  0  0  0  0  0  0
  144.4069  136.5481  152.4037 C   0  0  2  0  0  0  0  0  0  0  0  0
  142.9109  136.1574  152.6448 C   0  0  2  0  0  0  0  0  0  0  0  0
  142.0530  137.3050  153.1594 C   0  0  0  0  0  0  0  0  0  0  0  0
  140.8211  136.5863  153.6965 C   0  0  0  0  0  0  0  0  0  0  0  0
  141.2883  135.3299  154.1697 O   0  0  0  0  0  0  0  0  0  0  0  0
  142.6324  135.1221  153.7491 C   0  0  0  0  0  0  0  0  0  0  0  0
  145.1953  135.3138  152.0526 N   0  3  0  0  0  0  0  0  0  0  0  0
  145.5021  134.3948  153.1808 C   0  0  0  0  0  0  0  0  0  0  0  0
  146.5605  133.3670  152.7469 C   0  0  0  0  0  0  0  0  0  0  0  0
  146.1066  132.6623  151.5968 O   0  0  0  0  0  0  0  0  0  0  0  0
  145.8932  133.5264  150.4865 C   0  0  0  0  0  0  0  0  0  0  0  0
  144.8026  134.5522  150.8328 C   0  0  0  0  0  0  0  0  0  0  0  0
  148.6143  138.0694  153.8744 N   0  0  0  0  0  0  0  0  0  0  0  0
  149.7553  138.6970  154.4421 C   0  0  0  0  0  0  0  0  0  0  0  0
  151.0042  138.0567  154.2847 C   0  0  0  0  0  0  0  0  0  0  0  0
  152.1575  138.6353  154.8518 C   0  0  0  0  0  0  0  0  0  0  0  0
  152.0583  139.7865  155.5506 N   0  3  0  0  0  0  0  0  0  0  0  0
  150.8839  140.4250  155.7434 C   0  0  0  0  0  0  0  0  0  0  0  0
  149.6967  139.8941  155.1996 C   0  0  0  0  0  0  0  0  0  0  0  0
  144.7914  136.9906  154.5056 H   0  0  0  0  0  0  0  0  0  0  0  0
  144.5837  138.4091  153.5293 H   0  0  0  0  0  0  0  0  0  0  0  0
  144.4174  137.1511  151.4939 H   0  0  0  0  0  0  0  0  0  0  0  0
  142.4588  135.7918  151.7205 H   0  0  0  0  0  0  0  0  0  0  0  0
  142.5631  137.8261  153.9713 H   0  0  0  0  0  0  0  0  0  0  0  0
  141.8013  138.0364  152.3907 H   0  0  0  0  0  0  0  0  0  0  0  0
  140.3199  137.1490  154.4846 H   0  0  0  0  0  0  0  0  0  0  0  0
  140.1028  136.4106  152.8947 H   0  0  0  0  0  0  0  0  0  0  0  0
  142.7722  134.0957  153.4089 H   0  0  0  0  0  0  0  0  0  0  0  0
  143.2860  135.2857  154.6072 H   0  0  0  0  0  0  0  0  0  0  0  0
  145.8730  134.9602  154.0363 H   0  0  0  0  0  0  0  0  0  0  0  0
  144.6004  133.8741  153.5053 H   0  0  0  0  0  0  0  0  0  0  0  0
  147.5132  133.8553  152.5348 H   0  0  0  0  0  0  0  0  0  0  0  0
  146.7417  132.6527  153.5500 H   0  0  0  0  0  0  0  0  0  0  0  0
  146.8243  134.0253  150.2127 H   0  0  0  0  0  0  0  0  0  0  0  0
  145.5877  132.9291  149.6273 H   0  0  0  0  0  0  0  0  0  0  0  0
  143.8590  134.0292  150.9928 H   0  0  0  0  0  0  0  0  0  0  0  0
  144.6585  135.2249  149.9880 H   0  0  0  0  0  0  0  0  0  0  0  0
  148.8033  137.3941  153.1482 H   0  0  0  0  0  0  0  0  0  0  0  0
  151.0805  137.1337  153.7280 H   0  0  0  0  0  0  0  0  0  0  0  0
  153.1485  138.2132  154.7701 H   0  0  0  0  0  0  0  0  0  0  0  0
  150.9267  141.3316  156.3291 H   0  0  0  0  0  0  0  0  0  0  0  0
  148.7621  140.4032  155.3809 H   0  0  0  0  0  0  0  0  0  0  0  0
  146.0991  135.6964  151.8159 H   0  0  0  0  0  0  0  0  0  0  0  0
  152.9048  140.1878  155.9548 H   0  0  0  0  0  0  0  0  0  0  0  0
  1  2  2  0  0  0  0
  2  3  1  0  0  0  0
  2 17  1  0  0  0  0
  3  4  1  0  0  0  0
  4  5  1  0  0  0  0
  4 24  1  0  0  0  0
  4 25  1  0  0  0  0
  5  6  1  0  0  0  0
  5 11  1  0  0  0  0
  5 26  1  0  0  0  0
  6 10  1  0  0  0  0
  6  7  1  0  0  0  0
  6 27  1  0  0  0  0
  7  8  1  0  0  0  0
  7 28  1  0  0  0  0
  7 29  1  0  0  0  0
  8  9  1  0  0  0  0
  8 30  1  0  0  0  0
  8 31  1  0  0  0  0
  9 10  1  0  0  0  0
 10 32  1  0  0  0  0
 10 33  1  0  0  0  0
 11 16  1  0  0  0  0
 11 12  1  0  0  0  0
 11 47  1  0  0  0  0
 12 13  1  0  0  0  0
 12 34  1  0  0  0  0
 12 35  1  0  0  0  0
 13 14  1  0  0  0  0
 13 36  1  0  0  0  0
 13 37  1  0  0  0  0
 14 15  1  0  0  0  0
 15 16  1  0  0  0  0
 15 38  1  0  0  0  0
 15 39  1  0  0  0  0
 16 40  1  0  0  0  0
 16 41  1  0  0  0  0
 17 18  1  0  0  0  0
 17 42  1  0  0  0  0
 18 23  1  0  0  0  0
 18 19  2  0  0  0  0
 19 20  1  0  0  0  0
 19 43  1  0  0  0  0
 20 21  2  0  0  0  0
 20 44  1  0  0  0  0
 21 22  1  0  0  0  0
 21 48  1  0  0  0  0
 22 23  2  0  0  0  0
 22 45  1  0  0  0  0
 23 46  1  0  0  0  0
M  CHG  1   3  -1
M  CHG  1  11   1
M  CHG  1  21   1
M  END
> <s_m_source_file>
AV-unprocessed.smi

> <i_m_source_file_index>
1240

> <i_lp_mmshare_version>
43012

> <i_f3d_flags>
0

> <s_epik_input>
W2NIXTFbY0hdbltjSF1bY0hdYzFbTkhdQyg9TylbTkhdW0NIMl1bQ0BIXShbQ0BASF0yW0NIMl1bQ0gyXU9bQ0gyXTIpTjNbQ0gyXVtDSDJdT1tDSDJdW0NIMl0z

> <s_epik_cmdline>
J2VwaWtfcHl0aG9uJywgJy1waCcsICc3LjAnLCAnLXRuJywgJzgnLCAnLW1hJywgJzIwMCcsICctbWV0YWxfYmluZGluZycsICctaW1hZScsICc8aW5maWxlLm1hZT4nLCAnLW9tYWUnLCAnPG91dGZpbGUubWFlPic=

> <r_epik_Ionization_Penalty>
8.41087

> <r_epik_Ionization_Penalty_Charging>
8.41087

> <r_epik_Ionization_Penalty_Neutral>
3.12936e-06

> <r_epik_State_Penalty>
8.81894

> <r_epik_Charging_Adjusted_Penalty>
17.2298

> <i_epik_Tot_Q>
1

> <i_epik_Tot_abs_Q>
3

> <r_epik_Metal_State_Penalty>
4.82983

> <b_epik_Metal_Only>
1

> <s_lp_Force_Field>
OPLS_2005

> <r_lp_Energy>
48.2206

> <b_lp_Chiralities_Consistent>
1

> <s_lp_Variant>
AV-unprocessed.smi:1240-17

> <Gold.Version>
5.8.1

> <Gold.Id.Protein>
6NUR|6NUR_protein|mol2

> <Gold.PLP.Fitness>
41.7302

> <Gold.PLP.PLP>
-36.7065

> <Gold.PLP.part.hbond>
-2.0000

> <Gold.PLP.part.metal>
0.0000

> <Gold.PLP.part.buried>
-7.3765

> <Gold.PLP.part.nonpolar>
-28.3288

> <Gold.PLP.part.repulsive>
1.3151

> <Gold.PLP.ligand.clash>
0.0000

> <Gold.PLP.ligand.torsion>
0.4261

> <Gold.PLP.Chemscore.Hbond>
1.8564

> <Gold.PLP.Chemscore.CHOScore>
0.0000

> <Gold.PLP.Chemscore.Metal>
0.0000

> <Gold.Chemscore.Hbonds>
donor molecule, donor type, donor heavy atom, donor atom, acceptor molecule, acceptor atom, score
      L1  H    17    42       P1  7948  1.00
      P1  H 11000 11005       L1     9  0.77

> <Gold.PLP.Chemscore.Internal.Correction>
0.3065

> <Gold.Rescore>
     Score         DG    S(hbond)    S(metal)    S(lipo)     H(rot)  DE(clash)    DE(int)     intcor
     14.93     -16.72       1.83        0.00      81.22       1.70       0.05       1.74       ----

> <Gold.Chemscore.Fitness>
14.9301

> <Gold.Chemscore.DG>
-16.7234

> <Gold.Chemscore.ZeroCoef>
-5.4800

> <Gold.Chemscore.Hbond>
1.8256

> <Gold.Chemscore.Metal>
0.0000

> <Gold.Chemscore.Lipo>
81.2247

> <Gold.Chemscore.Internal_Hbond>
0.0000

> <Gold.Chemscore.DEClash>
0.0516

> <Gold.Chemscore.DEInternal>
1.7417

> <Gold.Chemscore.Rot>
1.7021

> <Gold.Chemscore.Internal.Correction>
   9.000000E+99

> <Gold.Chemscore.Hbonds>
donor molecule, donor type, donor heavy atom, donor atom, acceptor molecule, acceptor atom, score
      L1  H    17    42       P1  7948  1.00
      P1  H 11000 11005       L1     9  0.73

> <Gold.Chemscore.Hbond.Weighted>
-6.0976

> <Gold.Chemscore.Metal.Weighted>
-0.0000

> <Gold.Chemscore.Lipo.Weighted>
-9.5033

> <Gold.Chemscore.Internal_Hbond.Weighted>
0.0000

> <Gold.Chemscore.DEClash.Weighted>
0.0516

> <Gold.Chemscore.DEInternal.Weighted>
1.7417

> <Gold.Chemscore.Rot.Weighted>
4.3575

> <Gold.Chemscore.Internal.Correction.Weighted>
   9.000000E+99

> <Gold.Protein.RotatedTorsions>
[ 6907 6896 6895 6894 ] final  -34.47 input  -60.11 | X-H torsion
[ 7974 7965 7964 7962 ] final  160.91 input  175.53 | X-H torsion
[ 8008 7997 7996 7995 ] final  -95.87 input   59.86 | X-H torsion
[ 10167 10162 10161 10158 ] final  -17.93 input  -65.29 | X-H torsion
[ 10718 10713 10712 10709 ] final  169.93 input   66.30 | X-H torsion
[ 10763 10752 10751 10750 ] final -136.61 input  -60.55 | X-H torsion
[ 11005 11000 10999 10996 ] final   28.14 input  -57.11 | X-H torsion

> <Gold.Protein.ActiveResidues>
 VAL166  LYS551  ARG553  GLY616  TRP617  ASP618  TYR619  PRO620  LYS621  CYS622 
 ASP623  PHE694  ASN695  SER759  ASP760  ASP761  ALA762  ILE779  LEU786  VAL792 
 PHE793  MET794  SER795  GLU796  ALA797  LYS798  CYS799  TRP800  GLU811  SER814 

> <Gold.Protein.RotatedAtoms>
  151.0522  134.9680  159.8217 H   0  0  0  0  0  0  0  0  0  0  0  0  # atno 6907 bound_to 6896
  152.5382  134.2523  159.8913 H   0  0  0  0  0  0  0  0  0  0  0  0  # atno 6908 bound_to 6896
  151.2539  133.4293  159.2646 H   0  0  0  0  0  0  0  0  0  0  0  0  # atno 6909 bound_to 6896
  144.7713  139.7823  143.6296 H   0  0  0  0  0  0  0  0  0  0  0  0  # atno 7974 bound_to 7965
  154.7670  140.0476  157.1020 H   0  0  0  0  0  0  0  0  0  0  0  0  # atno 8008 bound_to 7997
  154.9867  140.3108  155.4904 H   0  0  0  0  0  0  0  0  0  0  0  0  # atno 8009 bound_to 7997
  156.2914  140.2226  156.4970 H   0  0  0  0  0  0  0  0  0  0  0  0  # atno 8010 bound_to 7997
  140.7253  143.4966  150.9923 H   0  0  0  0  0  0  0  0  0  0  0  0  # atno 10167 bound_to 10162
  157.0155  131.0217  151.2790 H   0  0  0  0  0  0  0  0  0  0  0  0  # atno 10718 bound_to 10713
  154.8680  135.3667  154.5088 H   0  0  0  0  0  0  0  0  0  0  0  0  # atno 10763 bound_to 10752
  153.5725  135.7020  153.5503 H   0  0  0  0  0  0  0  0  0  0  0  0  # atno 10764 bound_to 10752
  153.3529  135.4067  155.1623 H   0  0  0  0  0  0  0  0  0  0  0  0  # atno 10765 bound_to 10752
  140.3187  134.2567  155.7721 H   0  0  0  0  0  0  0  0  0  0  0  0  # atno 11005 bound_to 11000
  146.1861  139.5077  142.9835 LP  0  0  0  0  0  0  0  0  0  0  0  0  # atno 17320 bound_to 7965
  145.6317  141.0303  143.1860 LP  0  0  0  0  0  0  0  0  0  0  0  0  # atno 17321 bound_to 7965
  139.8673  143.7237  152.3169 LP  0  0  0  0  0  0  0  0  0  0  0  0  # atno 17342 bound_to 10162
  139.7474  144.7543  151.0559 LP  0  0  0  0  0  0  0  0  0  0  0  0  # atno 17343 bound_to 10162
  157.5288  130.8045  149.7893 LP  0  0  0  0  0  0  0  0  0  0  0  0  # atno 17370 bound_to 10713
  156.0120  130.3829  150.2232 LP  0  0  0  0  0  0  0  0  0  0  0  0  # atno 17371 bound_to 10713
  141.2091  133.7757  157.0015 LP  0  0  0  0  0  0  0  0  0  0  0  0  # atno 17394 bound_to 11000
  140.0961  134.9564  157.1851 LP  0  0  0  0  0  0  0  0  0  0  0  0  # atno 17395 bound_to 11000

$$$$
