AV-unprocessed.smi:1419|AV-procd|sdf|5775|dock7
  -GOLD-   22720 5423D 1   1.00000     0.00000
 Structure written by MMmdl.
 42 43  0  0  0  0  0  0  0  0  2 V2000
  146.6680  142.2781  156.9619 C   0  0  0  0  0  0  0  0  0  0  0  0
  147.7497  141.4953  156.2059 C   0  0  1  0  0  0  0  0  0  0  0  0
  147.6281  141.7002  154.6805 C   0  0  0  0  0  0  0  0  0  0  0  0
  147.6150  140.4367  153.9344 N   0  0  0  0  0  0  0  0  0  0  0  0
  146.6678  140.0115  153.0389 C   0  0  0  0  0  0  0  0  0  0  0  0
  147.0625  138.7693  152.6130 C   0  0  0  0  0  0  0  0  0  0  0  0
  148.2354  138.4910  153.2622 N   0  3  0  0  0  0  0  0  0  0  0  0
  148.5731  139.5085  154.0609 C   0  0  0  0  0  0  0  0  0  0  0  0
  149.0648  141.9207  156.6831 N   0  0  0  0  0  0  0  0  0  0  0  0
  150.0074  141.1228  157.2159 C   0  0  0  0  0  0  0  0  0  0  0  0
  149.8126  139.9247  157.4251 O   0  0  0  0  0  0  0  0  0  0  0  0
  151.1785  141.7436  157.4993 N   0  0  0  0  0  0  0  0  0  0  0  0
  152.3173  141.1673  158.2265 C   0  0  0  0  0  0  0  0  0  0  0  0
  152.2965  141.7316  159.6616 C   0  0  1  0  0  0  0  0  0  0  0  0
  153.4763  141.2287  160.5002 C   0  0  0  0  0  0  0  0  0  0  0  0
  152.3658  143.1566  159.6036 O   0  0  0  0  0  0  0  0  0  0  0  0
  151.3130  143.7611  158.8513 C   0  0  1  0  0  0  0  0  0  0  0  0
  151.5127  145.2799  158.8813 C   0  0  0  0  0  0  0  0  0  0  0  0
  151.3312  143.1973  157.4157 C   0  0  0  0  0  0  0  0  0  0  0  0
  145.6699  141.9674  156.6514 H   0  0  0  0  0  0  0  0  0  0  0  0
  146.7528  143.3504  156.7819 H   0  0  0  0  0  0  0  0  0  0  0  0
  146.7428  142.1132  158.0373 H   0  0  0  0  0  0  0  0  0  0  0  0
  147.5977  140.4381  156.4315 H   0  0  0  0  0  0  0  0  0  0  0  0
  146.7005  142.2223  154.4421 H   0  0  0  0  0  0  0  0  0  0  0  0
  148.4444  142.3195  154.3042 H   0  0  0  0  0  0  0  0  0  0  0  0
  145.8014  140.6053  152.7849 H   0  0  0  0  0  0  0  0  0  0  0  0
  146.6074  138.0803  151.9163 H   0  0  0  0  0  0  0  0  0  0  0  0
  149.4417  139.5626  154.6930 H   0  0  0  0  0  0  0  0  0  0  0  0
  149.2931  142.8972  156.5658 H   0  0  0  0  0  0  0  0  0  0  0  0
  152.3193  140.0774  158.2506 H   0  0  0  0  0  0  0  0  0  0  0  0
  153.2444  141.4485  157.7244 H   0  0  0  0  0  0  0  0  0  0  0  0
  151.3680  141.4424  160.1572 H   0  0  0  0  0  0  0  0  0  0  0  0
  153.4613  140.1419  160.5876 H   0  0  0  0  0  0  0  0  0  0  0  0
  153.4429  141.6436  161.5078 H   0  0  0  0  0  0  0  0  0  0  0  0
  154.4285  141.5160  160.0533 H   0  0  0  0  0  0  0  0  0  0  0  0
  150.3590  143.5257  159.3271 H   0  0  0  0  0  0  0  0  0  0  0  0
  150.7214  145.7908  158.3324 H   0  0  0  0  0  0  0  0  0  0  0  0
  152.4667  145.5613  158.4339 H   0  0  0  0  0  0  0  0  0  0  0  0
  151.5017  145.6542  159.9053 H   0  0  0  0  0  0  0  0  0  0  0  0
  152.2747  143.4378  156.9231 H   0  0  0  0  0  0  0  0  0  0  0  0
  150.5520  143.6668  156.8129 H   0  0  0  0  0  0  0  0  0  0  0  0
  148.7713  137.6386  153.1554 H   0  0  0  0  0  0  0  0  0  0  0  0
  1  2  1  0  0  0  0
  1 20  1  0  0  0  0
  1 21  1  0  0  0  0
  1 22  1  0  0  0  0
  2  3  1  0  0  0  0
  2  9  1  0  0  0  0
  2 23  1  0  0  0  0
  3  4  1  0  0  0  0
  3 24  1  0  0  0  0
  3 25  1  0  0  0  0
  4  8  1  0  0  0  0
  4  5  1  0  0  0  0
  5  6  2  0  0  0  0
  5 26  1  0  0  0  0
  6  7  1  0  0  0  0
  6 27  1  0  0  0  0
  7  8  2  0  0  0  0
  7 42  1  0  0  0  0
  8 28  1  0  0  0  0
  9 10  1  0  0  0  0
  9 29  1  0  0  0  0
 10 11  2  0  0  0  0
 10 12  1  0  0  0  0
 12 19  1  0  0  0  0
 12 13  1  0  0  0  0
 13 14  1  0  0  0  0
 13 30  1  0  0  0  0
 13 31  1  0  0  0  0
 14 15  1  0  0  0  0
 14 16  1  0  0  0  0
 14 32  1  0  0  0  0
 15 33  1  0  0  0  0
 15 34  1  0  0  0  0
 15 35  1  0  0  0  0
 16 17  1  0  0  0  0
 17 18  1  0  0  0  0
 17 19  1  0  0  0  0
 17 36  1  0  0  0  0
 18 37  1  0  0  0  0
 18 38  1  0  0  0  0
 18 39  1  0  0  0  0
 19 40  1  0  0  0  0
 19 41  1  0  0  0  0
M  CHG  1   7   1
M  END
> <s_m_source_file>
AV-unprocessed.smi

> <i_m_source_file_index>
1419

> <i_lp_mmshare_version>
43012

> <i_f3d_flags>
0

> <s_epik_input>
W2NIXTFuW2NIXVtjSF1uMVtDSDJdW0NAQEhdKFtDSDNdKVtOSF1DKD1PKU4yW0NIMl1bQ0BASF0oW0NIM10pT1tDQEBIXShbQ0gzXSlbQ0gyXTI=

> <s_epik_cmdline>
J2VwaWtfcHl0aG9uJywgJy1waCcsICc3LjAnLCAnLXRuJywgJzgnLCAnLW1hJywgJzIwMCcsICctbWV0YWxfYmluZGluZycsICctaW1hZScsICc8aW5maWxlLm1hZT4nLCAnLW9tYWUnLCAnPG91dGZpbGUubWFlPic=

> <r_lp_tautomer_probability>
1

> <r_epik_Ionization_Penalty>
0.253607

> <r_epik_Ionization_Penalty_Charging>
0

> <r_epik_Ionization_Penalty_Neutral>
0.253607

> <r_epik_State_Penalty>
0.245018

> <r_epik_Charging_Adjusted_Penalty>
0.245018

> <i_epik_Tot_Q>
1

> <i_epik_Tot_abs_Q>
1

> <r_epik_Metal_State_Penalty>
0.535379

> <b_epik_Metal_Only>
0

> <s_lp_Force_Field>
OPLS_2005

> <r_lp_Energy>
29.1854

> <b_lp_Chiralities_Consistent>
1

> <s_lp_Variant>
AV-unprocessed.smi:1419-2

> <Gold.Version>
5.8.1

> <Gold.Id.Protein>
6NUR|6NUR_protein|mol2

> <Gold.PLP.Fitness>
44.7297

> <Gold.PLP.PLP>
-36.6383

> <Gold.PLP.part.hbond>
-3.0000

> <Gold.PLP.part.metal>
0.0000

> <Gold.PLP.part.buried>
-1.0355

> <Gold.PLP.part.nonpolar>
-33.2161

> <Gold.PLP.part.repulsive>
0.0678

> <Gold.PLP.ligand.clash>
1.7174

> <Gold.PLP.ligand.torsion>
0.7772

> <Gold.PLP.Chemscore.Hbond>
2.7680

> <Gold.PLP.Chemscore.CHOScore>
0.9969

> <Gold.PLP.Chemscore.Metal>
0.0000

> <Gold.Chemscore.Hbonds>
donor molecule, donor type, donor heavy atom, donor atom, acceptor molecule, acceptor atom, score
      L1  H     7    42       P1  7948  1.50
      L1  H     9    29       P1  8028  0.87
      L1  C     5    26       P1 10175  1.00

> <Gold.PLP.Chemscore.Internal.Correction>
0.0685

> <Gold.Rescore>
     Score         DG    S(hbond)    S(metal)    S(lipo)     H(rot)  DE(clash)    DE(int)     intcor
     15.72     -16.77       1.63        0.00      85.65       1.63       0.25       0.79       ----

> <Gold.Chemscore.Fitness>
15.7231

> <Gold.Chemscore.DG>
-16.7722

> <Gold.Chemscore.ZeroCoef>
-5.4800

> <Gold.Chemscore.Hbond>
1.6277

> <Gold.Chemscore.Metal>
0.0000

> <Gold.Chemscore.Lipo>
85.6533

> <Gold.Chemscore.Internal_Hbond>
0.0000

> <Gold.Chemscore.DEClash>
0.2548

> <Gold.Chemscore.DEInternal>
0.7943

> <Gold.Chemscore.Rot>
1.6273

> <Gold.Chemscore.Internal.Correction>
   9.000000E+99

> <Gold.Chemscore.Hbonds>
donor molecule, donor type, donor heavy atom, donor atom, acceptor molecule, acceptor atom, score
      L1  H     7    42       P1  7948  0.76
      L1  H     9    29       P1  8028  0.80

> <Gold.Chemscore.Hbond.Weighted>
-5.4366

> <Gold.Chemscore.Metal.Weighted>
-0.0000

> <Gold.Chemscore.Lipo.Weighted>
-10.0214

> <Gold.Chemscore.Internal_Hbond.Weighted>
0.0000

> <Gold.Chemscore.DEClash.Weighted>
0.2548

> <Gold.Chemscore.DEInternal.Weighted>
0.7943

> <Gold.Chemscore.Rot.Weighted>
4.1658

> <Gold.Chemscore.Internal.Correction.Weighted>
   9.000000E+99

> <Gold.Protein.RotatedTorsions>
[ 6907 6896 6895 6894 ] final -139.85 input  -60.11 | X-H torsion
[ 7974 7965 7964 7962 ] final -154.68 input  175.53 | X-H torsion
[ 8008 7997 7996 7995 ] final  -51.49 input   59.86 | X-H torsion
[ 10167 10162 10161 10158 ] final -141.03 input  -65.29 | X-H torsion
[ 10718 10713 10712 10709 ] final    4.20 input   66.30 | X-H torsion
[ 10763 10752 10751 10750 ] final   86.28 input  -60.55 | X-H torsion
[ 11005 11000 10999 10996 ] final    4.54 input  -57.11 | X-H torsion

> <Gold.Protein.ActiveResidues>
 VAL166  LYS551  ARG553  GLY616  TRP617  ASP618  TYR619  PRO620  LYS621  CYS622 
 ASP623  PHE694  ASN695  SER759  ASP760  ASP761  ALA762  ILE779  LEU786  VAL792 
 PHE793  MET794  SER795  GLU796  ALA797  LYS798  CYS799  TRP800  GLU811  SER814 

> <Gold.Protein.RotatedAtoms>
  151.0530  133.5608  159.2640 H   0  0  0  0  0  0  0  0  0  0  0  0  # atno 6907 bound_to 6896
  151.2611  135.0653  159.9108 H   0  0  0  0  0  0  0  0  0  0  0  0  # atno 6908 bound_to 6896
  152.5385  134.0276  159.8064 H   0  0  0  0  0  0  0  0  0  0  0  0  # atno 6909 bound_to 6896
  144.7677  140.4354  143.5930 H   0  0  0  0  0  0  0  0  0  0  0  0  # atno 7974 bound_to 7965
  154.4084  140.1246  156.4838 H   0  0  0  0  0  0  0  0  0  0  0  0  # atno 8008 bound_to 7997
  155.7059  140.3494  155.4933 H   0  0  0  0  0  0  0  0  0  0  0  0  # atno 8009 bound_to 7997
  155.9344  140.1075  157.1096 H   0  0  0  0  0  0  0  0  0  0  0  0  # atno 8010 bound_to 7997
  139.8224  143.7556  152.2666 H   0  0  0  0  0  0  0  0  0  0  0  0  # atno 10167 bound_to 10162
  156.8891  130.5681  149.5650 H   0  0  0  0  0  0  0  0  0  0  0  0  # atno 10718 bound_to 10713
  153.1556  135.4586  154.9699 H   0  0  0  0  0  0  0  0  0  0  0  0  # atno 10763 bound_to 10752
  154.7858  135.3203  154.7891 H   0  0  0  0  0  0  0  0  0  0  0  0  # atno 10764 bound_to 10752
  153.8389  135.6932  153.4860 H   0  0  0  0  0  0  0  0  0  0  0  0  # atno 10765 bound_to 10752
  140.5808  134.0015  155.8047 H   0  0  0  0  0  0  0  0  0  0  0  0  # atno 11005 bound_to 11000
  145.6419  139.1551  143.2911 LP  0  0  0  0  0  0  0  0  0  0  0  0  # atno 17320 bound_to 7965
  146.1798  140.6515  142.9194 LP  0  0  0  0  0  0  0  0  0  0  0  0  # atno 17321 bound_to 7965
  139.7738  144.7467  151.0186 LP  0  0  0  0  0  0  0  0  0  0  0  0  # atno 17342 bound_to 10162
  140.7812  143.4616  151.0270 LP  0  0  0  0  0  0  0  0  0  0  0  0  # atno 17343 bound_to 10162
  156.0638  130.5685  150.9247 LP  0  0  0  0  0  0  0  0  0  0  0  0  # atno 17370 bound_to 10713
  157.6095  131.0937  150.8821 LP  0  0  0  0  0  0  0  0  0  0  0  0  # atno 17371 bound_to 10713
  141.0997  133.9787  157.3099 LP  0  0  0  0  0  0  0  0  0  0  0  0  # atno 17394 bound_to 11000
  139.9318  135.0199  156.8425 LP  0  0  0  0  0  0  0  0  0  0  0  0  # atno 17395 bound_to 11000

$$$$
