#       Name:                AV-unprocessed.smi:2598
#       Creating user name   scv26
#       Creation time:       Fri Mar 27 14:19:13 2020


#       File generated by GOLD software.
#

@<TRIPOS>MOLECULE
AV-unprocessed.smi:2598
    31    32     1
SMALL
NO_CHARGES


@<TRIPOS>ATOM
      1 ****        -1.8321  -1.7449  -0.8651 O.2            1 S1                 0.0000
      2 ****        -0.7019  -1.6897  -0.3839 C.2            1 S1                 0.0000
      3 ****         0.0649  -2.7949  -0.2789 N.am           1 S1                 0.0000
      4 ****        -0.1654  -4.0850  -0.6481 C.2            1 S1                 0.0000
      5 ****         0.7779  -5.0727  -0.7463 C.2            1 S1                 0.0000
      6 ****         0.2655  -6.3256  -1.1187 N.2            1 S1                 0.0000
      7 ****        -1.0229  -6.3442  -1.2930 N.2            1 S1                 0.0000
      8 ****        -1.6914  -4.8371  -1.0050 S.3            1 S1                 0.0000
      9 ****        -0.1658  -0.5513   0.0874 N.am           1 S1                 0.0000
     10 ****        -0.8068   0.7601   0.0840 C.3            1 S1                 0.0000
     11 ****        -0.6235   1.4430  -1.2872 C.3            1 S1                 0.0000
     12 ****        -1.3312   2.8036  -1.3638 C.3            1 S1                 0.0000
     13 ****        -0.6493   3.9710  -0.1549 S.3            1 S1                 0.0000
     14 ****        -0.9048   2.9833   1.3444 C.3            1 S1                 0.0000
     15 ****        -0.2259   1.6108   1.2292 C.3            1 S1                 0.0000
     16 ****         0.9344  -2.6537   0.2150 H              1 S1                 0.0000
     17 ****         1.8398  -4.9776  -0.5733 H              1 S1                 0.0000
     18 ****         0.7649  -0.5973   0.4760 H              1 S1                 0.0000
     19 ****        -1.8740   0.6255   0.2714 H              1 S1                 0.0000
     20 ****         0.4385   1.5687  -1.5031 H              1 S1                 0.0000
     21 ****        -1.0197   0.7995  -2.0736 H              1 S1                 0.0000
     22 ****        -1.2210   3.2302  -2.3608 H              1 S1                 0.0000
     23 ****        -2.4000   2.6867  -1.1825 H              1 S1                 0.0000
     24 ****        -0.5026   3.5323   2.1959 H              1 S1                 0.0000
     25 ****        -1.9752   2.8660   1.5162 H              1 S1                 0.0000
     26 ****        -0.3466   1.0788   2.1737 H              1 S1                 0.0000
     27 ****         0.8478   1.7443   1.0894 H              1 S1                 0.0000
     28 ****        -2.1967  -2.6189  -1.1862 LP             1 S1                 0.0000
     29 ****        -2.3867  -0.9157  -0.9352 LP             1 S1                 0.0000
     30 ****         0.8417  -7.1340  -1.2395 LP             1 S1                 0.0000
     31 ****        -1.5456  -7.1526  -1.5636 LP             1 S1                 0.0000
@<TRIPOS>BOND
    1    1    2 2     
    2    2    3 am    
    3    2    9 am    
    4    3    4 1     
    5    3   16 1     
    6    4    8 1     
    7    4    5 2     
    8    5    6 1     
    9    5   17 1     
   10    6    7 2     
   11    7    8 1     
   12    9   10 1     
   13    9   18 1     
   14   10   15 1     
   15   10   11 1     
   16   10   19 1     
   17   11   12 1     
   18   11   20 1     
   19   11   21 1     
   20   12   13 1     
   21   12   22 1     
   22   12   23 1     
   23   13   14 1     
   24   14   15 1     
   25   14   24 1     
   26   14   25 1     
   27   15   26 1     
   28   15   27 1     
   29    1   28 1     
   30    1   29 1     
   31    6   30 1     
   32    7   31 1     
@<TRIPOS>SUBSTRUCTURE
      1 S1             1
@<TRIPOS>SET
LONE_PAIRS      STATIC     ATOMS    <user>   **** ""
4 28 29 30 31
DONOR_HYDROGENS      STATIC     ATOMS    <user>   **** ""
2 16 18
ATOM$BLUE        STATIC     ATOMS    COLORGROUP SYSTEM
4 28 29 30 31
ATOM$RED        STATIC     ATOMS    COLORGROUP SYSTEM
2 16 18
