AV-unprocessed.smi:1996|AV-procd|sdf|8084|dock8
  -GOLD-   2272010303D 1   1.00000     0.00000
 Structure written by MMmdl.
 33 34  0  0  0  0  0  0  0  0  1 V2000
  154.9944  139.3362  158.7118 O   0  0  0  0  0  0  0  0  0  0  0  0
  154.7451  138.9527  159.8550 C   0  0  0  0  0  0  0  0  0  0  0  0
  154.4360  139.7826  160.8618 N   0  0  0  0  0  0  0  0  0  0  0  0
  154.3358  141.2331  160.7500 C   0  0  0  0  0  0  0  0  0  0  0  0
  152.8982  141.7190  161.0050 C   0  0  0  0  0  0  0  0  0  0  0  0
  152.5619  142.9906  160.2443 C   0  0  0  0  0  0  0  0  0  0  0  0
  152.6513  143.0624  158.9018 C   0  0  0  0  0  0  0  0  0  0  0  0
  152.3411  144.3080  158.0900 C   0  0  0  0  0  0  0  0  0  0  0  0
  152.2362  145.5688  158.9647 C   0  0  0  0  0  0  0  0  0  0  0  0
  151.4501  145.2888  160.2515 C   0  0  0  0  0  0  0  0  0  0  0  0
  152.1173  144.1811  161.0864 C   0  0  0  0  0  0  0  0  0  0  0  0
  154.7402  137.6713  160.2624 N   0  0  0  0  0  0  0  0  0  0  0  0
  154.9957  136.5027  159.4971 C   0  0  0  0  0  0  0  0  0  0  0  0
  154.3474  135.3403  159.6727 N   0  0  0  0  0  0  0  0  0  0  0  0
  154.7932  134.3594  158.7963 N   0  0  0  0  0  0  0  0  0  0  0  0
  155.7583  134.8199  157.9951 C   0  0  0  0  0  0  0  0  0  0  0  0
  156.2168  136.4974  158.2327 S   0  0  0  0  0  0  0  0  0  0  0  0
  154.2483  139.3829  161.7698 H   0  0  0  0  0  0  0  0  0  0  0  0
  155.0182  141.6696  161.4794 H   0  0  0  0  0  0  0  0  0  0  0  0
  154.6810  141.5580  159.7669 H   0  0  0  0  0  0  0  0  0  0  0  0
  152.1913  140.9378  160.7219 H   0  0  0  0  0  0  0  0  0  0  0  0
  152.7446  141.8979  162.0698 H   0  0  0  0  0  0  0  0  0  0  0  0
  152.9525  142.1925  158.3363 H   0  0  0  0  0  0  0  0  0  0  0  0
  153.1133  144.4452  157.3328 H   0  0  0  0  0  0  0  0  0  0  0  0
  151.4034  144.1385  157.5598 H   0  0  0  0  0  0  0  0  0  0  0  0
  153.2371  145.9150  159.2259 H   0  0  0  0  0  0  0  0  0  0  0  0
  151.7678  146.3756  158.4005 H   0  0  0  0  0  0  0  0  0  0  0  0
  151.3588  146.1983  160.8459 H   0  0  0  0  0  0  0  0  0  0  0  0
  150.4346  144.9870  159.9916 H   0  0  0  0  0  0  0  0  0  0  0  0
  151.4267  143.8439  161.8601 H   0  0  0  0  0  0  0  0  0  0  0  0
  152.9924  144.5833  161.5978 H   0  0  0  0  0  0  0  0  0  0  0  0
  154.5200  137.5117  161.2344 H   0  0  0  0  0  0  0  0  0  0  0  0
  156.2032  134.1669  157.2590 H   0  0  0  0  0  0  0  0  0  0  0  0
  1  2  2  0  0  0  0
  2  3  1  0  0  0  0
  2 12  1  0  0  0  0
  3  4  1  0  0  0  0
  3 18  1  0  0  0  0
  4  5  1  0  0  0  0
  4 19  1  0  0  0  0
  4 20  1  0  0  0  0
  5  6  1  0  0  0  0
  5 21  1  0  0  0  0
  5 22  1  0  0  0  0
  6 11  1  0  0  0  0
  6  7  2  0  0  0  0
  7  8  1  0  0  0  0
  7 23  1  0  0  0  0
  8  9  1  0  0  0  0
  8 24  1  0  0  0  0
  8 25  1  0  0  0  0
  9 10  1  0  0  0  0
  9 26  1  0  0  0  0
  9 27  1  0  0  0  0
 10 11  1  0  0  0  0
 10 28  1  0  0  0  0
 10 29  1  0  0  0  0
 11 30  1  0  0  0  0
 11 31  1  0  0  0  0
 12 13  1  0  0  0  0
 12 32  1  0  0  0  0
 13 17  1  0  0  0  0
 13 14  2  0  0  0  0
 14 15  1  0  0  0  0
 15 16  2  0  0  0  0
 16 17  1  0  0  0  0
 16 33  1  0  0  0  0
M  END
> <s_m_source_file>
AV-unprocessed.smi

> <i_m_source_file_index>
1996

> <i_lp_mmshare_version>
43012

> <i_f3d_flags>
0

> <s_epik_input>
czFbY0hdbm5jMVtOSF1DKD1PKVtOSF1bQ0gyXVtDSDJdQzI9W0NIXVtDSDJdW0NIMl1bQ0gyXVtDSDJdMg==

> <s_epik_cmdline>
J2VwaWtfcHl0aG9uJywgJy1waCcsICc3LjAnLCAnLXRuJywgJzgnLCAnLW1hJywgJzIwMCcsICctbWV0YWxfYmluZGluZycsICctaW1hZScsICc8aW5maWxlLm1hZT4nLCAnLW9tYWUnLCAnPG91dGZpbGUubWFlPic=

> <r_lp_tautomer_probability>
1

> <r_epik_Ionization_Penalty>
0.00157076

> <r_epik_Ionization_Penalty_Charging>
0

> <r_epik_Ionization_Penalty_Neutral>
0.00157076

> <r_epik_State_Penalty>
-0

> <r_epik_Charging_Adjusted_Penalty>
0

> <i_epik_Tot_Q>
0

> <i_epik_Tot_abs_Q>
0

> <r_epik_Metal_State_Penalty>
0.323125

> <b_epik_Metal_Only>
0

> <s_lp_Force_Field>
OPLS_2005

> <r_lp_Energy>
6.02977

> <b_lp_Chiralities_Consistent>
1

> <s_lp_Variant>
AV-unprocessed.smi:1996-1

> <Gold.Version>
5.8.1

> <Gold.Id.Protein>
6NUR|6NUR_protein|mol2

> <Gold.PLP.Fitness>
41.8183

> <Gold.PLP.PLP>
-36.7752

> <Gold.PLP.part.hbond>
-2.5563

> <Gold.PLP.part.metal>
0.0000

> <Gold.PLP.part.buried>
-4.0872

> <Gold.PLP.part.nonpolar>
-29.4731

> <Gold.PLP.part.repulsive>
0.0429

> <Gold.PLP.ligand.clash>
0.0000

> <Gold.PLP.ligand.torsion>
0.4705

> <Gold.PLP.Chemscore.Hbond>
1.9920

> <Gold.PLP.Chemscore.CHOScore>
0.0000

> <Gold.PLP.Chemscore.Metal>
0.0000

> <Gold.Chemscore.Hbonds>
donor molecule, donor type, donor heavy atom, donor atom, acceptor molecule, acceptor atom, score
      P1  H  6896  6909       L1    14  0.76
      P1  H  7997  8009       L1     1  1.00

> <Gold.PLP.Chemscore.Internal.Correction>
0.0080

> <Gold.Rescore>
     Score         DG    S(hbond)    S(metal)    S(lipo)     H(rot)  DE(clash)    DE(int)     intcor
     18.15     -18.71       1.76        0.00      98.10       1.62       0.02       0.54       ----

> <Gold.Chemscore.Fitness>
18.1502

> <Gold.Chemscore.DG>
-18.7057

> <Gold.Chemscore.ZeroCoef>
-5.4800

> <Gold.Chemscore.Hbond>
1.7626

> <Gold.Chemscore.Metal>
0.0000

> <Gold.Chemscore.Lipo>
98.0952

> <Gold.Chemscore.Internal_Hbond>
0.0000

> <Gold.Chemscore.DEClash>
0.0195

> <Gold.Chemscore.DEInternal>
0.5360

> <Gold.Chemscore.Rot>
1.6167

> <Gold.Chemscore.Internal.Correction>
   9.000000E+99

> <Gold.Chemscore.Hbonds>
donor molecule, donor type, donor heavy atom, donor atom, acceptor molecule, acceptor atom, score
      P1  H  6896  6909       L1    14  0.32
      P1  H  7997  8009       L1     1  0.93

> <Gold.Chemscore.Hbond.Weighted>
-5.8872

> <Gold.Chemscore.Metal.Weighted>
-0.0000

> <Gold.Chemscore.Lipo.Weighted>
-11.4771

> <Gold.Chemscore.Internal_Hbond.Weighted>
0.0000

> <Gold.Chemscore.DEClash.Weighted>
0.0195

> <Gold.Chemscore.DEInternal.Weighted>
0.5360

> <Gold.Chemscore.Rot.Weighted>
4.1387

> <Gold.Chemscore.Internal.Correction.Weighted>
   9.000000E+99

> <Gold.Protein.RotatedTorsions>
[ 6907 6896 6895 6894 ] final  167.56 input  -60.11 | X-H torsion
[ 7974 7965 7964 7962 ] final -176.75 input  175.53 | X-H torsion
[ 8008 7997 7996 7995 ] final  111.10 input   59.86 | X-H torsion
[ 10167 10162 10161 10158 ] final  -20.44 input  -65.29 | X-H torsion
[ 10718 10713 10712 10709 ] final  -64.89 input   66.30 | X-H torsion
[ 10763 10752 10751 10750 ] final  165.08 input  -60.55 | X-H torsion
[ 11005 11000 10999 10996 ] final  120.95 input  -57.11 | X-H torsion

> <Gold.Protein.ActiveResidues>
 VAL166  LYS551  ARG553  GLY616  TRP617  ASP618  TYR619  PRO620  LYS621  CYS622 
 ASP623  PHE694  ASN695  SER759  ASP760  ASP761  ALA762  ILE779  LEU786  VAL792 
 PHE793  MET794  SER795  GLU796  ALA797  LYS798  CYS799  TRP800  GLU811  SER814 

> <Gold.Protein.RotatedAtoms>
  151.8613  133.3458  159.3704 H   0  0  0  0  0  0  0  0  0  0  0  0  # atno 6907 bound_to 6896
  150.7178  134.5203  159.5660 H   0  0  0  0  0  0  0  0  0  0  0  0  # atno 6908 bound_to 6896
  152.2717  134.7926  160.0464 H   0  0  0  0  0  0  0  0  0  0  0  0  # atno 6909 bound_to 6896
  144.7127  140.1123  143.6410 H   0  0  0  0  0  0  0  0  0  0  0  0  # atno 7974 bound_to 7965
  156.2100  140.3026  155.9711 H   0  0  0  0  0  0  0  0  0  0  0  0  # atno 8008 bound_to 7997
  155.2747  140.0435  157.3027 H   0  0  0  0  0  0  0  0  0  0  0  0  # atno 8009 bound_to 7997
  154.5686  140.2341  155.8234 H   0  0  0  0  0  0  0  0  0  0  0  0  # atno 8010 bound_to 7997
  140.7276  143.4722  151.0231 H   0  0  0  0  0  0  0  0  0  0  0  0  # atno 10167 bound_to 10162
  156.0702  130.4239  150.1486 H   0  0  0  0  0  0  0  0  0  0  0  0  # atno 10718 bound_to 10713
  154.3187  135.2756  155.2530 H   0  0  0  0  0  0  0  0  0  0  0  0  # atno 10763 bound_to 10752
  154.4894  135.5837  153.6451 H   0  0  0  0  0  0  0  0  0  0  0  0  # atno 10764 bound_to 10752
  152.9879  135.6131  154.3369 H   0  0  0  0  0  0  0  0  0  0  0  0  # atno 10765 bound_to 10752
  139.9206  134.9637  156.7884 H   0  0  0  0  0  0  0  0  0  0  0  0  # atno 11005 bound_to 11000
  145.9444  139.2690  143.1249 LP  0  0  0  0  0  0  0  0  0  0  0  0  # atno 17320 bound_to 7965
  145.9390  140.8994  143.0317 LP  0  0  0  0  0  0  0  0  0  0  0  0  # atno 17321 bound_to 7965
  139.8415  143.7558  152.3180 LP  0  0  0  0  0  0  0  0  0  0  0  0  # atno 17342 bound_to 10162
  139.7708  144.7477  151.0227 LP  0  0  0  0  0  0  0  0  0  0  0  0  # atno 17343 bound_to 10162
  156.9538  130.9783  151.3493 LP  0  0  0  0  0  0  0  0  0  0  0  0  # atno 17370 bound_to 10713
  157.5768  130.8348  149.8466 LP  0  0  0  0  0  0  0  0  0  0  0  0  # atno 17371 bound_to 10713
  140.6487  133.9751  155.7744 LP  0  0  0  0  0  0  0  0  0  0  0  0  # atno 17394 bound_to 11000
  141.0723  134.0187  157.3509 LP  0  0  0  0  0  0  0  0  0  0  0  0  # atno 17395 bound_to 11000

$$$$
