AV-unprocessed.smi:239|AV-procd|sdf|1820|dock5
  -GOLD-   2262020413D 1   1.00000     0.00000
 Structure written by MMmdl.
 54 58  0  0  0  0  0  0  0  0  1 V2000
  147.2798  127.5176  151.9018 C   0  0  0  0  0  0  0  0  0  0  0  0
  147.2580  129.0467  151.9947 C   0  0  2  0  0  0  0  0  0  0  0  0
  148.0084  129.5568  153.2371 C   0  0  0  0  0  0  0  0  0  0  0  0
  147.8716  131.0049  153.3464 N   0  0  0  0  0  0  0  0  0  0  0  0
  148.7416  131.6035  154.1996 C   0  0  0  0  0  0  0  0  0  0  0  0
  149.6934  130.8628  154.8290 N   0  0  0  0  0  0  0  0  0  0  0  0
  150.5636  131.4440  155.6598 C   0  0  0  0  0  0  0  0  0  0  0  0
  150.6596  132.7300  156.0013 N   0  0  0  0  0  0  0  0  0  0  0  0
  149.7026  133.4781  155.3818 C   0  0  0  0  0  0  0  0  0  0  0  0
  148.7117  132.9999  154.4779 C   0  0  0  0  0  0  0  0  0  0  0  0
  147.9028  134.0528  154.0659 N   0  0  0  0  0  0  0  0  0  0  0  0
  148.3984  135.0947  154.6757 C   0  0  0  0  0  0  0  0  0  0  0  0
  149.4860  134.8415  155.4801 N   0  0  0  0  0  0  0  0  0  0  0  0
  150.2330  135.8124  156.2652 C   0  0  0  0  0  0  0  0  0  0  0  0
  150.9332  136.8999  155.4130 C   0  0  0  0  0  0  0  0  0  0  0  0
  151.7164  136.2397  154.4330 O   0  0  0  0  0  0  0  0  0  0  0  0
  149.8881  137.7748  154.6921 C   0  0  0  0  0  0  0  0  0  0  0  0
  150.5314  138.9725  153.9703 C   0  0  0  0  0  0  0  0  0  0  0  0
  151.3022  139.7380  154.8885 O   0  0  0  0  0  0  0  0  0  0  0  0
  152.3888  139.0039  155.4396 C   0  0  0  0  0  0  0  0  0  0  0  0
  151.8614  137.8070  156.2507 C   0  0  0  0  0  0  0  0  0  0  0  0
  146.4793  131.4481  153.3580 C   0  0  0  0  0  0  0  0  0  0  0  0
  145.7154  130.8835  152.1450 C   0  0  1  0  0  0  0  0  0  0  0  0
  146.0670  131.5843  150.8401 C   0  0  0  0  0  0  0  0  0  0  0  0
  145.8843  133.0757  150.6848 C   0  0  0  0  0  0  0  0  0  0  0  0
  144.9797  132.1220  149.9405 C   0  0  0  0  0  0  0  0  0  0  0  0
  145.8961  129.4685  152.0574 O   0  0  0  0  0  0  0  0  0  0  0  0
  148.3019  127.1432  151.8395 H   0  0  0  0  0  0  0  0  0  0  0  0
  146.7452  127.1735  151.0162 H   0  0  0  0  0  0  0  0  0  0  0  0
  146.8094  127.0625  152.7739 H   0  0  0  0  0  0  0  0  0  0  0  0
  147.7260  129.4473  151.0948 H   0  0  0  0  0  0  0  0  0  0  0  0
  147.5985  129.0976  154.1378 H   0  0  0  0  0  0  0  0  0  0  0  0
  149.0529  129.2541  153.1784 H   0  0  0  0  0  0  0  0  0  0  0  0
  151.2881  130.7841  156.1140 H   0  0  0  0  0  0  0  0  0  0  0  0
  147.9851  136.0851  154.5513 H   0  0  0  0  0  0  0  0  0  0  0  0
  149.5485  136.2725  156.9793 H   0  0  0  0  0  0  0  0  0  0  0  0
  150.9704  135.2711  156.8594 H   0  0  0  0  0  0  0  0  0  0  0  0
  151.2974  136.3459  153.5926 H   0  0  0  0  0  0  0  0  0  0  0  0
  149.3106  137.1775  153.9854 H   0  0  0  0  0  0  0  0  0  0  0  0
  149.1742  138.1577  155.4226 H   0  0  0  0  0  0  0  0  0  0  0  0
  151.1565  138.6431  153.1391 H   0  0  0  0  0  0  0  0  0  0  0  0
  149.7559  139.6113  153.5469 H   0  0  0  0  0  0  0  0  0  0  0  0
  153.0610  138.6761  154.6450 H   0  0  0  0  0  0  0  0  0  0  0  0
  152.9659  139.6649  156.0864 H   0  0  0  0  0  0  0  0  0  0  0  0
  151.3089  138.1887  157.1102 H   0  0  0  0  0  0  0  0  0  0  0  0
  152.7016  137.2404  156.6538 H   0  0  0  0  0  0  0  0  0  0  0  0
  146.0072  131.1025  154.2788 H   0  0  0  0  0  0  0  0  0  0  0  0
  146.4240  132.5375  153.3566 H   0  0  0  0  0  0  0  0  0  0  0  0
  144.6506  131.0428  152.3188 H   0  0  0  0  0  0  0  0  0  0  0  0
  146.9295  131.1627  150.3275 H   0  0  0  0  0  0  0  0  0  0  0  0
  145.4550  133.6262  151.5197 H   0  0  0  0  0  0  0  0  0  0  0  0
  146.6316  133.6149  150.1063 H   0  0  0  0  0  0  0  0  0  0  0  0
  145.1240  132.0259  148.8662 H   0  0  0  0  0  0  0  0  0  0  0  0
  143.9504  132.0348  150.2824 H   0  0  0  0  0  0  0  0  0  0  0  0
  1  2  1  0  0  0  0
  1 28  1  0  0  0  0
  1 29  1  0  0  0  0
  1 30  1  0  0  0  0
  2 27  1  0  0  0  0
  2  3  1  0  0  0  0
  2 31  1  0  0  0  0
  3  4  1  0  0  0  0
  3 32  1  0  0  0  0
  3 33  1  0  0  0  0
  4  5  1  0  0  0  0
  4 22  1  0  0  0  0
  5 10  1  0  0  0  0
  5  6  2  0  0  0  0
  6  7  1  0  0  0  0
  7  8  2  0  0  0  0
  7 34  1  0  0  0  0
  8  9  1  0  0  0  0
  9 13  1  0  0  0  0
  9 10  2  0  0  0  0
 10 11  1  0  0  0  0
 11 12  2  0  0  0  0
 12 13  1  0  0  0  0
 12 35  1  0  0  0  0
 13 14  1  0  0  0  0
 14 15  1  0  0  0  0
 14 36  1  0  0  0  0
 14 37  1  0  0  0  0
 15 21  1  0  0  0  0
 15 16  1  0  0  0  0
 15 17  1  0  0  0  0
 16 38  1  0  0  0  0
 17 18  1  0  0  0  0
 17 39  1  0  0  0  0
 17 40  1  0  0  0  0
 18 19  1  0  0  0  0
 18 41  1  0  0  0  0
 18 42  1  0  0  0  0
 19 20  1  0  0  0  0
 20 21  1  0  0  0  0
 20 43  1  0  0  0  0
 20 44  1  0  0  0  0
 21 45  1  0  0  0  0
 21 46  1  0  0  0  0
 22 23  1  0  0  0  0
 22 47  1  0  0  0  0
 22 48  1  0  0  0  0
 23 24  1  0  0  0  0
 23 27  1  0  0  0  0
 23 49  1  0  0  0  0
 24 26  1  0  0  0  0
 24 25  1  0  0  0  0
 24 50  1  0  0  0  0
 25 26  1  0  0  0  0
 25 51  1  0  0  0  0
 25 52  1  0  0  0  0
 26 53  1  0  0  0  0
 26 54  1  0  0  0  0
M  END
> <s_m_source_file>
AV-unprocessed.smi

> <i_m_source_file_index>
239

> <i_lp_mmshare_version>
43012

> <i_f3d_flags>
0

> <s_epik_input>
W0NIMl0xW0NIMl1bQ0hdMVtDQEBIXShPMilbQ0gyXU4oW0NIMl1bQ0BIXTJbQ0gzXSljKG5bY0hdbjMpYyhjMzQpbltjSF1uNFtDSDJdQzUoW09IXSlbQ0gyXVtDSDJdT1tDSDJdW0NIMl01

> <s_epik_cmdline>
J2VwaWtfcHl0aG9uJywgJy1waCcsICc3LjAnLCAnLXRuJywgJzgnLCAnLW1hJywgJzIwMCcsICctbWV0YWxfYmluZGluZycsICctaW1hZScsICc8aW5maWxlLm1hZT4nLCAnLW9tYWUnLCAnPG91dGZpbGUubWFlPic=

> <r_lp_tautomer_probability>
1

> <r_epik_Ionization_Penalty>
9.13091e-05

> <r_epik_Ionization_Penalty_Charging>
0

> <r_epik_Ionization_Penalty_Neutral>
9.13091e-05

> <r_epik_State_Penalty>
-0

> <r_epik_Charging_Adjusted_Penalty>
0

> <i_epik_Tot_Q>
0

> <i_epik_Tot_abs_Q>
0

> <r_epik_Metal_State_Penalty>
-0

> <b_epik_Metal_Only>
0

> <s_lp_Force_Field>
OPLS_2005

> <r_lp_Energy>
39.9708

> <b_lp_Chiralities_Consistent>
1

> <s_lp_Variant>
AV-unprocessed.smi:239-1

> <Gold.Version>
5.8.1

> <Gold.Id.Protein>
6NUR|6NUR_protein|mol2

> <Gold.PLP.Fitness>
49.9773

> <Gold.PLP.PLP>
-43.4359

> <Gold.PLP.part.hbond>
-3.0000

> <Gold.PLP.part.metal>
0.0000

> <Gold.PLP.part.buried>
-2.7757

> <Gold.PLP.part.nonpolar>
-37.3334

> <Gold.PLP.part.repulsive>
0.4428

> <Gold.PLP.ligand.clash>
0.0000

> <Gold.PLP.ligand.torsion>
1.0276

> <Gold.PLP.Chemscore.Hbond>
2.4020

> <Gold.PLP.Chemscore.CHOScore>
0.0000

> <Gold.PLP.Chemscore.Metal>
0.0000

> <Gold.Chemscore.Hbonds>
donor molecule, donor type, donor heavy atom, donor atom, acceptor molecule, acceptor atom, score
      L1  H    16    38       P1  7949  0.75
      P1  H  7989  7998       L1    19  0.35
      P1  H 10752 10764       L1    16  0.68
      L1  C    12    35       P1  7948  0.04

> <Gold.PLP.Chemscore.Internal.Correction>
1.3905

> <Gold.Rescore>
     Score         DG    S(hbond)    S(metal)    S(lipo)     H(rot)  DE(clash)    DE(int)     intcor
     13.34     -15.72       1.15        0.00     103.61       2.24       0.35       2.03       ----

> <Gold.Chemscore.Fitness>
13.3441

> <Gold.Chemscore.DG>
-15.7197

> <Gold.Chemscore.ZeroCoef>
-5.4800

> <Gold.Chemscore.Hbond>
1.1522

> <Gold.Chemscore.Metal>
0.0000

> <Gold.Chemscore.Lipo>
103.6108

> <Gold.Chemscore.Internal_Hbond>
0.0000

> <Gold.Chemscore.DEClash>
0.3473

> <Gold.Chemscore.DEInternal>
2.0283

> <Gold.Chemscore.Rot>
2.2387

> <Gold.Chemscore.Internal.Correction>
   9.000000E+99

> <Gold.Chemscore.Hbonds>
donor molecule, donor type, donor heavy atom, donor atom, acceptor molecule, acceptor atom, score
      L1  H    16    38       P1  7949  0.43
      P1  H  7989  7998       L1    19  0.01
      P1  H 10752 10764       L1    16  0.34

> <Gold.Chemscore.Hbond.Weighted>
-3.8484

> <Gold.Chemscore.Metal.Weighted>
-0.0000

> <Gold.Chemscore.Lipo.Weighted>
-12.1225

> <Gold.Chemscore.Internal_Hbond.Weighted>
0.0000

> <Gold.Chemscore.DEClash.Weighted>
0.3473

> <Gold.Chemscore.DEInternal.Weighted>
2.0283

> <Gold.Chemscore.Rot.Weighted>
5.7311

> <Gold.Chemscore.Internal.Correction.Weighted>
   9.000000E+99

> <Gold.Protein.RotatedTorsions>
[ 6907 6896 6895 6894 ] final  161.45 input  -60.11 | X-H torsion
[ 7974 7965 7964 7962 ] final  -64.79 input  175.53 | X-H torsion
[ 8008 7997 7996 7995 ] final  -68.15 input   59.86 | X-H torsion
[ 10167 10162 10161 10158 ] final   66.68 input  -65.29 | X-H torsion
[ 10718 10713 10712 10709 ] final -176.98 input   66.30 | X-H torsion
[ 10763 10752 10751 10750 ] final  -87.55 input  -60.55 | X-H torsion
[ 11005 11000 10999 10996 ] final  169.03 input  -57.11 | X-H torsion

> <Gold.Protein.ActiveResidues>
 VAL166  LYS551  ARG553  GLY616  TRP617  ASP618  TYR619  PRO620  LYS621  CYS622 
 ASP623  PHE694  ASN695  SER759  ASP760  ASP761  ALA762  ILE779  LEU786  VAL792 
 PHE793  MET794  SER795  GLU796  ALA797  LYS798  CYS799  TRP800  GLU811  SER814 

> <Gold.Protein.RotatedAtoms>
  151.9554  133.3679  159.4015 H   0  0  0  0  0  0  0  0  0  0  0  0  # atno 6907 bound_to 6896
  150.6973  134.4296  159.5251 H   0  0  0  0  0  0  0  0  0  0  0  0  # atno 6908 bound_to 6896
  152.1976  134.8616  160.0562 H   0  0  0  0  0  0  0  0  0  0  0  0  # atno 6909 bound_to 6896
  145.7623  140.8855  143.0423 H   0  0  0  0  0  0  0  0  0  0  0  0  # atno 7974 bound_to 7965
  154.4848  140.0878  156.7462 H   0  0  0  0  0  0  0  0  0  0  0  0  # atno 8008 bound_to 7997
  155.4377  140.3452  155.4268 H   0  0  0  0  0  0  0  0  0  0  0  0  # atno 8009 bound_to 7997
  156.1245  140.1483  156.9144 H   0  0  0  0  0  0  0  0  0  0  0  0  # atno 8010 bound_to 7997
  140.0977  144.4931  150.7057 H   0  0  0  0  0  0  0  0  0  0  0  0  # atno 10167 bound_to 10162
  156.8227  130.9625  151.3111 H   0  0  0  0  0  0  0  0  0  0  0  0  # atno 10718 bound_to 10713
  154.6348  135.5409  153.7721 H   0  0  0  0  0  0  0  0  0  0  0  0  # atno 10763 bound_to 10752
  153.0303  135.6445  154.1248 H   0  0  0  0  0  0  0  0  0  0  0  0  # atno 10764 bound_to 10752
  154.1175  135.2922  155.3196 H   0  0  0  0  0  0  0  0  0  0  0  0  # atno 10765 bound_to 10752
  140.2935  134.7654  157.3858 H   0  0  0  0  0  0  0  0  0  0  0  0  # atno 11005 bound_to 11000
  144.6828  139.9740  143.7482 LP  0  0  0  0  0  0  0  0  0  0  0  0  # atno 17320 bound_to 7965
  146.0252  139.3286  143.0789 LP  0  0  0  0  0  0  0  0  0  0  0  0  # atno 17321 bound_to 7965
  140.6994  143.2425  151.4907 LP  0  0  0  0  0  0  0  0  0  0  0  0  # atno 17342 bound_to 10162
  139.5689  144.1977  152.1806 LP  0  0  0  0  0  0  0  0  0  0  0  0  # atno 17343 bound_to 10162
  157.6448  130.8835  149.9518 LP  0  0  0  0  0  0  0  0  0  0  0  0  # atno 17370 bound_to 10713
  156.0979  130.3658  150.0271 LP  0  0  0  0  0  0  0  0  0  0  0  0  # atno 17371 bound_to 10713
  140.1174  134.5265  155.8213 LP  0  0  0  0  0  0  0  0  0  0  0  0  # atno 17394 bound_to 11000
  141.2142  133.6744  156.6802 LP  0  0  0  0  0  0  0  0  0  0  0  0  # atno 17395 bound_to 11000

$$$$
