#       Name:                AV-unprocessed.smi:235
#       Creating user name   scv26
#       Creation time:       Thu Mar 26 20:37:20 2020


#       File generated by GOLD software.
#

@<TRIPOS>MOLECULE
AV-unprocessed.smi:235
    64    68     1
SMALL
NO_CHARGES


@<TRIPOS>ATOM
      1 ****        -3.7609   2.0415  -2.4859 O.2            1 S1                 0.0000
      2 ****        -3.1890   0.9654  -2.6644 C.2            1 S1                 0.0000
      3 ****        -2.7951   0.5287  -3.8692 N.am           1 S1                 0.0000
      4 ****        -2.9594   1.2289  -5.1013 C.3            1 S1                 0.0000
      5 ****        -3.2129   0.4073  -6.3468 C.3            1 S1                 0.0000
      6 ****        -1.8774   1.0695  -6.1476 C.3            1 S1                 0.0000
      7 ****        -2.9003   0.0269  -1.4839 C.3            1 S1                 0.0000
      8 ****        -4.1033  -0.8630  -1.1475 C.3            1 S1                 0.0000
      9 ****        -3.8541  -1.2335   0.3093 C.3            1 S1                 0.0000
     10 ****        -3.2289   0.0362   0.8877 C.3            1 S1                 0.0000
     11 ****        -2.6428   0.7556  -0.2397 N.3            1 S1                 0.0000
     12 ****        -1.3744   1.1859  -0.0609 C.ar           1 S1                 0.0000
     13 ****        -1.1694   2.5255  -0.0494 N.ar           1 S1                 0.0000
     14 ****         0.0646   3.0100   0.1206 C.ar           1 S1                 0.0000
     15 ****         1.2084   2.3427   0.2927 N.ar           1 S1                 0.0000
     16 ****         1.0016   0.9946   0.2820 C.ar           1 S1                 0.0000
     17 ****        -0.2474   0.3347   0.1143 C.ar           1 S1                 0.0000
     18 ****        -0.0681  -1.0430   0.1624 N.2            1 S1                 0.0000
     19 ****         1.2162  -1.1891   0.3445 C.2            1 S1                 0.0000
     20 ****         1.9328  -0.0165   0.4305 N.pl3          1 S1                 0.0000
     21 ****         3.3631   0.1177   0.6371 C.3            1 S1                 0.0000
     22 ****         3.7201   0.4848   2.0914 C.3            1 S1                 0.0000
     23 ****         5.1262   0.5537   2.2189 O.3            1 S1                 0.0000
     24 ****         3.1264  -0.4656   3.1558 C.3            1 S1                 0.0000
     25 ****         3.5831  -0.2274   4.6057 C.3            1 S1                 0.0000
     26 ****         4.1929  -1.5570   5.0133 C.3            1 S1                 0.0000
     27 ****         3.5130  -2.5411   4.0704 C.3            1 S1                 0.0000
     28 ****         3.4487  -1.8198   2.8519 O.3            1 S1                 0.0000
     29 ****        -2.3398  -0.3712  -3.9170 H              1 S1                 0.0000
     30 ****        -3.4480   2.2017  -5.0631 H              1 S1                 0.0000
     31 ****        -3.2563  -0.6753  -6.2433 H              1 S1                 0.0000
     32 ****        -3.8753   0.8294  -7.0999 H              1 S1                 0.0000
     33 ****        -1.6480   1.9347  -6.7663 H              1 S1                 0.0000
     34 ****        -1.0294   0.4297  -5.9100 H              1 S1                 0.0000
     35 ****        -2.0476  -0.6089  -1.7295 H              1 S1                 0.0000
     36 ****        -5.0396  -0.3077  -1.2306 H              1 S1                 0.0000
     37 ****        -4.1722  -1.7386  -1.7937 H              1 S1                 0.0000
     38 ****        -4.7588  -1.5404   0.8348 H              1 S1                 0.0000
     39 ****        -3.1374  -2.0543   0.3612 H              1 S1                 0.0000
     40 ****        -4.0016   0.6711   1.3222 H              1 S1                 0.0000
     41 ****        -2.5160  -0.1966   1.6806 H              1 S1                 0.0000
     42 ****         0.1475   4.0869   0.1181 H              1 S1                 0.0000
     43 ****         1.6784  -2.1620   0.4296 H              1 S1                 0.0000
     44 ****         3.8408  -0.8211   0.3531 H              1 S1                 0.0000
     45 ****         3.7393   0.8776  -0.0491 H              1 S1                 0.0000
     46 ****         3.3443   1.4884   2.2941 H              1 S1                 0.0000
     47 ****         5.4803  -0.3111   2.0783 H              1 S1                 0.0000
     48 ****         2.0382  -0.3874   3.1343 H              1 S1                 0.0000
     49 ****         4.2904   0.5948   4.7159 H              1 S1                 0.0000
     50 ****         2.7198  -0.0001   5.2323 H              1 S1                 0.0000
     51 ****         5.2667  -1.5464   4.8222 H              1 S1                 0.0000
     52 ****         4.0365  -1.7961   6.0654 H              1 S1                 0.0000
     53 ****         4.0681  -3.4726   3.9584 H              1 S1                 0.0000
     54 ****         2.5036  -2.7761   4.4113 H              1 S1                 0.0000
     55 ****        -3.9538   2.6402  -3.2633 LP             1 S1                 0.0000
     56 ****        -4.0323   2.3165  -1.5636 LP             1 S1                 0.0000
     57 ****        -3.1154   1.6339  -0.3116 LP             1 S1                 0.0000
     58 ****        -1.9406   3.1508  -0.1680 LP             1 S1                 0.0000
     59 ****         2.1017   2.7756   0.4138 LP             1 S1                 0.0000
     60 ****        -0.7627  -1.7573   0.0771 LP             1 S1                 0.0000
     61 ****         5.3673   0.8726   3.1355 LP             1 S1                 0.0000
     62 ****         5.4968   1.1854   1.5380 LP             1 S1                 0.0000
     63 ****         4.3327  -1.8616   2.3862 LP             1 S1                 0.0000
     64 ****         2.7426  -2.2123   2.2625 LP             1 S1                 0.0000
@<TRIPOS>BOND
    1    1    2 2     
    2    2    3 am    
    3    2    7 1     
    4    3    4 1     
    5    3   29 1     
    6    4    6 1     
    7    4    5 1     
    8    4   30 1     
    9    5    6 1     
   10    5   31 1     
   11    5   32 1     
   12    6   33 1     
   13    6   34 1     
   14    7   11 1     
   15    7    8 1     
   16    7   35 1     
   17    8    9 1     
   18    8   36 1     
   19    8   37 1     
   20    9   10 1     
   21    9   38 1     
   22    9   39 1     
   23   10   11 1     
   24   10   40 1     
   25   10   41 1     
   26   11   12 1     
   27   12   17 ar    
   28   12   13 ar    
   29   13   14 ar    
   30   14   15 ar    
   31   14   42 1     
   32   15   16 ar    
   33   16   20 1     
   34   16   17 ar    
   35   17   18 1     
   36   18   19 2     
   37   19   20 1     
   38   19   43 1     
   39   20   21 1     
   40   21   22 1     
   41   21   44 1     
   42   21   45 1     
   43   22   23 1     
   44   22   24 1     
   45   22   46 1     
   46   23   47 1     
   47   24   28 1     
   48   24   25 1     
   49   24   48 1     
   50   25   26 1     
   51   25   49 1     
   52   25   50 1     
   53   26   27 1     
   54   26   51 1     
   55   26   52 1     
   56   27   28 1     
   57   27   53 1     
   58   27   54 1     
   59    1   55 1     
   60    1   56 1     
   61   11   57 1     
   62   13   58 1     
   63   15   59 1     
   64   18   60 1     
   65   23   61 1     
   66   23   62 1     
   67   28   63 1     
   68   28   64 1     
@<TRIPOS>SUBSTRUCTURE
      1 S1             1
@<TRIPOS>SET
LONE_PAIRS      STATIC     ATOMS    <user>   **** ""
10 55 56 57 58 59 60 61 62 63 64
DONOR_HYDROGENS      STATIC     ATOMS    <user>   **** ""
2 29 47
ATOM$BLUE        STATIC     ATOMS    COLORGROUP SYSTEM
10 55 56 57 58 59 60 61 62 63 64
ATOM$RED        STATIC     ATOMS    COLORGROUP SYSTEM
2 29 47
