AV-unprocessed.smi:592|AV-procd|sdf|3011|dock2
  -GOLD-   2262023513D 1   1.00000     0.00000
 Structure written by MMmdl.
 28 29  0  0  0  0  0  0  0  0  2 V2000
  152.3380  136.4659  155.8748 O   0  0  0  0  0  0  0  0  0  0  0  0
  151.7044  137.0320  154.9851 C   0  0  0  0  0  0  0  0  0  0  0  0
  152.0588  138.4545  154.5205 C   0  0  0  0  0  0  0  0  0  0  0  0
  151.0517  139.4596  154.9040 N   0  0  0  0  0  0  0  0  0  0  0  0
  149.8741  139.5134  154.1314 C   0  0  0  0  0  0  0  0  0  0  0  0
  148.8910  140.3888  154.3944 C   0  0  0  0  0  0  0  0  0  0  0  0
  149.0625  141.2942  155.5059 C   0  0  0  0  0  0  0  0  0  0  0  0
  150.1868  141.2553  156.2482 C   0  0  0  0  0  0  0  0  0  0  0  0
  151.2657  140.3027  155.9616 C   0  0  0  0  0  0  0  0  0  0  0  0
  152.2998  140.2650  156.6291 O   0  0  0  0  0  0  0  0  0  0  0  0
  150.5986  136.3207  154.3904 N   0  0  0  0  0  0  0  0  0  0  0  0
  150.0950  135.0821  154.6212 C   0  0  0  0  0  0  0  0  0  0  0  0
  149.2971  134.4301  153.7633 N   0  3  0  0  0  0  0  0  0  0  0  0
  148.7993  133.0946  154.1273 C   0  0  0  0  0  0  0  0  0  0  0  0
  149.3562  132.7066  155.5066 C   0  0  0  0  0  0  0  0  0  0  0  0
  150.3636  134.0856  156.0865 S   0  0  0  0  0  0  0  0  0  0  0  0
  153.0229  138.7330  154.9458 H   0  0  0  0  0  0  0  0  0  0  0  0
  152.1774  138.4621  153.4366 H   0  0  0  0  0  0  0  0  0  0  0  0
  149.8247  138.8076  153.3150 H   0  0  0  0  0  0  0  0  0  0  0  0
  147.9972  140.4174  153.7888 H   0  0  0  0  0  0  0  0  0  0  0  0
  148.2860  142.0066  155.7427 H   0  0  0  0  0  0  0  0  0  0  0  0
  150.2977  141.9414  157.0750 H   0  0  0  0  0  0  0  0  0  0  0  0
  150.0571  136.7904  153.6792 H   0  0  0  0  0  0  0  0  0  0  0  0
  147.7092  133.1098  154.1427 H   0  0  0  0  0  0  0  0  0  0  0  0
  149.1062  132.3740  153.3689 H   0  0  0  0  0  0  0  0  0  0  0  0
  148.5512  132.5159  156.2167 H   0  0  0  0  0  0  0  0  0  0  0  0
  149.9688  131.8067  155.4444 H   0  0  0  0  0  0  0  0  0  0  0  0
  149.0264  134.8369  152.8790 H   0  0  0  0  0  0  0  0  0  0  0  0
  1  2  2  0  0  0  0
  2  3  1  0  0  0  0
  2 11  1  0  0  0  0
  3  4  1  0  0  0  0
  3 17  1  0  0  0  0
  3 18  1  0  0  0  0
  4  9  1  0  0  0  0
  4  5  1  0  0  0  0
  5  6  2  0  0  0  0
  5 19  1  0  0  0  0
  6  7  1  0  0  0  0
  6 20  1  0  0  0  0
  7  8  2  0  0  0  0
  7 21  1  0  0  0  0
  8  9  1  0  0  0  0
  8 22  1  0  0  0  0
  9 10  2  0  0  0  0
 11 12  1  0  0  0  0
 11 23  1  0  0  0  0
 12 16  1  0  0  0  0
 12 13  2  0  0  0  0
 13 14  1  0  0  0  0
 13 28  1  0  0  0  0
 14 15  1  0  0  0  0
 14 24  1  0  0  0  0
 14 25  1  0  0  0  0
 15 16  1  0  0  0  0
 15 26  1  0  0  0  0
 15 27  1  0  0  0  0
M  CHG  1  13   1
M  END
> <s_m_source_file>
AV-unprocessed.smi

> <i_m_source_file_index>
592

> <i_lp_mmshare_version>
43012

> <i_f3d_flags>
0

> <s_epik_input>
UzFbQ0gyXVtDSDJdTj1DMVtOSF1DKD1PKVtDSDJdbjJbY0hdW2NIXVtjSF1bY0hdYzI9Tw==

> <s_epik_cmdline>
J2VwaWtfcHl0aG9uJywgJy1waCcsICc3LjAnLCAnLXRuJywgJzgnLCAnLW1hJywgJzIwMCcsICctbWV0YWxfYmluZGluZycsICctaW1hZScsICc8aW5maWxlLm1hZT4nLCAnLW9tYWUnLCAnPG91dGZpbGUubWFlPic=

> <r_lp_tautomer_probability>
1

> <r_epik_Ionization_Penalty>
1.98499

> <r_epik_Ionization_Penalty_Charging>
1.98499

> <r_epik_Ionization_Penalty_Neutral>
2.63117e-16

> <r_epik_State_Penalty>
1.64719

> <r_epik_Charging_Adjusted_Penalty>
3.63218

> <i_epik_Tot_Q>
1

> <i_epik_Tot_abs_Q>
1

> <r_epik_Metal_State_Penalty>
5.35038

> <b_epik_Metal_Only>
0

> <s_epik_Chemistry_Notes>
This compound has an imine and may undergo hydrolysis.

> <s_lp_Force_Field>
OPLS_2005

> <r_lp_Energy>
33.1972

> <b_lp_Chiralities_Consistent>
1

> <s_lp_Variant>
AV-unprocessed.smi:592-2

> <Gold.Version>
5.8.1

> <Gold.Id.Protein>
6NUR|6NUR_protein|mol2

> <Gold.PLP.Fitness>
42.3354

> <Gold.PLP.PLP>
-28.0319

> <Gold.PLP.part.hbond>
-4.8897

> <Gold.PLP.part.metal>
0.0000

> <Gold.PLP.part.buried>
4.1771

> <Gold.PLP.part.nonpolar>
-26.6951

> <Gold.PLP.part.repulsive>
0.1001

> <Gold.PLP.ligand.clash>
0.0000

> <Gold.PLP.ligand.torsion>
0.4029

> <Gold.PLP.Chemscore.Hbond>
4.4119

> <Gold.PLP.Chemscore.CHOScore>
0.6235

> <Gold.PLP.Chemscore.Metal>
0.0000

> <Gold.Chemscore.Hbonds>
donor molecule, donor type, donor heavy atom, donor atom, acceptor molecule, acceptor atom, score
      L1  H    11    23       P1  7948  0.48
      L1  H    13    28       P1  7948  1.09
      P1  H  7997  8010       L1    10  0.96
      P1  H 10752 10764       L1     1  0.96
      L1  C     5    19       P1  7957  0.61

> <Gold.PLP.Chemscore.Internal.Correction>
0.0030

> <Gold.Rescore>
     Score         DG    S(hbond)    S(metal)    S(lipo)     H(rot)  DE(clash)    DE(int)     intcor
     16.35     -16.97       2.81        0.00      47.56       1.35       0.24       0.39       ----

> <Gold.Chemscore.Fitness>
16.3500

> <Gold.Chemscore.DG>
-16.9733

> <Gold.Chemscore.ZeroCoef>
-5.4800

> <Gold.Chemscore.Hbond>
2.8096

> <Gold.Chemscore.Metal>
0.0000

> <Gold.Chemscore.Lipo>
47.5604

> <Gold.Chemscore.Internal_Hbond>
0.0000

> <Gold.Chemscore.DEClash>
0.2361

> <Gold.Chemscore.DEInternal>
0.3872

> <Gold.Chemscore.Rot>
1.3497

> <Gold.Chemscore.Internal.Correction>
   9.000000E+99

> <Gold.Chemscore.Hbonds>
donor molecule, donor type, donor heavy atom, donor atom, acceptor molecule, acceptor atom, score
      L1  H    11    23       P1  7948  0.11
      L1  H    13    28       P1  7948  0.03
      P1  H  7997  8010       L1    10  0.87
      P1  H 10752 10764       L1     1  0.23

> <Gold.Chemscore.Hbond.Weighted>
-9.3840

> <Gold.Chemscore.Metal.Weighted>
-0.0000

> <Gold.Chemscore.Lipo.Weighted>
-5.5646

> <Gold.Chemscore.Internal_Hbond.Weighted>
0.0000

> <Gold.Chemscore.DEClash.Weighted>
0.2361

> <Gold.Chemscore.DEInternal.Weighted>
0.3872

> <Gold.Chemscore.Rot.Weighted>
3.4552

> <Gold.Chemscore.Internal.Correction.Weighted>
   9.000000E+99

> <Gold.Protein.RotatedTorsions>
[ 6907 6896 6895 6894 ] final -159.55 input  -60.11 | X-H torsion
[ 7974 7965 7964 7962 ] final   42.41 input  175.53 | X-H torsion
[ 8008 7997 7996 7995 ] final   73.74 input   59.86 | X-H torsion
[ 10167 10162 10161 10158 ] final  -41.01 input  -65.29 | X-H torsion
[ 10718 10713 10712 10709 ] final  -66.13 input   66.30 | X-H torsion
[ 10763 10752 10751 10750 ] final  -30.78 input  -60.55 | X-H torsion
[ 11005 11000 10999 10996 ] final -175.94 input  -57.11 | X-H torsion

> <Gold.Protein.ActiveResidues>
 VAL166  LYS551  ARG553  GLY616  TRP617  ASP618  TYR619  PRO620  LYS621  CYS622 
 ASP623  PHE694  ASN695  SER759  ASP760  ASP761  ALA762  ILE779  LEU786  VAL792 
 PHE793  MET794  SER795  GLU796  ALA797  LYS798  CYS799  TRP800  GLU811  SER814 

> <Gold.Protein.RotatedAtoms>
  151.3353  133.3984  159.2666 H   0  0  0  0  0  0  0  0  0  0  0  0  # atno 6907 bound_to 6896
  150.9922  134.9255  159.7916 H   0  0  0  0  0  0  0  0  0  0  0  0  # atno 6908 bound_to 6896
  152.5250  134.3318  159.9238 H   0  0  0  0  0  0  0  0  0  0  0  0  # atno 6909 bound_to 6896
  146.0742  139.5303  142.9578 H   0  0  0  0  0  0  0  0  0  0  0  0  # atno 7974 bound_to 7965
  155.7881  140.3480  155.5334 H   0  0  0  0  0  0  0  0  0  0  0  0  # atno 8008 bound_to 7997
  155.8662  140.0979  157.1601 H   0  0  0  0  0  0  0  0  0  0  0  0  # atno 8009 bound_to 7997
  154.4014  140.1349  156.4009 H   0  0  0  0  0  0  0  0  0  0  0  0  # atno 8010 bound_to 7997
  140.7016  143.3120  151.3005 H   0  0  0  0  0  0  0  0  0  0  0  0  # atno 10167 bound_to 10162
  156.0630  130.4257  150.1664 H   0  0  0  0  0  0  0  0  0  0  0  0  # atno 10718 bound_to 10713
  153.7866  135.6901  153.4879 H   0  0  0  0  0  0  0  0  0  0  0  0  # atno 10763 bound_to 10752
  153.1777  135.4518  154.9985 H   0  0  0  0  0  0  0  0  0  0  0  0  # atno 10764 bound_to 10752
  154.8061  135.3357  154.7365 H   0  0  0  0  0  0  0  0  0  0  0  0  # atno 10765 bound_to 10752
  140.4577  134.6284  157.4829 H   0  0  0  0  0  0  0  0  0  0  0  0  # atno 11005 bound_to 11000
  145.6336  141.0299  143.1850 LP  0  0  0  0  0  0  0  0  0  0  0  0  # atno 17320 bound_to 7965
  144.7251  139.7902  143.7368 LP  0  0  0  0  0  0  0  0  0  0  0  0  # atno 17321 bound_to 7965
  139.6545  144.0301  152.2650 LP  0  0  0  0  0  0  0  0  0  0  0  0  # atno 17342 bound_to 10162
  139.9848  144.6403  150.7868 LP  0  0  0  0  0  0  0  0  0  0  0  0  # atno 17343 bound_to 10162
  156.9730  130.9840  151.3454 LP  0  0  0  0  0  0  0  0  0  0  0  0  # atno 17370 bound_to 10713
  157.5651  130.8272  149.8317 LP  0  0  0  0  0  0  0  0  0  0  0  0  # atno 17371 bound_to 10713
  139.9965  134.6902  155.9600 LP  0  0  0  0  0  0  0  0  0  0  0  0  # atno 17394 bound_to 11000
  141.1635  133.6538  156.4401 LP  0  0  0  0  0  0  0  0  0  0  0  0  # atno 17395 bound_to 11000

$$$$
