AV-unprocessed.smi:2986|AV-procd|sdf|11381|dock7
  -GOLD-   2272016303D 1   1.00000     0.00000
 Structure written by MMmdl.
 42 44  0  0  0  0  0  0  0  0  1 V2000
  147.8992  140.9874  154.2230 C   0  0  0  0  0  0  0  0  0  0  0  0
  149.2880  140.7710  154.0474 O   0  0  0  0  0  0  0  0  0  0  0  0
  149.8890  140.1625  155.1772 C   0  0  0  0  0  0  0  0  0  0  0  0
  149.6221  141.0372  156.4073 C   0  0  0  0  0  0  0  0  0  0  0  0
  150.6943  140.9316  157.3834 N   0  0  0  0  0  0  0  0  0  0  0  0
  151.3013  139.8082  157.8374 C   0  0  0  0  0  0  0  0  0  0  0  0
  150.8415  138.2041  157.2649 S   0  0  0  0  0  0  0  0  0  0  0  0
  150.8623  137.3309  158.8625 C   0  0  0  0  0  0  0  0  0  0  0  0
  149.5130  137.3351  159.5851 C   0  0  0  0  0  0  0  0  0  0  0  0
  148.6374  138.1173  159.2187 O   0  0  0  0  0  0  0  0  0  0  0  0
  149.3817  136.4526  160.5923 N   0  0  0  0  0  0  0  0  0  0  0  0
  148.2914  136.2822  161.4825 C   0  0  0  0  0  0  0  0  0  0  0  0
  147.7636  135.0417  161.9447 C   0  0  0  0  0  0  0  0  0  0  0  0
  146.7395  135.4302  162.7613 C   0  0  0  0  0  0  0  0  0  0  0  0
  145.7537  134.6726  163.5825 C   0  0  0  0  0  0  0  0  0  0  0  0
  146.6489  136.7870  162.7950 O   0  0  0  0  0  0  0  0  0  0  0  0
  147.6471  137.3243  161.9741 N   0  0  0  0  0  0  0  0  0  0  0  0
  152.2692  139.9955  158.7346 N   0  0  0  0  0  0  0  0  0  0  0  0
  152.2897  141.3691  158.8781 C   0  0  0  0  0  0  0  0  0  0  0  0
  153.0989  142.1967  159.6892 C   0  0  0  0  0  0  0  0  0  0  0  0
  152.9319  143.5970  159.6704 C   0  0  0  0  0  0  0  0  0  0  0  0
  151.9556  144.1886  158.8428 C   0  0  0  0  0  0  0  0  0  0  0  0
  151.1398  143.3827  158.0256 C   0  0  0  0  0  0  0  0  0  0  0  0
  151.3116  141.9858  158.0474 C   0  0  0  0  0  0  0  0  0  0  0  0
  147.4841  141.4479  153.3265 H   0  0  0  0  0  0  0  0  0  0  0  0
  147.7080  141.6549  155.0643 H   0  0  0  0  0  0  0  0  0  0  0  0
  147.3717  140.0480  154.3936 H   0  0  0  0  0  0  0  0  0  0  0  0
  149.4763  139.1638  155.3300 H   0  0  0  0  0  0  0  0  0  0  0  0
  150.9630  140.0559  155.0153 H   0  0  0  0  0  0  0  0  0  0  0  0
  149.4996  142.0800  156.1158 H   0  0  0  0  0  0  0  0  0  0  0  0
  148.6860  140.7424  156.8826 H   0  0  0  0  0  0  0  0  0  0  0  0
  151.1895  136.3031  158.6998 H   0  0  0  0  0  0  0  0  0  0  0  0
  151.6074  137.7999  159.5054 H   0  0  0  0  0  0  0  0  0  0  0  0
  150.1824  135.8649  160.7743 H   0  0  0  0  0  0  0  0  0  0  0  0
  148.0706  134.0301  161.7263 H   0  0  0  0  0  0  0  0  0  0  0  0
  145.9497  133.6013  163.5356 H   0  0  0  0  0  0  0  0  0  0  0  0
  144.7385  134.8464  163.2255 H   0  0  0  0  0  0  0  0  0  0  0  0
  145.8029  134.9804  164.6271 H   0  0  0  0  0  0  0  0  0  0  0  0
  153.8493  141.7534  160.3270 H   0  0  0  0  0  0  0  0  0  0  0  0
  153.5560  144.2200  160.2941 H   0  0  0  0  0  0  0  0  0  0  0  0
  151.8338  145.2619  158.8350 H   0  0  0  0  0  0  0  0  0  0  0  0
  150.3912  143.8330  157.3906 H   0  0  0  0  0  0  0  0  0  0  0  0
  1  2  1  0  0  0  0
  1 25  1  0  0  0  0
  1 26  1  0  0  0  0
  1 27  1  0  0  0  0
  2  3  1  0  0  0  0
  3  4  1  0  0  0  0
  3 28  1  0  0  0  0
  3 29  1  0  0  0  0
  4  5  1  0  0  0  0
  4 30  1  0  0  0  0
  4 31  1  0  0  0  0
  5 24  1  0  0  0  0
  5  6  1  0  0  0  0
  6  7  1  0  0  0  0
  6 18  2  0  0  0  0
  7  8  1  0  0  0  0
  8  9  1  0  0  0  0
  8 32  1  0  0  0  0
  8 33  1  0  0  0  0
  9 10  2  0  0  0  0
  9 11  1  0  0  0  0
 11 12  1  0  0  0  0
 11 34  1  0  0  0  0
 12 17  2  0  0  0  0
 12 13  1  0  0  0  0
 13 14  2  0  0  0  0
 13 35  1  0  0  0  0
 14 15  1  0  0  0  0
 14 16  1  0  0  0  0
 15 36  1  0  0  0  0
 15 37  1  0  0  0  0
 15 38  1  0  0  0  0
 16 17  1  0  0  0  0
 18 19  1  0  0  0  0
 19 24  2  0  0  0  0
 19 20  1  0  0  0  0
 20 21  2  0  0  0  0
 20 39  1  0  0  0  0
 21 22  1  0  0  0  0
 21 40  1  0  0  0  0
 22 23  2  0  0  0  0
 22 41  1  0  0  0  0
 23 24  1  0  0  0  0
 23 42  1  0  0  0  0
M  END
> <s_m_source_file>
AV-unprocessed.smi

> <i_m_source_file_index>
2986

> <i_lp_mmshare_version>
43012

> <i_f3d_flags>
0

> <s_epik_input>
W2NIXTFbY0hdW2NIXVtjSF1jKGMxMiluKFtDSDJdW0NIMl1PW0NIM10pYyhuMilTW0NIMl1DKD1PKVtOSF1jM1tjSF1jKFtDSDNdKW9uMw==

> <s_epik_cmdline>
J2VwaWtfcHl0aG9uJywgJy1waCcsICc3LjAnLCAnLXRuJywgJzgnLCAnLW1hJywgJzIwMCcsICctbWV0YWxfYmluZGluZycsICctaW1hZScsICc8aW5maWxlLm1hZT4nLCAnLW9tYWUnLCAnPG91dGZpbGUubWFlPic=

> <r_epik_Ionization_Penalty>
0.0256487

> <r_epik_Ionization_Penalty_Charging>
0

> <r_epik_Ionization_Penalty_Neutral>
0.0256487

> <r_epik_State_Penalty>
0.0204505

> <r_epik_Charging_Adjusted_Penalty>
0.0204505

> <i_epik_Tot_Q>
0

> <i_epik_Tot_abs_Q>
0

> <r_epik_Metal_State_Penalty>
0.237509

> <b_epik_Metal_Only>
0

> <s_lp_Force_Field>
OPLS_2005

> <r_lp_Energy>
8.97746

> <b_lp_Chiralities_Consistent>
1

> <s_lp_Variant>
AV-unprocessed.smi:2986-1

> <Gold.Version>
5.8.1

> <Gold.Id.Protein>
6NUR|6NUR_protein|mol2

> <Gold.PLP.Fitness>
53.8047

> <Gold.PLP.PLP>
-48.6161

> <Gold.PLP.part.hbond>
-5.0000

> <Gold.PLP.part.metal>
0.0000

> <Gold.PLP.part.buried>
-6.6892

> <Gold.PLP.part.nonpolar>
-38.8122

> <Gold.PLP.part.repulsive>
0.5602

> <Gold.PLP.ligand.clash>
0.0000

> <Gold.PLP.ligand.torsion>
1.2942

> <Gold.PLP.Chemscore.Hbond>
2.5600

> <Gold.PLP.Chemscore.CHOScore>
0.0000

> <Gold.PLP.Chemscore.Metal>
0.0000

> <Gold.Chemscore.Hbonds>
donor molecule, donor type, donor heavy atom, donor atom, acceptor molecule, acceptor atom, score
      P1  H  6931  6943       L1    17  0.55
      P1  H  6934  6947       L1    17  0.60

> <Gold.PLP.Chemscore.Internal.Correction>
0.0970

> <Gold.Rescore>
     Score         DG    S(hbond)    S(metal)    S(lipo)     H(rot)  DE(clash)    DE(int)     intcor
     17.03     -18.08       1.70        0.00     109.06       2.28       0.11       0.94       ----

> <Gold.Chemscore.Fitness>
17.0297

> <Gold.Chemscore.DG>
-18.0801

> <Gold.Chemscore.ZeroCoef>
-5.4800

> <Gold.Chemscore.Hbond>
1.7001

> <Gold.Chemscore.Metal>
0.0000

> <Gold.Chemscore.Lipo>
109.0567

> <Gold.Chemscore.Internal_Hbond>
0.0000

> <Gold.Chemscore.DEClash>
0.1061

> <Gold.Chemscore.DEInternal>
0.9443

> <Gold.Chemscore.Rot>
2.2804

> <Gold.Chemscore.Internal.Correction>
   9.000000E+99

> <Gold.Chemscore.Hbonds>
donor molecule, donor type, donor heavy atom, donor atom, acceptor molecule, acceptor atom, score
      P1  H  6931  6943       L1    17  0.04
      P1  H  6934  6947       L1    17  0.52
      P1  H  8011  8017       L1     2  0.02

> <Gold.Chemscore.Hbond.Weighted>
-5.6783

> <Gold.Chemscore.Metal.Weighted>
-0.0000

> <Gold.Chemscore.Lipo.Weighted>
-12.7596

> <Gold.Chemscore.Internal_Hbond.Weighted>
0.0000

> <Gold.Chemscore.DEClash.Weighted>
0.1061

> <Gold.Chemscore.DEInternal.Weighted>
0.9443

> <Gold.Chemscore.Rot.Weighted>
5.8379

> <Gold.Chemscore.Internal.Correction.Weighted>
   9.000000E+99

> <Gold.Protein.RotatedTorsions>
[ 6907 6896 6895 6894 ] final  -54.52 input  -60.11 | X-H torsion
[ 7974 7965 7964 7962 ] final   99.22 input  175.53 | X-H torsion
[ 8008 7997 7996 7995 ] final -139.20 input   59.86 | X-H torsion
[ 10167 10162 10161 10158 ] final -165.82 input  -65.29 | X-H torsion
[ 10718 10713 10712 10709 ] final  -33.59 input   66.30 | X-H torsion
[ 10763 10752 10751 10750 ] final    8.97 input  -60.55 | X-H torsion
[ 11005 11000 10999 10996 ] final   77.21 input  -57.11 | X-H torsion

> <Gold.Protein.ActiveResidues>
 VAL166  LYS551  ARG553  GLY616  TRP617  ASP618  TYR619  PRO620  LYS621  CYS622 
 ASP623  PHE694  ASN695  SER759  ASP760  ASP761  ALA762  ILE779  LEU786  VAL792 
 PHE793  MET794  SER795  GLU796  ALA797  LYS798  CYS799  TRP800  GLU811  SER814 

> <Gold.Protein.RotatedAtoms>
  150.8331  134.7592  159.6869 H   0  0  0  0  0  0  0  0  0  0  0  0  # atno 6907 bound_to 6896
  152.4432  134.5545  159.9886 H   0  0  0  0  0  0  0  0  0  0  0  0  # atno 6908 bound_to 6896
  151.5701  133.3353  159.3024 H   0  0  0  0  0  0  0  0  0  0  0  0  # atno 6909 bound_to 6896
  145.4017  139.2346  143.3296 H   0  0  0  0  0  0  0  0  0  0  0  0  # atno 7974 bound_to 7965
  155.4410  140.0532  157.3010 H   0  0  0  0  0  0  0  0  0  0  0  0  # atno 8008 bound_to 7997
  154.4818  140.2084  155.9703 H   0  0  0  0  0  0  0  0  0  0  0  0  # atno 8009 bound_to 7997
  156.1217  140.3187  155.8222 H   0  0  0  0  0  0  0  0  0  0  0  0  # atno 8010 bound_to 7997
  139.6156  144.0726  152.1885 H   0  0  0  0  0  0  0  0  0  0  0  0  # atno 10167 bound_to 10162
  156.3608  130.4323  149.7625 H   0  0  0  0  0  0  0  0  0  0  0  0  # atno 10718 bound_to 10713
  153.2191  135.6879  153.8022 H   0  0  0  0  0  0  0  0  0  0  0  0  # atno 10763 bound_to 10752
  153.7227  135.3265  155.3271 H   0  0  0  0  0  0  0  0  0  0  0  0  # atno 10764 bound_to 10752
  154.8260  135.4617  154.1031 H   0  0  0  0  0  0  0  0  0  0  0  0  # atno 10765 bound_to 10752
  139.9264  134.7664  156.1493 H   0  0  0  0  0  0  0  0  0  0  0  0  # atno 11005 bound_to 11000
  146.2748  140.4715  142.8800 LP  0  0  0  0  0  0  0  0  0  0  0  0  # atno 17320 bound_to 7965
  144.8369  140.6797  143.6254 LP  0  0  0  0  0  0  0  0  0  0  0  0  # atno 17321 bound_to 7965
  140.0355  144.6048  150.7453 LP  0  0  0  0  0  0  0  0  0  0  0  0  # atno 17342 bound_to 10162
  140.7349  143.2734  151.3817 LP  0  0  0  0  0  0  0  0  0  0  0  0  # atno 17343 bound_to 10162
  156.4790  130.8032  151.3047 LP  0  0  0  0  0  0  0  0  0  0  0  0  # atno 17370 bound_to 10713
  157.7473  131.0012  150.2953 LP  0  0  0  0  0  0  0  0  0  0  0  0  # atno 17371 bound_to 10713
  141.0825  133.6748  156.2365 LP  0  0  0  0  0  0  0  0  0  0  0  0  # atno 17394 bound_to 11000
  140.6324  134.5250  157.5561 LP  0  0  0  0  0  0  0  0  0  0  0  0  # atno 17395 bound_to 11000

$$$$
