AV-unprocessed.smi:255|AV-procd|sdf|1954|dock2
  -GOLD-   2262021 93D 1   1.00000     0.00000
 Structure written by MMmdl.
 44 47  0  0  0  0  0  0  0  0  1 V2000
  153.8075  142.0217  162.3778 O   0  0  0  0  0  0  0  0  0  0  0  0
  153.5958  141.5418  161.0673 C   0  0  0  0  0  0  0  0  0  0  0  0
  152.4977  142.3697  160.3702 C   0  0  1  0  0  0  0  0  0  0  0  0
  152.5067  143.8476  160.7737 C   0  0  0  0  0  0  0  0  0  0  0  0
  151.7766  144.5186  159.6142 C   0  0  2  0  0  0  0  0  0  0  0  0
  150.4595  144.4180  159.7992 F   0  0  0  0  0  0  0  0  0  0  0  0
  152.1802  143.6807  158.3967 C   0  0  0  0  0  0  0  0  0  0  0  0
  152.6382  142.3942  158.9142 N   0  0  0  0  0  0  0  0  0  0  0  0
  152.3632  141.3009  158.1544 C   0  0  0  0  0  0  0  0  0  0  0  0
  152.9570  140.1106  158.4370 N   0  0  0  0  0  0  0  0  0  0  0  0
  152.6919  139.0283  157.7002 C   0  0  0  0  0  0  0  0  0  0  0  0
  151.8769  138.9135  156.6506 N   0  0  0  0  0  0  0  0  0  0  0  0
  151.2752  140.1019  156.3598 C   0  0  0  0  0  0  0  0  0  0  0  0
  151.4622  141.3328  157.0510 C   0  0  0  0  0  0  0  0  0  0  0  0
  150.6962  142.3280  156.4543 N   0  0  0  0  0  0  0  0  0  0  0  0
  150.0875  141.7193  155.4736 C   0  0  0  0  0  0  0  0  0  0  0  0
  150.3693  140.3776  155.3501 N   0  0  0  0  0  0  0  0  0  0  0  0
  149.8363  139.4607  154.3534 C   0  0  0  0  0  0  0  0  0  0  0  0
  148.3019  139.5595  154.1718 C   0  0  2  0  0  0  0  0  0  0  0  0
  147.8729  138.5231  153.3077 O   0  0  0  0  0  0  0  0  0  0  0  0
  147.8694  140.9064  153.5876 C   0  0  0  0  0  0  0  0  0  0  0  0
  147.1768  141.6003  154.7541 C   0  0  0  0  0  0  0  0  0  0  0  0
  146.5616  140.5225  155.4359 O   0  0  0  0  0  0  0  0  0  0  0  0
  147.5141  139.4709  155.4942 C   0  0  0  0  0  0  0  0  0  0  0  0
  151.5182  141.9533  160.6119 H   0  0  0  0  0  0  0  0  0  0  0  0
  152.0135  145.5772  159.5060 H   0  0  0  0  0  0  0  0  0  0  0  0
  153.4877  142.9096  162.4272 H   0  0  0  0  0  0  0  0  0  0  0  0
  154.5318  141.5897  160.5101 H   0  0  0  0  0  0  0  0  0  0  0  0
  153.3194  140.4900  161.1350 H   0  0  0  0  0  0  0  0  0  0  0  0
  152.0353  144.0297  161.7400 H   0  0  0  0  0  0  0  0  0  0  0  0
  153.5309  144.2204  160.8234 H   0  0  0  0  0  0  0  0  0  0  0  0
  151.3538  143.5808  157.6910 H   0  0  0  0  0  0  0  0  0  0  0  0
  153.0117  144.1547  157.8742 H   0  0  0  0  0  0  0  0  0  0  0  0
  153.2058  138.1249  157.9942 H   0  0  0  0  0  0  0  0  0  0  0  0
  149.4116  142.2383  154.8096 H   0  0  0  0  0  0  0  0  0  0  0  0
  150.3389  139.6603  153.4060 H   0  0  0  0  0  0  0  0  0  0  0  0
  150.1176  138.4459  154.6381 H   0  0  0  0  0  0  0  0  0  0  0  0
  148.6194  137.9857  153.0909 H   0  0  0  0  0  0  0  0  0  0  0  0
  148.6974  141.4947  153.1906 H   0  0  0  0  0  0  0  0  0  0  0  0
  147.1497  140.7706  152.7783 H   0  0  0  0  0  0  0  0  0  0  0  0
  147.9016  142.0863  155.4093 H   0  0  0  0  0  0  0  0  0  0  0  0
  146.4479  142.3439  154.4309 H   0  0  0  0  0  0  0  0  0  0  0  0
  147.0343  138.5046  155.6551 H   0  0  0  0  0  0  0  0  0  0  0  0
  148.1605  139.6642  156.3507 H   0  0  0  0  0  0  0  0  0  0  0  0
  1  2  1  0  0  0  0
  1 27  1  0  0  0  0
  2  3  1  0  0  0  0
  2 28  1  0  0  0  0
  2 29  1  0  0  0  0
  3 25  1  0  0  0  0
  3  8  1  0  0  0  0
  3  4  1  0  0  0  0
  4  5  1  0  0  0  0
  4 30  1  0  0  0  0
  4 31  1  0  0  0  0
  5 26  1  0  0  0  0
  5  6  1  0  0  0  0
  5  7  1  0  0  0  0
  7  8  1  0  0  0  0
  7 32  1  0  0  0  0
  7 33  1  0  0  0  0
  8  9  1  0  0  0  0
  9 14  1  0  0  0  0
  9 10  2  0  0  0  0
 10 11  1  0  0  0  0
 11 12  2  0  0  0  0
 11 34  1  0  0  0  0
 12 13  1  0  0  0  0
 13 17  1  0  0  0  0
 13 14  2  0  0  0  0
 14 15  1  0  0  0  0
 15 16  2  0  0  0  0
 16 17  1  0  0  0  0
 16 35  1  0  0  0  0
 17 18  1  0  0  0  0
 18 19  1  0  0  0  0
 18 36  1  0  0  0  0
 18 37  1  0  0  0  0
 19 24  1  0  0  0  0
 19 20  1  0  0  0  0
 19 21  1  0  0  0  0
 20 38  1  0  0  0  0
 21 22  1  0  0  0  0
 21 39  1  0  0  0  0
 21 40  1  0  0  0  0
 22 23  1  0  0  0  0
 22 41  1  0  0  0  0
 22 42  1  0  0  0  0
 23 24  1  0  0  0  0
 24 43  1  0  0  0  0
 24 44  1  0  0  0  0
M  END
> <s_m_source_file>
AV-unprocessed.smi

> <i_m_source_file_index>
255

> <i_lp_mmshare_version>
43012

> <i_f3d_flags>
0

> <s_epik_input>
W09IXVtDSDJdW0NAQEhdMVtDSDJdW0NASF0oRilbQ0gyXU4xYyhuW2NIXW4yKWMoYzIzKW5bY0hdbjNbQ0gyXVtDQEBdNChbT0hdKVtDSDJdW0NIMl1PW0NIMl00

> <s_epik_cmdline>
J2VwaWtfcHl0aG9uJywgJy1waCcsICc3LjAnLCAnLXRuJywgJzgnLCAnLW1hJywgJzIwMCcsICctbWV0YWxfYmluZGluZycsICctaW1hZScsICc8aW5maWxlLm1hZT4nLCAnLW9tYWUnLCAnPG91dGZpbGUubWFlPic=

> <r_lp_tautomer_probability>
1

> <r_epik_Ionization_Penalty>
0.0058098

> <r_epik_Ionization_Penalty_Charging>
0

> <r_epik_Ionization_Penalty_Neutral>
0.0058098

> <r_epik_State_Penalty>
0.00411166

> <r_epik_Charging_Adjusted_Penalty>
0.00411166

> <i_epik_Tot_Q>
0

> <i_epik_Tot_abs_Q>
0

> <r_epik_Metal_State_Penalty>
-0

> <b_epik_Metal_Only>
0

> <s_lp_Force_Field>
OPLS_2005

> <r_lp_Energy>
48.4918

> <b_lp_Chiralities_Consistent>
1

> <s_lp_Variant>
AV-unprocessed.smi:255-6

> <Gold.Version>
5.8.1

> <Gold.Id.Protein>
6NUR|6NUR_protein|mol2

> <Gold.PLP.Fitness>
47.1839

> <Gold.PLP.PLP>
-45.2537

> <Gold.PLP.part.hbond>
-3.0890

> <Gold.PLP.part.metal>
0.0000

> <Gold.PLP.part.buried>
-5.0570

> <Gold.PLP.part.nonpolar>
-36.9217

> <Gold.PLP.part.repulsive>
0.2998

> <Gold.PLP.ligand.clash>
0.0000

> <Gold.PLP.ligand.torsion>
0.6662

> <Gold.PLP.Chemscore.Hbond>
0.5148

> <Gold.PLP.Chemscore.CHOScore>
0.4481

> <Gold.PLP.Chemscore.Metal>
0.0000

> <Gold.Chemscore.Hbonds>
donor molecule, donor type, donor heavy atom, donor atom, acceptor molecule, acceptor atom, score
      L1  H    20    38       P1  7948  0.50
      L1  C    16    35       P1  8028  0.43

> <Gold.PLP.Chemscore.Internal.Correction>
0.3737

> <Gold.Rescore>
     Score         DG    S(hbond)    S(metal)    S(lipo)     H(rot)  DE(clash)    DE(int)     intcor
      6.83      -9.26       0.53        0.00      90.07       3.33       0.34       2.08       ----

> <Gold.Chemscore.Fitness>
6.8318

> <Gold.Chemscore.DG>
-9.2570

> <Gold.Chemscore.ZeroCoef>
-5.4800

> <Gold.Chemscore.Hbond>
0.5261

> <Gold.Chemscore.Metal>
0.0000

> <Gold.Chemscore.Lipo>
90.0654

> <Gold.Chemscore.Internal_Hbond>
0.0000

> <Gold.Chemscore.DEClash>
0.3417

> <Gold.Chemscore.DEInternal>
2.0835

> <Gold.Chemscore.Rot>
3.3273

> <Gold.Chemscore.Internal.Correction>
   9.000000E+99

> <Gold.Chemscore.Hbonds>
donor molecule, donor type, donor heavy atom, donor atom, acceptor molecule, acceptor atom, score
      L1  H    20    38       P1  7948  0.51

> <Gold.Chemscore.Hbond.Weighted>
-1.7573

> <Gold.Chemscore.Metal.Weighted>
-0.0000

> <Gold.Chemscore.Lipo.Weighted>
-10.5376

> <Gold.Chemscore.Internal_Hbond.Weighted>
0.0000

> <Gold.Chemscore.DEClash.Weighted>
0.3417

> <Gold.Chemscore.DEInternal.Weighted>
2.0835

> <Gold.Chemscore.Rot.Weighted>
8.5179

> <Gold.Chemscore.Internal.Correction.Weighted>
   9.000000E+99

> <Gold.Protein.RotatedTorsions>
[ 6907 6896 6895 6894 ] final   27.30 input  -60.11 | X-H torsion
[ 7974 7965 7964 7962 ] final  113.16 input  175.53 | X-H torsion
[ 8008 7997 7996 7995 ] final  -73.20 input   59.86 | X-H torsion
[ 10167 10162 10161 10158 ] final  -86.16 input  -65.29 | X-H torsion
[ 10718 10713 10712 10709 ] final  -61.07 input   66.30 | X-H torsion
[ 10763 10752 10751 10750 ] final  109.35 input  -60.55 | X-H torsion
[ 11005 11000 10999 10996 ] final   69.02 input  -57.11 | X-H torsion

> <Gold.Protein.ActiveResidues>
 VAL166  LYS551  ARG553  GLY616  TRP617  ASP618  TYR619  PRO620  LYS621  CYS622 
 ASP623  PHE694  ASN695  SER759  ASP760  ASP761  ALA762  ILE779  LEU786  VAL792 
 PHE793  MET794  SER795  GLU796  ALA797  LYS798  CYS799  TRP800  GLU811  SER814 

> <Gold.Protein.RotatedAtoms>
  152.0003  134.9932  160.0564 H   0  0  0  0  0  0  0  0  0  0  0  0  # atno 6907 bound_to 6896
  152.1526  133.4526  159.4829 H   0  0  0  0  0  0  0  0  0  0  0  0  # atno 6908 bound_to 6896
  150.6877  134.2088  159.4394 H   0  0  0  0  0  0  0  0  0  0  0  0  # atno 6909 bound_to 6896
  145.2205  139.2864  143.4221 H   0  0  0  0  0  0  0  0  0  0  0  0  # atno 7974 bound_to 7965
  154.5228  140.0783  156.8203 H   0  0  0  0  0  0  0  0  0  0  0  0  # atno 8008 bound_to 7997
  155.3540  140.3414  155.4221 H   0  0  0  0  0  0  0  0  0  0  0  0  # atno 8009 bound_to 7997
  156.1699  140.1616  156.8452 H   0  0  0  0  0  0  0  0  0  0  0  0  # atno 8010 bound_to 7997
  140.3968  143.2680  151.9194 H   0  0  0  0  0  0  0  0  0  0  0  0  # atno 10167 bound_to 10162
  156.0947  130.4195  150.0943 H   0  0  0  0  0  0  0  0  0  0  0  0  # atno 10718 bound_to 10713
  153.4334  135.3783  155.2184 H   0  0  0  0  0  0  0  0  0  0  0  0  # atno 10763 bound_to 10752
  154.8751  135.3845  154.4240 H   0  0  0  0  0  0  0  0  0  0  0  0  # atno 10764 bound_to 10752
  153.4775  135.7088  153.6020 H   0  0  0  0  0  0  0  0  0  0  0  0  # atno 10765 bound_to 10752
  139.9677  134.6952  156.0510 H   0  0  0  0  0  0  0  0  0  0  0  0  # atno 11005 bound_to 11000
  146.3377  140.2509  142.8598 LP  0  0  0  0  0  0  0  0  0  0  0  0  # atno 17320 bound_to 7965
  144.9770  140.8423  143.5420 LP  0  0  0  0  0  0  0  0  0  0  0  0  # atno 17321 bound_to 7965
  139.4786  144.5673  151.8145 LP  0  0  0  0  0  0  0  0  0  0  0  0  # atno 17342 bound_to 10162
  140.4782  144.1489  150.5928 LP  0  0  0  0  0  0  0  0  0  0  0  0  # atno 17343 bound_to 10162
  156.8945  130.9599  151.3584 LP  0  0  0  0  0  0  0  0  0  0  0  0  # atno 17370 bound_to 10713
  157.6104  130.8579  149.8943 LP  0  0  0  0  0  0  0  0  0  0  0  0  # atno 17371 bound_to 10713
  141.1357  133.6575  156.3588 LP  0  0  0  0  0  0  0  0  0  0  0  0  # atno 17394 bound_to 11000
  140.5360  134.6167  157.5365 LP  0  0  0  0  0  0  0  0  0  0  0  0  # atno 17395 bound_to 11000

$$$$
