AV-unprocessed.smi:1506|AV-procd|sdf|6076|dock7
  -GOLD-   22720 6193D 1   1.00000     0.00000
 Structure written by MMmdl.
 39 41  0  0  0  0  0  0  0  0  1 V2000
  144.6577  144.4255  152.9332 C   0  0  0  0  0  0  0  0  0  0  0  0
  145.2679  143.3511  153.8097 C   0  0  0  0  0  0  0  0  0  0  0  0
  144.5475  142.8294  154.9024 C   0  0  0  0  0  0  0  0  0  0  0  0
  145.1231  141.8316  155.7105 C   0  0  0  0  0  0  0  0  0  0  0  0
  146.4182  141.3537  155.4323 C   0  0  0  0  0  0  0  0  0  0  0  0
  147.1549  141.8741  154.3384 C   0  0  0  0  0  0  0  0  0  0  0  0
  148.4276  141.4697  153.9976 O   0  0  0  0  0  0  0  0  0  0  0  0
  148.9859  140.3506  154.6755 C   0  0  0  0  0  0  0  0  0  0  0  0
  150.2905  140.7586  155.3804 C   0  0  2  0  0  0  0  0  0  0  0  0
  151.3740  140.0733  154.7832 O   0  0  0  0  0  0  0  0  0  0  0  0
  150.2645  140.5545  156.9083 C   0  0  0  0  0  0  0  0  0  0  0  0
  150.9469  141.6215  157.6184 N   0  0  0  0  0  0  0  0  0  0  0  0
  150.7350  142.9455  157.4912 C   0  0  0  0  0  0  0  0  0  0  0  0
  151.4792  143.7563  158.2379 N   0  0  0  0  0  0  0  0  0  0  0  0
  152.2660  142.8531  158.9326 C   0  0  0  0  0  0  0  0  0  0  0  0
  153.2773  143.0685  159.8961 C   0  0  0  0  0  0  0  0  0  0  0  0
  153.9565  141.9762  160.4754 C   0  0  0  0  0  0  0  0  0  0  0  0
  153.6363  140.6549  160.1012 C   0  0  0  0  0  0  0  0  0  0  0  0
  152.6326  140.4155  159.1431 C   0  0  0  0  0  0  0  0  0  0  0  0
  151.9568  141.5079  158.5681 C   0  0  0  0  0  0  0  0  0  0  0  0
  146.5653  142.8722  153.5354 C   0  0  0  0  0  0  0  0  0  0  0  0
  143.5803  144.4964  153.0864 H   0  0  0  0  0  0  0  0  0  0  0  0
  144.8355  144.2060  151.8801 H   0  0  0  0  0  0  0  0  0  0  0  0
  145.1011  145.3948  153.1622 H   0  0  0  0  0  0  0  0  0  0  0  0
  143.5541  143.1909  155.1246 H   0  0  0  0  0  0  0  0  0  0  0  0
  144.5700  141.4312  156.5474 H   0  0  0  0  0  0  0  0  0  0  0  0
  146.8243  140.5874  156.0745 H   0  0  0  0  0  0  0  0  0  0  0  0
  148.2832  139.9360  155.4005 H   0  0  0  0  0  0  0  0  0  0  0  0
  149.2074  139.5711  153.9447 H   0  0  0  0  0  0  0  0  0  0  0  0
  150.4575  141.8172  155.1778 H   0  0  0  0  0  0  0  0  0  0  0  0
  152.0324  139.9204  155.4437 H   0  0  0  0  0  0  0  0  0  0  0  0
  149.2342  140.5087  157.2634 H   0  0  0  0  0  0  0  0  0  0  0  0
  150.7301  139.6070  157.1820 H   0  0  0  0  0  0  0  0  0  0  0  0
  149.9943  143.3360  156.8086 H   0  0  0  0  0  0  0  0  0  0  0  0
  153.5317  144.0760  160.1901 H   0  0  0  0  0  0  0  0  0  0  0  0
  154.7282  142.1530  161.2101 H   0  0  0  0  0  0  0  0  0  0  0  0
  154.1627  139.8249  160.5493 H   0  0  0  0  0  0  0  0  0  0  0  0
  152.3866  139.4050  158.8518 H   0  0  0  0  0  0  0  0  0  0  0  0
  147.1180  143.2755  152.6994 H   0  0  0  0  0  0  0  0  0  0  0  0
  1  2  1  0  0  0  0
  1 22  1  0  0  0  0
  1 23  1  0  0  0  0
  1 24  1  0  0  0  0
  2 21  1  0  0  0  0
  2  3  2  0  0  0  0
  3  4  1  0  0  0  0
  3 25  1  0  0  0  0
  4  5  2  0  0  0  0
  4 26  1  0  0  0  0
  5  6  1  0  0  0  0
  5 27  1  0  0  0  0
  6  7  1  0  0  0  0
  6 21  2  0  0  0  0
  7  8  1  0  0  0  0
  8  9  1  0  0  0  0
  8 28  1  0  0  0  0
  8 29  1  0  0  0  0
  9 10  1  0  0  0  0
  9 11  1  0  0  0  0
  9 30  1  0  0  0  0
 10 31  1  0  0  0  0
 11 12  1  0  0  0  0
 11 32  1  0  0  0  0
 11 33  1  0  0  0  0
 12 20  1  0  0  0  0
 12 13  1  0  0  0  0
 13 14  2  0  0  0  0
 13 34  1  0  0  0  0
 14 15  1  0  0  0  0
 15 20  2  0  0  0  0
 15 16  1  0  0  0  0
 16 17  2  0  0  0  0
 16 35  1  0  0  0  0
 17 18  1  0  0  0  0
 17 36  1  0  0  0  0
 18 19  2  0  0  0  0
 18 37  1  0  0  0  0
 19 20  1  0  0  0  0
 19 38  1  0  0  0  0
 21 39  1  0  0  0  0
M  END
> <s_m_source_file>
AV-unprocessed.smi

> <i_m_source_file_index>
1506

> <i_lp_mmshare_version>
43012

> <i_f3d_flags>
0

> <s_epik_input>
W0NIM11jMVtjSF1bY0hdW2NIXWMoW2NIXTEpT1tDSDJdW0NASF0oW09IXSlbQ0gyXW4oW2NIXW4yKWMoYzIzKVtjSF1bY0hdW2NIXVtjSF0z

> <s_epik_cmdline>
J2VwaWtfcHl0aG9uJywgJy1waCcsICc3LjAnLCAnLXRuJywgJzgnLCAnLW1hJywgJzIwMCcsICctbWV0YWxfYmluZGluZycsICctaW1hZScsICc8aW5maWxlLm1hZT4nLCAnLW9tYWUnLCAnPG91dGZpbGUubWFlPic=

> <r_lp_tautomer_probability>
1

> <r_epik_Ionization_Penalty>
0.0608485

> <r_epik_Ionization_Penalty_Charging>
0

> <r_epik_Ionization_Penalty_Neutral>
0.0608485

> <r_epik_State_Penalty>
0.0527778

> <r_epik_Charging_Adjusted_Penalty>
0.0527778

> <i_epik_Tot_Q>
0

> <i_epik_Tot_abs_Q>
0

> <r_epik_Metal_State_Penalty>
5.51973e-05

> <b_epik_Metal_Only>
0

> <s_lp_Force_Field>
OPLS_2005

> <r_lp_Energy>
16.3702

> <b_lp_Chiralities_Consistent>
1

> <s_lp_Variant>
AV-unprocessed.smi:1506-1

> <Gold.Version>
5.8.1

> <Gold.Id.Protein>
6NUR|6NUR_protein|mol2

> <Gold.PLP.Fitness>
50.5832

> <Gold.PLP.PLP>
-46.8803

> <Gold.PLP.part.hbond>
-1.9501

> <Gold.PLP.part.metal>
0.0000

> <Gold.PLP.part.buried>
-4.7201

> <Gold.PLP.part.nonpolar>
-39.7649

> <Gold.PLP.part.repulsive>
0.2498

> <Gold.PLP.ligand.clash>
0.0000

> <Gold.PLP.ligand.torsion>
1.7278

> <Gold.PLP.Chemscore.Hbond>
1.3559

> <Gold.PLP.Chemscore.CHOScore>
1.0000

> <Gold.PLP.Chemscore.Metal>
0.0000

> <Gold.Chemscore.Hbonds>
donor molecule, donor type, donor heavy atom, donor atom, acceptor molecule, acceptor atom, score
      P1  H  7989  7998       L1    10  1.00
      P1  H  8011  8017       L1     7  0.14
      L1  C    13    34       P1  8028  1.00

> <Gold.PLP.Chemscore.Internal.Correction>
0.0906

> <Gold.Rescore>
     Score         DG    S(hbond)    S(metal)    S(lipo)     H(rot)  DE(clash)    DE(int)     intcor
     13.99     -15.76       0.82        0.00     112.19       2.19       0.02       1.75       ----

> <Gold.Chemscore.Fitness>
13.9862

> <Gold.Chemscore.DG>
-15.7586

> <Gold.Chemscore.ZeroCoef>
-5.4800

> <Gold.Chemscore.Hbond>
0.8243

> <Gold.Chemscore.Metal>
0.0000

> <Gold.Chemscore.Lipo>
112.1883

> <Gold.Chemscore.Internal_Hbond>
0.0000

> <Gold.Chemscore.DEClash>
0.0204

> <Gold.Chemscore.DEInternal>
1.7520

> <Gold.Chemscore.Rot>
2.1877

> <Gold.Chemscore.Internal.Correction>
   9.000000E+99

> <Gold.Chemscore.Hbonds>
donor molecule, donor type, donor heavy atom, donor atom, acceptor molecule, acceptor atom, score
      P1  H  7989  7998       L1    10  0.41
      P1  H  8011  8017       L1     7  0.13

> <Gold.Chemscore.Hbond.Weighted>
-2.7531

> <Gold.Chemscore.Metal.Weighted>
-0.0000

> <Gold.Chemscore.Lipo.Weighted>
-13.1260

> <Gold.Chemscore.Internal_Hbond.Weighted>
0.0000

> <Gold.Chemscore.DEClash.Weighted>
0.0204

> <Gold.Chemscore.DEInternal.Weighted>
1.7520

> <Gold.Chemscore.Rot.Weighted>
5.6005

> <Gold.Chemscore.Internal.Correction.Weighted>
   9.000000E+99

> <Gold.Protein.RotatedTorsions>
[ 6907 6896 6895 6894 ] final   39.20 input  -60.11 | X-H torsion
[ 7974 7965 7964 7962 ] final  162.97 input  175.53 | X-H torsion
[ 8008 7997 7996 7995 ] final   43.17 input   59.86 | X-H torsion
[ 10167 10162 10161 10158 ] final    4.88 input  -65.29 | X-H torsion
[ 10718 10713 10712 10709 ] final  -84.86 input   66.30 | X-H torsion
[ 10763 10752 10751 10750 ] final  -83.02 input  -60.55 | X-H torsion
[ 11005 11000 10999 10996 ] final   97.06 input  -57.11 | X-H torsion

> <Gold.Protein.ActiveResidues>
 VAL166  LYS551  ARG553  GLY616  TRP617  ASP618  TYR619  PRO620  LYS621  CYS622 
 ASP623  PHE694  ASN695  SER759  ASP760  ASP761  ALA762  ILE779  LEU786  VAL792 
 PHE793  MET794  SER795  GLU796  ALA797  LYS798  CYS799  TRP800  GLU811  SER814 

> <Gold.Protein.RotatedAtoms>
  152.1664  134.8870  160.0537 H   0  0  0  0  0  0  0  0  0  0  0  0  # atno 6907 bound_to 6896
  151.9846  133.3765  159.4129 H   0  0  0  0  0  0  0  0  0  0  0  0  # atno 6908 bound_to 6896
  150.6895  134.3924  159.5126 H   0  0  0  0  0  0  0  0  0  0  0  0  # atno 6909 bound_to 6896
  144.7611  139.8116  143.6332 H   0  0  0  0  0  0  0  0  0  0  0  0  # atno 7974 bound_to 7965
  155.2983  140.3383  155.4249 H   0  0  0  0  0  0  0  0  0  0  0  0  # atno 8008 bound_to 7997
  156.2013  140.1734  156.7932 H   0  0  0  0  0  0  0  0  0  0  0  0  # atno 8009 bound_to 7997
  154.5563  140.0696  156.8732 H   0  0  0  0  0  0  0  0  0  0  0  0  # atno 8010 bound_to 7997
  140.6512  143.7541  150.7578 H   0  0  0  0  0  0  0  0  0  0  0  0  # atno 10167 bound_to 10162
  156.0002  130.4712  150.4474 H   0  0  0  0  0  0  0  0  0  0  0  0  # atno 10718 bound_to 10713
  154.5827  135.5571  153.7201 H   0  0  0  0  0  0  0  0  0  0  0  0  # atno 10763 bound_to 10752
  153.0087  135.6324  154.1959 H   0  0  0  0  0  0  0  0  0  0  0  0  # atno 10764 bound_to 10752
  154.1900  135.2883  155.3005 H   0  0  0  0  0  0  0  0  0  0  0  0  # atno 10765 bound_to 10752
  139.8778  134.8982  156.4251 H   0  0  0  0  0  0  0  0  0  0  0  0  # atno 11005 bound_to 11000
  146.1675  139.4812  142.9949 LP  0  0  0  0  0  0  0  0  0  0  0  0  # atno 17320 bound_to 7965
  145.6616  141.0239  143.1706 LP  0  0  0  0  0  0  0  0  0  0  0  0  # atno 17321 bound_to 7965
  140.1192  143.4628  152.2323 LP  0  0  0  0  0  0  0  0  0  0  0  0  # atno 17342 bound_to 10162
  139.5727  144.7471  151.3847 LP  0  0  0  0  0  0  0  0  0  0  0  0  # atno 17343 bound_to 10162
  157.2510  131.0546  151.2379 LP  0  0  0  0  0  0  0  0  0  0  0  0  # atno 17370 bound_to 10713
  157.3528  130.7091  149.6452 LP  0  0  0  0  0  0  0  0  0  0  0  0  # atno 17371 bound_to 10713
  140.9106  133.7714  155.9787 LP  0  0  0  0  0  0  0  0  0  0  0  0  # atno 17394 bound_to 11000
  140.8550  134.2909  157.5259 LP  0  0  0  0  0  0  0  0  0  0  0  0  # atno 17395 bound_to 11000

$$$$
