#       Name:                AV-unprocessed.smi:1600
#       Creating user name   scv26
#       Creation time:       Fri Mar 27 07:07:19 2020


#       File generated by GOLD software.
#

@<TRIPOS>MOLECULE
AV-unprocessed.smi:1600
    49    50     1
SMALL
NO_CHARGES


@<TRIPOS>ATOM
      1 ****        -4.9737   3.8742  -1.4809 C.3            1 S1                 0.0000
      2 ****        -4.5675   2.4726  -1.1331 C.2            1 S1                 0.0000
      3 ****        -3.3087   1.8430  -1.3581 C.2            1 S1                 0.0000
      4 ****        -3.5044   0.5884  -0.8486 C.2            1 S1                 0.0000
      5 ****        -2.6341  -0.4543  -0.7853 N.am           1 S1                 0.0000
      6 ****        -1.3731  -0.5251  -1.2464 C.2            1 S1                 0.0000
      7 ****        -0.7735   0.3795  -1.8274 O.2            1 S1                 0.0000
      8 ****        -0.8307  -1.7246  -0.9903 N.am           1 S1                 0.0000
      9 ****         0.5158  -2.1459  -1.3667 C.3            1 S1                 0.0000
     10 ****         1.5230  -1.9601  -0.2157 C.3            1 S1                 0.0000
     11 ****         2.9155  -2.5025  -0.5198 C.3            1 S1                 0.0000
     12 ****         3.7818  -1.7732   0.5009 C.3            1 S1                 0.0000
     13 ****         3.2226  -0.4050   0.5780 N.4            1 S1                 1.0000
     14 ****         3.4966   0.3352   1.8422 C.3            1 S1                 0.0000
     15 ****         3.0073   1.7931   1.7481 C.3            1 S1                 0.0000
     16 ****         4.9960   0.3221   2.1983 C.3            1 S1                 0.0000
     17 ****         1.7906  -0.5013   0.1949 C.3            1 S1                 0.0000
     18 ****        -4.7902   0.5010  -0.3627 N.pl3          1 S1                 0.0000
     19 ****        -5.4619  -0.6167   0.2716 C.3            1 S1                 0.0000
     20 ****        -5.4441   1.6690  -0.5411 N.2            1 S1                 0.0000
     21 ****        -4.1077   4.4793  -1.7506 H              1 S1                 0.0000
     22 ****        -5.4694   4.3623  -0.6411 H              1 S1                 0.0000
     23 ****        -5.6615   3.8832  -2.3267 H              1 S1                 0.0000
     24 ****        -2.4256   2.2615  -1.8166 H              1 S1                 0.0000
     25 ****        -2.9921  -1.2849  -0.3373 H              1 S1                 0.0000
     26 ****        -1.3994  -2.4070  -0.5100 H              1 S1                 0.0000
     27 ****         0.4642  -3.2011  -1.6359 H              1 S1                 0.0000
     28 ****         0.8529  -1.6213  -2.2622 H              1 S1                 0.0000
     29 ****         1.1519  -2.4932   0.6615 H              1 S1                 0.0000
     30 ****         2.9783  -3.5873  -0.4281 H              1 S1                 0.0000
     31 ****         3.2208  -2.2288  -1.5311 H              1 S1                 0.0000
     32 ****         3.6916  -2.2653   1.4710 H              1 S1                 0.0000
     33 ****         4.8350  -1.7662   0.2181 H              1 S1                 0.0000
     34 ****         2.9535  -0.1598   2.6488 H              1 S1                 0.0000
     35 ****         3.2269   2.3376   2.6672 H              1 S1                 0.0000
     36 ****         1.9310   1.8604   1.5916 H              1 S1                 0.0000
     37 ****         3.4954   2.3215   0.9283 H              1 S1                 0.0000
     38 ****         5.1886   0.9109   3.0957 H              1 S1                 0.0000
     39 ****         5.5987   0.7434   1.3928 H              1 S1                 0.0000
     40 ****         5.3616  -0.6847   2.4000 H              1 S1                 0.0000
     41 ****         1.6254   0.1856  -0.6351 H              1 S1                 0.0000
     42 ****         1.1169  -0.2133   1.0029 H              1 S1                 0.0000
     43 ****        -5.0216  -0.7983   1.2523 H              1 S1                 0.0000
     44 ****        -5.3478  -1.5107  -0.3419 H              1 S1                 0.0000
     45 ****        -6.5254  -0.4073   0.3929 H              1 S1                 0.0000
     46 ****         3.6692   0.1137  -0.1649 H              1 S1                 0.0000
     47 ****        -1.2267   1.2560  -1.9898 LP             1 S1                 0.0000
     48 ****         0.1668   0.2379  -2.1370 LP             1 S1                 0.0000
     49 ****        -6.3862   1.8831  -0.2829 LP             1 S1                 0.0000
@<TRIPOS>BOND
    1    1    2 1     
    2    1   21 1     
    3    1   22 1     
    4    1   23 1     
    5    2   20 2     
    6    2    3 1     
    7    3    4 2     
    8    3   24 1     
    9    4    5 1     
   10    4   18 1     
   11    5    6 am    
   12    5   25 1     
   13    6    7 2     
   14    6    8 am    
   15    8    9 1     
   16    8   26 1     
   17    9   10 1     
   18    9   27 1     
   19    9   28 1     
   20   10   17 1     
   21   10   11 1     
   22   10   29 1     
   23   11   12 1     
   24   11   30 1     
   25   11   31 1     
   26   12   13 1     
   27   12   32 1     
   28   12   33 1     
   29   13   14 1     
   30   13   17 1     
   31   13   46 1     
   32   14   15 1     
   33   14   16 1     
   34   14   34 1     
   35   15   35 1     
   36   15   36 1     
   37   15   37 1     
   38   16   38 1     
   39   16   39 1     
   40   16   40 1     
   41   17   41 1     
   42   17   42 1     
   43   18   19 1     
   44   18   20 1     
   45   19   43 1     
   46   19   44 1     
   47   19   45 1     
   48    7   47 1     
   49    7   48 1     
   50   20   49 1     
@<TRIPOS>SUBSTRUCTURE
      1 S1             1
@<TRIPOS>SET
LONE_PAIRS      STATIC     ATOMS    <user>   **** ""
3 47 48 49
DONOR_HYDROGENS      STATIC     ATOMS    <user>   **** ""
3 25 26 46
ATOM$BLUE        STATIC     ATOMS    COLORGROUP SYSTEM
3 47 48 49
ATOM$RED        STATIC     ATOMS    COLORGROUP SYSTEM
3 25 26 46
