AV-unprocessed.smi:989|AV-procd|sdf|4325|dock8
  -GOLD-   22720 2233D 1   1.00000     0.00000
 Structure written by MMmdl.
 26 27  0  0  0  0  0  0  0  0  2 V2000
  153.3705  138.9596  154.7382 O   0  0  0  0  0  0  0  0  0  0  0  0
  152.3005  138.3377  154.9193 C   0  0  0  0  0  0  0  0  0  0  0  0
  152.2071  137.1252  155.2143 O   0  5  0  0  0  0  0  0  0  0  0  0
  150.9973  139.1218  154.7432 C   0  0  0  0  0  0  0  0  0  0  0  0
  150.9297  140.1802  155.8077 C   0  0  0  0  0  0  0  0  0  0  0  0
  150.1013  141.2769  155.8266 C   0  0  0  0  0  0  0  0  0  0  0  0
  150.3407  142.2571  157.2468 S   0  0  0  0  0  0  0  0  0  0  0  0
  151.5994  141.1320  157.7640 C   0  0  0  0  0  0  0  0  0  0  0  0
  152.3433  141.2244  158.9791 N   0  0  0  0  0  0  0  0  0  0  0  0
  151.8715  142.1974  159.9813 C   0  0  0  0  0  0  0  0  0  0  0  0
  153.0352  142.8140  160.7604 C   0  0  0  0  0  0  0  0  0  0  0  0
  153.9261  141.6982  161.3007 C   0  0  0  0  0  0  0  0  0  0  0  0
  154.1781  140.6929  160.2742 N   0  0  0  0  0  0  0  0  0  0  0  0
  153.3852  140.3802  159.2284 C   0  0  0  0  0  0  0  0  0  0  0  0
  153.6545  139.4029  158.5304 O   0  0  0  0  0  0  0  0  0  0  0  0
  151.7814  140.1134  156.9166 N   0  0  0  0  0  0  0  0  0  0  0  0
  150.9567  139.5622  153.7458 H   0  0  0  0  0  0  0  0  0  0  0  0
  150.1530  138.4360  154.8209 H   0  0  0  0  0  0  0  0  0  0  0  0
  149.3581  141.5571  155.0952 H   0  0  0  0  0  0  0  0  0  0  0  0
  151.3018  142.9998  159.5101 H   0  0  0  0  0  0  0  0  0  0  0  0
  151.1906  141.6877  160.6647 H   0  0  0  0  0  0  0  0  0  0  0  0
  153.6155  143.4559  160.0959 H   0  0  0  0  0  0  0  0  0  0  0  0
  152.6708  143.4461  161.5707 H   0  0  0  0  0  0  0  0  0  0  0  0
  154.8730  142.1015  161.6603 H   0  0  0  0  0  0  0  0  0  0  0  0
  153.4430  141.2083  162.1468 H   0  0  0  0  0  0  0  0  0  0  0  0
  154.9831  140.1020  160.4245 H   0  0  0  0  0  0  0  0  0  0  0  0
  1  2  2  0  0  0  0
  2  3  1  0  0  0  0
  2  4  1  0  0  0  0
  4  5  1  0  0  0  0
  4 17  1  0  0  0  0
  4 18  1  0  0  0  0
  5 16  1  0  0  0  0
  5  6  2  0  0  0  0
  6  7  1  0  0  0  0
  6 19  1  0  0  0  0
  7  8  1  0  0  0  0
  8  9  1  0  0  0  0
  8 16  2  0  0  0  0
  9 14  1  0  0  0  0
  9 10  1  0  0  0  0
 10 11  1  0  0  0  0
 10 20  1  0  0  0  0
 10 21  1  0  0  0  0
 11 12  1  0  0  0  0
 11 22  1  0  0  0  0
 11 23  1  0  0  0  0
 12 13  1  0  0  0  0
 12 24  1  0  0  0  0
 12 25  1  0  0  0  0
 13 14  1  0  0  0  0
 13 26  1  0  0  0  0
 14 15  2  0  0  0  0
M  CHG  1   3  -1
M  END
> <s_m_source_file>
AV-unprocessed.smi

> <i_m_source_file_index>
989

> <i_lp_mmshare_version>
43012

> <i_f3d_flags>
0

> <s_epik_input>
Tz1DKFtPSF0pW0NIMl1jMVtjSF1zYyhuMSlOMltDSDJdW0NIMl1bQ0gyXVtOSF1DMj1P

> <s_epik_cmdline>
J2VwaWtfcHl0aG9uJywgJy1waCcsICc3LjAnLCAnLXRuJywgJzgnLCAnLW1hJywgJzIwMCcsICctbWV0YWxfYmluZGluZycsICctaW1hZScsICc8aW5maWxlLm1hZT4nLCAnLW9tYWUnLCAnPG91dGZpbGUubWFlPic=

> <r_lp_tautomer_probability>
1

> <r_epik_Ionization_Penalty>
0.00100312

> <r_epik_Ionization_Penalty_Charging>
0.000722293

> <r_epik_Ionization_Penalty_Neutral>
0.000280832

> <r_epik_State_Penalty>
0.000460635

> <r_epik_Charging_Adjusted_Penalty>
0.00118293

> <i_epik_Tot_Q>
-1

> <i_epik_Tot_abs_Q>
1

> <r_epik_Metal_State_Penalty>
-0

> <b_epik_Metal_Only>
0

> <s_lp_Force_Field>
OPLS_2005

> <r_lp_Energy>
35.7011

> <b_lp_Chiralities_Consistent>
1

> <s_lp_Variant>
AV-unprocessed.smi:989-1

> <Gold.Version>
5.8.1

> <Gold.Id.Protein>
6NUR|6NUR_protein|mol2

> <Gold.PLP.Fitness>
47.2142

> <Gold.PLP.PLP>
-33.4613

> <Gold.PLP.part.hbond>
-3.0000

> <Gold.PLP.part.metal>
0.0000

> <Gold.PLP.part.buried>
-3.5266

> <Gold.PLP.part.nonpolar>
-27.8121

> <Gold.PLP.part.repulsive>
0.1227

> <Gold.PLP.ligand.clash>
0.0000

> <Gold.PLP.ligand.torsion>
0.2671

> <Gold.PLP.Chemscore.Hbond>
4.7600

> <Gold.PLP.Chemscore.CHOScore>
0.0000

> <Gold.PLP.Chemscore.Metal>
0.0000

> <Gold.Chemscore.Hbonds>
donor molecule, donor type, donor heavy atom, donor atom, acceptor molecule, acceptor atom, score
      P1  H  7997  8009       L1    15  1.00
      P1  H  7997  8010       L1     1  2.00
      P1  H 10752 10763       L1     3  1.66

> <Gold.PLP.Chemscore.Internal.Correction>
0.0070

> <Gold.Rescore>
     Score         DG    S(hbond)    S(metal)    S(lipo)     H(rot)  DE(clash)    DE(int)     intcor
     15.08     -17.34       2.62        0.00      60.27       1.54       0.07       2.18       ----

> <Gold.Chemscore.Fitness>
15.0839

> <Gold.Chemscore.DG>
-17.3362

> <Gold.Chemscore.ZeroCoef>
-5.4800

> <Gold.Chemscore.Hbond>
2.6179

> <Gold.Chemscore.Metal>
0.0000

> <Gold.Chemscore.Lipo>
60.2664

> <Gold.Chemscore.Internal_Hbond>
0.0000

> <Gold.Chemscore.DEClash>
0.0739

> <Gold.Chemscore.DEInternal>
2.1784

> <Gold.Chemscore.Rot>
1.5386

> <Gold.Chemscore.Internal.Correction>
   9.000000E+99

> <Gold.Chemscore.Hbonds>
donor molecule, donor type, donor heavy atom, donor atom, acceptor molecule, acceptor atom, score
      P1  H  7997  8009       L1    15  0.47
      P1  H  7997  8010       L1     1  0.91
      P1  H 10752 10763       L1     3  0.83

> <Gold.Chemscore.Hbond.Weighted>
-8.7438

> <Gold.Chemscore.Metal.Weighted>
-0.0000

> <Gold.Chemscore.Lipo.Weighted>
-7.0512

> <Gold.Chemscore.Internal_Hbond.Weighted>
0.0000

> <Gold.Chemscore.DEClash.Weighted>
0.0739

> <Gold.Chemscore.DEInternal.Weighted>
2.1784

> <Gold.Chemscore.Rot.Weighted>
3.9388

> <Gold.Chemscore.Internal.Correction.Weighted>
   9.000000E+99

> <Gold.Protein.RotatedTorsions>
[ 6907 6896 6895 6894 ] final   85.31 input  -60.11 | X-H torsion
[ 7974 7965 7964 7962 ] final  165.31 input  175.53 | X-H torsion
[ 8008 7997 7996 7995 ] final  124.61 input   59.86 | X-H torsion
[ 10167 10162 10161 10158 ] final  150.16 input  -65.29 | X-H torsion
[ 10718 10713 10712 10709 ] final    5.82 input   66.30 | X-H torsion
[ 10763 10752 10751 10750 ] final   64.00 input  -60.55 | X-H torsion
[ 11005 11000 10999 10996 ] final  103.33 input  -57.11 | X-H torsion

> <Gold.Protein.ActiveResidues>
 VAL166  LYS551  ARG553  GLY616  TRP617  ASP618  TYR619  PRO620  LYS621  CYS622 
 ASP623  PHE694  ASN695  SER759  ASP760  ASP761  ALA762  ILE779  LEU786  VAL792 
 PHE793  MET794  SER795  GLU796  ALA797  LYS798  CYS799  TRP800  GLU811  SER814 

> <Gold.Protein.RotatedAtoms>
  152.5372  134.2606  159.8933 H   0  0  0  0  0  0  0  0  0  0  0  0  # atno 6907 bound_to 6896
  151.2566  133.4316  159.2621 H   0  0  0  0  0  0  0  0  0  0  0  0  # atno 6908 bound_to 6896
  151.0490  134.9674  159.8258 H   0  0  0  0  0  0  0  0  0  0  0  0  # atno 6909 bound_to 6896
  144.7508  139.8451  143.6367 H   0  0  0  0  0  0  0  0  0  0  0  0  # atno 7974 bound_to 7965
  156.2807  140.2735  156.1816 H   0  0  0  0  0  0  0  0  0  0  0  0  # atno 8008 bound_to 7997
  155.0550  140.0386  157.2575 H   0  0  0  0  0  0  0  0  0  0  0  0  # atno 8009 bound_to 7997
  154.7163  140.2679  155.6587 H   0  0  0  0  0  0  0  0  0  0  0  0  # atno 8010 bound_to 7997
  139.4853  144.5545  151.7343 H   0  0  0  0  0  0  0  0  0  0  0  0  # atno 10167 bound_to 10162
  156.9130  130.5763  149.5647 H   0  0  0  0  0  0  0  0  0  0  0  0  # atno 10718 bound_to 10713
  153.0039  135.5409  154.6440 H   0  0  0  0  0  0  0  0  0  0  0  0  # atno 10763 bound_to 10752
  154.5688  135.2840  155.0849 H   0  0  0  0  0  0  0  0  0  0  0  0  # atno 10764 bound_to 10752
  154.2023  135.6482  153.5143 H   0  0  0  0  0  0  0  0  0  0  0  0  # atno 10765 bound_to 10752
  139.8783  134.9259  156.5193 H   0  0  0  0  0  0  0  0  0  0  0  0  # atno 11005 bound_to 11000
  146.1455  139.4523  143.0082 LP  0  0  0  0  0  0  0  0  0  0  0  0  # atno 17320 bound_to 7965
  145.6952  141.0152  143.1534 LP  0  0  0  0  0  0  0  0  0  0  0  0  # atno 17321 bound_to 7965
  140.5104  144.1034  150.5993 LP  0  0  0  0  0  0  0  0  0  0  0  0  # atno 17342 bound_to 10162
  140.3958  143.2729  152.0007 LP  0  0  0  0  0  0  0  0  0  0  0  0  # atno 17343 bound_to 10162
  156.0527  130.5593  150.9024 LP  0  0  0  0  0  0  0  0  0  0  0  0  # atno 17370 bound_to 10713
  157.5955  131.0943  150.9047 LP  0  0  0  0  0  0  0  0  0  0  0  0  # atno 17371 bound_to 10713
  140.8462  133.8167  155.9124 LP  0  0  0  0  0  0  0  0  0  0  0  0  # atno 17394 bound_to 11000
  140.9189  134.2167  157.4939 LP  0  0  0  0  0  0  0  0  0  0  0  0  # atno 17395 bound_to 11000

$$$$
