AV-unprocessed.smi:792|AV-procd|sdf|3750|dock5
  -GOLD-   22720 1183D 1   1.00000     0.00000
 Structure written by MMmdl.
 46 47  0  0  0  0  0  0  0  0  1 V2000
  151.6712  145.2980  159.9928 C   0  0  0  0  0  0  0  0  0  0  0  0
  152.3770  144.0332  160.4349 C   0  0  0  0  0  0  0  0  0  0  0  0
  152.4662  143.6934  161.8014 C   0  0  0  0  0  0  0  0  0  0  0  0
  153.1344  142.5053  162.1547 C   0  0  0  0  0  0  0  0  0  0  0  0
  153.6848  141.7050  161.1327 C   0  0  0  0  0  0  0  0  0  0  0  0
  154.4151  140.4176  161.4593 C   0  0  0  0  0  0  0  0  0  0  0  0
  153.8651  139.2239  160.6682 C   0  0  0  0  0  0  0  0  0  0  0  0
  154.6760  138.0382  160.9042 N   0  0  0  0  0  0  0  0  0  0  0  0
  154.4439  137.1475  161.8767 C   0  0  0  0  0  0  0  0  0  0  0  0
  153.5051  137.2224  162.6697 O   0  0  0  0  0  0  0  0  0  0  0  0
  155.3586  136.1671  161.8833 N   0  0  0  0  0  0  0  0  0  0  0  0
  155.3719  135.0368  162.8106 C   0  0  0  0  0  0  0  0  0  0  0  0
  154.8148  133.7358  162.2009 C   0  0  0  0  0  0  0  0  0  0  0  0
  154.5412  133.7082  160.9991 O   0  0  0  0  0  0  0  0  0  0  0  0
  154.6471  132.6558  163.0031 N   0  0  0  0  0  0  0  0  0  0  0  0
  154.0595  131.3963  162.5262 C   0  0  0  0  0  0  0  0  0  0  0  0
  152.6808  131.2079  163.1856 C   0  0  0  0  0  0  0  0  0  0  0  0
  152.7921  131.2542  164.7212 C   0  0  0  0  0  0  0  0  0  0  0  0
  153.5742  132.4931  165.1968 C   0  0  0  0  0  0  0  0  0  0  0  0
  154.9138  132.6148  164.4480 C   0  0  0  0  0  0  0  0  0  0  0  0
  153.5420  142.1360  159.7970 C   0  0  0  0  0  0  0  0  0  0  0  0
  152.9029  143.2735  159.4487 N   0  0  0  0  0  0  0  0  0  0  0  0
  151.2770  145.8501  160.8465 H   0  0  0  0  0  0  0  0  0  0  0  0
  150.8392  145.0568  159.3307 H   0  0  0  0  0  0  0  0  0  0  0  0
  152.3612  145.9495  159.4561 H   0  0  0  0  0  0  0  0  0  0  0  0
  152.0344  144.3262  162.5627 H   0  0  0  0  0  0  0  0  0  0  0  0
  153.2229  142.2162  163.1916 H   0  0  0  0  0  0  0  0  0  0  0  0
  155.4777  140.5489  161.2502 H   0  0  0  0  0  0  0  0  0  0  0  0
  154.3328  140.2269  162.5304 H   0  0  0  0  0  0  0  0  0  0  0  0
  152.8345  139.0208  160.9643 H   0  0  0  0  0  0  0  0  0  0  0  0
  153.8563  139.4506  159.6009 H   0  0  0  0  0  0  0  0  0  0  0  0
  155.4666  137.8911  160.2939 H   0  0  0  0  0  0  0  0  0  0  0  0
  156.0893  136.1922  161.1871 H   0  0  0  0  0  0  0  0  0  0  0  0
  156.4053  134.8695  163.1144 H   0  0  0  0  0  0  0  0  0  0  0  0
  154.8099  135.2974  163.7092 H   0  0  0  0  0  0  0  0  0  0  0  0
  153.9563  131.3585  161.4411 H   0  0  0  0  0  0  0  0  0  0  0  0
  154.7180  130.5674  162.7898 H   0  0  0  0  0  0  0  0  0  0  0  0
  152.0049  131.9931  162.8440 H   0  0  0  0  0  0  0  0  0  0  0  0
  152.2407  130.2608  162.8721 H   0  0  0  0  0  0  0  0  0  0  0  0
  151.8001  131.2364  165.1731 H   0  0  0  0  0  0  0  0  0  0  0  0
  153.3050  130.3560  165.0674 H   0  0  0  0  0  0  0  0  0  0  0  0
  152.9787  133.3914  165.0278 H   0  0  0  0  0  0  0  0  0  0  0  0
  153.7476  132.4337  166.2715 H   0  0  0  0  0  0  0  0  0  0  0  0
  155.5417  131.7508  164.6701 H   0  0  0  0  0  0  0  0  0  0  0  0
  155.4698  133.4741  164.8189 H   0  0  0  0  0  0  0  0  0  0  0  0
  153.9522  141.5538  158.9850 H   0  0  0  0  0  0  0  0  0  0  0  0
  1  2  1  0  0  0  0
  1 23  1  0  0  0  0
  1 24  1  0  0  0  0
  1 25  1  0  0  0  0
  2 22  1  0  0  0  0
  2  3  2  0  0  0  0
  3  4  1  0  0  0  0
  3 26  1  0  0  0  0
  4  5  2  0  0  0  0
  4 27  1  0  0  0  0
  5  6  1  0  0  0  0
  5 21  1  0  0  0  0
  6  7  1  0  0  0  0
  6 28  1  0  0  0  0
  6 29  1  0  0  0  0
  7  8  1  0  0  0  0
  7 30  1  0  0  0  0
  7 31  1  0  0  0  0
  8  9  1  0  0  0  0
  8 32  1  0  0  0  0
  9 10  2  0  0  0  0
  9 11  1  0  0  0  0
 11 12  1  0  0  0  0
 11 33  1  0  0  0  0
 12 13  1  0  0  0  0
 12 34  1  0  0  0  0
 12 35  1  0  0  0  0
 13 14  2  0  0  0  0
 13 15  1  0  0  0  0
 15 20  1  0  0  0  0
 15 16  1  0  0  0  0
 16 17  1  0  0  0  0
 16 36  1  0  0  0  0
 16 37  1  0  0  0  0
 17 18  1  0  0  0  0
 17 38  1  0  0  0  0
 17 39  1  0  0  0  0
 18 19  1  0  0  0  0
 18 40  1  0  0  0  0
 18 41  1  0  0  0  0
 19 20  1  0  0  0  0
 19 42  1  0  0  0  0
 19 43  1  0  0  0  0
 20 44  1  0  0  0  0
 20 45  1  0  0  0  0
 21 22  2  0  0  0  0
 21 46  1  0  0  0  0
M  END
> <s_m_source_file>
AV-unprocessed.smi

> <i_m_source_file_index>
792

> <i_lp_mmshare_version>
43012

> <i_f3d_flags>
0

> <s_epik_input>
W0NIM11jMVtjSF1bY0hdYyhbY0hdbjEpW0NIMl1bQ0gyXVtOSF1DKD1PKVtOSF1bQ0gyXUMoPU8pTjJbQ0gyXVtDSDJdW0NIMl1bQ0gyXVtDSDJdMg==

> <s_epik_cmdline>
J2VwaWtfcHl0aG9uJywgJy1waCcsICc3LjAnLCAnLXRuJywgJzgnLCAnLW1hJywgJzIwMCcsICctbWV0YWxfYmluZGluZycsICctaW1hZScsICc8aW5maWxlLm1hZT4nLCAnLW9tYWUnLCAnPG91dGZpbGUubWFlPic=

> <r_epik_Ionization_Penalty>
0.0629971

> <r_epik_Ionization_Penalty_Charging>
0

> <r_epik_Ionization_Penalty_Neutral>
0.0629971

> <r_epik_State_Penalty>
0.0547377

> <r_epik_Charging_Adjusted_Penalty>
0.0547377

> <i_epik_Tot_Q>
0

> <i_epik_Tot_abs_Q>
0

> <r_epik_Metal_State_Penalty>
0.0494478

> <b_epik_Metal_Only>
0

> <s_lp_Force_Field>
OPLS_2005

> <r_lp_Energy>
16.0081

> <b_lp_Chiralities_Consistent>
1

> <s_lp_Variant>
AV-unprocessed.smi:792-1

> <Gold.Version>
5.8.1

> <Gold.Id.Protein>
6NUR|6NUR_protein|mol2

> <Gold.PLP.Fitness>
46.5302

> <Gold.PLP.PLP>
-46.4165

> <Gold.PLP.part.hbond>
-0.6906

> <Gold.PLP.part.metal>
0.0000

> <Gold.PLP.part.buried>
-6.0201

> <Gold.PLP.part.nonpolar>
-40.4593

> <Gold.PLP.part.repulsive>
0.0143

> <Gold.PLP.ligand.clash>
0.0000

> <Gold.PLP.ligand.torsion>
0.4310

> <Gold.PLP.Chemscore.Hbond>
0.3182

> <Gold.PLP.Chemscore.CHOScore>
0.0000

> <Gold.PLP.Chemscore.Metal>
0.0000

> <Gold.Chemscore.Hbonds>
donor molecule, donor type, donor heavy atom, donor atom, acceptor molecule, acceptor atom, score
      P1  H  6896  6907       L1    14  0.30

> <Gold.PLP.Chemscore.Internal.Correction>
0.0210

> <Gold.Rescore>
     Score         DG    S(hbond)    S(metal)    S(lipo)     H(rot)  DE(clash)    DE(int)     intcor
     17.59     -18.26       0.83        0.00     124.52       1.78       0.21       0.46       ----

> <Gold.Chemscore.Fitness>
17.5929

> <Gold.Chemscore.DG>
-18.2624

> <Gold.Chemscore.ZeroCoef>
-5.4800

> <Gold.Chemscore.Hbond>
0.8257

> <Gold.Chemscore.Metal>
0.0000

> <Gold.Chemscore.Lipo>
124.5179

> <Gold.Chemscore.Internal_Hbond>
0.0000

> <Gold.Chemscore.DEClash>
0.2116

> <Gold.Chemscore.DEInternal>
0.4580

> <Gold.Chemscore.Rot>
1.7751

> <Gold.Chemscore.Internal.Correction>
   9.000000E+99

> <Gold.Chemscore.Hbonds>
donor molecule, donor type, donor heavy atom, donor atom, acceptor molecule, acceptor atom, score
      P1  H  6896  6907       L1    14  0.30

> <Gold.Chemscore.Hbond.Weighted>
-2.7580

> <Gold.Chemscore.Metal.Weighted>
-0.0000

> <Gold.Chemscore.Lipo.Weighted>
-14.5686

> <Gold.Chemscore.Internal_Hbond.Weighted>
0.0000

> <Gold.Chemscore.DEClash.Weighted>
0.2116

> <Gold.Chemscore.DEInternal.Weighted>
0.4580

> <Gold.Chemscore.Rot.Weighted>
4.5441

> <Gold.Chemscore.Internal.Correction.Weighted>
   9.000000E+99

> <Gold.Protein.RotatedTorsions>
[ 6907 6896 6895 6894 ] final   88.60 input  -60.11 | X-H torsion
[ 7974 7965 7964 7962 ] final  -97.64 input  175.53 | X-H torsion
[ 8008 7997 7996 7995 ] final  -76.74 input   59.86 | X-H torsion
[ 10167 10162 10161 10158 ] final   76.40 input  -65.29 | X-H torsion
[ 10718 10713 10712 10709 ] final  143.59 input   66.30 | X-H torsion
[ 10763 10752 10751 10750 ] final -115.38 input  -60.55 | X-H torsion
[ 11005 11000 10999 10996 ] final  -77.51 input  -57.11 | X-H torsion

> <Gold.Protein.ActiveResidues>
 VAL166  LYS551  ARG553  GLY616  TRP617  ASP618  TYR619  PRO620  LYS621  CYS622 
 ASP623  PHE694  ASN695  SER759  ASP760  ASP761  ALA762  ILE779  LEU786  VAL792 
 PHE793  MET794  SER795  GLU796  ALA797  LYS798  CYS799  TRP800  GLU811  SER814 

> <Gold.Protein.RotatedAtoms>
  152.5427  134.2096  159.8744 H   0  0  0  0  0  0  0  0  0  0  0  0  # atno 6907 bound_to 6896
  151.2079  133.4566  159.2605 H   0  0  0  0  0  0  0  0  0  0  0  0  # atno 6908 bound_to 6896
  151.0925  134.9937  159.8465 H   0  0  0  0  0  0  0  0  0  0  0  0  # atno 6909 bound_to 6896
  145.3310  140.9441  143.2661 H   0  0  0  0  0  0  0  0  0  0  0  0  # atno 7974 bound_to 7965
  154.5533  140.0722  156.8702 H   0  0  0  0  0  0  0  0  0  0  0  0  # atno 8008 bound_to 7997
  155.2952  140.3380  155.4232 H   0  0  0  0  0  0  0  0  0  0  0  0  # atno 8009 bound_to 7997
  156.1980  140.1711  156.7945 H   0  0  0  0  0  0  0  0  0  0  0  0  # atno 8010 bound_to 7997
  139.9926  144.5745  150.7805 H   0  0  0  0  0  0  0  0  0  0  0  0  # atno 10167 bound_to 10162
  157.3671  131.0973  151.0862 H   0  0  0  0  0  0  0  0  0  0  0  0  # atno 10718 bound_to 10713
  154.8479  135.4384  154.1654 H   0  0  0  0  0  0  0  0  0  0  0  0  # atno 10763 bound_to 10752
  153.2780  135.6951  153.7420 H   0  0  0  0  0  0  0  0  0  0  0  0  # atno 10764 bound_to 10752
  153.6634  135.3431  155.3108 H   0  0  0  0  0  0  0  0  0  0  0  0  # atno 10765 bound_to 10752
  141.1660  133.7025  156.7832 H   0  0  0  0  0  0  0  0  0  0  0  0  # atno 11005 bound_to 11000
  144.8864  139.4834  143.6698 LP  0  0  0  0  0  0  0  0  0  0  0  0  # atno 17320 bound_to 7965
  146.3045  139.7535  142.9066 LP  0  0  0  0  0  0  0  0  0  0  0  0  # atno 17321 bound_to 7965
  140.7449  143.2867  151.3443 LP  0  0  0  0  0  0  0  0  0  0  0  0  # atno 17342 bound_to 10162
  139.6329  144.0686  152.2491 LP  0  0  0  0  0  0  0  0  0  0  0  0  # atno 17343 bound_to 10162
  157.1980  130.6382  149.5728 LP  0  0  0  0  0  0  0  0  0  0  0  0  # atno 17370 bound_to 10713
  155.9748  130.4700  150.6415 LP  0  0  0  0  0  0  0  0  0  0  0  0  # atno 17371 bound_to 10713
  140.2379  134.8636  157.3544 LP  0  0  0  0  0  0  0  0  0  0  0  0  # atno 17394 bound_to 11000
  140.1825  134.4472  155.7763 LP  0  0  0  0  0  0  0  0  0  0  0  0  # atno 17395 bound_to 11000

$$$$
