AV-unprocessed.smi:743|AV-procd|sdf|3565|dock2
  -GOLD-   22720 0563D 1   1.00000     0.00000
 Structure written by MMmdl.
 28 29  0  0  0  0  0  0  0  0  1 V2000
  151.6214  145.3178  159.8060 C   0  0  0  0  0  0  0  0  0  0  0  0
  151.5351  144.0737  159.0716 N   0  0  0  0  0  0  0  0  0  0  0  0
  151.2327  143.8813  157.7413 C   0  0  0  0  0  0  0  0  0  0  0  0
  151.2640  142.5350  157.4997 C   0  0  0  0  0  0  0  0  0  0  0  0
  151.0120  141.7858  156.2118 C   0  0  1  0  0  0  0  0  0  0  0  0
  152.1246  140.8777  155.9146 N   0  0  0  0  0  0  0  0  0  0  0  0
  152.0480  139.6428  155.3869 C   0  0  0  0  0  0  0  0  0  0  0  0
  153.0578  138.9891  155.1362 O   0  0  0  0  0  0  0  0  0  0  0  0
  150.6663  139.0274  155.1229 C   0  0  0  0  0  0  0  0  0  0  0  0
  149.5380  140.0680  155.0755 C   0  0  0  0  0  0  0  0  0  0  0  0
  149.6554  141.0422  156.2530 C   0  0  2  0  0  0  0  0  0  0  0  0
  148.5459  141.9784  156.2260 N   0  0  0  0  0  0  0  0  0  0  0  0
  151.6040  141.9862  158.7701 C   0  0  0  0  0  0  0  0  0  0  0  0
  151.7621  142.9066  159.7071 N   0  0  0  0  0  0  0  0  0  0  0  0
  149.5860  140.4714  157.1802 H   0  0  0  0  0  0  0  0  0  0  0  0
  151.7726  146.1480  159.1152 H   0  0  0  0  0  0  0  0  0  0  0  0
  152.4581  145.2842  160.5048 H   0  0  0  0  0  0  0  0  0  0  0  0
  150.6968  145.4799  160.3605 H   0  0  0  0  0  0  0  0  0  0  0  0
  151.0222  144.7103  157.0816 H   0  0  0  0  0  0  0  0  0  0  0  0
  150.9895  142.4903  155.3788 H   0  0  0  0  0  0  0  0  0  0  0  0
  153.0498  141.2405  156.0937 H   0  0  0  0  0  0  0  0  0  0  0  0
  150.6911  138.4605  154.1917 H   0  0  0  0  0  0  0  0  0  0  0  0
  150.4668  138.3106  155.9201 H   0  0  0  0  0  0  0  0  0  0  0  0
  149.5794  140.6122  154.1304 H   0  0  0  0  0  0  0  0  0  0  0  0
  148.5741  139.5583  155.0986 H   0  0  0  0  0  0  0  0  0  0  0  0
  148.8994  142.9244  156.2255 H   0  0  0  0  0  0  0  0  0  0  0  0
  148.0288  141.8659  155.3657 H   0  0  0  0  0  0  0  0  0  0  0  0
  151.7384  140.9483  159.0368 H   0  0  0  0  0  0  0  0  0  0  0  0
  1  2  1  0  0  0  0
  1 16  1  0  0  0  0
  1 17  1  0  0  0  0
  1 18  1  0  0  0  0
  2 14  1  0  0  0  0
  2  3  1  0  0  0  0
  3  4  2  0  0  0  0
  3 19  1  0  0  0  0
  4  5  1  0  0  0  0
  4 13  1  0  0  0  0
  5 11  1  0  0  0  0
  5  6  1  0  0  0  0
  5 20  1  0  0  0  0
  6  7  1  0  0  0  0
  6 21  1  0  0  0  0
  7  8  2  0  0  0  0
  7  9  1  0  0  0  0
  9 10  1  0  0  0  0
  9 22  1  0  0  0  0
  9 23  1  0  0  0  0
 10 11  1  0  0  0  0
 10 24  1  0  0  0  0
 10 25  1  0  0  0  0
 11 15  1  0  0  0  0
 11 12  1  0  0  0  0
 12 26  1  0  0  0  0
 12 27  1  0  0  0  0
 13 14  2  0  0  0  0
 13 28  1  0  0  0  0
M  END
> <s_m_source_file>
AV-unprocessed.smi

> <i_m_source_file_index>
743

> <i_lp_mmshare_version>
43012

> <i_f3d_flags>
0

> <s_epik_input>
W0NIM11uMVtjSF1jKFtjSF1uMSlbQ0BASF0yW05IXUMoPU8pW0NIMl1bQ0gyXVtDQEBIXTJbTkgyXQ==

> <s_epik_cmdline>
J2VwaWtfcHl0aG9uJywgJy1waCcsICc3LjAnLCAnLXRuJywgJzgnLCAnLW1hJywgJzIwMCcsICctbWV0YWxfYmluZGluZycsICctaW1hZScsICc8aW5maWxlLm1hZT4nLCAnLW9tYWUnLCAnPG91dGZpbGUubWFlPic=

> <r_lp_tautomer_probability>
1

> <r_epik_Ionization_Penalty>
2.50279

> <r_epik_Ionization_Penalty_Charging>
0

> <r_epik_Ionization_Penalty_Neutral>
2.50279

> <r_epik_State_Penalty>
2.66754

> <r_epik_Charging_Adjusted_Penalty>
2.66754

> <i_epik_Tot_Q>
0

> <i_epik_Tot_abs_Q>
0

> <r_epik_Metal_State_Penalty>
2.66721

> <b_epik_Metal_Only>
0

> <s_lp_Force_Field>
OPLS_2005

> <r_lp_Energy>
8.34042

> <b_lp_Chiralities_Consistent>
1

> <s_lp_Variant>
AV-unprocessed.smi:743-6

> <Gold.Version>
5.8.1

> <Gold.Id.Protein>
6NUR|6NUR_protein|mol2

> <Gold.PLP.Fitness>
35.0993

> <Gold.PLP.PLP>
-27.0947

> <Gold.PLP.part.hbond>
-2.0000

> <Gold.PLP.part.metal>
0.0000

> <Gold.PLP.part.buried>
-0.6535

> <Gold.PLP.part.nonpolar>
-24.1639

> <Gold.PLP.part.repulsive>
0.1971

> <Gold.PLP.ligand.clash>
0.0000

> <Gold.PLP.ligand.torsion>
0.1974

> <Gold.PLP.Chemscore.Hbond>
2.0000

> <Gold.PLP.Chemscore.CHOScore>
0.7911

> <Gold.PLP.Chemscore.Metal>
0.0000

> <Gold.Chemscore.Hbonds>
donor molecule, donor type, donor heavy atom, donor atom, acceptor molecule, acceptor atom, score
      L1  H    12    26       P1  8028  1.00
      P1  H  7997  8009       L1     8  1.00
      L1  C     3    19       P1  8028  0.83

> <Gold.PLP.Chemscore.Internal.Correction>
0.0260

> <Gold.Rescore>
     Score         DG    S(hbond)    S(metal)    S(lipo)     H(rot)  DE(clash)    DE(int)     intcor
     15.32     -16.95       1.85        0.00      67.14       1.00       1.59       0.04       ----

> <Gold.Chemscore.Fitness>
15.3222

> <Gold.Chemscore.DG>
-16.9516

> <Gold.Chemscore.ZeroCoef>
-5.4800

> <Gold.Chemscore.Hbond>
1.8492

> <Gold.Chemscore.Metal>
0.0000

> <Gold.Chemscore.Lipo>
67.1392

> <Gold.Chemscore.Internal_Hbond>
0.0000

> <Gold.Chemscore.DEClash>
1.5922

> <Gold.Chemscore.DEInternal>
0.0371

> <Gold.Chemscore.Rot>
1.0000

> <Gold.Chemscore.Internal.Correction>
   9.000000E+99

> <Gold.Chemscore.Hbonds>
donor molecule, donor type, donor heavy atom, donor atom, acceptor molecule, acceptor atom, score
      L1  H    12    26       P1  8028  0.97
      P1  H  7997  8009       L1     8  0.33

> <Gold.Chemscore.Hbond.Weighted>
-6.1763

> <Gold.Chemscore.Metal.Weighted>
-0.0000

> <Gold.Chemscore.Lipo.Weighted>
-7.8553

> <Gold.Chemscore.Internal_Hbond.Weighted>
0.0000

> <Gold.Chemscore.DEClash.Weighted>
1.5922

> <Gold.Chemscore.DEInternal.Weighted>
0.0371

> <Gold.Chemscore.Rot.Weighted>
2.5600

> <Gold.Chemscore.Internal.Correction.Weighted>
   9.000000E+99

> <Gold.Protein.RotatedTorsions>
[ 6907 6896 6895 6894 ] final  -52.11 input  -60.11 | X-H torsion
[ 7974 7965 7964 7962 ] final  -64.74 input  175.53 | X-H torsion
[ 8008 7997 7996 7995 ] final -129.42 input   59.86 | X-H torsion
[ 10167 10162 10161 10158 ] final  -88.00 input  -65.29 | X-H torsion
[ 10718 10713 10712 10709 ] final  -93.22 input   66.30 | X-H torsion
[ 10763 10752 10751 10750 ] final -118.65 input  -60.55 | X-H torsion
[ 11005 11000 10999 10996 ] final -126.44 input  -57.11 | X-H torsion

> <Gold.Protein.ActiveResidues>
 VAL166  LYS551  ARG553  GLY616  TRP617  ASP618  TYR619  PRO620  LYS621  CYS622 
 ASP623  PHE694  ASN695  SER759  ASP760  ASP761  ALA762  ILE779  LEU786  VAL792 
 PHE793  MET794  SER795  GLU796  ALA797  LYS798  CYS799  TRP800  GLU811  SER814 

> <Gold.Protein.RotatedAtoms>
  150.8548  134.7884  159.7036 H   0  0  0  0  0  0  0  0  0  0  0  0  # atno 6907 bound_to 6896
  152.4603  134.5196  159.9788 H   0  0  0  0  0  0  0  0  0  0  0  0  # atno 6908 bound_to 6896
  151.5310  133.3411  159.2954 H   0  0  0  0  0  0  0  0  0  0  0  0  # atno 6909 bound_to 6896
  145.7629  140.8852  143.0420 H   0  0  0  0  0  0  0  0  0  0  0  0  # atno 7974 bound_to 7965
  155.2789  140.0443  157.3014 H   0  0  0  0  0  0  0  0  0  0  0  0  # atno 8008 bound_to 7997
  154.5609  140.2345  155.8306 H   0  0  0  0  0  0  0  0  0  0  0  0  # atno 8009 bound_to 7997
  156.2046  140.3016  155.9607 H   0  0  0  0  0  0  0  0  0  0  0  0  # atno 8010 bound_to 7997
  140.3789  143.2758  151.9408 H   0  0  0  0  0  0  0  0  0  0  0  0  # atno 10167 bound_to 10162
  156.0011  130.5018  150.5743 H   0  0  0  0  0  0  0  0  0  0  0  0  # atno 10718 bound_to 10713
  154.8594  135.4266  154.2173 H   0  0  0  0  0  0  0  0  0  0  0  0  # atno 10763 bound_to 10752
  153.3186  135.6980  153.7057 H   0  0  0  0  0  0  0  0  0  0  0  0  # atno 10764 bound_to 10752
  153.6121  135.3517  155.2956 H   0  0  0  0  0  0  0  0  0  0  0  0  # atno 10765 bound_to 10752
  140.9681  134.0843  157.3898 H   0  0  0  0  0  0  0  0  0  0  0  0  # atno 11005 bound_to 11000
  144.6827  139.9748  143.7482 LP  0  0  0  0  0  0  0  0  0  0  0  0  # atno 17320 bound_to 7965
  146.0246  139.3281  143.0792 LP  0  0  0  0  0  0  0  0  0  0  0  0  # atno 17321 bound_to 7965
  139.4797  144.5837  151.7890 LP  0  0  0  0  0  0  0  0  0  0  0  0  # atno 17342 bound_to 10162
  140.4957  144.1244  150.5960 LP  0  0  0  0  0  0  0  0  0  0  0  0  # atno 17343 bound_to 10162
  157.3633  131.0753  151.1618 LP  0  0  0  0  0  0  0  0  0  0  0  0  # atno 17370 bound_to 10713
  157.2396  130.6563  149.5884 LP  0  0  0  0  0  0  0  0  0  0  0  0  # atno 17371 bound_to 10713
  139.8902  135.0110  156.6723 LP  0  0  0  0  0  0  0  0  0  0  0  0  # atno 17394 bound_to 11000
  140.7369  133.9011  155.8250 LP  0  0  0  0  0  0  0  0  0  0  0  0  # atno 17395 bound_to 11000

$$$$
