AV-unprocessed.smi:155|AV-procd|sdf|1281|dock7
  -GOLD-   2262018553D 1   1.00000     0.00000
 Structure written by MMmdl.
 64 67  0  0  0  0  0  0  0  0  3 V2000
  145.5058  135.8342  151.5125 C   0  0  0  0  0  0  0  0  0  0  0  0
  146.3894  135.9370  152.6975 N   0  3  0  0  0  0  0  0  0  0  0  0
  146.4458  134.6560  153.4373 C   0  0  0  0  0  0  0  0  0  0  0  0
  146.0558  137.0821  153.5839 C   0  0  0  0  0  0  0  0  0  0  0  0
  147.1354  137.3389  154.6583 C   0  0  0  0  0  0  0  0  0  0  0  0
  147.5267  138.7715  154.7594 N   0  3  2  0  0  0  0  0  0  0  0  0
  146.3938  139.6523  155.1551 C   0  0  0  0  0  0  0  0  0  0  0  0
  146.8468  140.6855  156.2019 C   0  0  0  0  0  0  0  0  0  0  0  0
  147.7285  141.8080  155.6291 C   0  0  0  0  0  0  0  0  0  0  0  0
  148.9026  141.2982  154.9243 N   0  0  0  0  0  0  0  0  0  0  0  0
  150.0419  140.9309  155.5872 C   0  0  0  0  0  0  0  0  0  0  0  0
  150.8000  139.9415  155.0406 N   0  0  0  0  0  0  0  0  0  0  0  0
  151.9223  139.5224  155.6294 C   0  0  0  0  0  0  0  0  0  0  0  0
  152.4713  139.9452  156.7662 N   0  0  0  0  0  0  0  0  0  0  0  0
  151.7293  140.9391  157.3292 C   0  0  0  0  0  0  0  0  0  0  0  0
  150.5156  141.4895  156.8178 C   0  0  0  0  0  0  0  0  0  0  0  0
  150.0662  142.4774  157.6899 N   0  0  0  0  0  0  0  0  0  0  0  0
  150.9546  142.5129  158.6438 C   0  0  0  0  0  0  0  0  0  0  0  0
  151.9897  141.6209  158.5037 N   0  0  0  0  0  0  0  0  0  0  0  0
  153.1127  141.4421  159.4070 C   0  0  0  0  0  0  0  0  0  0  0  0
  153.4541  139.9535  159.6288 C   0  0  1  0  0  0  0  0  0  0  0  0
  154.3521  139.4959  158.6367 O   0  0  0  0  0  0  0  0  0  0  0  0
  154.0420  139.6349  161.0190 C   0  0  2  0  0  0  0  0  0  0  0  0
  155.4301  140.2271  161.2641 C   0  0  0  0  0  0  0  0  0  0  0  0
  155.9379  139.3497  162.3854 C   0  0  0  0  0  0  0  0  0  0  0  0
  155.3846  137.9821  161.9933 C   0  0  0  0  0  0  0  0  0  0  0  0
  154.2176  138.2332  161.2135 O   0  0  0  0  0  0  0  0  0  0  0  0
  148.6425  140.7614  153.5852 C   0  0  0  0  0  0  0  0  0  0  0  0
  148.2763  139.2593  153.5655 C   0  0  0  0  0  0  0  0  0  0  0  0
  144.4687  135.6750  151.8107 H   0  0  0  0  0  0  0  0  0  0  0  0
  145.8069  134.9966  150.8824 H   0  0  0  0  0  0  0  0  0  0  0  0
  145.5492  136.7310  150.8960 H   0  0  0  0  0  0  0  0  0  0  0  0
  145.4722  134.4061  153.8613 H   0  0  0  0  0  0  0  0  0  0  0  0
  147.1712  134.7067  154.2503 H   0  0  0  0  0  0  0  0  0  0  0  0
  146.7503  133.8419  152.7784 H   0  0  0  0  0  0  0  0  0  0  0  0
  145.8889  137.9753  152.9792 H   0  0  0  0  0  0  0  0  0  0  0  0
  145.1108  136.8653  154.0825 H   0  0  0  0  0  0  0  0  0  0  0  0
  146.8044  136.9746  155.6320 H   0  0  0  0  0  0  0  0  0  0  0  0
  148.0235  136.7642  154.3984 H   0  0  0  0  0  0  0  0  0  0  0  0
  145.9434  140.1313  154.2843 H   0  0  0  0  0  0  0  0  0  0  0  0
  145.5960  139.0641  155.6096 H   0  0  0  0  0  0  0  0  0  0  0  0
  145.9642  141.1436  156.6495 H   0  0  0  0  0  0  0  0  0  0  0  0
  147.3620  140.1762  157.0168 H   0  0  0  0  0  0  0  0  0  0  0  0
  147.1353  142.3921  154.9249 H   0  0  0  0  0  0  0  0  0  0  0  0
  148.0106  142.5245  156.3982 H   0  0  0  0  0  0  0  0  0  0  0  0
  152.4554  138.7350  155.1170 H   0  0  0  0  0  0  0  0  0  0  0  0
  150.8803  143.1959  159.4780 H   0  0  0  0  0  0  0  0  0  0  0  0
  153.9713  141.9762  158.9980 H   0  0  0  0  0  0  0  0  0  0  0  0
  152.8669  141.9259  160.3524 H   0  0  0  0  0  0  0  0  0  0  0  0
  152.5471  139.3606  159.5034 H   0  0  0  0  0  0  0  0  0  0  0  0
  154.4508  138.5609  158.7306 H   0  0  0  0  0  0  0  0  0  0  0  0
  153.3784  140.0055  161.8025 H   0  0  0  0  0  0  0  0  0  0  0  0
  156.0681  140.1148  160.3871 H   0  0  0  0  0  0  0  0  0  0  0  0
  155.3992  141.2841  161.5303 H   0  0  0  0  0  0  0  0  0  0  0  0
  157.0237  139.3597  162.4833 H   0  0  0  0  0  0  0  0  0  0  0  0
  155.5060  139.6710  163.3342 H   0  0  0  0  0  0  0  0  0  0  0  0
  156.1017  137.4404  161.3758 H   0  0  0  0  0  0  0  0  0  0  0  0
  155.1545  137.3669  162.8633 H   0  0  0  0  0  0  0  0  0  0  0  0
  147.8133  141.3223  153.1527 H   0  0  0  0  0  0  0  0  0  0  0  0
  149.4831  140.9586  152.9189 H   0  0  0  0  0  0  0  0  0  0  0  0
  149.2086  138.7006  153.4966 H   0  0  0  0  0  0  0  0  0  0  0  0
  147.7172  139.0367  152.6555 H   0  0  0  0  0  0  0  0  0  0  0  0
  147.3258  136.0974  152.3538 H   0  0  0  0  0  0  0  0  0  0  0  0
  148.1719  138.8203  155.5352 H   0  0  0  0  0  0  0  0  0  0  0  0
  1  2  1  0  0  0  0
  1 30  1  0  0  0  0
  1 31  1  0  0  0  0
  1 32  1  0  0  0  0
  2  3  1  0  0  0  0
  2  4  1  0  0  0  0
  2 63  1  0  0  0  0
  3 33  1  0  0  0  0
  3 34  1  0  0  0  0
  3 35  1  0  0  0  0
  4  5  1  0  0  0  0
  4 36  1  0  0  0  0
  4 37  1  0  0  0  0
  5  6  1  0  0  0  0
  5 38  1  0  0  0  0
  5 39  1  0  0  0  0
  6 29  1  0  0  0  0
  6  7  1  0  0  0  0
  6 64  1  0  0  0  0
  7  8  1  0  0  0  0
  7 40  1  0  0  0  0
  7 41  1  0  0  0  0
  8  9  1  0  0  0  0
  8 42  1  0  0  0  0
  8 43  1  0  0  0  0
  9 10  1  0  0  0  0
  9 44  1  0  0  0  0
  9 45  1  0  0  0  0
 10 11  1  0  0  0  0
 10 28  1  0  0  0  0
 11 16  1  0  0  0  0
 11 12  2  0  0  0  0
 12 13  1  0  0  0  0
 13 14  2  0  0  0  0
 13 46  1  0  0  0  0
 14 15  1  0  0  0  0
 15 19  1  0  0  0  0
 15 16  2  0  0  0  0
 16 17  1  0  0  0  0
 17 18  2  0  0  0  0
 18 19  1  0  0  0  0
 18 47  1  0  0  0  0
 19 20  1  0  0  0  0
 20 21  1  0  0  0  0
 20 48  1  0  0  0  0
 20 49  1  0  0  0  0
 21 22  1  0  0  0  0
 21 23  1  0  0  0  0
 21 50  1  0  0  0  0
 22 51  1  0  0  0  0
 23 27  1  0  0  0  0
 23 24  1  0  0  0  0
 23 52  1  0  0  0  0
 24 25  1  0  0  0  0
 24 53  1  0  0  0  0
 24 54  1  0  0  0  0
 25 26  1  0  0  0  0
 25 55  1  0  0  0  0
 25 56  1  0  0  0  0
 26 27  1  0  0  0  0
 26 57  1  0  0  0  0
 26 58  1  0  0  0  0
 28 29  1  0  0  0  0
 28 59  1  0  0  0  0
 28 60  1  0  0  0  0
 29 61  1  0  0  0  0
 29 62  1  0  0  0  0
M  CHG  1   2   1
M  CHG  1   6   1
M  END
> <s_m_source_file>
AV-unprocessed.smi

> <i_m_source_file_index>
155

> <i_lp_mmshare_version>
43012

> <i_f3d_flags>
0

> <s_epik_input>
W0NIM11OKFtDSDNdKVtDSDJdW0NIMl1OMVtDSDJdW0NIMl1bQ0gyXU4oW0NIMl1bQ0gyXTEpYyhuW2NIXW4yKWMoYzIzKW5bY0hdbjNbQ0gyXVtDQEhdKFtPSF0pW0NAQEhdNFtDSDJdW0NIMl1bQ0gyXU80

> <s_epik_cmdline>
J2VwaWtfcHl0aG9uJywgJy1waCcsICc3LjAnLCAnLXRuJywgJzgnLCAnLW1hJywgJzIwMCcsICctbWV0YWxfYmluZGluZycsICctaW1hZScsICc8aW5maWxlLm1hZT4nLCAnLW9tYWUnLCAnPG91dGZpbGUubWFlPic=

> <r_lp_tautomer_probability>
1

> <r_epik_Ionization_Penalty>
3.0333

> <r_epik_Ionization_Penalty_Charging>
3.03317

> <r_epik_Ionization_Penalty_Neutral>
0.000131872

> <r_epik_State_Penalty>
1.99939

> <r_epik_Charging_Adjusted_Penalty>
5.03256

> <i_epik_Tot_Q>
2

> <i_epik_Tot_abs_Q>
2

> <r_epik_Metal_State_Penalty>
2.00021

> <b_epik_Metal_Only>
0

> <s_lp_Force_Field>
OPLS_2005

> <r_lp_Energy>
62.4537

> <b_lp_Chiralities_Consistent>
1

> <s_lp_Variant>
AV-unprocessed.smi:155-15

> <Gold.Version>
5.8.1

> <Gold.Id.Protein>
6NUR|6NUR_protein|mol2

> <Gold.PLP.Fitness>
48.4387

> <Gold.PLP.PLP>
-38.5033

> <Gold.PLP.part.hbond>
-4.0000

> <Gold.PLP.part.metal>
0.0000

> <Gold.PLP.part.buried>
3.3510

> <Gold.PLP.part.nonpolar>
-36.5509

> <Gold.PLP.part.repulsive>
0.2079

> <Gold.PLP.ligand.clash>
0.0000

> <Gold.PLP.ligand.torsion>
1.2227

> <Gold.PLP.Chemscore.Hbond>
3.9920

> <Gold.PLP.Chemscore.CHOScore>
0.0000

> <Gold.PLP.Chemscore.Metal>
0.0000

> <Gold.Chemscore.Hbonds>
donor molecule, donor type, donor heavy atom, donor atom, acceptor molecule, acceptor atom, score
      L1  H     2    63       P1  7948  2.00
      P1  H  7989  7998       L1    12  0.90
      P1  H  7997  8008       L1    14  0.99

> <Gold.PLP.Chemscore.Internal.Correction>
0.4047

> <Gold.Rescore>
     Score         DG    S(hbond)    S(metal)    S(lipo)     H(rot)  DE(clash)    DE(int)     intcor
      9.99     -13.40       1.88        0.00      74.21       2.75       0.23       3.17       ----

> <Gold.Chemscore.Fitness>
9.9934

> <Gold.Chemscore.DG>
-13.3987

> <Gold.Chemscore.ZeroCoef>
-5.4800

> <Gold.Chemscore.Hbond>
1.8786

> <Gold.Chemscore.Metal>
0.0000

> <Gold.Chemscore.Lipo>
74.2080

> <Gold.Chemscore.Internal_Hbond>
0.0000

> <Gold.Chemscore.DEClash>
0.2332

> <Gold.Chemscore.DEInternal>
3.1722

> <Gold.Chemscore.Rot>
2.7493

> <Gold.Chemscore.Internal.Correction>
   9.000000E+99

> <Gold.Chemscore.Hbonds>
donor molecule, donor type, donor heavy atom, donor atom, acceptor molecule, acceptor atom, score
      L1  H     2    63       P1  7948  1.00
      P1  H  7989  7998       L1    12  0.06
      P1  H  7997  8008       L1    14  0.83

> <Gold.Chemscore.Hbond.Weighted>
-6.2747

> <Gold.Chemscore.Metal.Weighted>
-0.0000

> <Gold.Chemscore.Lipo.Weighted>
-8.6823

> <Gold.Chemscore.Internal_Hbond.Weighted>
0.0000

> <Gold.Chemscore.DEClash.Weighted>
0.2332

> <Gold.Chemscore.DEInternal.Weighted>
3.1722

> <Gold.Chemscore.Rot.Weighted>
7.0383

> <Gold.Chemscore.Internal.Correction.Weighted>
   9.000000E+99

> <Gold.Protein.RotatedTorsions>
[ 6907 6896 6895 6894 ] final    1.25 input  -60.11 | X-H torsion
[ 7974 7965 7964 7962 ] final  129.13 input  175.53 | X-H torsion
[ 8008 7997 7996 7995 ] final  -68.83 input   59.86 | X-H torsion
[ 10167 10162 10161 10158 ] final  113.56 input  -65.29 | X-H torsion
[ 10718 10713 10712 10709 ] final  -43.46 input   66.30 | X-H torsion
[ 10763 10752 10751 10750 ] final   28.24 input  -60.55 | X-H torsion
[ 11005 11000 10999 10996 ] final -166.89 input  -57.11 | X-H torsion

> <Gold.Protein.ActiveResidues>
 VAL166  LYS551  ARG553  GLY616  TRP617  ASP618  TYR619  PRO620  LYS621  CYS622 
 ASP623  PHE694  ASN695  SER759  ASP760  ASP761  ALA762  ILE779  LEU786  VAL792 
 PHE793  MET794  SER795  GLU796  ALA797  LYS798  CYS799  TRP800  GLU811  SER814 

> <Gold.Protein.RotatedAtoms>
  151.5896  135.1054  160.0035 H   0  0  0  0  0  0  0  0  0  0  0  0  # atno 6907 bound_to 6896
  152.4313  133.7278  159.6581 H   0  0  0  0  0  0  0  0  0  0  0  0  # atno 6908 bound_to 6896
  150.8206  133.8189  159.3163 H   0  0  0  0  0  0  0  0  0  0  0  0  # atno 6909 bound_to 6896
  145.0320  139.4037  143.5145 H   0  0  0  0  0  0  0  0  0  0  0  0  # atno 7974 bound_to 7965
  154.4895  140.0865  156.7563 H   0  0  0  0  0  0  0  0  0  0  0  0  # atno 8008 bound_to 7997
  155.4265  140.3448  155.4258 H   0  0  0  0  0  0  0  0  0  0  0  0  # atno 8009 bound_to 7997
  156.1310  140.1501  156.9053 H   0  0  0  0  0  0  0  0  0  0  0  0  # atno 8010 bound_to 7997
  139.6452  144.7126  151.2157 H   0  0  0  0  0  0  0  0  0  0  0  0  # atno 10167 bound_to 10162
  156.2487  130.4186  149.8674 H   0  0  0  0  0  0  0  0  0  0  0  0  # atno 10718 bound_to 10713
  153.0504  135.6518  154.0708 H   0  0  0  0  0  0  0  0  0  0  0  0  # atno 10763 bound_to 10752
  154.0397  135.2904  155.3358 H   0  0  0  0  0  0  0  0  0  0  0  0  # atno 10764 bound_to 10752
  154.6789  135.5327  153.8303 H   0  0  0  0  0  0  0  0  0  0  0  0  # atno 10765 bound_to 10752
  140.5594  134.5348  157.5140 H   0  0  0  0  0  0  0  0  0  0  0  0  # atno 11005 bound_to 11000
  146.3499  139.9876  142.8689 LP  0  0  0  0  0  0  0  0  0  0  0  0  # atno 17320 bound_to 7965
  145.1758  140.9743  143.4295 LP  0  0  0  0  0  0  0  0  0  0  0  0  # atno 17321 bound_to 7965
  140.7511  143.6243  150.8483 LP  0  0  0  0  0  0  0  0  0  0  0  0  # atno 17342 bound_to 10162
  139.9885  143.5873  152.2918 LP  0  0  0  0  0  0  0  0  0  0  0  0  # atno 17343 bound_to 10162
  156.6230  130.8634  151.3479 LP  0  0  0  0  0  0  0  0  0  0  0  0  # atno 17370 bound_to 10713
  157.7206  130.9553  150.1423 LP  0  0  0  0  0  0  0  0  0  0  0  0  # atno 17371 bound_to 10713
  139.9415  134.7778  156.0666 LP  0  0  0  0  0  0  0  0  0  0  0  0  # atno 17394 bound_to 11000
  141.1124  133.6639  156.3010 LP  0  0  0  0  0  0  0  0  0  0  0  0  # atno 17395 bound_to 11000

$$$$
