AV-unprocessed.smi:2219|AV-procd|sdf|8977|dock5
  -GOLD-   2272012193D 1   1.00000     0.00000
 Structure written by MMmdl.
 37 38  0  0  0  0  0  0  0  0  1 V2000
  145.6094  138.9259  153.3556 O   0  0  0  0  0  0  0  0  0  0  0  0
  146.4911  138.2540  152.8197 C   0  0  0  0  0  0  0  0  0  0  0  0
  146.2445  137.1694  152.0705 N   0  0  0  0  0  0  0  0  0  0  0  0
  144.9228  136.6237  151.7640 C   0  0  0  0  0  0  0  0  0  0  0  0
  144.9781  135.2795  150.9958 C   0  0  0  0  0  0  0  0  0  0  0  0
  144.8732  135.5926  149.6181 O   0  0  0  0  0  0  0  0  0  0  0  0
  146.2872  134.4864  151.2421 C   0  0  0  0  0  0  0  0  0  0  0  0
  146.2794  133.0907  150.5927 C   0  0  0  0  0  0  0  0  0  0  0  0
  145.0554  132.2739  151.0275 C   0  0  0  0  0  0  0  0  0  0  0  0
  143.7561  133.0277  150.7139 C   0  0  0  0  0  0  0  0  0  0  0  0
  143.7471  134.4194  151.3712 C   0  0  0  0  0  0  0  0  0  0  0  0
  147.8115  138.4935  152.9050 N   0  0  0  0  0  0  0  0  0  0  0  0
  148.4716  139.5410  153.6014 C   0  0  0  0  0  0  0  0  0  0  0  0
  149.7336  139.1995  154.1389 C   0  0  0  0  0  0  0  0  0  0  0  0
  150.4709  140.1686  154.8473 C   0  0  0  0  0  0  0  0  0  0  0  0
  149.9241  141.4549  155.0001 C   0  0  0  0  0  0  0  0  0  0  0  0
  150.5952  142.4190  155.6736 F   0  0  0  0  0  0  0  0  0  0  0  0
  148.6616  141.7136  154.4356 C   0  0  0  0  0  0  0  0  0  0  0  0
  147.9544  140.7859  153.7557 N   0  0  0  0  0  0  0  0  0  0  0  0
  147.0328  136.6743  151.6801 H   0  0  0  0  0  0  0  0  0  0  0  0
  144.3515  136.4977  152.6852 H   0  0  0  0  0  0  0  0  0  0  0  0
  144.3767  137.3673  151.1820 H   0  0  0  0  0  0  0  0  0  0  0  0
  145.5409  135.1129  149.1522 H   0  0  0  0  0  0  0  0  0  0  0  0
  147.1499  135.0417  150.8729 H   0  0  0  0  0  0  0  0  0  0  0  0
  146.4375  134.3719  152.3166 H   0  0  0  0  0  0  0  0  0  0  0  0
  146.2865  133.1887  149.5065 H   0  0  0  0  0  0  0  0  0  0  0  0
  147.1922  132.5565  150.8574 H   0  0  0  0  0  0  0  0  0  0  0  0
  145.0555  131.3059  150.5254 H   0  0  0  0  0  0  0  0  0  0  0  0
  145.1120  132.0687  152.0973 H   0  0  0  0  0  0  0  0  0  0  0  0
  143.6387  133.1251  149.6340 H   0  0  0  0  0  0  0  0  0  0  0  0
  142.9004  132.4491  151.0630 H   0  0  0  0  0  0  0  0  0  0  0  0
  143.7193  134.2877  152.4538 H   0  0  0  0  0  0  0  0  0  0  0  0
  142.8260  134.9419  151.1096 H   0  0  0  0  0  0  0  0  0  0  0  0
  148.4146  137.8530  152.4108 H   0  0  0  0  0  0  0  0  0  0  0  0
  150.1378  138.2057  154.0117 H   0  0  0  0  0  0  0  0  0  0  0  0
  151.4374  139.9282  155.2649 H   0  0  0  0  0  0  0  0  0  0  0  0
  148.2072  142.6884  154.5317 H   0  0  0  0  0  0  0  0  0  0  0  0
  1  2  2  0  0  0  0
  2  3  1  0  0  0  0
  2 12  1  0  0  0  0
  3  4  1  0  0  0  0
  3 20  1  0  0  0  0
  4  5  1  0  0  0  0
  4 21  1  0  0  0  0
  4 22  1  0  0  0  0
  5 11  1  0  0  0  0
  5  6  1  0  0  0  0
  5  7  1  0  0  0  0
  6 23  1  0  0  0  0
  7  8  1  0  0  0  0
  7 24  1  0  0  0  0
  7 25  1  0  0  0  0
  8  9  1  0  0  0  0
  8 26  1  0  0  0  0
  8 27  1  0  0  0  0
  9 10  1  0  0  0  0
  9 28  1  0  0  0  0
  9 29  1  0  0  0  0
 10 11  1  0  0  0  0
 10 30  1  0  0  0  0
 10 31  1  0  0  0  0
 11 32  1  0  0  0  0
 11 33  1  0  0  0  0
 12 13  1  0  0  0  0
 12 34  1  0  0  0  0
 13 19  1  0  0  0  0
 13 14  2  0  0  0  0
 14 15  1  0  0  0  0
 14 35  1  0  0  0  0
 15 16  2  0  0  0  0
 15 36  1  0  0  0  0
 16 17  1  0  0  0  0
 16 18  1  0  0  0  0
 18 19  2  0  0  0  0
 18 37  1  0  0  0  0
M  END
> <s_m_source_file>
AV-unprocessed.smi

> <i_m_source_file_index>
2219

> <i_lp_mmshare_version>
43012

> <i_f3d_flags>
0

> <s_epik_input>
bjFbY0hdYyhGKVtjSF1bY0hdYzFbTkhdQyg9TylbTkhdW0NIMl1DMihbT0hdKVtDSDJdW0NIMl1bQ0gyXVtDSDJdW0NIMl0y

> <s_epik_cmdline>
J2VwaWtfcHl0aG9uJywgJy1waCcsICc3LjAnLCAnLXRuJywgJzgnLCAnLW1hJywgJzIwMCcsICctbWV0YWxfYmluZGluZycsICctaW1hZScsICc8aW5maWxlLm1hZT4nLCAnLW9tYWUnLCAnPG91dGZpbGUubWFlPic=

> <r_lp_tautomer_probability>
1

> <r_epik_Ionization_Penalty>
4.27965e-05

> <r_epik_Ionization_Penalty_Charging>
0

> <r_epik_Ionization_Penalty_Neutral>
4.27965e-05

> <r_epik_State_Penalty>
-0

> <r_epik_Charging_Adjusted_Penalty>
0

> <i_epik_Tot_Q>
0

> <i_epik_Tot_abs_Q>
0

> <r_epik_Metal_State_Penalty>
-0

> <b_epik_Metal_Only>
0

> <s_lp_Force_Field>
OPLS_2005

> <r_lp_Energy>
17.1775

> <b_lp_Chiralities_Consistent>
1

> <s_lp_Variant>
AV-unprocessed.smi:2219-1

> <Gold.Version>
5.8.1

> <Gold.Id.Protein>
6NUR|6NUR_protein|mol2

> <Gold.PLP.Fitness>
47.7895

> <Gold.PLP.PLP>
-37.6224

> <Gold.PLP.part.hbond>
-4.4302

> <Gold.PLP.part.metal>
0.0000

> <Gold.PLP.part.buried>
-4.9073

> <Gold.PLP.part.nonpolar>
-29.7472

> <Gold.PLP.part.repulsive>
0.6667

> <Gold.PLP.ligand.clash>
0.0000

> <Gold.PLP.ligand.torsion>
0.9078

> <Gold.PLP.Chemscore.Hbond>
2.9920

> <Gold.PLP.Chemscore.CHOScore>
1.0000

> <Gold.PLP.Chemscore.Metal>
0.0000

> <Gold.Chemscore.Hbonds>
donor molecule, donor type, donor heavy atom, donor atom, acceptor molecule, acceptor atom, score
      L1  H     3    20       P1  7948  0.96
      L1  H     6    23       P1  7921  0.85
      L1  H    12    34       P1  7948  1.00
      L1  C    18    37       P1  8028  1.00

> <Gold.PLP.Chemscore.Internal.Correction>
0.0066

> <Gold.Rescore>
     Score         DG    S(hbond)    S(metal)    S(lipo)     H(rot)  DE(clash)    DE(int)     intcor
     16.90     -18.73       2.95        0.00      69.12       1.83       0.01       1.81       ----

> <Gold.Chemscore.Fitness>
16.9050

> <Gold.Chemscore.DG>
-18.7321

> <Gold.Chemscore.ZeroCoef>
-5.4800

> <Gold.Chemscore.Hbond>
2.9514

> <Gold.Chemscore.Metal>
0.0000

> <Gold.Chemscore.Lipo>
69.1223

> <Gold.Chemscore.Internal_Hbond>
0.0000

> <Gold.Chemscore.DEClash>
0.0134

> <Gold.Chemscore.DEInternal>
1.8137

> <Gold.Chemscore.Rot>
1.8332

> <Gold.Chemscore.Internal.Correction>
   9.000000E+99

> <Gold.Chemscore.Hbonds>
donor molecule, donor type, donor heavy atom, donor atom, acceptor molecule, acceptor atom, score
      L1  H     3    20       P1  7948  0.91
      L1  H     6    23       P1  7921  0.85
      L1  H    12    34       P1  7948  0.99

> <Gold.Chemscore.Hbond.Weighted>
-9.8578

> <Gold.Chemscore.Metal.Weighted>
-0.0000

> <Gold.Chemscore.Lipo.Weighted>
-8.0873

> <Gold.Chemscore.Internal_Hbond.Weighted>
0.0000

> <Gold.Chemscore.DEClash.Weighted>
0.0134

> <Gold.Chemscore.DEInternal.Weighted>
1.8137

> <Gold.Chemscore.Rot.Weighted>
4.6931

> <Gold.Chemscore.Internal.Correction.Weighted>
   9.000000E+99

> <Gold.Protein.RotatedTorsions>
[ 6907 6896 6895 6894 ] final  112.15 input  -60.11 | X-H torsion
[ 7974 7965 7964 7962 ] final  133.94 input  175.53 | X-H torsion
[ 8008 7997 7996 7995 ] final  158.12 input   59.86 | X-H torsion
[ 10167 10162 10161 10158 ] final  -11.39 input  -65.29 | X-H torsion
[ 10718 10713 10712 10709 ] final   97.29 input   66.30 | X-H torsion
[ 10763 10752 10751 10750 ] final  162.45 input  -60.55 | X-H torsion
[ 11005 11000 10999 10996 ] final -157.90 input  -57.11 | X-H torsion

> <Gold.Protein.ActiveResidues>
 VAL166  LYS551  ARG553  GLY616  TRP617  ASP618  TYR619  PRO620  LYS621  CYS622 
 ASP623  PHE694  ASN695  SER759  ASP760  ASP761  ALA762  ILE779  LEU786  VAL792 
 PHE793  MET794  SER795  GLU796  ALA797  LYS798  CYS799  TRP800  GLU811  SER814 

> <Gold.Protein.RotatedAtoms>
  152.4932  133.8556  159.7223 H   0  0  0  0  0  0  0  0  0  0  0  0  # atno 6907 bound_to 6896
  150.9082  133.7022  159.2868 H   0  0  0  0  0  0  0  0  0  0  0  0  # atno 6908 bound_to 6896
  151.4441  135.1027  159.9731 H   0  0  0  0  0  0  0  0  0  0  0  0  # atno 6909 bound_to 6896
  144.9814  139.4500  143.5384 H   0  0  0  0  0  0  0  0  0  0  0  0  # atno 7974 bound_to 7965
  156.2322  140.1867  156.7212 H   0  0  0  0  0  0  0  0  0  0  0  0  # atno 8008 bound_to 7997
  154.6043  140.0631  156.9438 H   0  0  0  0  0  0  0  0  0  0  0  0  # atno 8009 bound_to 7997
  155.2122  140.3301  155.4330 H   0  0  0  0  0  0  0  0  0  0  0  0  # atno 8010 bound_to 7997
  140.7137  143.5645  150.9159 H   0  0  0  0  0  0  0  0  0  0  0  0  # atno 10167 bound_to 10162
  157.6915  131.0605  150.4621 H   0  0  0  0  0  0  0  0  0  0  0  0  # atno 10718 bound_to 10713
  154.2785  135.2764  155.2707 H   0  0  0  0  0  0  0  0  0  0  0  0  # atno 10763 bound_to 10752
  154.5239  135.5749  153.6706 H   0  0  0  0  0  0  0  0  0  0  0  0  # atno 10764 bound_to 10752
  152.9933  135.6211  154.2944 H   0  0  0  0  0  0  0  0  0  0  0  0  # atno 10765 bound_to 10752
  140.6595  134.4364  157.5234 H   0  0  0  0  0  0  0  0  0  0  0  0  # atno 11005 bound_to 11000
  146.3409  139.9089  142.8783 LP  0  0  0  0  0  0  0  0  0  0  0  0  # atno 17320 bound_to 7965
  145.2415  141.0011  143.3933 LP  0  0  0  0  0  0  0  0  0  0  0  0  # atno 17321 bound_to 7965
  139.9371  143.6426  152.3063 LP  0  0  0  0  0  0  0  0  0  0  0  0  # atno 17342 bound_to 10162
  139.6897  144.7648  151.1461 LP  0  0  0  0  0  0  0  0  0  0  0  0  # atno 17343 bound_to 10162
  156.4964  130.4107  149.6377 LP  0  0  0  0  0  0  0  0  0  0  0  0  # atno 17370 bound_to 10713
  156.3368  130.7361  151.2300 LP  0  0  0  0  0  0  0  0  0  0  0  0  # atno 17371 bound_to 10713
  139.9018  134.8539  156.1866 LP  0  0  0  0  0  0  0  0  0  0  0  0  # atno 17394 bound_to 11000
  141.0476  133.6905  156.1711 LP  0  0  0  0  0  0  0  0  0  0  0  0  # atno 17395 bound_to 11000

$$$$
