AV-unprocessed.smi:1893|AV-procd|sdf|7673|dock3
  -GOLD-   22720 9413D 1   1.00000     0.00000
 Structure written by MMmdl.
 43 44  0  0  0  0  0  0  0  0  2 V2000
  144.3123  136.0236  153.3867 C   0  0  0  0  0  0  0  0  0  0  0  0
  145.7378  136.1318  152.8025 C   0  0  2  0  0  0  0  0  0  0  0  0
  145.7430  136.1076  151.2595 C   0  0  0  0  0  0  0  0  0  0  0  0
  145.4465  134.7071  150.7031 C   0  0  0  0  0  0  0  0  0  0  0  0
  146.4172  133.6851  151.3073 C   0  0  0  0  0  0  0  0  0  0  0  0
  146.3915  133.7329  152.8438 C   0  0  0  0  0  0  0  0  0  0  0  0
  146.6806  135.1059  153.3417 N   0  3  2  0  0  0  0  0  0  0  0  0
  146.8599  135.1776  154.8142 C   0  0  0  0  0  0  0  0  0  0  0  0
  148.3349  135.0278  155.2330 C   0  0  0  0  0  0  0  0  0  0  0  0
  149.1749  136.0122  154.5625 N   0  0  0  0  0  0  0  0  0  0  0  0
  149.9842  136.8827  155.1868 C   0  0  0  0  0  0  0  0  0  0  0  0
  150.1234  136.9085  156.4103 O   0  0  0  0  0  0  0  0  0  0  0  0
  150.7295  137.8829  154.2902 C   0  0  2  0  0  0  0  0  0  0  0  0
  152.2614  137.7886  154.4433 C   0  0  0  0  0  0  0  0  0  0  0  0
  150.2274  139.2307  154.5293 N   0  0  0  0  0  0  0  0  0  0  0  0
  149.3265  139.6646  155.4138 C   0  0  0  0  0  0  0  0  0  0  0  0
  149.1470  140.9779  155.4011 N   0  0  0  0  0  0  0  0  0  0  0  0
  150.0367  141.3200  154.4225 C   0  0  0  0  0  0  0  0  0  0  0  0
  150.7214  140.3140  153.8789 N   0  0  0  0  0  0  0  0  0  0  0  0
  143.6707  136.8054  152.9793 H   0  0  0  0  0  0  0  0  0  0  0  0
  144.3080  136.1444  154.4700 H   0  0  0  0  0  0  0  0  0  0  0  0
  143.8405  135.0684  153.1591 H   0  0  0  0  0  0  0  0  0  0  0  0
  146.1269  137.1071  153.0988 H   0  0  0  0  0  0  0  0  0  0  0  0
  145.0241  136.8272  150.8660 H   0  0  0  0  0  0  0  0  0  0  0  0
  146.7207  136.4315  150.8998 H   0  0  0  0  0  0  0  0  0  0  0  0
  144.4186  134.4218  150.9284 H   0  0  0  0  0  0  0  0  0  0  0  0
  145.5343  134.7099  149.6162 H   0  0  0  0  0  0  0  0  0  0  0  0
  146.1651  132.6821  150.9611 H   0  0  0  0  0  0  0  0  0  0  0  0
  147.4286  133.8890  150.9529 H   0  0  0  0  0  0  0  0  0  0  0  0
  145.4260  133.3919  153.2187 H   0  0  0  0  0  0  0  0  0  0  0  0
  147.1318  133.0306  153.2250 H   0  0  0  0  0  0  0  0  0  0  0  0
  146.5061  136.1449  155.1750 H   0  0  0  0  0  0  0  0  0  0  0  0
  146.2372  134.4222  155.2960 H   0  0  0  0  0  0  0  0  0  0  0  0
  148.4593  135.1243  156.3118 H   0  0  0  0  0  0  0  0  0  0  0  0
  148.6980  134.0348  154.9665 H   0  0  0  0  0  0  0  0  0  0  0  0
  149.1225  136.0505  153.5546 H   0  0  0  0  0  0  0  0  0  0  0  0
  150.4948  137.6348  153.2535 H   0  0  0  0  0  0  0  0  0  0  0  0
  152.6182  136.7857  154.2064 H   0  0  0  0  0  0  0  0  0  0  0  0
  152.5902  138.0242  155.4564 H   0  0  0  0  0  0  0  0  0  0  0  0
  152.7619  138.4806  153.7655 H   0  0  0  0  0  0  0  0  0  0  0  0
  148.7964  139.0063  156.0867 H   0  0  0  0  0  0  0  0  0  0  0  0
  150.1918  142.3417  154.1083 H   0  0  0  0  0  0  0  0  0  0  0  0
  147.5789  135.3536  152.9523 H   0  0  0  0  0  0  0  0  0  0  0  0
  1  2  1  0  0  0  0
  1 20  1  0  0  0  0
  1 21  1  0  0  0  0
  1 22  1  0  0  0  0
  2  7  1  0  0  0  0
  2  3  1  0  0  0  0
  2 23  1  0  0  0  0
  3  4  1  0  0  0  0
  3 24  1  0  0  0  0
  3 25  1  0  0  0  0
  4  5  1  0  0  0  0
  4 26  1  0  0  0  0
  4 27  1  0  0  0  0
  5  6  1  0  0  0  0
  5 28  1  0  0  0  0
  5 29  1  0  0  0  0
  6  7  1  0  0  0  0
  6 30  1  0  0  0  0
  6 31  1  0  0  0  0
  7  8  1  0  0  0  0
  7 43  1  0  0  0  0
  8  9  1  0  0  0  0
  8 32  1  0  0  0  0
  8 33  1  0  0  0  0
  9 10  1  0  0  0  0
  9 34  1  0  0  0  0
  9 35  1  0  0  0  0
 10 11  1  0  0  0  0
 10 36  1  0  0  0  0
 11 12  2  0  0  0  0
 11 13  1  0  0  0  0
 13 14  1  0  0  0  0
 13 15  1  0  0  0  0
 13 37  1  0  0  0  0
 14 38  1  0  0  0  0
 14 39  1  0  0  0  0
 14 40  1  0  0  0  0
 15 19  1  0  0  0  0
 15 16  1  0  0  0  0
 16 17  2  0  0  0  0
 16 41  1  0  0  0  0
 17 18  1  0  0  0  0
 18 19  2  0  0  0  0
 18 42  1  0  0  0  0
M  CHG  1   7   1
M  END
> <s_m_source_file>
AV-unprocessed.smi

> <i_m_source_file_index>
1893

> <i_lp_mmshare_version>
43012

> <i_f3d_flags>
0

> <s_epik_input>
W0NIM11bQ0BASF0xW0NIMl1bQ0gyXVtDSDJdW0NIMl1OMVtDSDJdW0NIMl1bTkhdQyg9TylbQ0BIXShbQ0gzXSluMltjSF1uW2NIXW4y

> <s_epik_cmdline>
J2VwaWtfcHl0aG9uJywgJy1waCcsICc3LjAnLCAnLXRuJywgJzgnLCAnLW1hJywgJzIwMCcsICctbWV0YWxfYmluZGluZycsICctaW1hZScsICc8aW5maWxlLm1hZT4nLCAnLW9tYWUnLCAnPG91dGZpbGUubWFlPic=

> <r_lp_tautomer_probability>
1

> <r_epik_Ionization_Penalty>
0.00266409

> <r_epik_Ionization_Penalty_Charging>
0.00265606

> <r_epik_Ionization_Penalty_Neutral>
8.02794e-06

> <r_epik_State_Penalty>
0.00184955

> <r_epik_Charging_Adjusted_Penalty>
0.00450561

> <i_epik_Tot_Q>
1

> <i_epik_Tot_abs_Q>
1

> <r_epik_Metal_State_Penalty>
-0

> <b_epik_Metal_Only>
0

> <s_lp_Force_Field>
OPLS_2005

> <r_lp_Energy>
25.3191

> <b_lp_Chiralities_Consistent>
1

> <s_lp_Variant>
AV-unprocessed.smi:1893-3

> <Gold.Version>
5.8.1

> <Gold.Id.Protein>
6NUR|6NUR_protein|mol2

> <Gold.PLP.Fitness>
42.0447

> <Gold.PLP.PLP>
-28.3327

> <Gold.PLP.part.hbond>
-2.7188

> <Gold.PLP.part.metal>
0.0000

> <Gold.PLP.part.buried>
-3.6803

> <Gold.PLP.part.nonpolar>
-21.5971

> <Gold.PLP.part.repulsive>
0.2136

> <Gold.PLP.ligand.clash>
0.0000

> <Gold.PLP.ligand.torsion>
0.6253

> <Gold.PLP.Chemscore.Hbond>
3.9280

> <Gold.PLP.Chemscore.CHOScore>
1.0000

> <Gold.PLP.Chemscore.Metal>
0.0000

> <Gold.Chemscore.Hbonds>
donor molecule, donor type, donor heavy atom, donor atom, acceptor molecule, acceptor atom, score
      L1  H     7    43       P1  7948  2.00
      L1  H    10    36       P1  7948  1.00

> <Gold.PLP.Chemscore.Internal.Correction>
0.1786

> <Gold.Rescore>
     Score         DG    S(hbond)    S(metal)    S(lipo)     H(rot)  DE(clash)    DE(int)     intcor
     13.53     -14.57       2.94        0.00      49.20       2.54       0.19       0.85       ----

> <Gold.Chemscore.Fitness>
13.5265

> <Gold.Chemscore.DG>
-14.5743

> <Gold.Chemscore.ZeroCoef>
-5.4800

> <Gold.Chemscore.Hbond>
2.9446

> <Gold.Chemscore.Metal>
0.0000

> <Gold.Chemscore.Lipo>
49.1956

> <Gold.Chemscore.Internal_Hbond>
0.0000

> <Gold.Chemscore.DEClash>
0.1942

> <Gold.Chemscore.DEInternal>
0.8536

> <Gold.Chemscore.Rot>
2.5377

> <Gold.Chemscore.Internal.Correction>
   9.000000E+99

> <Gold.Chemscore.Hbonds>
donor molecule, donor type, donor heavy atom, donor atom, acceptor molecule, acceptor atom, score
      L1  H     7    43       P1  7948  0.99
      L1  H    10    36       P1  7948  0.91
      P1  H  7989  7998       L1    19  0.02

> <Gold.Chemscore.Hbond.Weighted>
-9.8350

> <Gold.Chemscore.Metal.Weighted>
-0.0000

> <Gold.Chemscore.Lipo.Weighted>
-5.7559

> <Gold.Chemscore.Internal_Hbond.Weighted>
0.0000

> <Gold.Chemscore.DEClash.Weighted>
0.1942

> <Gold.Chemscore.DEInternal.Weighted>
0.8536

> <Gold.Chemscore.Rot.Weighted>
6.4966

> <Gold.Chemscore.Internal.Correction.Weighted>
   9.000000E+99

> <Gold.Protein.RotatedTorsions>
[ 6907 6896 6895 6894 ] final -177.11 input  -60.11 | X-H torsion
[ 7974 7965 7964 7962 ] final  145.73 input  175.53 | X-H torsion
[ 8008 7997 7996 7995 ] final    5.39 input   59.86 | X-H torsion
[ 10167 10162 10161 10158 ] final -103.37 input  -65.29 | X-H torsion
[ 10718 10713 10712 10709 ] final  150.77 input   66.30 | X-H torsion
[ 10763 10752 10751 10750 ] final   29.86 input  -60.55 | X-H torsion
[ 11005 11000 10999 10996 ] final  -43.80 input  -57.11 | X-H torsion

> <Gold.Protein.ActiveResidues>
 VAL166  LYS551  ARG553  GLY616  TRP617  ASP618  TYR619  PRO620  LYS621  CYS622 
 ASP623  PHE694  ASN695  SER759  ASP760  ASP761  ALA762  ILE779  LEU786  VAL792 
 PHE793  MET794  SER795  GLU796  ALA797  LYS798  CYS799  TRP800  GLU811  SER814 

> <Gold.Protein.RotatedAtoms>
  151.6157  133.3343  159.3076 H   0  0  0  0  0  0  0  0  0  0  0  0  # atno 6907 bound_to 6896
  150.8133  134.7304  159.6719 H   0  0  0  0  0  0  0  0  0  0  0  0  # atno 6908 bound_to 6896
  152.4229  134.5927  160.0030 H   0  0  0  0  0  0  0  0  0  0  0  0  # atno 6909 bound_to 6896
  144.8729  139.5818  143.5878 H   0  0  0  0  0  0  0  0  0  0  0  0  # atno 7974 bound_to 7965
  154.7278  140.2724  155.6483 H   0  0  0  0  0  0  0  0  0  0  0  0  # atno 8008 bound_to 7997
  156.2841  140.2722  156.1894 H   0  0  0  0  0  0  0  0  0  0  0  0  # atno 8009 bound_to 7997
  155.0422  140.0371  157.2503 H   0  0  0  0  0  0  0  0  0  0  0  0  # atno 8010 bound_to 7997
  140.2207  143.3678  152.0972 H   0  0  0  0  0  0  0  0  0  0  0  0  # atno 10167 bound_to 10162
  157.2792  131.0832  151.1544 H   0  0  0  0  0  0  0  0  0  0  0  0  # atno 10718 bound_to 10713
  153.0405  135.6478  154.0955 H   0  0  0  0  0  0  0  0  0  0  0  0  # atno 10763 bound_to 10752
  154.0663  135.2884  155.3317 H   0  0  0  0  0  0  0  0  0  0  0  0  # atno 10764 bound_to 10752
  154.6624  135.5386  153.8100 H   0  0  0  0  0  0  0  0  0  0  0  0  # atno 10765 bound_to 10752
  141.0408  133.6781  156.2783 H   0  0  0  0  0  0  0  0  0  0  0  0  # atno 11005 bound_to 11000
  146.2942  139.7230  142.9138 LP  0  0  0  0  0  0  0  0  0  0  0  0  # atno 17320 bound_to 7965
  145.4097  141.0395  143.3024 LP  0  0  0  0  0  0  0  0  0  0  0  0  # atno 17321 bound_to 7965
  139.5145  144.6949  151.5658 LP  0  0  0  0  0  0  0  0  0  0  0  0  # atno 17342 bound_to 10162
  140.6257  143.9173  150.6562 LP  0  0  0  0  0  0  0  0  0  0  0  0  # atno 17343 bound_to 10162
  157.2984  130.6831  149.6151 LP  0  0  0  0  0  0  0  0  0  0  0  0  # atno 17370 bound_to 10713
  155.9664  130.4399  150.5279 LP  0  0  0  0  0  0  0  0  0  0  0  0  # atno 17371 bound_to 10713
  140.6238  134.5334  157.5551 LP  0  0  0  0  0  0  0  0  0  0  0  0  # atno 17394 bound_to 11000
  139.9274  134.8029  156.1028 LP  0  0  0  0  0  0  0  0  0  0  0  0  # atno 17395 bound_to 11000

$$$$
