AV-unprocessed.smi:1578|AV-procd|sdf|6350|dock3
  -GOLD-   22720 6573D 1   1.00000     0.00000
 Structure written by MMmdl.
 44 45  0  0  0  0  0  0  0  0  1 V2000
  145.0518  141.6857  156.1896 C   0  0  0  0  0  0  0  0  0  0  0  0
  145.8656  142.8529  155.6071 C   0  0  2  0  0  0  0  0  0  0  0  0
  145.1575  143.4721  154.3819 C   0  0  0  0  0  0  0  0  0  0  0  0
  144.1672  144.5105  154.6758 N   0  0  0  0  0  0  0  0  0  0  0  0
  144.4918  145.2858  155.8720 C   0  0  0  0  0  0  0  0  0  0  0  0
  143.4683  146.4028  156.1373 C   0  0  0  0  0  0  0  0  0  0  0  0
  143.3689  147.2450  154.9941 O   0  0  0  0  0  0  0  0  0  0  0  0
  142.9935  146.5307  153.8217 C   0  0  0  0  0  0  0  0  0  0  0  0
  144.0241  145.4227  153.5454 C   0  0  0  0  0  0  0  0  0  0  0  0
  147.1867  142.3717  155.2148 N   0  0  0  0  0  0  0  0  0  0  0  0
  148.0769  141.7644  156.0180 C   0  0  0  0  0  0  0  0  0  0  0  0
  147.8369  141.4891  157.1926 O   0  0  0  0  0  0  0  0  0  0  0  0
  149.4585  141.4214  155.4344 C   0  0  0  0  0  0  0  0  0  0  0  0
  150.5438  141.3441  156.4298 N   0  0  0  0  0  0  0  0  0  0  0  0
  150.8965  142.5386  157.0885 C   0  0  0  0  0  0  0  0  0  0  0  0
  151.8464  142.5970  158.0414 C   0  0  0  0  0  0  0  0  0  0  0  0
  152.2370  143.9104  158.7010 C   0  0  0  0  0  0  0  0  0  0  0  0
  153.1886  143.7246  159.6160 F   0  0  0  0  0  0  0  0  0  0  0  0
  152.6860  144.7859  157.8009 F   0  0  0  0  0  0  0  0  0  0  0  0
  151.1772  144.4448  159.3062 F   0  0  0  0  0  0  0  0  0  0  0  0
  152.5334  141.3568  158.3446 C   0  0  0  0  0  0  0  0  0  0  0  0
  152.2141  140.2074  157.7185 C   0  0  0  0  0  0  0  0  0  0  0  0
  151.1605  140.1548  156.7028 C   0  0  0  0  0  0  0  0  0  0  0  0
  150.8460  139.1064  156.1393 O   0  0  0  0  0  0  0  0  0  0  0  0
  144.0630  142.0173  156.5078 H   0  0  0  0  0  0  0  0  0  0  0  0
  145.5444  141.2537  157.0613 H   0  0  0  0  0  0  0  0  0  0  0  0
  144.9161  140.8906  155.4556 H   0  0  0  0  0  0  0  0  0  0  0  0
  145.9629  143.6166  156.3813 H   0  0  0  0  0  0  0  0  0  0  0  0
  145.8945  143.8429  153.6673 H   0  0  0  0  0  0  0  0  0  0  0  0
  144.6389  142.6636  153.8646 H   0  0  0  0  0  0  0  0  0  0  0  0
  144.5177  144.6368  156.7461 H   0  0  0  0  0  0  0  0  0  0  0  0
  145.4865  145.7228  155.7720 H   0  0  0  0  0  0  0  0  0  0  0  0
  142.4899  145.9815  156.3735 H   0  0  0  0  0  0  0  0  0  0  0  0
  143.7755  147.0004  156.9958 H   0  0  0  0  0  0  0  0  0  0  0  0
  141.9947  146.1092  153.9464 H   0  0  0  0  0  0  0  0  0  0  0  0
  142.9469  147.2237  152.9816 H   0  0  0  0  0  0  0  0  0  0  0  0
  144.9879  145.8799  153.3155 H   0  0  0  0  0  0  0  0  0  0  0  0
  143.7233  144.8670  152.6566 H   0  0  0  0  0  0  0  0  0  0  0  0
  147.4656  142.5549  154.2620 H   0  0  0  0  0  0  0  0  0  0  0  0
  149.3807  140.4804  154.8868 H   0  0  0  0  0  0  0  0  0  0  0  0
  149.6961  142.1673  154.6749 H   0  0  0  0  0  0  0  0  0  0  0  0
  150.3374  143.4075  156.7723 H   0  0  0  0  0  0  0  0  0  0  0  0
  153.3150  141.3473  159.0899 H   0  0  0  0  0  0  0  0  0  0  0  0
  152.7450  139.3014  157.9715 H   0  0  0  0  0  0  0  0  0  0  0  0
  1  2  1  0  0  0  0
  1 25  1  0  0  0  0
  1 26  1  0  0  0  0
  1 27  1  0  0  0  0
  2  3  1  0  0  0  0
  2 10  1  0  0  0  0
  2 28  1  0  0  0  0
  3  4  1  0  0  0  0
  3 29  1  0  0  0  0
  3 30  1  0  0  0  0
  4  9  1  0  0  0  0
  4  5  1  0  0  0  0
  5  6  1  0  0  0  0
  5 31  1  0  0  0  0
  5 32  1  0  0  0  0
  6  7  1  0  0  0  0
  6 33  1  0  0  0  0
  6 34  1  0  0  0  0
  7  8  1  0  0  0  0
  8  9  1  0  0  0  0
  8 35  1  0  0  0  0
  8 36  1  0  0  0  0
  9 37  1  0  0  0  0
  9 38  1  0  0  0  0
 10 11  1  0  0  0  0
 10 39  1  0  0  0  0
 11 12  2  0  0  0  0
 11 13  1  0  0  0  0
 13 14  1  0  0  0  0
 13 40  1  0  0  0  0
 13 41  1  0  0  0  0
 14 23  1  0  0  0  0
 14 15  1  0  0  0  0
 15 16  2  0  0  0  0
 15 42  1  0  0  0  0
 16 17  1  0  0  0  0
 16 21  1  0  0  0  0
 17 18  1  0  0  0  0
 17 19  1  0  0  0  0
 17 20  1  0  0  0  0
 21 22  2  0  0  0  0
 21 43  1  0  0  0  0
 22 23  1  0  0  0  0
 22 44  1  0  0  0  0
 23 24  2  0  0  0  0
M  END
> <s_m_source_file>
AV-unprocessed.smi

> <i_m_source_file_index>
1578

> <i_lp_mmshare_version>
43012

> <i_f3d_flags>
0

> <s_epik_input>
W0NIMl0xW0NIMl1PW0NIMl1bQ0gyXU4xW0NIMl1bQ0BASF0oW0NIM10pW05IXUMoPU8pW0NIMl1uMltjSF1jKEMoRikoRilGKVtjSF1bY0hdYzI9Tw==

> <s_epik_cmdline>
J2VwaWtfcHl0aG9uJywgJy1waCcsICc3LjAnLCAnLXRuJywgJzgnLCAnLW1hJywgJzIwMCcsICctbWV0YWxfYmluZGluZycsICctaW1hZScsICc8aW5maWxlLm1hZT4nLCAnLW9tYWUnLCAnPG91dGZpbGUubWFlPic=

> <r_lp_tautomer_probability>
1

> <r_epik_Ionization_Penalty>
0.237382

> <r_epik_Ionization_Penalty_Charging>
1.80451e-08

> <r_epik_Ionization_Penalty_Neutral>
0.237382

> <r_epik_State_Penalty>
0.228245

> <r_epik_Charging_Adjusted_Penalty>
0.228245

> <i_epik_Tot_Q>
0

> <i_epik_Tot_abs_Q>
0

> <r_epik_Metal_State_Penalty>
0.228219

> <b_epik_Metal_Only>
0

> <s_lp_Force_Field>
OPLS_2005

> <r_lp_Energy>
37.3685

> <b_lp_Chiralities_Consistent>
1

> <s_lp_Variant>
AV-unprocessed.smi:1578-1

> <Gold.Version>
5.8.1

> <Gold.Id.Protein>
6NUR|6NUR_protein|mol2

> <Gold.PLP.Fitness>
47.5475

> <Gold.PLP.PLP>
-46.5359

> <Gold.PLP.part.hbond>
-1.9514

> <Gold.PLP.part.metal>
0.0000

> <Gold.PLP.part.buried>
-5.7722

> <Gold.PLP.part.nonpolar>
-39.3795

> <Gold.PLP.part.repulsive>
0.2741

> <Gold.PLP.ligand.clash>
0.0000

> <Gold.PLP.ligand.torsion>
1.0639

> <Gold.PLP.Chemscore.Hbond>
0.0000

> <Gold.PLP.Chemscore.CHOScore>
1.0000

> <Gold.PLP.Chemscore.Metal>
0.0000

> <Gold.Chemscore.Hbonds>
donor molecule, donor type, donor heavy atom, donor atom, acceptor molecule, acceptor atom, score
      L1  C    15    42       P1  8028  1.00

> <Gold.PLP.Chemscore.Internal.Correction>
0.1394

> <Gold.Rescore>
     Score         DG    S(hbond)    S(metal)    S(lipo)     H(rot)  DE(clash)    DE(int)     intcor
      8.57     -10.47       0.00        0.00      88.45       2.09       0.18       1.73       ----

> <Gold.Chemscore.Fitness>
8.5688

> <Gold.Chemscore.DG>
-10.4724

> <Gold.Chemscore.ZeroCoef>
-5.4800

> <Gold.Chemscore.Hbond>
0.0000

> <Gold.Chemscore.Metal>
0.0000

> <Gold.Chemscore.Lipo>
88.4537

> <Gold.Chemscore.Internal_Hbond>
0.0000

> <Gold.Chemscore.DEClash>
0.1782

> <Gold.Chemscore.DEInternal>
1.7254

> <Gold.Chemscore.Rot>
2.0924

> <Gold.Chemscore.Internal.Correction>
   9.000000E+99

> <Gold.Chemscore.Hbond.Weighted>
-0.0000

> <Gold.Chemscore.Metal.Weighted>
-0.0000

> <Gold.Chemscore.Lipo.Weighted>
-10.3491

> <Gold.Chemscore.Internal_Hbond.Weighted>
0.0000

> <Gold.Chemscore.DEClash.Weighted>
0.1782

> <Gold.Chemscore.DEInternal.Weighted>
1.7254

> <Gold.Chemscore.Rot.Weighted>
5.3566

> <Gold.Chemscore.Internal.Correction.Weighted>
   9.000000E+99

> <Gold.Protein.RotatedTorsions>
[ 6907 6896 6895 6894 ] final -123.87 input  -60.11 | X-H torsion
[ 7974 7965 7964 7962 ] final  163.21 input  175.53 | X-H torsion
[ 8008 7997 7996 7995 ] final   88.23 input   59.86 | X-H torsion
[ 10167 10162 10161 10158 ] final  -43.50 input  -65.29 | X-H torsion
[ 10718 10713 10712 10709 ] final  -62.36 input   66.30 | X-H torsion
[ 10763 10752 10751 10750 ] final  111.89 input  -60.55 | X-H torsion
[ 11005 11000 10999 10996 ] final  -92.23 input  -57.11 | X-H torsion

> <Gold.Protein.ActiveResidues>
 VAL166  LYS551  ARG553  GLY616  TRP617  ASP618  TYR619  PRO620  LYS621  CYS622 
 ASP623  PHE694  ASN695  SER759  ASP760  ASP761  ALA762  ILE779  LEU786  VAL792 
 PHE793  MET794  SER795  GLU796  ALA797  LYS798  CYS799  TRP800  GLU811  SER814 

> <Gold.Protein.RotatedAtoms>
  150.8712  133.7503  159.2960 H   0  0  0  0  0  0  0  0  0  0  0  0  # atno 6907 bound_to 6896
  151.5114  135.1063  159.9864 H   0  0  0  0  0  0  0  0  0  0  0  0  # atno 6908 bound_to 6896
  152.4696  133.7956  159.6981 H   0  0  0  0  0  0  0  0  0  0  0  0  # atno 6909 bound_to 6896
  144.7600  139.8150  143.6336 H   0  0  0  0  0  0  0  0  0  0  0  0  # atno 7974 bound_to 7965
  155.9852  140.3374  155.6701 H   0  0  0  0  0  0  0  0  0  0  0  0  # atno 8008 bound_to 7997
  155.6494  140.0704  157.2610 H   0  0  0  0  0  0  0  0  0  0  0  0  # atno 8009 bound_to 7997
  154.4203  140.1728  156.1646 H   0  0  0  0  0  0  0  0  0  0  0  0  # atno 8010 bound_to 7997
  140.6932  143.2980  151.3360 H   0  0  0  0  0  0  0  0  0  0  0  0  # atno 10167 bound_to 10162
  156.0860  130.4208  150.1124 H   0  0  0  0  0  0  0  0  0  0  0  0  # atno 10718 bound_to 10713
  153.4699  135.3703  155.2385 H   0  0  0  0  0  0  0  0  0  0  0  0  # atno 10763 bound_to 10752
  154.8757  135.3929  154.3824 H   0  0  0  0  0  0  0  0  0  0  0  0  # atno 10764 bound_to 10752
  153.4411  135.7084  153.6233 H   0  0  0  0  0  0  0  0  0  0  0  0  # atno 10765 bound_to 10752
  141.1527  133.7807  156.9990 H   0  0  0  0  0  0  0  0  0  0  0  0  # atno 11005 bound_to 11000
  146.1653  139.4783  142.9962 LP  0  0  0  0  0  0  0  0  0  0  0  0  # atno 17320 bound_to 7965
  145.6650  141.0231  143.1688 LP  0  0  0  0  0  0  0  0  0  0  0  0  # atno 17321 bound_to 7965
  139.6356  144.0636  152.2513 LP  0  0  0  0  0  0  0  0  0  0  0  0  # atno 17342 bound_to 10162
  140.0125  144.6213  150.7635 LP  0  0  0  0  0  0  0  0  0  0  0  0  # atno 17343 bound_to 10162
  156.9145  130.9663  151.3558 LP  0  0  0  0  0  0  0  0  0  0  0  0  # atno 17370 bound_to 10713
  157.5994  130.8502  149.8779 LP  0  0  0  0  0  0  0  0  0  0  0  0  # atno 17371 bound_to 10713
  140.0952  134.9568  157.1838 LP  0  0  0  0  0  0  0  0  0  0  0  0  # atno 17394 bound_to 11000
  140.3392  134.2723  155.7215 LP  0  0  0  0  0  0  0  0  0  0  0  0  # atno 17395 bound_to 11000

$$$$
