AV-unprocessed.smi:2826|AV-procd|sdf|10894|dock10
  -GOLD-   2272015343D 1   1.00000     0.00000
 Structure written by MMmdl.
 50 51  0  0  0  0  0  0  0  0  1 V2000
  150.5979  128.6157  155.1987 C   0  0  0  0  0  0  0  0  0  0  0  0
  149.5643  129.2665  154.4680 O   0  0  0  0  0  0  0  0  0  0  0  0
  149.5291  130.6458  154.4713 C   0  0  0  0  0  0  0  0  0  0  0  0
  150.2838  131.3375  155.4380 C   0  0  0  0  0  0  0  0  0  0  0  0
  150.2529  132.7443  155.4456 C   0  0  0  0  0  0  0  0  0  0  0  0
  149.4738  133.4222  154.4775 C   0  0  0  0  0  0  0  0  0  0  0  0
  149.3648  134.8401  154.4221 N   0  0  0  0  0  0  0  0  0  0  0  0
  150.2280  135.7590  154.8875 C   0  0  0  0  0  0  0  0  0  0  0  0
  151.3000  135.5116  155.4396 O   0  0  0  0  0  0  0  0  0  0  0  0
  149.7866  137.0030  154.6530 N   0  0  0  0  0  0  0  0  0  0  0  0
  150.4968  138.2267  155.0136 C   0  0  2  0  0  0  0  0  0  0  0  0
  151.8469  138.2845  154.2854 C   0  0  0  0  0  0  0  0  0  0  0  0
  152.6663  139.4929  154.7642 C   0  0  0  0  0  0  0  0  0  0  0  0
  152.8345  139.4360  156.1766 O   0  0  0  0  0  0  0  0  0  0  0  0
  151.6058  139.5141  156.8956 C   0  0  2  0  0  0  0  0  0  0  0  0
  151.9197  139.5596  158.4026 C   0  0  0  0  0  0  0  0  0  0  0  0
  152.8872  140.6849  158.8301 C   0  0  0  0  0  0  0  0  0  0  0  0
  153.4489  140.4095  160.2334 C   0  0  0  0  0  0  0  0  0  0  0  0
  152.2336  142.0766  158.7815 C   0  0  0  0  0  0  0  0  0  0  0  0
  150.7348  138.2963  156.5318 C   0  0  0  0  0  0  0  0  0  0  0  0
  148.7380  132.6360  153.5581 C   0  0  0  0  0  0  0  0  0  0  0  0
  147.8582  133.2734  152.4969 C   0  0  0  0  0  0  0  0  0  0  0  0
  148.7671  131.2850  153.5504 N   0  0  0  0  0  0  0  0  0  0  0  0
  150.4843  127.5362  155.1003 H   0  0  0  0  0  0  0  0  0  0  0  0
  150.5487  128.8575  156.2613 H   0  0  0  0  0  0  0  0  0  0  0  0
  151.5846  128.8806  154.8161 H   0  0  0  0  0  0  0  0  0  0  0  0
  150.8726  130.7981  156.1652 H   0  0  0  0  0  0  0  0  0  0  0  0
  150.8133  133.2735  156.2005 H   0  0  0  0  0  0  0  0  0  0  0  0
  148.5731  135.1944  153.9055 H   0  0  0  0  0  0  0  0  0  0  0  0
  148.8973  137.1136  154.1885 H   0  0  0  0  0  0  0  0  0  0  0  0
  149.9051  139.0910  154.7051 H   0  0  0  0  0  0  0  0  0  0  0  0
  152.4124  137.3711  154.4765 H   0  0  0  0  0  0  0  0  0  0  0  0
  151.6951  138.3396  153.2069 H   0  0  0  0  0  0  0  0  0  0  0  0
  153.6491  139.4893  154.2927 H   0  0  0  0  0  0  0  0  0  0  0  0
  152.1822  140.4291  154.4819 H   0  0  0  0  0  0  0  0  0  0  0  0
  151.0748  140.4218  156.6069 H   0  0  0  0  0  0  0  0  0  0  0  0
  150.9892  139.6581  158.9634 H   0  0  0  0  0  0  0  0  0  0  0  0
  152.3419  138.5967  158.6934 H   0  0  0  0  0  0  0  0  0  0  0  0
  153.7342  140.6889  158.1431 H   0  0  0  0  0  0  0  0  0  0  0  0
  152.6558  140.3920  160.9814 H   0  0  0  0  0  0  0  0  0  0  0  0
  154.1672  141.1754  160.5273 H   0  0  0  0  0  0  0  0  0  0  0  0
  153.9631  139.4487  160.2706 H   0  0  0  0  0  0  0  0  0  0  0  0
  151.3459  142.1194  159.4131 H   0  0  0  0  0  0  0  0  0  0  0  0
  151.9378  142.3495  157.7691 H   0  0  0  0  0  0  0  0  0  0  0  0
  152.9245  142.8451  159.1293 H   0  0  0  0  0  0  0  0  0  0  0  0
  149.7818  138.3498  157.0597 H   0  0  0  0  0  0  0  0  0  0  0  0
  151.2274  137.3831  156.8696 H   0  0  0  0  0  0  0  0  0  0  0  0
  148.4448  133.9466  151.8711 H   0  0  0  0  0  0  0  0  0  0  0  0
  147.0565  133.8459  152.9636 H   0  0  0  0  0  0  0  0  0  0  0  0
  147.4038  132.5226  151.8486 H   0  0  0  0  0  0  0  0  0  0  0  0
  1  2  1  0  0  0  0
  1 24  1  0  0  0  0
  1 25  1  0  0  0  0
  1 26  1  0  0  0  0
  2  3  1  0  0  0  0
  3 23  1  0  0  0  0
  3  4  2  0  0  0  0
  4  5  1  0  0  0  0
  4 27  1  0  0  0  0
  5  6  2  0  0  0  0
  5 28  1  0  0  0  0
  6  7  1  0  0  0  0
  6 21  1  0  0  0  0
  7  8  1  0  0  0  0
  7 29  1  0  0  0  0
  8  9  2  0  0  0  0
  8 10  1  0  0  0  0
 10 11  1  0  0  0  0
 10 30  1  0  0  0  0
 11 20  1  0  0  0  0
 11 12  1  0  0  0  0
 11 31  1  0  0  0  0
 12 13  1  0  0  0  0
 12 32  1  0  0  0  0
 12 33  1  0  0  0  0
 13 14  1  0  0  0  0
 13 34  1  0  0  0  0
 13 35  1  0  0  0  0
 14 15  1  0  0  0  0
 15 16  1  0  0  0  0
 15 20  1  0  0  0  0
 15 36  1  0  0  0  0
 16 17  1  0  0  0  0
 16 37  1  0  0  0  0
 16 38  1  0  0  0  0
 17 18  1  0  0  0  0
 17 19  1  0  0  0  0
 17 39  1  0  0  0  0
 18 40  1  0  0  0  0
 18 41  1  0  0  0  0
 18 42  1  0  0  0  0
 19 43  1  0  0  0  0
 19 44  1  0  0  0  0
 19 45  1  0  0  0  0
 20 46  1  0  0  0  0
 20 47  1  0  0  0  0
 21 22  1  0  0  0  0
 21 23  2  0  0  0  0
 22 48  1  0  0  0  0
 22 49  1  0  0  0  0
 22 50  1  0  0  0  0
M  END
> <s_m_source_file>
AV-unprocessed.smi

> <i_m_source_file_index>
2826

> <i_lp_mmshare_version>
43012

> <i_f3d_flags>
0

> <s_epik_input>
W0NIM11PYzFbY0hdW2NIXWMoYyhuMSlbQ0gzXSlbTkhdQyg9TylbTkhdW0NAQEhdMltDSDJdW0NIMl1PW0NASF0oW0NIMl0yKVtDSDJdW0NIXShbQ0gzXSlbQ0gzXQ==

> <s_epik_cmdline>
J2VwaWtfcHl0aG9uJywgJy1waCcsICc3LjAnLCAnLXRuJywgJzgnLCAnLW1hJywgJzIwMCcsICctbWV0YWxfYmluZGluZycsICctaW1hZScsICc8aW5maWxlLm1hZT4nLCAnLW9tYWUnLCAnPG91dGZpbGUubWFlPic=

> <r_lp_tautomer_probability>
1

> <r_epik_Ionization_Penalty>
0.000249977

> <r_epik_Ionization_Penalty_Charging>
0

> <r_epik_Ionization_Penalty_Neutral>
0.000249977

> <r_epik_State_Penalty>
-0

> <r_epik_Charging_Adjusted_Penalty>
0

> <i_epik_Tot_Q>
0

> <i_epik_Tot_abs_Q>
0

> <r_epik_Metal_State_Penalty>
-0

> <b_epik_Metal_Only>
0

> <s_lp_Force_Field>
OPLS_2005

> <r_lp_Energy>
13.3689

> <b_lp_Chiralities_Consistent>
1

> <s_lp_Variant>
AV-unprocessed.smi:2826-3

> <Gold.Version>
5.8.1

> <Gold.Id.Protein>
6NUR|6NUR_protein|mol2

> <Gold.PLP.Fitness>
43.4101

> <Gold.PLP.PLP>
-38.2442

> <Gold.PLP.part.hbond>
-3.5714

> <Gold.PLP.part.metal>
0.0000

> <Gold.PLP.part.buried>
-2.6039

> <Gold.PLP.part.nonpolar>
-32.4166

> <Gold.PLP.part.repulsive>
0.3442

> <Gold.PLP.ligand.clash>
0.0000

> <Gold.PLP.ligand.torsion>
0.4283

> <Gold.PLP.Chemscore.Hbond>
2.0000

> <Gold.PLP.Chemscore.CHOScore>
0.0000

> <Gold.PLP.Chemscore.Metal>
0.0000

> <Gold.Chemscore.Hbonds>
donor molecule, donor type, donor heavy atom, donor atom, acceptor molecule, acceptor atom, score
      L1  H     7    29       P1  7948  0.11
      P1  H  7997  8009       L1    14  1.00
      P1  H 10752 10764       L1     9  1.00

> <Gold.PLP.Chemscore.Internal.Correction>
0.0223

> <Gold.Rescore>
     Score         DG    S(hbond)    S(metal)    S(lipo)     H(rot)  DE(clash)    DE(int)     intcor
     15.07     -19.17       1.94        0.00      94.53       1.51       1.48       2.62       ----

> <Gold.Chemscore.Fitness>
15.0654

> <Gold.Chemscore.DG>
-19.1677

> <Gold.Chemscore.ZeroCoef>
-5.4800

> <Gold.Chemscore.Hbond>
1.9408

> <Gold.Chemscore.Metal>
0.0000

> <Gold.Chemscore.Lipo>
94.5312

> <Gold.Chemscore.Internal_Hbond>
0.0000

> <Gold.Chemscore.DEClash>
1.4800

> <Gold.Chemscore.DEInternal>
2.6224

> <Gold.Chemscore.Rot>
1.5057

> <Gold.Chemscore.Internal.Correction>
   9.000000E+99

> <Gold.Chemscore.Hbonds>
donor molecule, donor type, donor heavy atom, donor atom, acceptor molecule, acceptor atom, score
      L1  H     7    29       P1  7948  0.11
      L1  H    10    30       P1  7948  0.01
      P1  H  7997  8009       L1    14  0.30
      P1  H 10752 10764       L1     9  0.99

> <Gold.Chemscore.Hbond.Weighted>
-6.4823

> <Gold.Chemscore.Metal.Weighted>
-0.0000

> <Gold.Chemscore.Lipo.Weighted>
-11.0602

> <Gold.Chemscore.Internal_Hbond.Weighted>
0.0000

> <Gold.Chemscore.DEClash.Weighted>
1.4800

> <Gold.Chemscore.DEInternal.Weighted>
2.6224

> <Gold.Chemscore.Rot.Weighted>
3.8547

> <Gold.Chemscore.Internal.Correction.Weighted>
   9.000000E+99

> <Gold.Protein.RotatedTorsions>
[ 6907 6896 6895 6894 ] final  149.70 input  -60.11 | X-H torsion
[ 7974 7965 7964 7962 ] final   85.51 input  175.53 | X-H torsion
[ 8008 7997 7996 7995 ] final -163.13 input   59.86 | X-H torsion
[ 10167 10162 10161 10158 ] final -115.00 input  -65.29 | X-H torsion
[ 10718 10713 10712 10709 ] final  -23.21 input   66.30 | X-H torsion
[ 10763 10752 10751 10750 ] final  -40.57 input  -60.55 | X-H torsion
[ 11005 11000 10999 10996 ] final  -22.15 input  -57.11 | X-H torsion

> <Gold.Protein.ActiveResidues>
 VAL166  LYS551  ARG553  GLY616  TRP617  ASP618  TYR619  PRO620  LYS621  CYS622 
 ASP623  PHE694  ASN695  SER759  ASP760  ASP761  ALA762  ILE779  LEU786  VAL792 
 PHE793  MET794  SER795  GLU796  ALA797  LYS798  CYS799  TRP800  GLU811  SER814 

> <Gold.Protein.RotatedAtoms>
  152.1245  133.4372  159.4690 H   0  0  0  0  0  0  0  0  0  0  0  0  # atno 6907 bound_to 6896
  150.6874  134.2495  159.4514 H   0  0  0  0  0  0  0  0  0  0  0  0  # atno 6908 bound_to 6896
  152.0374  134.9731  160.0624 H   0  0  0  0  0  0  0  0  0  0  0  0  # atno 6909 bound_to 6896
  145.5845  139.2329  143.2334 H   0  0  0  0  0  0  0  0  0  0  0  0  # atno 7974 bound_to 7965
  155.8169  140.0914  157.1871 H   0  0  0  0  0  0  0  0  0  0  0  0  # atno 8008 bound_to 7997
  154.3979  140.1444  156.3513 H   0  0  0  0  0  0  0  0  0  0  0  0  # atno 8009 bound_to 7997
  155.8307  140.3443  155.5573 H   0  0  0  0  0  0  0  0  0  0  0  0  # atno 8010 bound_to 7997
  140.0949  143.4666  152.1847 H   0  0  0  0  0  0  0  0  0  0  0  0  # atno 10167 bound_to 10162
  156.4941  130.4573  149.6738 H   0  0  0  0  0  0  0  0  0  0  0  0  # atno 10718 bound_to 10713
  153.9482  135.6753  153.4744 H   0  0  0  0  0  0  0  0  0  0  0  0  # atno 10763 bound_to 10752
  153.0897  135.4881  154.8663 H   0  0  0  0  0  0  0  0  0  0  0  0  # atno 10764 bound_to 10752
  154.7340  135.3145  154.8802 H   0  0  0  0  0  0  0  0  0  0  0  0  # atno 10765 bound_to 10752
  140.8629  133.7775  156.0096 H   0  0  0  0  0  0  0  0  0  0  0  0  # atno 11005 bound_to 11000
  146.1692  140.6671  142.9241 LP  0  0  0  0  0  0  0  0  0  0  0  0  # atno 17320 bound_to 7965
  144.7379  140.4860  143.6890 LP  0  0  0  0  0  0  0  0  0  0  0  0  # atno 17321 bound_to 7965
  139.5704  144.7459  151.3907 LP  0  0  0  0  0  0  0  0  0  0  0  0  # atno 17342 bound_to 10162
  140.7009  143.7634  150.7401 LP  0  0  0  0  0  0  0  0  0  0  0  0  # atno 17343 bound_to 10162
  156.3397  130.7375  151.2319 LP  0  0  0  0  0  0  0  0  0  0  0  0  # atno 17370 bound_to 10713
  157.7470  131.0407  150.4610 LP  0  0  0  0  0  0  0  0  0  0  0  0  # atno 17371 bound_to 10713
  140.8662  134.2781  157.5212 LP  0  0  0  0  0  0  0  0  0  0  0  0  # atno 17394 bound_to 11000
  139.8708  134.9544  156.4174 LP  0  0  0  0  0  0  0  0  0  0  0  0  # atno 17395 bound_to 11000

$$$$
