AV-unprocessed.smi:132|AV-procd|sdf|1164|dock7
  -GOLD-   2262018303D 1   1.00000     0.00000
 Structure written by MMmdl.
 41 44  0  0  0  0  0  0  0  0  1 V2000
  150.6993  139.3179  154.1844 O   0  0  0  0  0  0  0  0  0  0  0  0
  150.8865  139.9543  155.2228 C   0  0  0  0  0  0  0  0  0  0  0  0
  150.1237  141.1441  155.5847 C   0  0  0  0  0  0  0  0  0  0  0  0
  149.1815  141.6098  154.7475 F   0  0  0  0  0  0  0  0  0  0  0  0
  150.3502  141.7894  156.7492 C   0  0  0  0  0  0  0  0  0  0  0  0
  151.2984  141.3778  157.6695 N   0  0  0  0  0  0  0  0  0  0  0  0
  151.5046  142.1381  158.9586 C   0  0  1  0  0  0  0  0  0  0  0  0
  152.9769  142.5299  159.1291 C   0  0  0  0  0  0  0  0  0  0  0  0
  152.8592  143.9350  159.6789 C   0  0  0  0  0  0  0  0  0  0  0  0
  151.6159  144.4432  158.9601 C   0  0  0  0  0  0  0  0  0  0  0  0
  150.7479  143.3147  158.9241 O   0  0  0  0  0  0  0  0  0  0  0  0
  152.0979  140.2465  157.3953 C   0  0  0  0  0  0  0  0  0  0  0  0
  152.9550  139.8663  158.1960 O   0  0  0  0  0  0  0  0  0  0  0  0
  151.8677  139.5735  156.1709 N   0  0  0  0  0  0  0  0  0  0  0  0
  152.6534  138.3839  155.8802 C   0  0  0  0  0  0  0  0  0  0  0  0
  151.9555  137.1414  156.3457 C   0  0  0  0  0  0  0  0  0  0  0  0
  151.6592  136.8128  157.6038 N   0  0  0  0  0  0  0  0  0  0  0  0
  151.0230  135.5946  157.5327 N   0  0  0  0  0  0  0  0  0  0  0  0
  150.9800  135.2704  156.2359 C   0  0  0  0  0  0  0  0  0  0  0  0
  150.4161  134.0721  155.6173 C   0  0  0  0  0  0  0  0  0  0  0  0
  149.7459  134.1445  154.3745 C   0  0  0  0  0  0  0  0  0  0  0  0
  149.2068  132.9829  153.7877 C   0  0  0  0  0  0  0  0  0  0  0  0
  149.3294  131.7407  154.4392 C   0  0  0  0  0  0  0  0  0  0  0  0
  148.6689  130.3180  153.7199 Cl  0  0  0  0  0  0  0  0  0  0  0  0
  149.9915  131.6612  155.6790 C   0  0  0  0  0  0  0  0  0  0  0  0
  150.5325  132.8219  156.2653 C   0  0  0  0  0  0  0  0  0  0  0  0
  151.5484  136.2145  155.4388 O   0  0  0  0  0  0  0  0  0  0  0  0
  149.7586  142.6663  156.9616 H   0  0  0  0  0  0  0  0  0  0  0  0
  151.1204  141.5238  159.7736 H   0  0  0  0  0  0  0  0  0  0  0  0
  153.4966  141.8372  159.7917 H   0  0  0  0  0  0  0  0  0  0  0  0
  153.4780  142.5429  158.1600 H   0  0  0  0  0  0  0  0  0  0  0  0
  152.6855  143.9049  160.7553 H   0  0  0  0  0  0  0  0  0  0  0  0
  153.7424  144.5454  159.4891 H   0  0  0  0  0  0  0  0  0  0  0  0
  151.1512  145.2872  159.4703 H   0  0  0  0  0  0  0  0  0  0  0  0
  151.8607  144.7531  157.9437 H   0  0  0  0  0  0  0  0  0  0  0  0
  152.8306  138.3536  154.8037 H   0  0  0  0  0  0  0  0  0  0  0  0
  153.6350  138.4728  156.3463 H   0  0  0  0  0  0  0  0  0  0  0  0
  149.6426  135.0873  153.8574 H   0  0  0  0  0  0  0  0  0  0  0  0
  148.6994  133.0467  152.8363 H   0  0  0  0  0  0  0  0  0  0  0  0
  150.0858  130.7102  156.1824 H   0  0  0  0  0  0  0  0  0  0  0  0
  151.0368  132.7438  157.2173 H   0  0  0  0  0  0  0  0  0  0  0  0
  1  2  2  0  0  0  0
  2 14  1  0  0  0  0
  2  3  1  0  0  0  0
  3  4  1  0  0  0  0
  3  5  2  0  0  0  0
  5  6  1  0  0  0  0
  5 28  1  0  0  0  0
  6  7  1  0  0  0  0
  6 12  1  0  0  0  0
  7 11  1  0  0  0  0
  7  8  1  0  0  0  0
  7 29  1  0  0  0  0
  8  9  1  0  0  0  0
  8 30  1  0  0  0  0
  8 31  1  0  0  0  0
  9 10  1  0  0  0  0
  9 32  1  0  0  0  0
  9 33  1  0  0  0  0
 10 11  1  0  0  0  0
 10 34  1  0  0  0  0
 10 35  1  0  0  0  0
 12 13  2  0  0  0  0
 12 14  1  0  0  0  0
 14 15  1  0  0  0  0
 15 16  1  0  0  0  0
 15 36  1  0  0  0  0
 15 37  1  0  0  0  0
 16 27  1  0  0  0  0
 16 17  2  0  0  0  0
 17 18  1  0  0  0  0
 18 19  2  0  0  0  0
 19 20  1  0  0  0  0
 19 27  1  0  0  0  0
 20 26  1  0  0  0  0
 20 21  2  0  0  0  0
 21 22  1  0  0  0  0
 21 38  1  0  0  0  0
 22 23  2  0  0  0  0
 22 39  1  0  0  0  0
 23 24  1  0  0  0  0
 23 25  1  0  0  0  0
 25 26  2  0  0  0  0
 25 40  1  0  0  0  0
 26 41  1  0  0  0  0
M  END
> <s_m_source_file>
AV-unprocessed.smi

> <i_m_source_file_index>
132

> <i_lp_mmshare_version>
43012

> <i_f3d_flags>
0

> <s_epik_input>
TzFbQ0gyXVtDSDJdW0NIMl1bQ0BIXTFuKFtjSF1jKEYpYzI9TyljKD1PKW4yW0NIMl1jM25uYyhvMyktYzRbY0hdW2NIXWMoQ2wpW2NIXVtjSF00

> <s_epik_cmdline>
J2VwaWtfcHl0aG9uJywgJy1waCcsICc3LjAnLCAnLXRuJywgJzgnLCAnLW1hJywgJzIwMCcsICctbWV0YWxfYmluZGluZycsICctaW1hZScsICc8aW5maWxlLm1hZT4nLCAnLW9tYWUnLCAnPG91dGZpbGUubWFlPic=

> <r_lp_tautomer_probability>
1

> <r_epik_Ionization_Penalty>
2.5553e-09

> <r_epik_Ionization_Penalty_Charging>
2.54231e-09

> <r_epik_Ionization_Penalty_Neutral>
1.29923e-11

> <r_epik_State_Penalty>
-0

> <r_epik_Charging_Adjusted_Penalty>
2.54231e-09

> <i_epik_Tot_Q>
0

> <i_epik_Tot_abs_Q>
0

> <r_epik_Metal_State_Penalty>
-0

> <b_epik_Metal_Only>
0

> <s_epik_Chemistry_Notes>
This compound contains an acetal/aminal-like group ( X-CH(R)-Y where X, Y are N, S, or O) that may be acid/base labile, releasing an aldehyde.

> <s_lp_Force_Field>
OPLS_2005

> <r_lp_Energy>
32.8563

> <b_lp_Chiralities_Consistent>
1

> <s_lp_Variant>
AV-unprocessed.smi:132-2

> <Gold.Version>
5.8.1

> <Gold.Id.Protein>
6NUR|6NUR_protein|mol2

> <Gold.PLP.Fitness>
60.5371

> <Gold.PLP.PLP>
-53.1433

> <Gold.PLP.part.hbond>
-4.0000

> <Gold.PLP.part.metal>
0.0000

> <Gold.PLP.part.buried>
-4.0737

> <Gold.PLP.part.nonpolar>
-46.2481

> <Gold.PLP.part.repulsive>
0.3657

> <Gold.PLP.ligand.clash>
0.0000

> <Gold.PLP.ligand.torsion>
1.0341

> <Gold.PLP.Chemscore.Hbond>
2.1456

> <Gold.PLP.Chemscore.CHOScore>
1.0000

> <Gold.PLP.Chemscore.Metal>
0.0000

> <Gold.Chemscore.Hbonds>
donor molecule, donor type, donor heavy atom, donor atom, acceptor molecule, acceptor atom, score
      P1  H  6896  6907       L1    18  0.13
      P1  H  7997  8010       L1    13  1.00
      P1  H 10752 10763       L1    27  1.00
      L1  C     5    28       P1  8028  0.87

> <Gold.PLP.Chemscore.Internal.Correction>
0.0253

> <Gold.Rescore>
     Score         DG    S(hbond)    S(metal)    S(lipo)     H(rot)  DE(clash)    DE(int)     intcor
     15.28     -17.45       1.66        0.00      91.97       1.70       0.10       2.08       ----

> <Gold.Chemscore.Fitness>
15.2782

> <Gold.Chemscore.DG>
-17.4524

> <Gold.Chemscore.ZeroCoef>
-5.4800

> <Gold.Chemscore.Hbond>
1.6643

> <Gold.Chemscore.Metal>
0.0000

> <Gold.Chemscore.Lipo>
91.9709

> <Gold.Chemscore.Internal_Hbond>
0.0000

> <Gold.Chemscore.DEClash>
0.0954

> <Gold.Chemscore.DEInternal>
2.0788

> <Gold.Chemscore.Rot>
1.6980

> <Gold.Chemscore.Internal.Correction>
   9.000000E+99

> <Gold.Chemscore.Hbonds>
donor molecule, donor type, donor heavy atom, donor atom, acceptor molecule, acceptor atom, score
      P1  H  6896  6907       L1    18  0.08
      P1  H  7997  8010       L1    13  0.24
      P1  H 10752 10763       L1    27  0.42

> <Gold.Chemscore.Hbond.Weighted>
-5.5587

> <Gold.Chemscore.Metal.Weighted>
-0.0000

> <Gold.Chemscore.Lipo.Weighted>
-10.7606

> <Gold.Chemscore.Internal_Hbond.Weighted>
0.0000

> <Gold.Chemscore.DEClash.Weighted>
0.0954

> <Gold.Chemscore.DEInternal.Weighted>
2.0788

> <Gold.Chemscore.Rot.Weighted>
4.3469

> <Gold.Chemscore.Internal.Correction.Weighted>
   9.000000E+99

> <Gold.Protein.RotatedTorsions>
[ 6907 6896 6895 6894 ] final  -51.48 input  -60.11 | X-H torsion
[ 7974 7965 7964 7962 ] final -146.13 input  175.53 | X-H torsion
[ 8008 7997 7996 7995 ] final   33.52 input   59.86 | X-H torsion
[ 10167 10162 10161 10158 ] final -123.78 input  -65.29 | X-H torsion
[ 10718 10713 10712 10709 ] final -152.60 input   66.30 | X-H torsion
[ 10763 10752 10751 10750 ] final   67.19 input  -60.55 | X-H torsion
[ 11005 11000 10999 10996 ] final  -10.02 input  -57.11 | X-H torsion

> <Gold.Protein.ActiveResidues>
 VAL166  LYS551  ARG553  GLY616  TRP617  ASP618  TYR619  PRO620  LYS621  CYS622 
 ASP623  PHE694  ASN695  SER759  ASP760  ASP761  ALA762  ILE779  LEU786  VAL792 
 PHE793  MET794  SER795  GLU796  ALA797  LYS798  CYS799  TRP800  GLU811  SER814 

> <Gold.Protein.RotatedAtoms>
  150.8607  134.7958  159.7080 H   0  0  0  0  0  0  0  0  0  0  0  0  # atno 6907 bound_to 6896
  152.4645  134.5105  159.9762 H   0  0  0  0  0  0  0  0  0  0  0  0  # atno 6908 bound_to 6896
  151.5209  133.3428  159.2937 H   0  0  0  0  0  0  0  0  0  0  0  0  # atno 6909 bound_to 6896
  144.8180  140.5495  143.5597 H   0  0  0  0  0  0  0  0  0  0  0  0  # atno 7974 bound_to 7965
  155.1399  140.3265  155.4454 H   0  0  0  0  0  0  0  0  0  0  0  0  # atno 8008 bound_to 7997
  156.2608  140.1995  156.6465 H   0  0  0  0  0  0  0  0  0  0  0  0  # atno 8009 bound_to 7997
  154.6550  140.0554  156.9985 H   0  0  0  0  0  0  0  0  0  0  0  0  # atno 8010 bound_to 7997
  139.9998  143.5553  152.2308 H   0  0  0  0  0  0  0  0  0  0  0  0  # atno 10167 bound_to 10162
  156.4747  130.8275  151.2503 H   0  0  0  0  0  0  0  0  0  0  0  0  # atno 10718 bound_to 10713
  153.0174  135.5293  154.6940 H   0  0  0  0  0  0  0  0  0  0  0  0  # atno 10763 bound_to 10752
  154.6067  135.2874  155.0479 H   0  0  0  0  0  0  0  0  0  0  0  0  # atno 10764 bound_to 10752
  154.1515  135.6562  153.5017 H   0  0  0  0  0  0  0  0  0  0  0  0  # atno 10765 bound_to 10752
  140.7404  133.8675  155.8963 H   0  0  0  0  0  0  0  0  0  0  0  0  # atno 11005 bound_to 11000
  145.5170  139.1477  143.3573 LP  0  0  0  0  0  0  0  0  0  0  0  0  # atno 17320 bound_to 7965
  146.2484  140.5311  142.8904 LP  0  0  0  0  0  0  0  0  0  0  0  0  # atno 17321 bound_to 7965
  139.6280  144.7640  151.2597 LP  0  0  0  0  0  0  0  0  0  0  0  0  # atno 17342 bound_to 10162
  140.7423  143.6530  150.8232 LP  0  0  0  0  0  0  0  0  0  0  0  0  # atno 17343 bound_to 10162
  157.7488  131.0065  150.3152 LP  0  0  0  0  0  0  0  0  0  0  0  0  # atno 17370 bound_to 10713
  156.3582  130.3842  149.7273 LP  0  0  0  0  0  0  0  0  0  0  0  0  # atno 17371 bound_to 10713
  140.9842  134.1365  157.4467 LP  0  0  0  0  0  0  0  0  0  0  0  0  # atno 17394 bound_to 11000
  139.8807  135.0020  156.6101 LP  0  0  0  0  0  0  0  0  0  0  0  0  # atno 17395 bound_to 11000

$$$$
