AV-unprocessed.smi:1208|AV-procd|sdf|5062|dock7
  -GOLD-   22720 4103D 1   1.00000     0.00000
 Structure written by MMmdl.
 35 36  0  0  0  0  0  0  0  0  2 V2000
  153.2798  137.2325  157.7483 C   0  0  0  0  0  0  0  0  0  0  0  0
  152.6125  138.5475  158.1757 C   0  0  1  0  0  0  0  0  0  0  0  0
  151.1722  138.3322  158.2905 N   0  0  0  0  0  0  0  0  0  0  0  0
  150.5755  137.3325  158.9583 C   0  0  0  0  0  0  0  0  0  0  0  0
  151.1853  136.5073  159.6392 O   0  0  0  0  0  0  0  0  0  0  0  0
  149.0506  137.2542  158.8308 C   0  0  0  0  0  0  0  0  0  0  0  0
  148.4883  136.2959  159.7905 N   0  0  0  0  0  0  0  0  0  0  0  0
  147.7977  136.9330  160.9096 N   0  5  0  0  0  0  0  0  0  0  0  0
  147.1423  136.1565  161.8121 C   0  0  0  0  0  0  0  0  0  0  0  0
  146.5069  136.6228  162.7549 O   0  0  0  0  0  0  0  0  0  0  0  0
  147.2077  134.7139  161.6478 C   0  0  0  0  0  0  0  0  0  0  0  0
  147.8836  134.1520  160.6263 C   0  0  0  0  0  0  0  0  0  0  0  0
  148.5768  134.9460  159.6188 C   0  0  0  0  0  0  0  0  0  0  0  0
  149.1846  134.4379  158.6768 O   0  0  0  0  0  0  0  0  0  0  0  0
  153.1787  139.0706  159.5132 C   0  0  2  0  0  0  0  0  0  0  0  0
  152.6591  140.4431  159.9503 C   0  0  0  0  0  0  0  0  0  0  0  0
  153.7605  140.9057  160.8746 C   0  0  0  0  0  0  0  0  0  0  0  0
  155.0040  140.3919  160.1552 C   0  0  0  0  0  0  0  0  0  0  0  0
  154.5932  139.2344  159.4309 O   0  0  0  0  0  0  0  0  0  0  0  0
  154.3550  137.3603  157.6210 H   0  0  0  0  0  0  0  0  0  0  0  0
  152.8776  136.8791  156.7984 H   0  0  0  0  0  0  0  0  0  0  0  0
  153.1242  136.4481  158.4898 H   0  0  0  0  0  0  0  0  0  0  0  0
  152.8156  139.2883  157.4004 H   0  0  0  0  0  0  0  0  0  0  0  0
  150.5791  138.9530  157.7589 H   0  0  0  0  0  0  0  0  0  0  0  0
  148.6308  138.2503  158.9806 H   0  0  0  0  0  0  0  0  0  0  0  0
  148.7738  136.9745  157.8123 H   0  0  0  0  0  0  0  0  0  0  0  0
  146.7062  134.0787  162.3630 H   0  0  0  0  0  0  0  0  0  0  0  0
  147.9072  133.0755  160.5450 H   0  0  0  0  0  0  0  0  0  0  0  0
  152.9763  138.3521  160.3096 H   0  0  0  0  0  0  0  0  0  0  0  0
  152.5824  141.1177  159.0962 H   0  0  0  0  0  0  0  0  0  0  0  0
  151.6842  140.3960  160.4376 H   0  0  0  0  0  0  0  0  0  0  0  0
  153.7698  141.9851  161.0279 H   0  0  0  0  0  0  0  0  0  0  0  0
  153.6589  140.4218  161.8469 H   0  0  0  0  0  0  0  0  0  0  0  0
  155.3657  141.1332  159.4418 H   0  0  0  0  0  0  0  0  0  0  0  0
  155.8160  140.1623  160.8456 H   0  0  0  0  0  0  0  0  0  0  0  0
  1  2  1  0  0  0  0
  1 20  1  0  0  0  0
  1 21  1  0  0  0  0
  1 22  1  0  0  0  0
  2  3  1  0  0  0  0
  2 15  1  0  0  0  0
  2 23  1  0  0  0  0
  3  4  1  0  0  0  0
  3 24  1  0  0  0  0
  4  5  2  0  0  0  0
  4  6  1  0  0  0  0
  6 25  1  0  0  0  0
  6 26  1  0  0  0  0
  6  7  1  0  0  0  0
  7  8  1  0  0  0  0
  7 13  1  0  0  0  0
  8  9  1  0  0  0  0
  9 10  2  0  0  0  0
  9 11  1  0  0  0  0
 11 27  1  0  0  0  0
 11 12  2  0  0  0  0
 12 28  1  0  0  0  0
 12 13  1  0  0  0  0
 13 14  2  0  0  0  0
 15 19  1  0  0  0  0
 15 16  1  0  0  0  0
 15 29  1  0  0  0  0
 16 17  1  0  0  0  0
 16 30  1  0  0  0  0
 16 31  1  0  0  0  0
 17 18  1  0  0  0  0
 17 32  1  0  0  0  0
 17 33  1  0  0  0  0
 18 19  1  0  0  0  0
 18 34  1  0  0  0  0
 18 35  1  0  0  0  0
M  CHG  1   8  -1
M  END
> <s_m_source_file>
AV-unprocessed.smi

> <i_m_source_file_index>
1208

> <i_lp_mmshare_version>
43012

> <i_f3d_flags>
0

> <s_epik_input>
TzFbQ0gyXVtDSDJdW0NIMl1bQ0BIXTFbQ0BIXShbQ0gzXSlbTkhdQyg9TylbQ0gyXW4yW25IXWMoPU8pW2NIXVtjSF1jMj1P

> <s_epik_cmdline>
J2VwaWtfcHl0aG9uJywgJy1waCcsICc3LjAnLCAnLXRuJywgJzgnLCAnLW1hJywgJzIwMCcsICctbWV0YWxfYmluZGluZycsICctaW1hZScsICc8aW5maWxlLm1hZT4nLCAnLW9tYWUnLCAnPG91dGZpbGUubWFlPic=

> <r_lp_tautomer_probability>
1

> <r_epik_Ionization_Penalty>
0.0975494

> <r_epik_Ionization_Penalty_Charging>
0.0975494

> <r_epik_Ionization_Penalty_Neutral>
2.30132e-08

> <r_epik_State_Penalty>
0.034345

> <r_epik_Charging_Adjusted_Penalty>
0.131894

> <i_epik_Tot_Q>
-1

> <i_epik_Tot_abs_Q>
1

> <r_epik_Metal_State_Penalty>
0.034345

> <b_epik_Metal_Only>
0

> <s_lp_Force_Field>
OPLS_2005

> <r_lp_Energy>
33.0818

> <b_lp_Chiralities_Consistent>
1

> <s_lp_Variant>
AV-unprocessed.smi:1208-2

> <Gold.Version>
5.8.1

> <Gold.Id.Protein>
6NUR|6NUR_protein|mol2

> <Gold.PLP.Fitness>
46.4538

> <Gold.PLP.PLP>
-28.1295

> <Gold.PLP.part.hbond>
-5.0000

> <Gold.PLP.part.metal>
0.0000

> <Gold.PLP.part.buried>
-3.0148

> <Gold.PLP.part.nonpolar>
-21.8795

> <Gold.PLP.part.repulsive>
0.0772

> <Gold.PLP.ligand.clash>
0.0000

> <Gold.PLP.ligand.torsion>
0.4309

> <Gold.PLP.Chemscore.Hbond>
6.3920

> <Gold.PLP.Chemscore.CHOScore>
0.0000

> <Gold.PLP.Chemscore.Metal>
0.0000

> <Gold.Chemscore.Hbonds>
donor molecule, donor type, donor heavy atom, donor atom, acceptor molecule, acceptor atom, score
      P1  H  6896  6907       L1     5  0.81
      P1  H  6896  6909       L1    14  1.00
      P1  H  6931  6943       L1     8  1.84
      P1  H  6934  6947       L1     8  1.14
      P1  H  7997  8010       L1    19  0.13

> <Gold.PLP.Chemscore.Internal.Correction>
0.0101

> <Gold.Rescore>
     Score         DG    S(hbond)    S(metal)    S(lipo)     H(rot)  DE(clash)    DE(int)     intcor
     16.54     -17.94       3.20        0.00      58.77       1.99       0.10       1.30       ----

> <Gold.Chemscore.Fitness>
16.5366

> <Gold.Chemscore.DG>
-17.9375

> <Gold.Chemscore.ZeroCoef>
-5.4800

> <Gold.Chemscore.Hbond>
3.1995

> <Gold.Chemscore.Metal>
0.0000

> <Gold.Chemscore.Lipo>
58.7672

> <Gold.Chemscore.Internal_Hbond>
0.0000

> <Gold.Chemscore.DEClash>
0.0960

> <Gold.Chemscore.DEInternal>
1.3049

> <Gold.Chemscore.Rot>
1.9940

> <Gold.Chemscore.Internal.Correction>
   9.000000E+99

> <Gold.Chemscore.Hbonds>
donor molecule, donor type, donor heavy atom, donor atom, acceptor molecule, acceptor atom, score
      P1  H  6896  6907       L1     5  0.74
      P1  H  6896  6909       L1    14  0.44
      P1  H  6931  6943       L1     8  0.49
      P1  H  6934  6947       L1     8  0.49
      P1  H  7997  8010       L1    19  0.01

> <Gold.Chemscore.Hbond.Weighted>
-10.6865

> <Gold.Chemscore.Metal.Weighted>
-0.0000

> <Gold.Chemscore.Lipo.Weighted>
-6.8758

> <Gold.Chemscore.Internal_Hbond.Weighted>
0.0000

> <Gold.Chemscore.DEClash.Weighted>
0.0960

> <Gold.Chemscore.DEInternal.Weighted>
1.3049

> <Gold.Chemscore.Rot.Weighted>
5.1047

> <Gold.Chemscore.Internal.Correction.Weighted>
   9.000000E+99

> <Gold.Protein.RotatedTorsions>
[ 6907 6896 6895 6894 ] final   11.72 input  -60.11 | X-H torsion
[ 7974 7965 7964 7962 ] final  -30.46 input  175.53 | X-H torsion
[ 8008 7997 7996 7995 ] final   20.99 input   59.86 | X-H torsion
[ 10167 10162 10161 10158 ] final -175.42 input  -65.29 | X-H torsion
[ 10718 10713 10712 10709 ] final -170.21 input   66.30 | X-H torsion
[ 10763 10752 10751 10750 ] final -133.30 input  -60.55 | X-H torsion
[ 11005 11000 10999 10996 ] final    1.28 input  -57.11 | X-H torsion

> <Gold.Protein.ActiveResidues>
 VAL166  LYS551  ARG553  GLY616  TRP617  ASP618  TYR619  PRO620  LYS621  CYS622 
 ASP623  PHE694  ASN695  SER759  ASP760  ASP761  ALA762  ILE779  LEU786  VAL792 
 PHE793  MET794  SER795  GLU796  ALA797  LYS798  CYS799  TRP800  GLU811  SER814 

> <Gold.Protein.RotatedAtoms>
  151.7589  135.0815  160.0342 H   0  0  0  0  0  0  0  0  0  0  0  0  # atno 6907 bound_to 6896
  152.3366  133.6015  159.5855 H   0  0  0  0  0  0  0  0  0  0  0  0  # atno 6908 bound_to 6896
  150.7454  133.9702  159.3585 H   0  0  0  0  0  0  0  0  0  0  0  0  # atno 6909 bound_to 6896
  146.1141  140.5543  142.8765 H   0  0  0  0  0  0  0  0  0  0  0  0  # atno 7974 bound_to 7965
  154.9438  140.3056  155.5107 H   0  0  0  0  0  0  0  0  0  0  0  0  # atno 8008 bound_to 7997
  156.2993  140.2331  156.4447 H   0  0  0  0  0  0  0  0  0  0  0  0  # atno 8009 bound_to 7997
  154.8119  140.0428  157.1337 H   0  0  0  0  0  0  0  0  0  0  0  0  # atno 8010 bound_to 7997
  139.5582  144.1937  152.1194 H   0  0  0  0  0  0  0  0  0  0  0  0  # atno 10167 bound_to 10162
  156.7228  130.9276  151.3099 H   0  0  0  0  0  0  0  0  0  0  0  0  # atno 10718 bound_to 10713
  154.8734  135.3770  154.4551 H   0  0  0  0  0  0  0  0  0  0  0  0  # atno 10763 bound_to 10752
  153.5224  135.7029  153.5730 H   0  0  0  0  0  0  0  0  0  0  0  0  # atno 10764 bound_to 10752
  153.3971  135.3957  155.1928 H   0  0  0  0  0  0  0  0  0  0  0  0  # atno 10765 bound_to 10752
  140.6172  133.9694  155.8206 H   0  0  0  0  0  0  0  0  0  0  0  0  # atno 11005 bound_to 11000
  144.7537  140.5255  143.6784 LP  0  0  0  0  0  0  0  0  0  0  0  0  # atno 17320 bound_to 7965
  145.5603  139.1479  143.3345 LP  0  0  0  0  0  0  0  0  0  0  0  0  # atno 17321 bound_to 7965
  140.1445  144.5172  150.6724 LP  0  0  0  0  0  0  0  0  0  0  0  0  # atno 17342 bound_to 10162
  140.6858  143.2349  151.5265 LP  0  0  0  0  0  0  0  0  0  0  0  0  # atno 17343 bound_to 10162
  157.6891  130.9215  150.0465 LP  0  0  0  0  0  0  0  0  0  0  0  0  # atno 17370 bound_to 10713
  156.1583  130.3643  149.9337 LP  0  0  0  0  0  0  0  0  0  0  0  0  # atno 17371 bound_to 10713
  141.0767  134.0123  157.3446 LP  0  0  0  0  0  0  0  0  0  0  0  0  # atno 17394 bound_to 11000
  139.9168  135.0197  156.7912 LP  0  0  0  0  0  0  0  0  0  0  0  0  # atno 17395 bound_to 11000

$$$$
