#       Name:                AV-unprocessed.smi:199
#       Creating user name   scv26
#       Creation time:       Thu Mar 26 19:43:46 2020


#       File generated by GOLD software.
#

@<TRIPOS>MOLECULE
AV-unprocessed.smi:199
    61    65     1
SMALL
NO_CHARGES


@<TRIPOS>ATOM
      1 ****        -6.1156  -0.9122  -0.6257 C.3            1 S1                 0.0000
      2 ****        -5.4722   0.4831  -0.6459 C.3            1 S1                 0.0000
      3 ****        -5.8262   1.1403   0.5686 O.3            1 S1                 0.0000
      4 ****        -4.7820   2.0257   0.9324 C.3            1 S1                 0.0000
      5 ****        -3.5384   1.2201   0.5912 C.3            1 S1                 0.0000
      6 ****        -3.9196   0.5376  -0.7197 C.3            1 S1                 0.0000
      7 ****        -3.5714   1.4116  -1.7810 O.3            1 S1                 0.0000
      8 ****        -3.1902  -0.8120  -0.9537 C.3            1 S1                 0.0000
      9 ****        -1.7399  -0.6909  -0.9612 N.pl3          1 S1                 0.0000
     10 ****        -0.9451  -0.3867  -2.0418 C.2            1 S1                 0.0000
     11 ****         0.3338  -0.3340  -1.7921 N.2            1 S1                 0.0000
     12 ****         0.4364  -0.6232  -0.4358 C.ar           1 S1                 0.0000
     13 ****         1.5181  -0.7310   0.4885 C.ar           1 S1                 0.0000
     14 ****         2.8299  -0.5442   0.1728 N.3            1 S1                 0.0000
     15 ****         3.2441   0.4282  -0.8259 C.3            1 S1                 0.0000
     16 ****         3.0644   1.7851  -0.1162 C.3            1 S1                 0.0000
     17 ****         3.4224   1.4173   1.3336 C.3            1 S1                 0.0000
     18 ****         3.7674  -0.0812   1.1891 C.3            1 S1                 0.0000
     19 ****         5.1352  -0.2062   0.4829 C.3            1 S1                 0.0000
     20 ****         5.8453  -1.5634   0.6768 C.3            1 S1                 0.0000
     21 ****         5.0626  -2.6583   0.2447 O.3            1 S1                 0.0000
     22 ****         4.7457   0.1223  -0.9720 C.3            1 S1                 0.0000
     23 ****         1.2073  -1.0726   1.7676 N.ar           1 S1                 0.0000
     24 ****        -0.0615  -1.2747   2.1302 C.ar           1 S1                 0.0000
     25 ****        -1.1631  -1.1957   1.3843 N.ar           1 S1                 0.0000
     26 ****        -0.8640  -0.8648   0.0962 C.ar           1 S1                 0.0000
     27 ****        -5.8943  -1.4666  -1.5377 H              1 S1                 0.0000
     28 ****        -7.2002  -0.8331  -0.5487 H              1 S1                 0.0000
     29 ****        -5.7709  -1.5002   0.2250 H              1 S1                 0.0000
     30 ****        -5.9124   1.0512  -1.4677 H              1 S1                 0.0000
     31 ****        -4.8398   2.9356   0.3332 H              1 S1                 0.0000
     32 ****        -4.8331   2.2984   1.9867 H              1 S1                 0.0000
     33 ****        -2.6337   1.8265   0.5284 H              1 S1                 0.0000
     34 ****        -3.3860   0.4744   1.3720 H              1 S1                 0.0000
     35 ****        -3.8975   1.0462  -2.5890 H              1 S1                 0.0000
     36 ****        -3.4585  -1.5317  -0.1800 H              1 S1                 0.0000
     37 ****        -3.4972  -1.2514  -1.9037 H              1 S1                 0.0000
     38 ****        -1.3470  -0.1987  -3.0267 H              1 S1                 0.0000
     39 ****         2.7333   0.3702  -1.7848 H              1 S1                 0.0000
     40 ****         3.7083   2.5624  -0.5290 H              1 S1                 0.0000
     41 ****         2.0314   2.1291  -0.1824 H              1 S1                 0.0000
     42 ****         4.2470   2.0093   1.7319 H              1 S1                 0.0000
     43 ****         2.5616   1.5603   1.9881 H              1 S1                 0.0000
     44 ****         3.7333  -0.6228   2.1351 H              1 S1                 0.0000
     45 ****         5.8123   0.5612   0.8608 H              1 S1                 0.0000
     46 ****         6.7884  -1.5732   0.1296 H              1 S1                 0.0000
     47 ****         6.0888  -1.7083   1.7296 H              1 S1                 0.0000
     48 ****         5.5518  -3.4540   0.3886 H              1 S1                 0.0000
     49 ****         4.8983  -0.7331  -1.6312 H              1 S1                 0.0000
     50 ****         5.3081   0.9625  -1.3806 H              1 S1                 0.0000
     51 ****        -0.2160  -1.5369   3.1663 H              1 S1                 0.0000
     52 ****        -5.9581   0.4619   1.2913 LP             1 S1                 0.0000
     53 ****        -6.6728   1.6559   0.4368 LP             1 S1                 0.0000
     54 ****        -2.5768   1.5040  -1.8296 LP             1 S1                 0.0000
     55 ****        -3.9824   2.3101  -1.6269 LP             1 S1                 0.0000
     56 ****         1.0746  -0.1311  -2.4325 LP             1 S1                 0.0000
     57 ****         2.8698  -1.5051  -0.1011 LP             1 S1                 0.0000
     58 ****         4.8559  -2.5612  -0.7289 LP             1 S1                 0.0000
     59 ****         4.2093  -2.6886   0.7651 LP             1 S1                 0.0000
     60 ****         1.9371  -1.1734   2.4438 LP             1 S1                 0.0000
     61 ****        -2.0890  -1.3581   1.7253 LP             1 S1                 0.0000
@<TRIPOS>BOND
    1    1    2 1     
    2    1   27 1     
    3    1   28 1     
    4    1   29 1     
    5    2    6 1     
    6    2    3 1     
    7    2   30 1     
    8    3    4 1     
    9    4    5 1     
   10    4   31 1     
   11    4   32 1     
   12    5    6 1     
   13    5   33 1     
   14    5   34 1     
   15    6    7 1     
   16    6    8 1     
   17    7   35 1     
   18    8    9 1     
   19    8   36 1     
   20    8   37 1     
   21    9   26 1     
   22    9   10 1     
   23   10   11 2     
   24   10   38 1     
   25   11   12 1     
   26   12   26 ar    
   27   12   13 ar    
   28   13   14 1     
   29   13   23 ar    
   30   14   18 1     
   31   14   15 1     
   32   15   22 1     
   33   15   16 1     
   34   15   39 1     
   35   16   17 1     
   36   16   40 1     
   37   16   41 1     
   38   17   18 1     
   39   17   42 1     
   40   17   43 1     
   41   18   19 1     
   42   18   44 1     
   43   19   20 1     
   44   19   22 1     
   45   19   45 1     
   46   20   21 1     
   47   20   46 1     
   48   20   47 1     
   49   21   48 1     
   50   22   49 1     
   51   22   50 1     
   52   23   24 ar    
   53   24   25 ar    
   54   24   51 1     
   55   25   26 ar    
   56    3   52 1     
   57    3   53 1     
   58    7   54 1     
   59    7   55 1     
   60   11   56 1     
   61   14   57 1     
   62   21   58 1     
   63   21   59 1     
   64   23   60 1     
   65   25   61 1     
@<TRIPOS>SUBSTRUCTURE
      1 S1             1
@<TRIPOS>SET
LONE_PAIRS      STATIC     ATOMS    <user>   **** ""
10 52 53 54 55 56 57 58 59 60 61
DONOR_HYDROGENS      STATIC     ATOMS    <user>   **** ""
2 35 48
ATOM$BLUE        STATIC     ATOMS    COLORGROUP SYSTEM
10 52 53 54 55 56 57 58 59 60 61
ATOM$RED        STATIC     ATOMS    COLORGROUP SYSTEM
2 35 48
