#       Name:                AV-unprocessed.smi:3306
#       Creating user name   scv26
#       Creation time:       Fri Mar 27 19:03:55 2020


#       File generated by GOLD software.
#

@<TRIPOS>MOLECULE
AV-unprocessed.smi:3306
    46    47     1
SMALL
NO_CHARGES


@<TRIPOS>ATOM
      1 ****        -4.4295  -2.2272   1.4113 C.3            1 S1                 0.0000
      2 ****        -4.0125  -1.0802   0.4658 C.3            1 S1                 0.0000
      3 ****        -4.5257  -1.4101  -0.9518 C.3            1 S1                 0.0000
      4 ****        -2.5364  -0.8117   0.4775 N.4            1 S1                 1.0000
      5 ****        -1.9434  -0.7233   1.8444 C.3            1 S1                 0.0000
      6 ****        -0.4159  -0.5540   1.7991 C.3            1 S1                 0.0000
      7 ****        -0.0114   0.6814   0.9853 C.3            1 S1                 0.0000
      8 ****         1.4429   0.7216   0.9089 N.3            1 S1                 0.0000
      9 ****         1.9377   2.0383   0.5284 C.3            1 S1                 0.0000
     10 ****         3.4737   2.0455   0.4398 C.3            1 S1                 0.0000
     11 ****         4.0173   1.1680  -0.6760 C.ar           1 S1                 0.0000
     12 ****         4.2084   1.6948  -1.9714 C.ar           1 S1                 0.0000
     13 ****         4.6981   0.8407  -2.9785 C.ar           1 S1                 0.0000
     14 ****         4.9757  -0.5011  -2.6540 C.ar           1 S1                 0.0000
     15 ****         4.7504  -0.9307  -1.3311 C.ar           1 S1                 0.0000
     16 ****         4.2805  -0.1202  -0.3585 N.ar           1 S1                 0.0000
     17 ****        -0.6350   0.5704  -0.4158 C.3            1 S1                 0.0000
     18 ****        -2.1585   0.3825  -0.3336 C.3            1 S1                 0.0000
     19 ****        -5.4847  -2.4735   1.2878 H              1 S1                 0.0000
     20 ****        -4.3066  -1.9618   2.4613 H              1 S1                 0.0000
     21 ****        -3.8572  -3.1348   1.2157 H              1 S1                 0.0000
     22 ****        -4.5209  -0.1769   0.8072 H              1 S1                 0.0000
     23 ****        -5.5732  -1.7121  -0.9286 H              1 S1                 0.0000
     24 ****        -3.9597  -2.2284  -1.3984 H              1 S1                 0.0000
     25 ****        -4.4777  -0.5561  -1.6257 H              1 S1                 0.0000
     26 ****        -2.4004   0.1042   2.3892 H              1 S1                 0.0000
     27 ****        -2.1386  -1.6302   2.4140 H              1 S1                 0.0000
     28 ****        -0.0277  -0.4755   2.8155 H              1 S1                 0.0000
     29 ****         0.0317  -1.4508   1.3667 H              1 S1                 0.0000
     30 ****        -0.3785   1.5741   1.4942 H              1 S1                 0.0000
     31 ****         1.8386   0.4722   1.8045 H              1 S1                 0.0000
     32 ****         1.5182   2.3490  -0.4280 H              1 S1                 0.0000
     33 ****         1.6145   2.7653   1.2744 H              1 S1                 0.0000
     34 ****         3.8188   3.0668   0.2746 H              1 S1                 0.0000
     35 ****         3.9071   1.7345   1.3916 H              1 S1                 0.0000
     36 ****         3.9826   2.7281  -2.1903 H              1 S1                 0.0000
     37 ****         4.8565   1.2077  -3.9818 H              1 S1                 0.0000
     38 ****         5.3521  -1.1846  -3.4007 H              1 S1                 0.0000
     39 ****         4.9515  -1.9531  -1.0469 H              1 S1                 0.0000
     40 ****        -0.4212   1.4605  -1.0069 H              1 S1                 0.0000
     41 ****        -0.1944  -0.2701  -0.9547 H              1 S1                 0.0000
     42 ****        -2.5253   0.2943  -1.3540 H              1 S1                 0.0000
     43 ****        -2.6218   1.2737   0.0928 H              1 S1                 0.0000
     44 ****        -2.1009  -1.6090   0.0358 H              1 S1                 0.0000
     45 ****         1.7204   0.0680   0.2048 LP             1 S1                 0.0000
     46 ****         4.1315  -0.4623   0.5693 LP             1 S1                 0.0000
@<TRIPOS>BOND
    1    1    2 1     
    2    1   19 1     
    3    1   20 1     
    4    1   21 1     
    5    2    3 1     
    6    2    4 1     
    7    2   22 1     
    8    3   23 1     
    9    3   24 1     
   10    3   25 1     
   11    4   18 1     
   12    4    5 1     
   13    4   44 1     
   14    5    6 1     
   15    5   26 1     
   16    5   27 1     
   17    6    7 1     
   18    6   28 1     
   19    6   29 1     
   20    7    8 1     
   21    7   17 1     
   22    7   30 1     
   23    8    9 1     
   24    8   31 1     
   25    9   10 1     
   26    9   32 1     
   27    9   33 1     
   28   10   11 1     
   29   10   34 1     
   30   10   35 1     
   31   11   16 ar    
   32   11   12 ar    
   33   12   13 ar    
   34   12   36 1     
   35   13   14 ar    
   36   13   37 1     
   37   14   15 ar    
   38   14   38 1     
   39   15   16 ar    
   40   15   39 1     
   41   17   18 1     
   42   17   40 1     
   43   17   41 1     
   44   18   42 1     
   45   18   43 1     
   46    8   45 1     
   47   16   46 1     
@<TRIPOS>SUBSTRUCTURE
      1 S1             1
@<TRIPOS>SET
LONE_PAIRS      STATIC     ATOMS    <user>   **** ""
2 45 46
DONOR_HYDROGENS      STATIC     ATOMS    <user>   **** ""
2 44 31
ATOM$BLUE        STATIC     ATOMS    COLORGROUP SYSTEM
2 45 46
ATOM$RED        STATIC     ATOMS    COLORGROUP SYSTEM
2 44 31
