#       Name:                AV-unprocessed.smi:1624
#       Creating user name   scv26
#       Creation time:       Fri Mar 27 07:17:15 2020


#       File generated by GOLD software.
#

@<TRIPOS>MOLECULE
AV-unprocessed.smi:1624
    42    43     1
SMALL
NO_CHARGES


@<TRIPOS>ATOM
      1 ****        -2.3317   1.4136  -1.2324 O.2            1 S1                 0.0000
      2 ****        -2.3842   0.4912  -2.0496 C.2            1 S1                 0.0000
      3 ****        -1.2805  -0.2172  -2.3295 N.am           1 S1                 0.0000
      4 ****         0.0363  -0.0112  -1.7368 C.3            1 S1                 0.0000
      5 ****         0.1272  -0.6372  -0.3329 C.3            1 S1                 0.0000
      6 ****         1.4246  -0.3607   0.2931 N.am           1 S1                 0.0000
      7 ****         1.4572   0.7761   1.2260 C.3            1 S1                 0.0000
      8 ****         1.5980   0.3563   2.7063 C.3            1 S1                 0.0000
      9 ****         2.4119  -0.9255   2.9721 C.3            1 S1                 0.0000
     10 ****         3.7980  -0.9712   2.2953 C.3            1 S1                 0.0000
     11 ****         3.8302  -0.7680   0.7602 C.3            1 S1                 0.0000
     12 ****         2.5189  -1.1182   0.0368 C.2            1 S1                 0.0000
     13 ****         2.5102  -2.0679  -0.7468 O.2            1 S1                 0.0000
     14 ****        -3.4814   0.0850  -2.7285 N.pl3          1 S1                -1.0000
     15 ****        -4.6606   0.6942  -2.5221 C.2            1 S1                 0.0000
     16 ****        -5.1204   1.6648  -3.3280 N.2            1 S1                 0.0000
     17 ****        -6.3586   2.1576  -2.9377 N.2            1 S1                 0.0000
     18 ****        -6.8072   1.5360  -1.8475 C.2            1 S1                 0.0000
     19 ****        -5.7596   0.2914  -1.1999 S.3            1 S1                 0.0000
     20 ****        -1.3663  -0.9635  -3.0039 H              1 S1                 0.0000
     21 ****         0.7783  -0.4588  -2.3982 H              1 S1                 0.0000
     22 ****         0.2619   1.0558  -1.6965 H              1 S1                 0.0000
     23 ****        -0.6756  -0.2604   0.3024 H              1 S1                 0.0000
     24 ****        -0.0419  -1.7137  -0.3931 H              1 S1                 0.0000
     25 ****         2.2761   1.4416   0.9524 H              1 S1                 0.0000
     26 ****         0.5677   1.3973   1.1126 H              1 S1                 0.0000
     27 ****         2.0287   1.1862   3.2672 H              1 S1                 0.0000
     28 ****         0.6004   0.2077   3.1206 H              1 S1                 0.0000
     29 ****         2.5410  -1.0412   4.0486 H              1 S1                 0.0000
     30 ****         1.8286  -1.7946   2.6641 H              1 S1                 0.0000
     31 ****         4.4406  -0.2213   2.7575 H              1 S1                 0.0000
     32 ****         4.2580  -1.9319   2.5290 H              1 S1                 0.0000
     33 ****         4.0952   0.2626   0.5247 H              1 S1                 0.0000
     34 ****         4.6398  -1.3649   0.3384 H              1 S1                 0.0000
     35 ****        -7.7619   1.8096  -1.4237 H              1 S1                 0.0000
     36 ****        -1.4671   1.6321  -0.7799 LP             1 S1                 0.0000
     37 ****        -3.1537   1.9430  -1.0224 LP             1 S1                 0.0000
     38 ****         1.6683  -2.3110  -1.2285 LP             1 S1                 0.0000
     39 ****         3.3451  -2.5961  -0.9015 LP             1 S1                 0.0000
     40 ****        -3.4147  -0.6679  -3.3833 LP             1 S1                 0.0000
     41 ****        -4.6218   1.9988  -4.1279 LP             1 S1                 0.0000
     42 ****        -6.8509   2.8861  -3.4140 LP             1 S1                 0.0000
@<TRIPOS>BOND
    1    1    2 2     
    2    2    3 am    
    3    2   14 1     
    4    3    4 1     
    5    3   20 1     
    6    4    5 1     
    7    4   21 1     
    8    4   22 1     
    9    5    6 1     
   10    5   23 1     
   11    5   24 1     
   12    6   12 am    
   13    6    7 1     
   14    7    8 1     
   15    7   25 1     
   16    7   26 1     
   17    8    9 1     
   18    8   27 1     
   19    8   28 1     
   20    9   10 1     
   21    9   29 1     
   22    9   30 1     
   23   10   11 1     
   24   10   31 1     
   25   10   32 1     
   26   11   12 1     
   27   11   33 1     
   28   11   34 1     
   29   12   13 2     
   30   14   15 1     
   31   15   19 1     
   32   15   16 2     
   33   16   17 1     
   34   17   18 2     
   35   18   19 1     
   36   18   35 1     
   37    1   36 1     
   38    1   37 1     
   39   13   38 1     
   40   13   39 1     
   41   14   40 1     
   42   16   41 1     
   43   17   42 1     
@<TRIPOS>SUBSTRUCTURE
      1 S1             1
@<TRIPOS>SET
LONE_PAIRS      STATIC     ATOMS    <user>   **** ""
7 36 37 38 39 40 41 42
DONOR_HYDROGENS      STATIC     ATOMS    <user>   **** ""
1 20
ATOM$BLUE        STATIC     ATOMS    COLORGROUP SYSTEM
7 36 37 38 39 40 41 42
ATOM$RED        STATIC     ATOMS    COLORGROUP SYSTEM
1 20
