AV-unprocessed.smi:952|AV-procd|sdf|4255|dock2
  -GOLD-   22720 2163D 1   1.00000     0.00000
 Structure written by MMmdl.
 35 35  0  0  0  0  0  0  0  0  1 V2000
  145.3404  132.3702  150.9816 C   0  0  0  0  0  0  0  0  0  0  0  0
  145.8943  133.2371  152.1171 C   0  0  0  0  0  0  0  0  0  0  0  0
  147.4315  133.2473  152.1515 C   0  0  0  0  0  0  0  0  0  0  0  0
  147.9400  134.1509  153.1770 N   0  0  0  0  0  0  0  0  0  0  0  0
  148.7581  133.7957  154.1790 C   0  0  0  0  0  0  0  0  0  0  0  0
  149.1560  132.6419  154.3485 O   0  0  0  0  0  0  0  0  0  0  0  0
  149.1687  134.9130  155.1456 C   0  0  0  0  0  0  0  0  0  0  0  0
  149.7944  136.0349  154.4524 N   0  0  0  0  0  0  0  0  0  0  0  0
  150.4705  137.0311  155.0471 C   0  0  0  0  0  0  0  0  0  0  0  0
  150.7002  137.0598  156.2570 O   0  0  0  0  0  0  0  0  0  0  0  0
  150.9362  138.1731  154.1319 C   0  0  2  0  0  0  0  0  0  0  0  0
  152.4349  138.4976  154.3013 C   0  0  0  0  0  0  0  0  0  0  0  0
  150.0834  139.3402  154.3295 N   0  0  0  0  0  0  0  0  0  0  0  0
  148.7082  139.4095  154.2300 C   0  0  0  0  0  0  0  0  0  0  0  0
  148.3349  140.6819  154.5549 C   0  0  0  0  0  0  0  0  0  0  0  0
  149.5655  141.3268  154.8595 C   0  0  0  0  0  0  0  0  0  0  0  0
  150.6071  140.5215  154.7331 N   0  0  0  0  0  0  0  0  0  0  0  0
  144.2502  132.3809  150.9817 H   0  0  0  0  0  0  0  0  0  0  0  0
  145.6636  131.3339  151.0832 H   0  0  0  0  0  0  0  0  0  0  0  0
  145.6765  132.7333  150.0100 H   0  0  0  0  0  0  0  0  0  0  0  0
  145.5181  134.2546  152.0024 H   0  0  0  0  0  0  0  0  0  0  0  0
  145.5085  132.8718  153.0696 H   0  0  0  0  0  0  0  0  0  0  0  0
  147.8040  132.2460  152.3692 H   0  0  0  0  0  0  0  0  0  0  0  0
  147.8348  133.5230  151.1756 H   0  0  0  0  0  0  0  0  0  0  0  0
  147.6575  135.1184  153.1145 H   0  0  0  0  0  0  0  0  0  0  0  0
  148.3065  135.2528  155.7226 H   0  0  0  0  0  0  0  0  0  0  0  0
  149.8846  134.5072  155.8604 H   0  0  0  0  0  0  0  0  0  0  0  0
  149.6477  136.0907  153.4551 H   0  0  0  0  0  0  0  0  0  0  0  0
  150.7948  137.8465  153.1002 H   0  0  0  0  0  0  0  0  0  0  0  0
  153.0513  137.6245  154.0852 H   0  0  0  0  0  0  0  0  0  0  0  0
  152.6744  138.8269  155.3133 H   0  0  0  0  0  0  0  0  0  0  0  0
  152.7396  139.2892  153.6162 H   0  0  0  0  0  0  0  0  0  0  0  0
  148.1146  138.5543  153.9421 H   0  0  0  0  0  0  0  0  0  0  0  0
  147.3345  141.0877  154.5797 H   0  0  0  0  0  0  0  0  0  0  0  0
  149.7311  142.3471  155.1726 H   0  0  0  0  0  0  0  0  0  0  0  0
  1  2  1  0  0  0  0
  1 18  1  0  0  0  0
  1 19  1  0  0  0  0
  1 20  1  0  0  0  0
  2  3  1  0  0  0  0
  2 21  1  0  0  0  0
  2 22  1  0  0  0  0
  3  4  1  0  0  0  0
  3 23  1  0  0  0  0
  3 24  1  0  0  0  0
  4  5  1  0  0  0  0
  4 25  1  0  0  0  0
  5  6  2  0  0  0  0
  5  7  1  0  0  0  0
  7  8  1  0  0  0  0
  7 26  1  0  0  0  0
  7 27  1  0  0  0  0
  8  9  1  0  0  0  0
  8 28  1  0  0  0  0
  9 10  2  0  0  0  0
  9 11  1  0  0  0  0
 11 12  1  0  0  0  0
 11 13  1  0  0  0  0
 11 29  1  0  0  0  0
 12 30  1  0  0  0  0
 12 31  1  0  0  0  0
 12 32  1  0  0  0  0
 13 17  1  0  0  0  0
 13 14  1  0  0  0  0
 14 15  2  0  0  0  0
 14 33  1  0  0  0  0
 15 16  1  0  0  0  0
 15 34  1  0  0  0  0
 16 17  2  0  0  0  0
 16 35  1  0  0  0  0
M  END
> <s_m_source_file>
AV-unprocessed.smi

> <i_m_source_file_index>
952

> <i_lp_mmshare_version>
43012

> <i_f3d_flags>
0

> <s_epik_input>
W0NIM11bQ0gyXVtDSDJdW05IXUMoPU8pW0NIMl1bTkhdQyg9TylbQ0BIXShbQ0gzXSluMVtjSF1bY0hdW2NIXW4x

> <s_epik_cmdline>
J2VwaWtfcHl0aG9uJywgJy1waCcsICc3LjAnLCAnLXRuJywgJzgnLCAnLW1hJywgJzIwMCcsICctbWV0YWxfYmluZGluZycsICctaW1hZScsICc8aW5maWxlLm1hZT4nLCAnLW9tYWUnLCAnPG91dGZpbGUubWFlPic=

> <r_lp_tautomer_probability>
1

> <r_epik_Ionization_Penalty>
2.62173e-05

> <r_epik_Ionization_Penalty_Charging>
0

> <r_epik_Ionization_Penalty_Neutral>
2.62173e-05

> <r_epik_State_Penalty>
-0

> <r_epik_Charging_Adjusted_Penalty>
0

> <i_epik_Tot_Q>
0

> <i_epik_Tot_abs_Q>
0

> <r_epik_Metal_State_Penalty>
-0

> <b_epik_Metal_Only>
0

> <s_lp_Force_Field>
OPLS_2005

> <r_lp_Energy>
2.54984

> <b_lp_Chiralities_Consistent>
1

> <s_lp_Variant>
AV-unprocessed.smi:952-1

> <Gold.Version>
5.8.1

> <Gold.Id.Protein>
6NUR|6NUR_protein|mol2

> <Gold.PLP.Fitness>
41.6052

> <Gold.PLP.PLP>
-32.5729

> <Gold.PLP.part.hbond>
-3.0602

> <Gold.PLP.part.metal>
0.0000

> <Gold.PLP.part.buried>
-1.7290

> <Gold.PLP.part.nonpolar>
-25.6796

> <Gold.PLP.part.repulsive>
0.2095

> <Gold.PLP.ligand.clash>
0.0000

> <Gold.PLP.ligand.torsion>
0.3944

> <Gold.PLP.Chemscore.Hbond>
2.2400

> <Gold.PLP.Chemscore.CHOScore>
0.9873

> <Gold.PLP.Chemscore.Metal>
0.0000

> <Gold.Chemscore.Hbonds>
donor molecule, donor type, donor heavy atom, donor atom, acceptor molecule, acceptor atom, score
      L1  H     4    25       P1  7948  0.17
      L1  H     8    28       P1  7948  1.00
      P1  H  7989  7998       L1    17  1.00
      L1  C    16    35       P1  8028  0.93

> <Gold.PLP.Chemscore.Internal.Correction>
0.1393

> <Gold.Rescore>
     Score         DG    S(hbond)    S(metal)    S(lipo)     H(rot)  DE(clash)    DE(int)     intcor
     11.54     -12.11       1.50        0.00      62.66       2.24       0.11       0.46       ----

> <Gold.Chemscore.Fitness>
11.5387

> <Gold.Chemscore.DG>
-12.1072

> <Gold.Chemscore.ZeroCoef>
-5.4800

> <Gold.Chemscore.Hbond>
1.5034

> <Gold.Chemscore.Metal>
0.0000

> <Gold.Chemscore.Lipo>
62.6565

> <Gold.Chemscore.Internal_Hbond>
0.0000

> <Gold.Chemscore.DEClash>
0.1060

> <Gold.Chemscore.DEInternal>
0.4625

> <Gold.Chemscore.Rot>
2.2364

> <Gold.Chemscore.Internal.Correction>
   9.000000E+99

> <Gold.Chemscore.Hbonds>
donor molecule, donor type, donor heavy atom, donor atom, acceptor molecule, acceptor atom, score
      L1  H     4    25       P1  7948  0.17
      L1  H     8    28       P1  7948  0.26
      P1  H  7989  7998       L1    17  0.30

> <Gold.Chemscore.Hbond.Weighted>
-5.0215

> <Gold.Chemscore.Metal.Weighted>
-0.0000

> <Gold.Chemscore.Lipo.Weighted>
-7.3308

> <Gold.Chemscore.Internal_Hbond.Weighted>
0.0000

> <Gold.Chemscore.DEClash.Weighted>
0.1060

> <Gold.Chemscore.DEInternal.Weighted>
0.4625

> <Gold.Chemscore.Rot.Weighted>
5.7251

> <Gold.Chemscore.Internal.Correction.Weighted>
   9.000000E+99

> <Gold.Protein.RotatedTorsions>
[ 6907 6896 6895 6894 ] final  134.05 input  -60.11 | X-H torsion
[ 7974 7965 7964 7962 ] final   57.44 input  175.53 | X-H torsion
[ 8008 7997 7996 7995 ] final -118.52 input   59.86 | X-H torsion
[ 10167 10162 10161 10158 ] final -100.91 input  -65.29 | X-H torsion
[ 10718 10713 10712 10709 ] final  -21.96 input   66.30 | X-H torsion
[ 10763 10752 10751 10750 ] final  -99.67 input  -60.55 | X-H torsion
[ 11005 11000 10999 10996 ] final -161.63 input  -57.11 | X-H torsion

> <Gold.Protein.ActiveResidues>
 VAL166  LYS551  ARG553  GLY616  TRP617  ASP618  TYR619  PRO620  LYS621  CYS622 
 ASP623  PHE694  ASN695  SER759  ASP760  ASP761  ALA762  ILE779  LEU786  VAL792 
 PHE793  MET794  SER795  GLU796  ALA797  LYS798  CYS799  TRP800  GLU811  SER814 

> <Gold.Protein.RotatedAtoms>
  152.3155  133.5798  159.5708 H   0  0  0  0  0  0  0  0  0  0  0  0  # atno 6907 bound_to 6896
  150.7344  134.0089  159.3672 H   0  0  0  0  0  0  0  0  0  0  0  0  # atno 6908 bound_to 6896
  151.7978  135.0718  160.0447 H   0  0  0  0  0  0  0  0  0  0  0  0  # atno 6909 bound_to 6896
  145.9290  139.3792  143.0432 H   0  0  0  0  0  0  0  0  0  0  0  0  # atno 7974 bound_to 7965
  155.1010  140.0396  157.2697 H   0  0  0  0  0  0  0  0  0  0  0  0  # atno 8008 bound_to 7997
  154.6758  140.2622  155.6934 H   0  0  0  0  0  0  0  0  0  0  0  0  # atno 8009 bound_to 7997
  156.2676  140.2788  156.1284 H   0  0  0  0  0  0  0  0  0  0  0  0  # atno 8010 bound_to 7997
  140.2469  143.3499  152.0750 H   0  0  0  0  0  0  0  0  0  0  0  0  # atno 10167 bound_to 10162
  156.5110  130.4610  149.6648 H   0  0  0  0  0  0  0  0  0  0  0  0  # atno 10718 bound_to 10713
  154.7517  135.4963  153.9300 H   0  0  0  0  0  0  0  0  0  0  0  0  # atno 10763 bound_to 10752
  153.1150  135.6718  153.9441 H   0  0  0  0  0  0  0  0  0  0  0  0  # atno 10764 bound_to 10752
  153.9189  135.3090  155.3427 H   0  0  0  0  0  0  0  0  0  0  0  0  # atno 10765 bound_to 10752
  140.6183  134.4777  157.5221 H   0  0  0  0  0  0  0  0  0  0  0  0  # atno 11005 bound_to 11000
  145.8450  140.9560  143.0779 LP  0  0  0  0  0  0  0  0  0  0  0  0  # atno 17320 bound_to 7965
  144.6762  140.0334  143.7482 LP  0  0  0  0  0  0  0  0  0  0  0  0  # atno 17321 bound_to 7965
  139.5059  144.6803  151.6025 LP  0  0  0  0  0  0  0  0  0  0  0  0  # atno 17342 bound_to 10162
  140.6070  143.9505  150.6426 LP  0  0  0  0  0  0  0  0  0  0  0  0  # atno 17343 bound_to 10162
  156.3240  130.7296  151.2213 LP  0  0  0  0  0  0  0  0  0  0  0  0  # atno 17370 bound_to 10713
  157.7450  131.0448  150.4810 LP  0  0  0  0  0  0  0  0  0  0  0  0  # atno 17371 bound_to 10713
  139.9164  134.8238  156.1353 LP  0  0  0  0  0  0  0  0  0  0  0  0  # atno 17394 bound_to 11000
  141.0760  133.6775  156.2238 LP  0  0  0  0  0  0  0  0  0  0  0  0  # atno 17395 bound_to 11000

$$$$
