AV-unprocessed.smi:1759|AV-procd|sdf|7088|dock8
  -GOLD-   22720 8303D 1   1.00000     0.00000
 Structure written by MMmdl.
 31 32  0  0  0  0  0  0  0  0  1 V2000
  147.1459  139.4356  152.7300 C   0  0  0  0  0  0  0  0  0  0  0  0
  148.1143  140.0327  153.6922 C   0  0  0  0  0  0  0  0  0  0  0  0
  148.3008  141.3043  154.1562 C   0  0  0  0  0  0  0  0  0  0  0  0
  149.3989  141.1621  155.0456 C   0  0  0  0  0  0  0  0  0  0  0  0
  149.9181  142.2809  155.7450 N   0  0  0  0  0  0  0  0  0  0  0  0
  150.9615  142.3054  156.5912 C   0  0  0  0  0  0  0  0  0  0  0  0
  151.6317  141.3260  156.9199 O   0  0  0  0  0  0  0  0  0  0  0  0
  151.1879  143.5446  157.0494 N   0  0  0  0  0  0  0  0  0  0  0  0
  152.2294  143.9039  158.0048 C   0  0  0  0  0  0  0  0  0  0  0  0
  152.1182  143.0740  159.2940 C   0  0  1  0  0  0  0  0  0  0  0  0
  153.4629  142.5694  159.8154 C   0  0  0  0  0  0  0  0  0  0  0  0
  153.1842  142.4215  161.2933 C   0  0  0  0  0  0  0  0  0  0  0  0
  152.3018  143.6359  161.5603 C   0  0  0  0  0  0  0  0  0  0  0  0
  151.5803  143.8649  160.3529 O   0  0  0  0  0  0  0  0  0  0  0  0
  149.8418  139.9161  155.1189 N   0  0  0  0  0  0  0  0  0  0  0  0
  149.0206  139.1858  154.2517 O   0  0  0  0  0  0  0  0  0  0  0  0
  146.4647  140.1931  152.3421 H   0  0  0  0  0  0  0  0  0  0  0  0
  146.5507  138.6602  153.2125 H   0  0  0  0  0  0  0  0  0  0  0  0
  147.6686  138.9862  151.8858 H   0  0  0  0  0  0  0  0  0  0  0  0
  147.7413  142.1914  153.8984 H   0  0  0  0  0  0  0  0  0  0  0  0
  149.4490  143.1585  155.5777 H   0  0  0  0  0  0  0  0  0  0  0  0
  150.5860  144.2902  156.7319 H   0  0  0  0  0  0  0  0  0  0  0  0
  153.2137  143.7700  157.5523 H   0  0  0  0  0  0  0  0  0  0  0  0
  152.1370  144.9660  158.2332 H   0  0  0  0  0  0  0  0  0  0  0  0
  151.4561  142.2192  159.1448 H   0  0  0  0  0  0  0  0  0  0  0  0
  153.7782  141.6386  159.3435 H   0  0  0  0  0  0  0  0  0  0  0  0
  154.2437  143.3151  159.6573 H   0  0  0  0  0  0  0  0  0  0  0  0
  152.6280  141.5020  161.4808 H   0  0  0  0  0  0  0  0  0  0  0  0
  154.0881  142.4077  161.9029 H   0  0  0  0  0  0  0  0  0  0  0  0
  151.6302  143.4862  162.4060 H   0  0  0  0  0  0  0  0  0  0  0  0
  152.9159  144.5133  161.7664 H   0  0  0  0  0  0  0  0  0  0  0  0
  1  2  1  0  0  0  0
  1 17  1  0  0  0  0
  1 18  1  0  0  0  0
  1 19  1  0  0  0  0
  2 16  1  0  0  0  0
  2  3  2  0  0  0  0
  3  4  1  0  0  0  0
  3 20  1  0  0  0  0
  4  5  1  0  0  0  0
  4 15  2  0  0  0  0
  5  6  1  0  0  0  0
  5 21  1  0  0  0  0
  6  7  2  0  0  0  0
  6  8  1  0  0  0  0
  8  9  1  0  0  0  0
  8 22  1  0  0  0  0
  9 10  1  0  0  0  0
  9 23  1  0  0  0  0
  9 24  1  0  0  0  0
 10 14  1  0  0  0  0
 10 11  1  0  0  0  0
 10 25  1  0  0  0  0
 11 12  1  0  0  0  0
 11 26  1  0  0  0  0
 11 27  1  0  0  0  0
 12 13  1  0  0  0  0
 12 28  1  0  0  0  0
 12 29  1  0  0  0  0
 13 14  1  0  0  0  0
 13 30  1  0  0  0  0
 13 31  1  0  0  0  0
 15 16  1  0  0  0  0
M  END
> <s_m_source_file>
AV-unprocessed.smi

> <i_m_source_file_index>
1759

> <i_lp_mmshare_version>
43012

> <i_f3d_flags>
0

> <s_epik_input>
W0NIM11jMVtjSF1jKG5vMSlbTkhdQyg9TylbTkhdW0NIMl1bQ0BASF0yW0NIMl1bQ0gyXVtDSDJdTzI=

> <s_epik_cmdline>
J2VwaWtfcHl0aG9uJywgJy1waCcsICc3LjAnLCAnLXRuJywgJzgnLCAnLW1hJywgJzIwMCcsICctbWV0YWxfYmluZGluZycsICctaW1hZScsICc8aW5maWxlLm1hZT4nLCAnLW9tYWUnLCAnPG91dGZpbGUubWFlPic=

> <r_lp_tautomer_probability>
1

> <r_epik_Ionization_Penalty>
2.1743e-05

> <r_epik_Ionization_Penalty_Charging>
0

> <r_epik_Ionization_Penalty_Neutral>
2.1743e-05

> <r_epik_State_Penalty>
-0

> <r_epik_Charging_Adjusted_Penalty>
0

> <i_epik_Tot_Q>
0

> <i_epik_Tot_abs_Q>
0

> <r_epik_Metal_State_Penalty>
-0

> <b_epik_Metal_Only>
0

> <s_lp_Force_Field>
OPLS_2005

> <r_lp_Energy>
14.348

> <b_lp_Chiralities_Consistent>
1

> <s_lp_Variant>
AV-unprocessed.smi:1759-2

> <Gold.Version>
5.8.1

> <Gold.Id.Protein>
6NUR|6NUR_protein|mol2

> <Gold.PLP.Fitness>
40.6024

> <Gold.PLP.PLP>
-36.1371

> <Gold.PLP.part.hbond>
-2.0000

> <Gold.PLP.part.metal>
0.0000

> <Gold.PLP.part.buried>
-3.0976

> <Gold.PLP.part.nonpolar>
-30.7940

> <Gold.PLP.part.repulsive>
0.4686

> <Gold.PLP.ligand.clash>
0.0000

> <Gold.PLP.ligand.torsion>
0.6361

> <Gold.PLP.Chemscore.Hbond>
1.9120

> <Gold.PLP.Chemscore.CHOScore>
0.0000

> <Gold.PLP.Chemscore.Metal>
0.0000

> <Gold.Chemscore.Hbonds>
donor molecule, donor type, donor heavy atom, donor atom, acceptor molecule, acceptor atom, score
      L1  H     5    21       P1  8028  1.00
      L1  H     8    22       P1  8028  0.91

> <Gold.PLP.Chemscore.Internal.Correction>
0.0015

> <Gold.Rescore>
     Score         DG    S(hbond)    S(metal)    S(lipo)     H(rot)  DE(clash)    DE(int)     intcor
     16.42     -18.24       1.95        0.00      81.67       1.30       0.03       1.79       ----

> <Gold.Chemscore.Fitness>
16.4170

> <Gold.Chemscore.DG>
-18.2381

> <Gold.Chemscore.ZeroCoef>
-5.4800

> <Gold.Chemscore.Hbond>
1.9527

> <Gold.Chemscore.Metal>
0.0000

> <Gold.Chemscore.Lipo>
81.6702

> <Gold.Chemscore.Internal_Hbond>
0.0000

> <Gold.Chemscore.DEClash>
0.0270

> <Gold.Chemscore.DEInternal>
1.7941

> <Gold.Chemscore.Rot>
1.2965

> <Gold.Chemscore.Internal.Correction>
   9.000000E+99

> <Gold.Chemscore.Hbonds>
donor molecule, donor type, donor heavy atom, donor atom, acceptor molecule, acceptor atom, score
      L1  H     5    21       P1  8028  1.00
      L1  H     8    22       P1  8028  0.83

> <Gold.Chemscore.Hbond.Weighted>
-6.5219

> <Gold.Chemscore.Metal.Weighted>
-0.0000

> <Gold.Chemscore.Lipo.Weighted>
-9.5554

> <Gold.Chemscore.Internal_Hbond.Weighted>
0.0000

> <Gold.Chemscore.DEClash.Weighted>
0.0270

> <Gold.Chemscore.DEInternal.Weighted>
1.7941

> <Gold.Chemscore.Rot.Weighted>
3.3192

> <Gold.Chemscore.Internal.Correction.Weighted>
   9.000000E+99

> <Gold.Protein.RotatedTorsions>
[ 6907 6896 6895 6894 ] final  125.04 input  -60.11 | X-H torsion
[ 7974 7965 7964 7962 ] final  -21.28 input  175.53 | X-H torsion
[ 8008 7997 7996 7995 ] final   94.84 input   59.86 | X-H torsion
[ 10167 10162 10161 10158 ] final  -87.12 input  -65.29 | X-H torsion
[ 10718 10713 10712 10709 ] final -171.79 input   66.30 | X-H torsion
[ 10763 10752 10751 10750 ] final -147.75 input  -60.55 | X-H torsion
[ 11005 11000 10999 10996 ] final  124.56 input  -57.11 | X-H torsion

> <Gold.Protein.ActiveResidues>
 VAL166  LYS551  ARG553  GLY616  TRP617  ASP618  TYR619  PRO620  LYS621  CYS622 
 ASP623  PHE694  ASN695  SER759  ASP760  ASP761  ALA762  ILE779  LEU786  VAL792 
 PHE793  MET794  SER795  GLU796  ALA797  LYS798  CYS799  TRP800  GLU811  SER814 

> <Gold.Protein.RotatedAtoms>
  152.4026  133.6841  159.6329 H   0  0  0  0  0  0  0  0  0  0  0  0  # atno 6907 bound_to 6896
  150.7915  133.8764  159.3282 H   0  0  0  0  0  0  0  0  0  0  0  0  # atno 6908 bound_to 6896
  151.6526  135.1001  160.0215 H   0  0  0  0  0  0  0  0  0  0  0  0  # atno 6909 bound_to 6896
  146.1742  140.4319  142.8520 H   0  0  0  0  0  0  0  0  0  0  0  0  # atno 7974 bound_to 7965
  156.0624  140.3294  155.7477 H   0  0  0  0  0  0  0  0  0  0  0  0  # atno 8008 bound_to 7997
  155.5434  140.0604  157.2882 H   0  0  0  0  0  0  0  0  0  0  0  0  # atno 8009 bound_to 7997
  154.4488  140.1906  156.0602 H   0  0  0  0  0  0  0  0  0  0  0  0  # atno 8010 bound_to 7997
  140.3875  143.2720  151.9306 H   0  0  0  0  0  0  0  0  0  0  0  0  # atno 10167 bound_to 10162
  156.7461  130.9360  151.3112 H   0  0  0  0  0  0  0  0  0  0  0  0  # atno 10718 bound_to 10713
  154.8270  135.3352  154.6866 H   0  0  0  0  0  0  0  0  0  0  0  0  # atno 10763 bound_to 10752
  153.7491  135.6940  153.4954 H   0  0  0  0  0  0  0  0  0  0  0  0  # atno 10764 bound_to 10752
  153.2189  135.4456  155.0417 H   0  0  0  0  0  0  0  0  0  0  0  0  # atno 10765 bound_to 10752
  139.9364  134.9639  156.8427 H   0  0  0  0  0  0  0  0  0  0  0  0  # atno 11005 bound_to 11000
  144.8210  140.6549  143.6353 LP  0  0  0  0  0  0  0  0  0  0  0  0  # atno 17320 bound_to 7965
  145.4258  139.1556  143.4049 LP  0  0  0  0  0  0  0  0  0  0  0  0  # atno 17321 bound_to 7965
  139.4791  144.5759  151.8012 LP  0  0  0  0  0  0  0  0  0  0  0  0  # atno 17342 bound_to 10162
  140.4874  144.1361  150.5943 LP  0  0  0  0  0  0  0  0  0  0  0  0  # atno 17343 bound_to 10162
  157.6797  130.9128  150.0237 LP  0  0  0  0  0  0  0  0  0  0  0  0  # atno 17370 bound_to 10713
  156.1432  130.3642  149.9550 LP  0  0  0  0  0  0  0  0  0  0  0  0  # atno 17371 bound_to 10713
  140.6064  134.0123  155.7558 LP  0  0  0  0  0  0  0  0  0  0  0  0  # atno 17394 bound_to 11000
  141.0980  133.9813  157.3127 LP  0  0  0  0  0  0  0  0  0  0  0  0  # atno 17395 bound_to 11000

$$$$
