AV-unprocessed.smi:2874|AV-procd|sdf|11038|dock7
  -GOLD-   2272015503D 1   1.00000     0.00000
 Structure written by MMmdl.
 39 41  0  0  0  0  0  0  0  0  1 V2000
  148.0297  144.9443  161.6640 C   0  0  0  0  0  0  0  0  0  0  0  0
  148.6430  144.6390  160.4244 O   0  0  0  0  0  0  0  0  0  0  0  0
  150.0594  144.6785  160.4938 C   0  0  0  0  0  0  0  0  0  0  0  0
  150.6540  144.3021  159.1295 C   0  0  0  0  0  0  0  0  0  0  0  0
  151.5175  143.1330  159.2127 N   0  0  0  0  0  0  0  0  0  0  0  0
  151.7269  142.1832  158.2674 C   0  0  0  0  0  0  0  0  0  0  0  0
  150.9235  142.2545  156.6940 S   0  0  0  0  0  0  0  0  0  0  0  0
  150.0121  140.6823  156.7444 C   0  0  0  0  0  0  0  0  0  0  0  0
  149.0524  140.6077  155.5736 C   0  0  0  0  0  0  0  0  0  0  0  0
  149.1584  139.5378  154.7781 N   0  0  0  0  0  0  0  0  0  0  0  0
  148.3047  139.4670  153.7341 C   0  0  0  0  0  0  0  0  0  0  0  0
  147.3480  140.4725  153.4881 C   0  0  0  0  0  0  0  0  0  0  0  0
  147.3334  141.5535  154.3926 C   0  0  0  0  0  0  0  0  0  0  0  0
  146.4309  142.6020  154.2355 N   0  0  0  0  0  0  0  0  0  0  0  0
  148.1869  141.6183  155.4366 N   0  0  0  0  0  0  0  0  0  0  0  0
  152.5802  141.2153  158.6081 N   0  0  0  0  0  0  0  0  0  0  0  0
  152.9568  141.5704  159.8878 C   0  0  0  0  0  0  0  0  0  0  0  0
  153.8457  140.9445  160.7904 C   0  0  0  0  0  0  0  0  0  0  0  0
  154.0785  141.5020  162.0648 C   0  0  0  0  0  0  0  0  0  0  0  0
  155.1669  140.7256  163.1551 Cl  0  0  0  0  0  0  0  0  0  0  0  0
  153.4273  142.6912  162.4528 C   0  0  0  0  0  0  0  0  0  0  0  0
  152.5375  143.3303  161.5681 C   0  0  0  0  0  0  0  0  0  0  0  0
  152.3085  142.7686  160.2978 C   0  0  0  0  0  0  0  0  0  0  0  0
  146.9459  144.9138  161.5531 H   0  0  0  0  0  0  0  0  0  0  0  0
  148.3052  145.9427  162.0059 H   0  0  0  0  0  0  0  0  0  0  0  0
  148.3106  144.2209  162.4304 H   0  0  0  0  0  0  0  0  0  0  0  0
  150.3899  145.6790  160.7761 H   0  0  0  0  0  0  0  0  0  0  0  0
  150.4159  143.9890  161.2608 H   0  0  0  0  0  0  0  0  0  0  0  0
  149.8535  144.0946  158.4188 H   0  0  0  0  0  0  0  0  0  0  0  0
  151.2169  145.1383  158.7146 H   0  0  0  0  0  0  0  0  0  0  0  0
  150.7125  139.8462  156.7168 H   0  0  0  0  0  0  0  0  0  0  0  0
  149.4519  140.6111  157.6777 H   0  0  0  0  0  0  0  0  0  0  0  0
  148.3867  138.6044  153.0898 H   0  0  0  0  0  0  0  0  0  0  0  0
  146.6682  140.4138  152.6510 H   0  0  0  0  0  0  0  0  0  0  0  0
  145.7664  142.6182  153.4757 H   0  0  0  0  0  0  0  0  0  0  0  0
  146.4213  143.3862  154.8718 H   0  0  0  0  0  0  0  0  0  0  0  0
  154.3498  140.0345  160.5005 H   0  0  0  0  0  0  0  0  0  0  0  0
  153.6109  143.1143  163.4295 H   0  0  0  0  0  0  0  0  0  0  0  0
  152.0393  144.2424  161.8613 H   0  0  0  0  0  0  0  0  0  0  0  0
  1  2  1  0  0  0  0
  1 24  1  0  0  0  0
  1 25  1  0  0  0  0
  1 26  1  0  0  0  0
  2  3  1  0  0  0  0
  3  4  1  0  0  0  0
  3 27  1  0  0  0  0
  3 28  1  0  0  0  0
  4  5  1  0  0  0  0
  4 29  1  0  0  0  0
  4 30  1  0  0  0  0
  5 23  1  0  0  0  0
  5  6  1  0  0  0  0
  6  7  1  0  0  0  0
  6 16  2  0  0  0  0
  7  8  1  0  0  0  0
  8  9  1  0  0  0  0
  8 31  1  0  0  0  0
  8 32  1  0  0  0  0
  9 15  1  0  0  0  0
  9 10  2  0  0  0  0
 10 11  1  0  0  0  0
 11 12  2  0  0  0  0
 11 33  1  0  0  0  0
 12 13  1  0  0  0  0
 12 34  1  0  0  0  0
 13 14  1  0  0  0  0
 13 15  2  0  0  0  0
 14 35  1  0  0  0  0
 14 36  1  0  0  0  0
 16 17  1  0  0  0  0
 17 23  2  0  0  0  0
 17 18  1  0  0  0  0
 18 19  2  0  0  0  0
 18 37  1  0  0  0  0
 19 20  1  0  0  0  0
 19 21  1  0  0  0  0
 21 22  2  0  0  0  0
 21 38  1  0  0  0  0
 22 23  1  0  0  0  0
 22 39  1  0  0  0  0
M  END
> <s_m_source_file>
AV-unprocessed.smi

> <i_m_source_file_index>
2874

> <i_lp_mmshare_version>
43012

> <i_f3d_flags>
0

> <s_epik_input>
W2NIXTFjKENsKVtjSF1bY0hdYyhjMTIpbihbQ0gyXVtDSDJdT1tDSDNdKWMobjIpU1tDSDJdYzNuW2NIXVtjSF1jKG4zKVtOSDJd

> <s_epik_cmdline>
J2VwaWtfcHl0aG9uJywgJy1waCcsICc3LjAnLCAnLXRuJywgJzgnLCAnLW1hJywgJzIwMCcsICctbWV0YWxfYmluZGluZycsICctaW1hZScsICc8aW5maWxlLm1hZT4nLCAnLW9tYWUnLCAnPG91dGZpbGUubWFlPic=

> <r_lp_tautomer_probability>
1

> <r_epik_Ionization_Penalty>
0.0126717

> <r_epik_Ionization_Penalty_Charging>
0

> <r_epik_Ionization_Penalty_Neutral>
0.0126717

> <r_epik_State_Penalty>
0.00687269

> <r_epik_Charging_Adjusted_Penalty>
0.00687269

> <i_epik_Tot_Q>
0

> <i_epik_Tot_abs_Q>
0

> <r_epik_Metal_State_Penalty>
0.00678378

> <b_epik_Metal_Only>
0

> <s_lp_Force_Field>
OPLS_2005

> <r_lp_Energy>
1.60018

> <b_lp_Chiralities_Consistent>
1

> <s_lp_Variant>
AV-unprocessed.smi:2874-1

> <Gold.Version>
5.8.1

> <Gold.Id.Protein>
6NUR|6NUR_protein|mol2

> <Gold.PLP.Fitness>
49.7071

> <Gold.PLP.PLP>
-48.2241

> <Gold.PLP.part.hbond>
0.0000

> <Gold.PLP.part.metal>
0.0000

> <Gold.PLP.part.buried>
-3.7969

> <Gold.PLP.part.nonpolar>
-44.3474

> <Gold.PLP.part.repulsive>
0.5233

> <Gold.PLP.ligand.clash>
0.0000

> <Gold.PLP.ligand.torsion>
0.7934

> <Gold.PLP.Chemscore.Hbond>
0.0000

> <Gold.PLP.Chemscore.CHOScore>
1.0178

> <Gold.PLP.Chemscore.Metal>
0.0000

> <Gold.Chemscore.Hbonds>
donor molecule, donor type, donor heavy atom, donor atom, acceptor molecule, acceptor atom, score
      L1  C    11    33       P1  7948  0.56
      L1  C    11    33       P1  7957  0.16

> <Gold.PLP.Chemscore.Internal.Correction>
0.0163

> <Gold.Rescore>
     Score         DG    S(hbond)    S(metal)    S(lipo)     H(rot)  DE(clash)    DE(int)     intcor
     12.44     -13.25       0.00        0.00     119.84       2.44       0.08       0.73       ----

> <Gold.Chemscore.Fitness>
12.4394

> <Gold.Chemscore.DG>
-13.2481

> <Gold.Chemscore.ZeroCoef>
-5.4800

> <Gold.Chemscore.Hbond>
0.0000

> <Gold.Chemscore.Metal>
0.0000

> <Gold.Chemscore.Lipo>
119.8394

> <Gold.Chemscore.Internal_Hbond>
0.0000

> <Gold.Chemscore.DEClash>
0.0801

> <Gold.Chemscore.DEInternal>
0.7286

> <Gold.Chemscore.Rot>
2.4426

> <Gold.Chemscore.Internal.Correction>
   9.000000E+99

> <Gold.Chemscore.Hbond.Weighted>
-0.0000

> <Gold.Chemscore.Metal.Weighted>
-0.0000

> <Gold.Chemscore.Lipo.Weighted>
-14.0212

> <Gold.Chemscore.Internal_Hbond.Weighted>
0.0000

> <Gold.Chemscore.DEClash.Weighted>
0.0801

> <Gold.Chemscore.DEInternal.Weighted>
0.7286

> <Gold.Chemscore.Rot.Weighted>
6.2531

> <Gold.Chemscore.Internal.Correction.Weighted>
   9.000000E+99

> <Gold.Protein.RotatedTorsions>
[ 6907 6896 6895 6894 ] final   65.37 input  -60.11 | X-H torsion
[ 7974 7965 7964 7962 ] final -142.76 input  175.53 | X-H torsion
[ 8008 7997 7996 7995 ] final   22.48 input   59.86 | X-H torsion
[ 10167 10162 10161 10158 ] final  156.02 input  -65.29 | X-H torsion
[ 10718 10713 10712 10709 ] final -141.22 input   66.30 | X-H torsion
[ 10763 10752 10751 10750 ] final   46.60 input  -60.55 | X-H torsion
[ 11005 11000 10999 10996 ] final  -54.92 input  -57.11 | X-H torsion

> <Gold.Protein.ActiveResidues>
 VAL166  LYS551  ARG553  GLY616  TRP617  ASP618  TYR619  PRO620  LYS621  CYS622 
 ASP623  PHE694  ASN695  SER759  ASP760  ASP761  ALA762  ILE779  LEU786  VAL792 
 PHE793  MET794  SER795  GLU796  ALA797  LYS798  CYS799  TRP800  GLU811  SER814 

> <Gold.Protein.RotatedAtoms>
  152.4403  134.5605  159.9892 H   0  0  0  0  0  0  0  0  0  0  0  0  # atno 6907 bound_to 6896
  151.5704  133.3385  159.2996 H   0  0  0  0  0  0  0  0  0  0  0  0  # atno 6908 bound_to 6896
  150.8307  134.7593  159.6915 H   0  0  0  0  0  0  0  0  0  0  0  0  # atno 6909 bound_to 6896
  144.8419  140.5918  143.5446 H   0  0  0  0  0  0  0  0  0  0  0  0  # atno 7974 bound_to 7965
  154.9663  140.3084  155.5008 H   0  0  0  0  0  0  0  0  0  0  0  0  # atno 8008 bound_to 7997
  156.2971  140.2292  156.4691 H   0  0  0  0  0  0  0  0  0  0  0  0  # atno 8009 bound_to 7997
  154.7918  140.0439  157.1195 H   0  0  0  0  0  0  0  0  0  0  0  0  # atno 8010 bound_to 7997
  139.4821  144.5046  151.8117 H   0  0  0  0  0  0  0  0  0  0  0  0  # atno 10167 bound_to 10162
  156.3315  130.7588  151.1707 H   0  0  0  0  0  0  0  0  0  0  0  0  # atno 10718 bound_to 10713
  152.9809  135.6003  154.3627 H   0  0  0  0  0  0  0  0  0  0  0  0  # atno 10763 bound_to 10752
  154.3307  135.2768  155.2475 H   0  0  0  0  0  0  0  0  0  0  0  0  # atno 10764 bound_to 10752
  154.4600  135.5968  153.6305 H   0  0  0  0  0  0  0  0  0  0  0  0  # atno 10765 bound_to 10752
  141.1049  133.6614  156.4392 H   0  0  0  0  0  0  0  0  0  0  0  0  # atno 11005 bound_to 11000
  145.4675  139.1506  143.3832 LP  0  0  0  0  0  0  0  0  0  0  0  0  # atno 17320 bound_to 7965
  146.2710  140.4808  142.8814 LP  0  0  0  0  0  0  0  0  0  0  0  0  # atno 17321 bound_to 7965
  140.4543  144.1812  150.5900 LP  0  0  0  0  0  0  0  0  0  0  0  0  # atno 17342 bound_to 10162
  140.4552  143.2470  151.9294 LP  0  0  0  0  0  0  0  0  0  0  0  0  # atno 17343 bound_to 10162
  157.7431  131.0480  150.4973 LP  0  0  0  0  0  0  0  0  0  0  0  0  # atno 17370 bound_to 10713
  156.5139  130.4146  149.6286 LP  0  0  0  0  0  0  0  0  0  0  0  0  # atno 17371 bound_to 10713
  140.4928  134.6559  157.5217 LP  0  0  0  0  0  0  0  0  0  0  0  0  # atno 17394 bound_to 11000
  139.9915  134.6978  155.9682 LP  0  0  0  0  0  0  0  0  0  0  0  0  # atno 17395 bound_to 11000

$$$$
