AV-unprocessed.smi:3185|AV-procd|sdf|12171|dock1
  -GOLD-   2272018 03D 1   1.00000     0.00000
 Structure written by MMmdl.
 37 38  0  0  0  0  0  0  0  0  1 V2000
  153.7298  139.6141  158.6290 N   0  0  0  0  0  0  0  0  0  0  0  0
  153.6301  140.5618  159.2847 C   0  0  0  0  0  0  0  0  0  0  0  0
  153.5033  141.7667  160.1181 C   0  0  0  0  0  0  0  0  0  0  0  0
  152.9527  142.9671  159.3409 C   0  0  0  0  0  0  0  0  0  0  0  0
  151.4924  142.7613  158.9234 C   0  0  0  0  0  0  0  0  0  0  0  0
  151.4462  142.0033  157.6825 N   0  0  0  0  0  0  0  0  0  0  0  0
  150.1290  142.0380  157.0534 C   0  0  2  0  0  0  0  0  0  0  0  0
  149.1296  141.3210  157.9831 C   0  0  0  0  0  0  0  0  0  0  0  0
  147.7133  141.3319  157.3890 C   0  0  0  0  0  0  0  0  0  0  0  0
  147.6833  140.6926  155.9932 C   0  0  0  0  0  0  0  0  0  0  0  0
  148.6927  141.3647  155.0434 C   0  0  0  0  0  0  0  0  0  0  0  0
  150.1304  141.4505  155.6106 C   0  0  2  0  0  0  0  0  0  0  0  0
  150.8714  140.1935  155.4767 N   0  0  0  0  0  0  0  0  0  0  0  0
  150.8143  139.2982  154.4269 C   0  0  0  0  0  0  0  0  0  0  0  0
  151.6781  138.2777  154.7024 C   0  0  0  0  0  0  0  0  0  0  0  0
  152.2315  138.6379  155.9612 C   0  0  0  0  0  0  0  0  0  0  0  0
  151.7508  139.7818  156.4179 N   0  0  0  0  0  0  0  0  0  0  0  0
  152.8514  141.5247  160.9580 H   0  0  0  0  0  0  0  0  0  0  0  0
  154.4881  141.9956  160.5261 H   0  0  0  0  0  0  0  0  0  0  0  0
  153.0373  143.8640  159.9560 H   0  0  0  0  0  0  0  0  0  0  0  0
  153.5684  143.1370  158.4563 H   0  0  0  0  0  0  0  0  0  0  0  0
  150.9519  142.2237  159.7034 H   0  0  0  0  0  0  0  0  0  0  0  0
  151.0099  143.7299  158.7961 H   0  0  0  0  0  0  0  0  0  0  0  0
  152.1424  142.3441  157.0342 H   0  0  0  0  0  0  0  0  0  0  0  0
  149.8128  143.0807  156.9960 H   0  0  0  0  0  0  0  0  0  0  0  0
  149.4419  140.2940  158.1728 H   0  0  0  0  0  0  0  0  0  0  0  0
  149.1128  141.8140  158.9558 H   0  0  0  0  0  0  0  0  0  0  0  0
  147.0279  140.8049  158.0533 H   0  0  0  0  0  0  0  0  0  0  0  0
  147.3533  142.3597  157.3265 H   0  0  0  0  0  0  0  0  0  0  0  0
  147.8841  139.6250  156.0728 H   0  0  0  0  0  0  0  0  0  0  0  0
  146.6795  140.7741  155.5755 H   0  0  0  0  0  0  0  0  0  0  0  0
  148.6974  140.8522  154.0808 H   0  0  0  0  0  0  0  0  0  0  0  0
  148.3426  142.3773  154.8393 H   0  0  0  0  0  0  0  0  0  0  0  0
  150.6517  142.1647  154.9723 H   0  0  0  0  0  0  0  0  0  0  0  0
  150.1710  139.4616  153.5750 H   0  0  0  0  0  0  0  0  0  0  0  0
  151.8843  137.4083  154.0962 H   0  0  0  0  0  0  0  0  0  0  0  0
  152.9640  138.1077  156.5517 H   0  0  0  0  0  0  0  0  0  0  0  0
  1  2  3  0  0  0  0
  2  3  1  0  0  0  0
  3  4  1  0  0  0  0
  3 18  1  0  0  0  0
  3 19  1  0  0  0  0
  4  5  1  0  0  0  0
  4 20  1  0  0  0  0
  4 21  1  0  0  0  0
  5  6  1  0  0  0  0
  5 22  1  0  0  0  0
  5 23  1  0  0  0  0
  6  7  1  0  0  0  0
  6 24  1  0  0  0  0
  7 12  1  0  0  0  0
  7  8  1  0  0  0  0
  7 25  1  0  0  0  0
  8  9  1  0  0  0  0
  8 26  1  0  0  0  0
  8 27  1  0  0  0  0
  9 10  1  0  0  0  0
  9 28  1  0  0  0  0
  9 29  1  0  0  0  0
 10 11  1  0  0  0  0
 10 30  1  0  0  0  0
 10 31  1  0  0  0  0
 11 12  1  0  0  0  0
 11 32  1  0  0  0  0
 11 33  1  0  0  0  0
 12 13  1  0  0  0  0
 12 34  1  0  0  0  0
 13 17  1  0  0  0  0
 13 14  1  0  0  0  0
 14 15  2  0  0  0  0
 14 35  1  0  0  0  0
 15 16  1  0  0  0  0
 15 36  1  0  0  0  0
 16 17  2  0  0  0  0
 16 37  1  0  0  0  0
M  END
> <s_m_source_file>
AV-unprocessed.smi

> <i_m_source_file_index>
3185

> <i_lp_mmshare_version>
43012

> <i_f3d_flags>
0

> <s_epik_input>
TiNDW0NIMl1bQ0gyXVtDSDJdW05IXVtDQEBIXTFbQ0gyXVtDSDJdW0NIMl1bQ0gyXVtDQEhdMW4yW2NIXVtjSF1bY0hdbjI=

> <s_epik_cmdline>
J2VwaWtfcHl0aG9uJywgJy1waCcsICc3LjAnLCAnLXRuJywgJzgnLCAnLW1hJywgJzIwMCcsICctbWV0YWxfYmluZGluZycsICctaW1hZScsICc8aW5maWxlLm1hZT4nLCAnLW9tYWUnLCAnPG91dGZpbGUubWFlPic=

> <r_lp_tautomer_probability>
1

> <r_epik_Ionization_Penalty>
2.21326

> <r_epik_Ionization_Penalty_Charging>
0

> <r_epik_Ionization_Penalty_Neutral>
2.21326

> <r_epik_State_Penalty>
2.35651

> <r_epik_Charging_Adjusted_Penalty>
2.35651

> <i_epik_Tot_Q>
0

> <i_epik_Tot_abs_Q>
0

> <r_epik_Metal_State_Penalty>
2.3555

> <b_epik_Metal_Only>
0

> <s_lp_Force_Field>
OPLS_2005

> <r_lp_Energy>
17.6064

> <b_lp_Chiralities_Consistent>
1

> <s_lp_Variant>
AV-unprocessed.smi:3185-7

> <Gold.Version>
5.8.1

> <Gold.Id.Protein>
6NUR|6NUR_protein|mol2

> <Gold.PLP.Fitness>
37.7933

> <Gold.PLP.PLP>
-33.1650

> <Gold.PLP.part.hbond>
-1.0000

> <Gold.PLP.part.metal>
0.0000

> <Gold.PLP.part.buried>
-2.4204

> <Gold.PLP.part.nonpolar>
-29.3576

> <Gold.PLP.part.repulsive>
0.0000

> <Gold.PLP.ligand.clash>
0.0000

> <Gold.PLP.ligand.torsion>
0.7646

> <Gold.PLP.Chemscore.Hbond>
1.0000

> <Gold.PLP.Chemscore.CHOScore>
1.0000

> <Gold.PLP.Chemscore.Metal>
0.0000

> <Gold.Chemscore.Hbonds>
donor molecule, donor type, donor heavy atom, donor atom, acceptor molecule, acceptor atom, score
      P1  H  7997  8008       L1     1  1.00
      L1  C    14    35       P1  7957  0.98

> <Gold.PLP.Chemscore.Internal.Correction>
0.1574

> <Gold.Rescore>
     Score         DG    S(hbond)    S(metal)    S(lipo)     H(rot)  DE(clash)    DE(int)     intcor
     10.86     -13.32       0.84        0.00      82.66       1.81       0.05       2.41       ----

> <Gold.Chemscore.Fitness>
10.8627

> <Gold.Chemscore.DG>
-13.3243

> <Gold.Chemscore.ZeroCoef>
-5.4800

> <Gold.Chemscore.Hbond>
0.8411

> <Gold.Chemscore.Metal>
0.0000

> <Gold.Chemscore.Lipo>
82.6591

> <Gold.Chemscore.Internal_Hbond>
0.0000

> <Gold.Chemscore.DEClash>
0.0528

> <Gold.Chemscore.DEInternal>
2.4089

> <Gold.Chemscore.Rot>
1.8110

> <Gold.Chemscore.Internal.Correction>
   9.000000E+99

> <Gold.Chemscore.Hbonds>
donor molecule, donor type, donor heavy atom, donor atom, acceptor molecule, acceptor atom, score
      P1  H  7997  8008       L1     1  0.71

> <Gold.Chemscore.Hbond.Weighted>
-2.8094

> <Gold.Chemscore.Metal.Weighted>
-0.0000

> <Gold.Chemscore.Lipo.Weighted>
-9.6711

> <Gold.Chemscore.Internal_Hbond.Weighted>
0.0000

> <Gold.Chemscore.DEClash.Weighted>
0.0528

> <Gold.Chemscore.DEInternal.Weighted>
2.4089

> <Gold.Chemscore.Rot.Weighted>
4.6362

> <Gold.Chemscore.Internal.Correction.Weighted>
   9.000000E+99

> <Gold.Protein.RotatedTorsions>
[ 6907 6896 6895 6894 ] final -124.81 input  -60.11 | X-H torsion
[ 7974 7965 7964 7962 ] final   74.66 input  175.53 | X-H torsion
[ 8008 7997 7996 7995 ] final  -81.62 input   59.86 | X-H torsion
[ 10167 10162 10161 10158 ] final -150.35 input  -65.29 | X-H torsion
[ 10718 10713 10712 10709 ] final  -21.02 input   66.30 | X-H torsion
[ 10763 10752 10751 10750 ] final  -46.31 input  -60.55 | X-H torsion
[ 11005 11000 10999 10996 ] final  -91.23 input  -57.11 | X-H torsion

> <Gold.Protein.ActiveResidues>
 VAL166  LYS551  ARG553  GLY616  TRP617  ASP618  TYR619  PRO620  LYS621  CYS622 
 ASP623  PHE694  ASN695  SER759  ASP760  ASP761  ALA762  ILE779  LEU786  VAL792 
 PHE793  MET794  SER795  GLU796  ALA797  LYS798  CYS799  TRP800  GLU811  SER814 

> <Gold.Protein.RotatedAtoms>
  150.8805  133.7378  159.2933 H   0  0  0  0  0  0  0  0  0  0  0  0  # atno 6907 bound_to 6896
  151.4961  135.1058  159.9826 H   0  0  0  0  0  0  0  0  0  0  0  0  # atno 6908 bound_to 6896
  152.4757  133.8086  159.7047 H   0  0  0  0  0  0  0  0  0  0  0  0  # atno 6909 bound_to 6896
  145.7255  139.2664  143.1571 H   0  0  0  0  0  0  0  0  0  0  0  0  # atno 7974 bound_to 7965
  154.6002  140.0645  156.9358 H   0  0  0  0  0  0  0  0  0  0  0  0  # atno 8008 bound_to 7997
  155.2145  140.3325  155.4306 H   0  0  0  0  0  0  0  0  0  0  0  0  # atno 8009 bound_to 7997
  156.2313  140.1842  156.7218 H   0  0  0  0  0  0  0  0  0  0  0  0  # atno 8010 bound_to 7997
  139.7362  143.8731  152.2549 H   0  0  0  0  0  0  0  0  0  0  0  0  # atno 10167 bound_to 10162
  156.5239  130.4639  149.6582 H   0  0  0  0  0  0  0  0  0  0  0  0  # atno 10718 bound_to 10713
  154.0428  135.6641  153.4792 H   0  0  0  0  0  0  0  0  0  0  0  0  # atno 10763 bound_to 10752
  153.0494  135.5094  154.7825 H   0  0  0  0  0  0  0  0  0  0  0  0  # atno 10764 bound_to 10752
  154.6807  135.3044  154.9583 H   0  0  0  0  0  0  0  0  0  0  0  0  # atno 10765 bound_to 10752
  141.1549  133.7742  156.9850 H   0  0  0  0  0  0  0  0  0  0  0  0  # atno 11005 bound_to 11000
  146.0586  140.7994  142.9746 LP  0  0  0  0  0  0  0  0  0  0  0  0  # atno 17320 bound_to 7965
  144.6906  140.3162  143.7240 LP  0  0  0  0  0  0  0  0  0  0  0  0  # atno 17321 bound_to 7965
  139.8669  144.7088  150.9033 LP  0  0  0  0  0  0  0  0  0  0  0  0  # atno 17342 bound_to 10162
  140.7779  143.3771  151.1544 LP  0  0  0  0  0  0  0  0  0  0  0  0  # atno 17343 bound_to 10162
  156.3124  130.7236  151.2131 LP  0  0  0  0  0  0  0  0  0  0  0  0  # atno 17370 bound_to 10713
  157.7432  131.0478  150.4961 LP  0  0  0  0  0  0  0  0  0  0  0  0  # atno 17371 bound_to 10713
  140.1040  134.9518  157.1966 LP  0  0  0  0  0  0  0  0  0  0  0  0  # atno 17394 bound_to 11000
  140.3280  134.2841  155.7233 LP  0  0  0  0  0  0  0  0  0  0  0  0  # atno 17395 bound_to 11000

$$$$
