AV-unprocessed.smi:72|AV-procd|sdf|717|dock1
  -GOLD-   2262017 43D 1   1.00000     0.00000
 Structure written by MMmdl.
 28 29  0  0  0  0  0  0  0  0  2 V2000
  154.2903  138.3426  154.6156 N   0  0  0  0  0  0  0  0  0  0  0  0
  153.0627  138.5748  154.7830 C   0  0  0  0  0  0  0  0  0  0  0  0
  152.0708  137.7062  154.1886 N   0  0  0  0  0  0  0  0  0  0  0  0
  150.8207  138.0127  154.3540 C   0  0  0  0  0  0  0  0  0  0  0  0
  150.4086  139.2029  155.0912 N   0  0  0  0  0  0  0  0  0  0  0  0
  148.9474  139.5759  155.2983 C   0  0  2  0  0  0  0  0  0  0  0  0
  148.1108  138.6380  154.6878 O   0  0  0  0  0  0  0  0  0  0  0  0
  147.7510  139.0910  153.3886 C   0  0  1  0  0  0  0  0  0  0  0  0
  146.4851  138.3629  152.9131 C   0  0  0  0  0  0  0  0  0  0  0  0
  146.7621  137.6261  151.7410 O   0  0  0  0  0  0  0  0  0  0  0  0
  147.5490  140.5895  153.6181 C   0  0  2  0  0  0  0  0  0  0  0  0
  147.7573  141.3037  152.4160 O   0  0  0  0  0  0  0  0  0  0  0  0
  148.6220  140.9388  154.6467 C   0  0  1  0  0  0  0  0  0  0  0  0
  148.1125  141.8588  155.5902 O   0  0  0  0  0  0  0  0  0  0  0  0
  151.4067  139.9994  155.7162 C   0  0  0  0  0  0  0  0  0  0  0  0
  151.0411  140.9601  156.3942 O   0  0  0  0  0  0  0  0  0  0  0  0
  152.7169  139.6686  155.5440 N   0  5  0  0  0  0  0  0  0  0  0  0
  148.8034  139.5432  156.3798 H   0  0  0  0  0  0  0  0  0  0  0  0
  148.5790  138.9334  152.6945 H   0  0  0  0  0  0  0  0  0  0  0  0
  146.5491  140.7812  154.0117 H   0  0  0  0  0  0  0  0  0  0  0  0
  149.5131  141.3486  154.1675 H   0  0  0  0  0  0  0  0  0  0  0  0
  154.4506  137.5240  154.0466 H   0  0  0  0  0  0  0  0  0  0  0  0
  150.0150  137.3976  153.9542 H   0  0  0  0  0  0  0  0  0  0  0  0
  146.0876  137.7087  153.6895 H   0  0  0  0  0  0  0  0  0  0  0  0
  145.7068  139.0861  152.6682 H   0  0  0  0  0  0  0  0  0  0  0  0
  147.5904  137.1852  151.8518 H   0  0  0  0  0  0  0  0  0  0  0  0
  148.6327  141.1212  152.1103 H   0  0  0  0  0  0  0  0  0  0  0  0
  148.5276  142.6949  155.4386 H   0  0  0  0  0  0  0  0  0  0  0  0
  1  2  2  0  0  0  0
  1 22  1  0  0  0  0
  2 17  1  0  0  0  0
  2  3  1  0  0  0  0
  3  4  2  0  0  0  0
  4  5  1  0  0  0  0
  4 23  1  0  0  0  0
  5  6  1  0  0  0  0
  5 15  1  0  0  0  0
  6 18  1  0  0  0  0
  6 13  1  0  0  0  0
  6  7  1  0  0  0  0
  7  8  1  0  0  0  0
  8 19  1  0  0  0  0
  8  9  1  0  0  0  0
  8 11  1  0  0  0  0
  9 10  1  0  0  0  0
  9 24  1  0  0  0  0
  9 25  1  0  0  0  0
 10 26  1  0  0  0  0
 11 20  1  0  0  0  0
 11 12  1  0  0  0  0
 11 13  1  0  0  0  0
 12 27  1  0  0  0  0
 13 21  1  0  0  0  0
 13 14  1  0  0  0  0
 14 28  1  0  0  0  0
 15 16  2  0  0  0  0
 15 17  1  0  0  0  0
M  CHG  1  17  -1
M  END
> <s_m_source_file>
AV-unprocessed.smi

> <i_m_source_file_index>
72

> <i_lp_mmshare_version>
43012

> <i_f3d_flags>
0

> <s_epik_input>
W05IMl1jMW5bY0hdbihjKD1PKW4xKVtDQEBIXTJPW0NASF0oW0NIMl1bT0hdKVtDQEBIXShbT0hdKVtDQEhdMltPSF0=

> <s_epik_cmdline>
J2VwaWtfcHl0aG9uJywgJy1waCcsICc3LjAnLCAnLXRuJywgJzgnLCAnLW1hJywgJzIwMCcsICctbWV0YWxfYmluZGluZycsICctaW1hZScsICc8aW5maWxlLm1hZT4nLCAnLW9tYWUnLCAnPG91dGZpbGUubWFlPic=

> <r_lp_tautomer_probability>
7.17554e-07

> <r_epik_Ionization_Penalty>
12.8705

> <r_epik_Ionization_Penalty_Charging>
5.64144

> <r_epik_Ionization_Penalty_Neutral>
7.22905

> <r_epik_State_Penalty>
3.30104

> <r_epik_Charging_Adjusted_Penalty>
8.94249

> <i_epik_Tot_Q>
-1

> <i_epik_Tot_abs_Q>
1

> <r_epik_Metal_State_Penalty>
0.529074

> <b_epik_Metal_Only>
1

> <s_epik_Chemistry_Notes>
This compound contains an acetal/aminal-like group ( X-CH(R)-Y where X, Y are N, S, or O) that may be acid/base labile, releasing an aldehyde.

> <s_lp_Force_Field>
OPLS_2005

> <r_lp_Energy>
29.2038

> <b_lp_Chiralities_Consistent>
1

> <s_lp_Variant>
AV-unprocessed.smi:72-55

> <Gold.Version>
5.8.1

> <Gold.Id.Protein>
6NUR|6NUR_protein|mol2

> <Gold.PLP.Fitness>
44.1586

> <Gold.PLP.PLP>
-25.8626

> <Gold.PLP.part.hbond>
-7.2885

> <Gold.PLP.part.metal>
0.0000

> <Gold.PLP.part.buried>
-0.1752

> <Gold.PLP.part.nonpolar>
-20.5823

> <Gold.PLP.part.repulsive>
0.3066

> <Gold.PLP.ligand.clash>
0.0000

> <Gold.PLP.ligand.torsion>
0.7638

> <Gold.PLP.Chemscore.Hbond>
5.6589

> <Gold.PLP.Chemscore.CHOScore>
0.9377

> <Gold.PLP.Chemscore.Metal>
0.0000

> <Gold.Chemscore.Hbonds>
donor molecule, donor type, donor heavy atom, donor atom, acceptor molecule, acceptor atom, score
      L1  H    10    26       P1  7948  1.00
      L1  H    12    27       P1  7957  0.90
      L1  H    14    28       P1  8028  0.94
      P1  H  7997  8009       L1    17  1.80
      P1  H 10752 10763       L1     3  0.46
      L1  C     4    23       P1  7948  0.87

> <Gold.PLP.Chemscore.Internal.Correction>
0.0339

> <Gold.Rescore>
     Score         DG    S(hbond)    S(metal)    S(lipo)     H(rot)  DE(clash)    DE(int)     intcor
      7.78     -11.11       3.91        0.00      24.89       4.04       1.66       1.67       ----

> <Gold.Chemscore.Fitness>
7.7831

> <Gold.Chemscore.DG>
-11.1050

> <Gold.Chemscore.ZeroCoef>
-5.4800

> <Gold.Chemscore.Hbond>
3.9090

> <Gold.Chemscore.Metal>
0.0000

> <Gold.Chemscore.Lipo>
24.8902

> <Gold.Chemscore.Internal_Hbond>
0.0000

> <Gold.Chemscore.DEClash>
1.6563

> <Gold.Chemscore.DEInternal>
1.6657

> <Gold.Chemscore.Rot>
4.0403

> <Gold.Chemscore.Internal.Correction>
   9.000000E+99

> <Gold.Chemscore.Hbonds>
donor molecule, donor type, donor heavy atom, donor atom, acceptor molecule, acceptor atom, score
      L1  H    10    26       P1  7948  1.00
      L1  H    12    27       P1  7957  0.88
      L1  H    14    28       P1  8028  0.89
      P1  H  7997  8009       L1    17  0.18
      P1  H 10752 10763       L1     3  0.23

> <Gold.Chemscore.Hbond.Weighted>
-13.0560

> <Gold.Chemscore.Metal.Weighted>
-0.0000

> <Gold.Chemscore.Lipo.Weighted>
-2.9122

> <Gold.Chemscore.Internal_Hbond.Weighted>
0.0000

> <Gold.Chemscore.DEClash.Weighted>
1.6563

> <Gold.Chemscore.DEInternal.Weighted>
1.6657

> <Gold.Chemscore.Rot.Weighted>
10.3431

> <Gold.Chemscore.Internal.Correction.Weighted>
   9.000000E+99

> <Gold.Protein.RotatedTorsions>
[ 6907 6896 6895 6894 ] final   -9.02 input  -60.11 | X-H torsion
[ 7974 7965 7964 7962 ] final   51.77 input  175.53 | X-H torsion
[ 8008 7997 7996 7995 ] final -143.59 input   59.86 | X-H torsion
[ 10167 10162 10161 10158 ] final -174.29 input  -65.29 | X-H torsion
[ 10718 10713 10712 10709 ] final  149.17 input   66.30 | X-H torsion
[ 10763 10752 10751 10750 ] final   32.79 input  -60.55 | X-H torsion
[ 11005 11000 10999 10996 ] final   25.25 input  -57.11 | X-H torsion

> <Gold.Protein.ActiveResidues>
 VAL166  LYS551  ARG553  GLY616  TRP617  ASP618  TYR619  PRO620  LYS621  CYS622 
 ASP623  PHE694  ASN695  SER759  ASP760  ASP761  ALA762  ILE779  LEU786  VAL792 
 PHE793  MET794  SER795  GLU796  ALA797  LYS798  CYS799  TRP800  GLU811  SER814 

> <Gold.Protein.RotatedAtoms>
  151.4245  135.1002  159.9623 H   0  0  0  0  0  0  0  0  0  0  0  0  # atno 6907 bound_to 6896
  152.4977  133.8676  159.7292 H   0  0  0  0  0  0  0  0  0  0  0  0  # atno 6908 bound_to 6896
  150.9199  133.6835  159.2862 H   0  0  0  0  0  0  0  0  0  0  0  0  # atno 6909 bound_to 6896
  145.9880  139.4309  143.0091 H   0  0  0  0  0  0  0  0  0  0  0  0  # atno 7974 bound_to 7965
  155.5131  140.0585  157.2920 H   0  0  0  0  0  0  0  0  0  0  0  0  # atno 8008 bound_to 7997
  154.4545  140.1965  156.0369 H   0  0  0  0  0  0  0  0  0  0  0  0  # atno 8009 bound_to 7997
  156.0771  140.3252  155.7651 H   0  0  0  0  0  0  0  0  0  0  0  0  # atno 8010 bound_to 7997
  139.5642  144.1796  152.1286 H   0  0  0  0  0  0  0  0  0  0  0  0  # atno 10167 bound_to 10162
  157.2994  131.0868  151.1401 H   0  0  0  0  0  0  0  0  0  0  0  0  # atno 10718 bound_to 10713
  153.0244  135.6404  154.1410 H   0  0  0  0  0  0  0  0  0  0  0  0  # atno 10763 bound_to 10752
  154.1140  135.2851  155.3225 H   0  0  0  0  0  0  0  0  0  0  0  0  # atno 10764 bound_to 10752
  154.6311  135.5492  153.7744 H   0  0  0  0  0  0  0  0  0  0  0  0  # atno 10765 bound_to 10752
  140.3499  134.2240  155.7681 H   0  0  0  0  0  0  0  0  0  0  0  0  # atno 11005 bound_to 11000
  145.7672  140.9911  143.1168 LP  0  0  0  0  0  0  0  0  0  0  0  0  # atno 17320 bound_to 7965
  144.6880  139.9403  143.7475 LP  0  0  0  0  0  0  0  0  0  0  0  0  # atno 17321 bound_to 7965
  140.1315  144.5283  150.6799 LP  0  0  0  0  0  0  0  0  0  0  0  0  # atno 17342 bound_to 10162
  140.6924  143.2384  151.5094 LP  0  0  0  0  0  0  0  0  0  0  0  0  # atno 17343 bound_to 10162
  157.2767  130.6730  149.6045 LP  0  0  0  0  0  0  0  0  0  0  0  0  # atno 17370 bound_to 10713
  155.9671  130.4462  150.5533 LP  0  0  0  0  0  0  0  0  0  0  0  0  # atno 17371 bound_to 10713
  141.2015  133.7961  157.0438 LP  0  0  0  0  0  0  0  0  0  0  0  0  # atno 17394 bound_to 11000
  140.0711  134.9701  157.1469 LP  0  0  0  0  0  0  0  0  0  0  0  0  # atno 17395 bound_to 11000

$$$$
