AV-unprocessed.smi:508|AV-procd|sdf|2759|dock6
  -GOLD-   2262023223D 1   1.00000     0.00000
 Structure written by MMmdl.
 48 50  0  0  0  0  0  0  0  0  2 V2000
  146.9984  142.1632  154.1995 C   0  0  0  0  0  0  0  0  0  0  0  0
  148.4033  141.5886  154.3950 C   0  0  0  0  0  0  0  0  0  0  0  0
  148.6820  141.5178  155.7829 O   0  0  0  0  0  0  0  0  0  0  0  0
  150.0203  141.1364  156.0542 C   0  0  0  0  0  0  0  0  0  0  0  0
  150.1921  141.0086  157.5746 C   0  0  0  0  0  0  0  0  0  0  0  0
  151.4061  140.2911  157.9514 N   0  0  0  0  0  0  0  0  0  0  0  0
  152.4924  140.7654  158.6205 C   0  0  0  0  0  0  0  0  0  0  0  0
  152.5520  142.0711  159.1133 N   0  0  0  0  0  0  0  0  0  0  0  0
  153.2457  142.4510  160.3417 C   0  0  0  0  0  0  0  0  0  0  0  0
  152.4019  143.2682  161.3401 C   0  0  0  0  0  0  0  0  0  0  0  0
  152.1974  144.7260  160.9018 C   0  0  0  0  0  0  0  0  0  0  0  0
  151.0504  144.9489  159.8996 C   0  0  0  0  0  0  0  0  0  0  0  0
  150.8823  143.8801  158.8037 C   0  0  0  0  0  0  0  0  0  0  0  0
  152.1868  143.2347  158.3096 C   0  0  0  0  0  0  0  0  0  0  0  0
  153.4944  139.8918  158.7450 N   0  0  0  0  0  0  0  0  0  0  0  0
  152.9919  138.7559  158.1296 C   0  0  0  0  0  0  0  0  0  0  0  0
  151.7400  138.9684  157.6450 C   0  0  0  0  0  0  0  0  0  0  0  0
  150.9552  137.9455  156.9211 C   0  0  0  0  0  0  0  0  0  0  0  0
  149.8317  138.1951  156.4892 O   0  0  0  0  0  0  0  0  0  0  0  0
  151.6298  136.7567  156.8161 N   0  5  0  0  0  0  0  0  0  0  0  0
  152.8964  136.4964  157.2957 C   0  0  0  0  0  0  0  0  0  0  0  0
  153.4228  135.3922  157.1567 O   0  0  0  0  0  0  0  0  0  0  0  0
  153.5941  137.4836  157.9448 N   0  0  0  0  0  0  0  0  0  0  0  0
  154.9477  137.2909  158.4742 C   0  0  0  0  0  0  0  0  0  0  0  0
  146.7493  142.2319  153.1404 H   0  0  0  0  0  0  0  0  0  0  0  0
  146.9221  143.1631  154.6272 H   0  0  0  0  0  0  0  0  0  0  0  0
  146.2487  141.5344  154.6797 H   0  0  0  0  0  0  0  0  0  0  0  0
  148.4633  140.5951  153.9484 H   0  0  0  0  0  0  0  0  0  0  0  0
  149.1377  142.2221  153.8953 H   0  0  0  0  0  0  0  0  0  0  0  0
  150.2391  140.1919  155.5585 H   0  0  0  0  0  0  0  0  0  0  0  0
  150.7098  141.8783  155.6504 H   0  0  0  0  0  0  0  0  0  0  0  0
  150.2132  141.9958  158.0354 H   0  0  0  0  0  0  0  0  0  0  0  0
  149.3310  140.5126  158.0163 H   0  0  0  0  0  0  0  0  0  0  0  0
  153.6010  141.5451  160.8285 H   0  0  0  0  0  0  0  0  0  0  0  0
  154.1490  143.0032  160.0801 H   0  0  0  0  0  0  0  0  0  0  0  0
  151.4476  142.7908  161.5575 H   0  0  0  0  0  0  0  0  0  0  0  0
  152.9444  143.2807  162.2857 H   0  0  0  0  0  0  0  0  0  0  0  0
  152.0018  145.3395  161.7819 H   0  0  0  0  0  0  0  0  0  0  0  0
  153.1295  145.1089  160.4846 H   0  0  0  0  0  0  0  0  0  0  0  0
  150.1085  145.0286  160.4434 H   0  0  0  0  0  0  0  0  0  0  0  0
  151.1986  145.9218  159.4299 H   0  0  0  0  0  0  0  0  0  0  0  0
  150.2009  143.1002  159.1484 H   0  0  0  0  0  0  0  0  0  0  0  0
  150.3773  144.3468  157.9575 H   0  0  0  0  0  0  0  0  0  0  0  0
  152.9997  143.9610  158.2737 H   0  0  0  0  0  0  0  0  0  0  0  0
  152.0394  142.9029  157.2813 H   0  0  0  0  0  0  0  0  0  0  0  0
  155.3871  136.3199  158.2451 H   0  0  0  0  0  0  0  0  0  0  0  0
  154.9393  137.3985  159.5591 H   0  0  0  0  0  0  0  0  0  0  0  0
  155.6169  138.0497  158.0676 H   0  0  0  0  0  0  0  0  0  0  0  0
  1  2  1  0  0  0  0
  1 25  1  0  0  0  0
  1 26  1  0  0  0  0
  1 27  1  0  0  0  0
  2  3  1  0  0  0  0
  2 28  1  0  0  0  0
  2 29  1  0  0  0  0
  3  4  1  0  0  0  0
  4  5  1  0  0  0  0
  4 30  1  0  0  0  0
  4 31  1  0  0  0  0
  5  6  1  0  0  0  0
  5 32  1  0  0  0  0
  5 33  1  0  0  0  0
  6 17  1  0  0  0  0
  6  7  1  0  0  0  0
  7  8  1  0  0  0  0
  7 15  2  0  0  0  0
  8 14  1  0  0  0  0
  8  9  1  0  0  0  0
  9 10  1  0  0  0  0
  9 34  1  0  0  0  0
  9 35  1  0  0  0  0
 10 11  1  0  0  0  0
 10 36  1  0  0  0  0
 10 37  1  0  0  0  0
 11 12  1  0  0  0  0
 11 38  1  0  0  0  0
 11 39  1  0  0  0  0
 12 13  1  0  0  0  0
 12 40  1  0  0  0  0
 12 41  1  0  0  0  0
 13 14  1  0  0  0  0
 13 42  1  0  0  0  0
 13 43  1  0  0  0  0
 14 44  1  0  0  0  0
 14 45  1  0  0  0  0
 15 16  1  0  0  0  0
 16 23  1  0  0  0  0
 16 17  2  0  0  0  0
 17 18  1  0  0  0  0
 18 19  2  0  0  0  0
 18 20  1  0  0  0  0
 20 21  1  0  0  0  0
 21 22  2  0  0  0  0
 21 23  1  0  0  0  0
 23 24  1  0  0  0  0
 24 46  1  0  0  0  0
 24 47  1  0  0  0  0
 24 48  1  0  0  0  0
M  CHG  1  20  -1
M  END
> <s_m_source_file>
AV-unprocessed.smi

> <i_m_source_file_index>
508

> <i_lp_mmshare_version>
43012

> <i_f3d_flags>
0

> <s_epik_input>
W0NIM11uMWMoPU8pW25IXWMoPU8pYyhjMTIpbihbQ0gyXVtDSDJdT1tDSDJdW0NIM10pYyhuMilOM1tDSDJdW0NIMl1bQ0gyXVtDSDJdW0NIMl1bQ0gyXTM=

> <s_epik_cmdline>
J2VwaWtfcHl0aG9uJywgJy1waCcsICc3LjAnLCAnLXRuJywgJzgnLCAnLW1hJywgJzIwMCcsICctbWV0YWxfYmluZGluZycsICctaW1hZScsICc8aW5maWxlLm1hZT4nLCAnLW9tYWUnLCAnPG91dGZpbGUubWFlPic=

> <r_lp_tautomer_probability>
1

> <r_epik_Ionization_Penalty>
6.1764

> <r_epik_Ionization_Penalty_Charging>
0.0751667

> <r_epik_Ionization_Penalty_Neutral>
6.10123

> <r_epik_State_Penalty>
6.09793

> <r_epik_Charging_Adjusted_Penalty>
6.17309

> <i_epik_Tot_Q>
-1

> <i_epik_Tot_abs_Q>
1

> <r_epik_Metal_State_Penalty>
2.04406

> <b_epik_Metal_Only>
1

> <s_lp_Force_Field>
OPLS_2005

> <r_lp_Energy>
49.0985

> <b_lp_Chiralities_Consistent>
1

> <s_lp_Variant>
AV-unprocessed.smi:508-2

> <Gold.Version>
5.8.1

> <Gold.Id.Protein>
6NUR|6NUR_protein|mol2

> <Gold.PLP.Fitness>
47.1853

> <Gold.PLP.PLP>
-43.5523

> <Gold.PLP.part.hbond>
-2.0000

> <Gold.PLP.part.metal>
0.0000

> <Gold.PLP.part.buried>
-6.6708

> <Gold.PLP.part.nonpolar>
-35.4332

> <Gold.PLP.part.repulsive>
0.2403

> <Gold.PLP.ligand.clash>
0.0000

> <Gold.PLP.ligand.torsion>
0.7368

> <Gold.PLP.Chemscore.Hbond>
1.4514

> <Gold.PLP.Chemscore.CHOScore>
0.0000

> <Gold.PLP.Chemscore.Metal>
0.0000

> <Gold.Chemscore.Hbonds>
donor molecule, donor type, donor heavy atom, donor atom, acceptor molecule, acceptor atom, score
      P1  H  7997  8010       L1    15  0.43
      P1  H 10752 10764       L1    22  1.00

> <Gold.PLP.Chemscore.Internal.Correction>
0.7526

> <Gold.Rescore>
     Score         DG    S(hbond)    S(metal)    S(lipo)     H(rot)  DE(clash)    DE(int)     intcor
     14.72     -15.66       0.79        0.00      98.57       1.55       0.04       0.90       ----

> <Gold.Chemscore.Fitness>
14.7219

> <Gold.Chemscore.DG>
-15.6603

> <Gold.Chemscore.ZeroCoef>
-5.4800

> <Gold.Chemscore.Hbond>
0.7858

> <Gold.Chemscore.Metal>
0.0000

> <Gold.Chemscore.Lipo>
98.5675

> <Gold.Chemscore.Internal_Hbond>
0.0000

> <Gold.Chemscore.DEClash>
0.0402

> <Gold.Chemscore.DEInternal>
0.8981

> <Gold.Chemscore.Rot>
1.5534

> <Gold.Chemscore.Internal.Correction>
   9.000000E+99

> <Gold.Chemscore.Hbonds>
donor molecule, donor type, donor heavy atom, donor atom, acceptor molecule, acceptor atom, score
      P1  H  7997  8010       L1    15  0.01
      P1  H 10752 10764       L1    22  0.30

> <Gold.Chemscore.Hbond.Weighted>
-2.6247

> <Gold.Chemscore.Metal.Weighted>
-0.0000

> <Gold.Chemscore.Lipo.Weighted>
-11.5324

> <Gold.Chemscore.Internal_Hbond.Weighted>
0.0000

> <Gold.Chemscore.DEClash.Weighted>
0.0402

> <Gold.Chemscore.DEInternal.Weighted>
0.8981

> <Gold.Chemscore.Rot.Weighted>
3.9768

> <Gold.Chemscore.Internal.Correction.Weighted>
   9.000000E+99

> <Gold.Protein.RotatedTorsions>
[ 6907 6896 6895 6894 ] final   69.35 input  -60.11 | X-H torsion
[ 7974 7965 7964 7962 ] final   98.44 input  175.53 | X-H torsion
[ 8008 7997 7996 7995 ] final   11.95 input   59.86 | X-H torsion
[ 10167 10162 10161 10158 ] final   79.45 input  -65.29 | X-H torsion
[ 10718 10713 10712 10709 ] final  144.35 input   66.30 | X-H torsion
[ 10763 10752 10751 10750 ] final    5.62 input  -60.55 | X-H torsion
[ 11005 11000 10999 10996 ] final -140.00 input  -57.11 | X-H torsion

> <Gold.Protein.ActiveResidues>
 VAL166  LYS551  ARG553  GLY616  TRP617  ASP618  TYR619  PRO620  LYS621  CYS622 
 ASP623  PHE694  ASN695  SER759  ASP760  ASP761  ALA762  ILE779  LEU786  VAL792 
 PHE793  MET794  SER795  GLU796  ALA797  LYS798  CYS799  TRP800  GLU811  SER814 

> <Gold.Protein.RotatedAtoms>
  152.4681  134.5028  159.9729 H   0  0  0  0  0  0  0  0  0  0  0  0  # atno 6907 bound_to 6896
  151.5061  133.3488  159.2885 H   0  0  0  0  0  0  0  0  0  0  0  0  # atno 6908 bound_to 6896
  150.8675  134.8070  159.7192 H   0  0  0  0  0  0  0  0  0  0  0  0  # atno 6909 bound_to 6896
  145.4122  139.2332  143.3242 H   0  0  0  0  0  0  0  0  0  0  0  0  # atno 7974 bound_to 7965
  154.8139  140.2872  155.5834 H   0  0  0  0  0  0  0  0  0  0  0  0  # atno 8008 bound_to 7997
  156.2991  140.2563  156.2962 H   0  0  0  0  0  0  0  0  0  0  0  0  # atno 8009 bound_to 7997
  154.9416  140.0381  157.2089 H   0  0  0  0  0  0  0  0  0  0  0  0  # atno 8010 bound_to 7997
  139.9602  144.5966  150.8079 H   0  0  0  0  0  0  0  0  0  0  0  0  # atno 10167 bound_to 10162
  157.3582  131.0961  151.0939 H   0  0  0  0  0  0  0  0  0  0  0  0  # atno 10718 bound_to 10713
  153.2573  135.6919  153.7616 H   0  0  0  0  0  0  0  0  0  0  0  0  # atno 10763 bound_to 10752
  153.6688  135.3348  155.3148 H   0  0  0  0  0  0  0  0  0  0  0  0  # atno 10764 bound_to 10752
  154.8417  135.4495  154.1551 H   0  0  0  0  0  0  0  0  0  0  0  0  # atno 10765 bound_to 10752
  140.8465  134.2338  157.4783 H   0  0  0  0  0  0  0  0  0  0  0  0  # atno 11005 bound_to 11000
  146.2699  140.4834  142.8818 LP  0  0  0  0  0  0  0  0  0  0  0  0  # atno 17320 bound_to 7965
  144.8301  140.6693  143.6296 LP  0  0  0  0  0  0  0  0  0  0  0  0  # atno 17321 bound_to 7965
  140.7555  143.3048  151.2989 LP  0  0  0  0  0  0  0  0  0  0  0  0  # atno 17342 bound_to 10162
  139.6560  144.0276  152.2660 LP  0  0  0  0  0  0  0  0  0  0  0  0  # atno 17343 bound_to 10162
  157.2089  130.6429  149.5766 LP  0  0  0  0  0  0  0  0  0  0  0  0  # atno 17370 bound_to 10713
  155.9733  130.4666  150.6296 LP  0  0  0  0  0  0  0  0  0  0  0  0  # atno 17371 bound_to 10713
  139.8703  134.9662  156.4554 LP  0  0  0  0  0  0  0  0  0  0  0  0  # atno 17394 bound_to 11000
  140.8838  133.7898  155.9495 LP  0  0  0  0  0  0  0  0  0  0  0  0  # atno 17395 bound_to 11000

$$$$
