#       Name:                AV-unprocessed.smi:83
#       Creating user name   scv26
#       Creation time:       Thu Mar 26 17:18:27 2020


#       File generated by GOLD software.
#

@<TRIPOS>MOLECULE
AV-unprocessed.smi:83
    65    68     1
SMALL
NO_CHARGES


@<TRIPOS>ATOM
      1 ****        -0.8624  -2.8314  -1.5806 C.3            1 S1                 0.0000
      2 ****        -2.0845  -2.9926  -0.6745 C.2            1 S1                 0.0000
      3 ****        -2.0622  -3.8489   0.2092 O.2            1 S1                 0.0000
      4 ****        -3.1479  -2.1885  -0.8771 N.am           1 S1                 0.0000
      5 ****        -4.3728  -2.2451  -0.0840 C.3            1 S1                 0.0000
      6 ****        -5.3152  -1.2149  -0.7139 C.3            1 S1                 0.0000
      7 ****        -4.3841  -0.2089  -1.3898 C.3            1 S1                 0.0000
      8 ****        -3.9610   0.8873  -0.3812 C.3            1 S1                 0.0000
      9 ****        -3.0914   1.9204  -0.9467 N.pl3          1 S1                 0.0000
     10 ****        -3.7190   2.9097  -1.8212 C.3            1 S1                 0.0000
     11 ****        -1.7349   1.7589  -1.0025 C.ar           1 S1                 0.0000
     12 ****        -1.0543   2.4034  -1.9900 N.ar           1 S1                 0.0000
     13 ****         0.2650   2.2570  -2.1297 C.ar           1 S1                 0.0000
     14 ****         1.1011   1.5185  -1.4021 N.ar           1 S1                 0.0000
     15 ****         0.4418   0.8765  -0.3979 C.ar           1 S1                 0.0000
     16 ****        -0.9560   0.9450  -0.1185 C.ar           1 S1                 0.0000
     17 ****        -1.2311   0.1612   0.9987 N.2            1 S1                 0.0000
     18 ****        -0.0828  -0.3522   1.3401 C.2            1 S1                 0.0000
     19 ****         0.9768   0.0246   0.5521 N.pl3          1 S1                 0.0000
     20 ****         2.3585  -0.3963   0.7021 C.3            1 S1                 0.0000
     21 ****         3.1177   0.4417   1.7485 C.3            1 S1                 0.0000
     22 ****         3.1304   1.8079   1.3801 O.3            1 S1                 0.0000
     23 ****         4.5511  -0.0713   1.9969 C.3            1 S1                 0.0000
     24 ****         5.4150   0.7488   2.9594 C.3            1 S1                 0.0000
     25 ****         6.8057   0.3503   2.5191 C.3            1 S1                 0.0000
     26 ****         6.6367   0.2555   1.0048 C.3            1 S1                 0.0000
     27 ****         5.2985  -0.1834   0.7877 O.3            1 S1                 0.0000
     28 ****        -3.2390  -1.1170  -1.8658 C.3            1 S1                 0.0000
     29 ****        -1.1471  -2.8960  -2.6309 H              1 S1                 0.0000
     30 ****        -0.1304  -3.6147  -1.3819 H              1 S1                 0.0000
     31 ****        -0.3789  -1.8702  -1.4078 H              1 S1                 0.0000
     32 ****        -4.8124  -3.2436  -0.0851 H              1 S1                 0.0000
     33 ****        -4.1434  -1.9754   0.9481 H              1 S1                 0.0000
     34 ****        -5.9302  -1.7036  -1.4709 H              1 S1                 0.0000
     35 ****        -5.9910  -0.7620   0.0124 H              1 S1                 0.0000
     36 ****        -4.8807   0.2612  -2.2395 H              1 S1                 0.0000
     37 ****        -4.8629   1.3924  -0.0341 H              1 S1                 0.0000
     38 ****        -3.5513   0.4463   0.5210 H              1 S1                 0.0000
     39 ****        -3.2655   3.8921  -1.6851 H              1 S1                 0.0000
     40 ****        -4.7829   3.0060  -1.6037 H              1 S1                 0.0000
     41 ****        -3.6169   2.6197  -2.8675 H              1 S1                 0.0000
     42 ****         0.7135   2.8060  -2.9447 H              1 S1                 0.0000
     43 ****         0.0222  -1.0239   2.1797 H              1 S1                 0.0000
     44 ****         2.3628  -1.4486   0.9886 H              1 S1                 0.0000
     45 ****         2.8497  -0.3378  -0.2699 H              1 S1                 0.0000
     46 ****         2.5767   0.3835   2.6938 H              1 S1                 0.0000
     47 ****         2.2394   2.0881   1.2368 H              1 S1                 0.0000
     48 ****         4.4848  -1.0851   2.3954 H              1 S1                 0.0000
     49 ****         5.2802   1.8204   2.8100 H              1 S1                 0.0000
     50 ****         5.2156   0.5232   4.0072 H              1 S1                 0.0000
     51 ****         7.5734   1.0642   2.8187 H              1 S1                 0.0000
     52 ****         7.0647  -0.6259   2.9310 H              1 S1                 0.0000
     53 ****         6.7555   1.2387   0.5482 H              1 S1                 0.0000
     54 ****         7.3581  -0.4205   0.5454 H              1 S1                 0.0000
     55 ****        -2.3034  -0.5831  -2.0121 H              1 S1                 0.0000
     56 ****        -3.4977  -1.5668  -2.8254 H              1 S1                 0.0000
     57 ****        -1.2539  -4.4259   0.3261 LP             1 S1                 0.0000
     58 ****        -2.8525  -3.9677   0.8104 LP             1 S1                 0.0000
     59 ****        -1.5520   2.9973  -2.6222 LP             1 S1                 0.0000
     60 ****         2.0840   1.4450  -1.5709 LP             1 S1                 0.0000
     61 ****        -2.1165   0.0224   1.4424 LP             1 S1                 0.0000
     62 ****         3.6603   1.9259   0.5403 LP             1 S1                 0.0000
     63 ****         3.5411   2.3509   2.1125 LP             1 S1                 0.0000
     64 ****         4.8739   0.3829   0.0813 LP             1 S1                 0.0000
     65 ****         5.3064  -1.1379   0.4896 LP             1 S1                 0.0000
@<TRIPOS>BOND
    1    1    2 1     
    2    1   29 1     
    3    1   30 1     
    4    1   31 1     
    5    2    3 2     
    6    2    4 am    
    7    4   28 1     
    8    4    5 1     
    9    5    6 1     
   10    5   32 1     
   11    5   33 1     
   12    6    7 1     
   13    6   34 1     
   14    6   35 1     
   15    7    8 1     
   16    7   28 1     
   17    7   36 1     
   18    8    9 1     
   19    8   37 1     
   20    8   38 1     
   21    9   10 1     
   22    9   11 1     
   23   10   39 1     
   24   10   40 1     
   25   10   41 1     
   26   11   16 ar    
   27   11   12 ar    
   28   12   13 ar    
   29   13   14 ar    
   30   13   42 1     
   31   14   15 ar    
   32   15   19 1     
   33   15   16 ar    
   34   16   17 1     
   35   17   18 2     
   36   18   19 1     
   37   18   43 1     
   38   19   20 1     
   39   20   21 1     
   40   20   44 1     
   41   20   45 1     
   42   21   22 1     
   43   21   23 1     
   44   21   46 1     
   45   22   47 1     
   46   23   27 1     
   47   23   24 1     
   48   23   48 1     
   49   24   25 1     
   50   24   49 1     
   51   24   50 1     
   52   25   26 1     
   53   25   51 1     
   54   25   52 1     
   55   26   27 1     
   56   26   53 1     
   57   26   54 1     
   58   28   55 1     
   59   28   56 1     
   60    3   57 1     
   61    3   58 1     
   62   12   59 1     
   63   14   60 1     
   64   17   61 1     
   65   22   62 1     
   66   22   63 1     
   67   27   64 1     
   68   27   65 1     
@<TRIPOS>SUBSTRUCTURE
      1 S1             1
@<TRIPOS>SET
LONE_PAIRS      STATIC     ATOMS    <user>   **** ""
9 57 58 59 60 61 62 63 64 65
DONOR_HYDROGENS      STATIC     ATOMS    <user>   **** ""
1 47
ATOM$BLUE        STATIC     ATOMS    COLORGROUP SYSTEM
9 57 58 59 60 61 62 63 64 65
ATOM$RED        STATIC     ATOMS    COLORGROUP SYSTEM
1 47
