AV-unprocessed.smi:2435|AV-procd|sdf|9592|dock6
  -GOLD-   2272013223D 1   1.00000     0.00000
 Structure written by MMmdl.
 44 45  0  0  0  0  0  0  0  0  1 V2000
  148.9042  136.2731  158.5933 C   0  0  0  0  0  0  0  0  0  0  0  0
  150.0204  135.5763  158.0666 O   0  0  0  0  0  0  0  0  0  0  0  0
  150.5026  136.1160  156.9269 C   0  0  0  0  0  0  0  0  0  0  0  0
  150.8476  137.3968  156.5943 C   0  0  0  0  0  0  0  0  0  0  0  0
  150.8013  138.5850  157.3675 N   0  0  0  0  0  0  0  0  0  0  0  0
  151.6527  139.6217  157.3190 C   0  0  0  0  0  0  0  0  0  0  0  0
  152.6306  139.6991  156.5758 O   0  0  0  0  0  0  0  0  0  0  0  0
  151.2925  140.5870  158.1772 N   0  0  0  0  0  0  0  0  0  0  0  0
  151.9948  141.8530  158.3753 C   0  0  0  0  0  0  0  0  0  0  0  0
  152.4335  141.9326  159.8498 C   0  0  0  0  0  0  0  0  0  0  0  0
  153.1725  143.2224  160.2471 C   0  0  0  0  0  0  0  0  0  0  0  0
  152.2328  144.4327  160.3685 C   0  0  0  0  0  0  0  0  0  0  0  0
  151.9699  145.1976  159.0598 C   0  0  0  0  0  0  0  0  0  0  0  0
  151.8623  144.3528  157.7781 C   0  0  0  0  0  0  0  0  0  0  0  0
  151.0982  143.0258  157.9179 C   0  0  0  0  0  0  0  0  0  0  0  0
  151.2288  137.3314  155.2255 C   0  0  0  0  0  0  0  0  0  0  0  0
  151.6707  138.4365  154.3096 C   0  0  0  0  0  0  0  0  0  0  0  0
  151.1674  136.0854  154.7690 N   0  0  0  0  0  0  0  0  0  0  0  0
  150.7321  135.3374  155.8123 N   0  0  0  0  0  0  0  0  0  0  0  0
  150.5415  133.9113  155.6452 C   0  0  0  0  0  0  0  0  0  0  0  0
  148.5561  135.7751  159.4979 H   0  0  0  0  0  0  0  0  0  0  0  0
  148.0799  136.2889  157.8786 H   0  0  0  0  0  0  0  0  0  0  0  0
  149.1586  137.3013  158.8535 H   0  0  0  0  0  0  0  0  0  0  0  0
  149.9877  138.6952  157.9547 H   0  0  0  0  0  0  0  0  0  0  0  0
  150.4686  140.4355  158.7405 H   0  0  0  0  0  0  0  0  0  0  0  0
  152.8979  141.8433  157.7619 H   0  0  0  0  0  0  0  0  0  0  0  0
  151.5710  141.7932  160.5034 H   0  0  0  0  0  0  0  0  0  0  0  0
  153.0940  141.0887  160.0540 H   0  0  0  0  0  0  0  0  0  0  0  0
  153.6265  143.0527  161.2242 H   0  0  0  0  0  0  0  0  0  0  0  0
  153.9997  143.4307  159.5677 H   0  0  0  0  0  0  0  0  0  0  0  0
  151.2841  144.1123  160.8006 H   0  0  0  0  0  0  0  0  0  0  0  0
  152.6511  145.1364  161.0893 H   0  0  0  0  0  0  0  0  0  0  0  0
  151.0552  145.7781  159.1841 H   0  0  0  0  0  0  0  0  0  0  0  0
  152.7626  145.9321  158.9122 H   0  0  0  0  0  0  0  0  0  0  0  0
  151.3716  144.9632  157.0192 H   0  0  0  0  0  0  0  0  0  0  0  0
  152.8597  144.1571  157.3826 H   0  0  0  0  0  0  0  0  0  0  0  0
  150.6916  142.7839  156.9349 H   0  0  0  0  0  0  0  0  0  0  0  0
  150.2346  143.1412  158.5744 H   0  0  0  0  0  0  0  0  0  0  0  0
  151.9850  139.3165  154.8711 H   0  0  0  0  0  0  0  0  0  0  0  0
  150.8610  138.7385  153.6450 H   0  0  0  0  0  0  0  0  0  0  0  0
  152.5121  138.1247  153.6905 H   0  0  0  0  0  0  0  0  0  0  0  0
  150.7853  133.3941  156.5735 H   0  0  0  0  0  0  0  0  0  0  0  0
  151.1874  133.5318  154.8523 H   0  0  0  0  0  0  0  0  0  0  0  0
  149.5016  133.7102  155.3876 H   0  0  0  0  0  0  0  0  0  0  0  0
  1  2  1  0  0  0  0
  1 21  1  0  0  0  0
  1 22  1  0  0  0  0
  1 23  1  0  0  0  0
  2  3  1  0  0  0  0
  3 19  1  0  0  0  0
  3  4  2  0  0  0  0
  4  5  1  0  0  0  0
  4 16  1  0  0  0  0
  5  6  1  0  0  0  0
  5 24  1  0  0  0  0
  6  7  2  0  0  0  0
  6  8  1  0  0  0  0
  8  9  1  0  0  0  0
  8 25  1  0  0  0  0
  9 15  1  0  0  0  0
  9 10  1  0  0  0  0
  9 26  1  0  0  0  0
 10 11  1  0  0  0  0
 10 27  1  0  0  0  0
 10 28  1  0  0  0  0
 11 12  1  0  0  0  0
 11 29  1  0  0  0  0
 11 30  1  0  0  0  0
 12 13  1  0  0  0  0
 12 31  1  0  0  0  0
 12 32  1  0  0  0  0
 13 14  1  0  0  0  0
 13 33  1  0  0  0  0
 13 34  1  0  0  0  0
 14 15  1  0  0  0  0
 14 35  1  0  0  0  0
 14 36  1  0  0  0  0
 15 37  1  0  0  0  0
 15 38  1  0  0  0  0
 16 17  1  0  0  0  0
 16 18  2  0  0  0  0
 17 39  1  0  0  0  0
 17 40  1  0  0  0  0
 17 41  1  0  0  0  0
 18 19  1  0  0  0  0
 19 20  1  0  0  0  0
 20 42  1  0  0  0  0
 20 43  1  0  0  0  0
 20 44  1  0  0  0  0
M  END
> <s_m_source_file>
AV-unprocessed.smi

> <i_m_source_file_index>
2435

> <i_lp_mmshare_version>
43012

> <i_f3d_flags>
0

> <s_epik_input>
W0NIM11uMW5jKFtDSDNdKWMoYzFPW0NIM10pW05IXUMoPU8pW05IXVtDSF0yW0NIMl1bQ0gyXVtDSDJdW0NIMl1bQ0gyXVtDSDJdMg==

> <s_epik_cmdline>
J2VwaWtfcHl0aG9uJywgJy1waCcsICc3LjAnLCAnLXRuJywgJzgnLCAnLW1hJywgJzIwMCcsICctbWV0YWxfYmluZGluZycsICctaW1hZScsICc8aW5maWxlLm1hZT4nLCAnLW9tYWUnLCAnPG91dGZpbGUubWFlPic=

> <r_lp_tautomer_probability>
1

> <r_epik_Ionization_Penalty>
0.000417553

> <r_epik_Ionization_Penalty_Charging>
0

> <r_epik_Ionization_Penalty_Neutral>
0.000417553

> <r_epik_State_Penalty>
-0

> <r_epik_Charging_Adjusted_Penalty>
0

> <i_epik_Tot_Q>
0

> <i_epik_Tot_abs_Q>
0

> <r_epik_Metal_State_Penalty>
-0

> <b_epik_Metal_Only>
0

> <s_lp_Force_Field>
OPLS_2005

> <r_lp_Energy>
21.6667

> <b_lp_Chiralities_Consistent>
1

> <s_lp_Variant>
AV-unprocessed.smi:2435-1

> <Gold.Version>
5.8.1

> <Gold.Id.Protein>
6NUR|6NUR_protein|mol2

> <Gold.PLP.Fitness>
48.1367

> <Gold.PLP.PLP>
-40.3134

> <Gold.PLP.part.hbond>
-3.0000

> <Gold.PLP.part.metal>
0.0000

> <Gold.PLP.part.buried>
-6.6676

> <Gold.PLP.part.nonpolar>
-30.9721

> <Gold.PLP.part.repulsive>
0.2729

> <Gold.PLP.ligand.clash>
0.0000

> <Gold.PLP.ligand.torsion>
0.3694

> <Gold.PLP.Chemscore.Hbond>
2.8480

> <Gold.PLP.Chemscore.CHOScore>
0.0000

> <Gold.PLP.Chemscore.Metal>
0.0000

> <Gold.Chemscore.Hbonds>
donor molecule, donor type, donor heavy atom, donor atom, acceptor molecule, acceptor atom, score
      P1  H  6896  6908       L1     2  0.75
      P1  H  7997  8008       L1     7  1.00
      P1  H 10752 10765       L1    18  1.00

> <Gold.PLP.Chemscore.Internal.Correction>
0.0181

> <Gold.Rescore>
     Score         DG    S(hbond)    S(metal)    S(lipo)     H(rot)  DE(clash)    DE(int)     intcor
     21.98     -23.90       2.84        0.00     102.87       1.21       0.16       1.76       ----

> <Gold.Chemscore.Fitness>
21.9843

> <Gold.Chemscore.DG>
-23.9038

> <Gold.Chemscore.ZeroCoef>
-5.4800

> <Gold.Chemscore.Hbond>
2.8415

> <Gold.Chemscore.Metal>
0.0000

> <Gold.Chemscore.Lipo>
102.8685

> <Gold.Chemscore.Internal_Hbond>
0.0000

> <Gold.Chemscore.DEClash>
0.1596

> <Gold.Chemscore.DEInternal>
1.7599

> <Gold.Chemscore.Rot>
1.2119

> <Gold.Chemscore.Internal.Correction>
   9.000000E+99

> <Gold.Chemscore.Hbonds>
donor molecule, donor type, donor heavy atom, donor atom, acceptor molecule, acceptor atom, score
      P1  H  6896  6908       L1     2  0.26
      P1  H  7997  8008       L1     7  1.00
      P1  H 10752 10765       L1    18  0.30

> <Gold.Chemscore.Hbond.Weighted>
-9.4905

> <Gold.Chemscore.Metal.Weighted>
-0.0000

> <Gold.Chemscore.Lipo.Weighted>
-12.0356

> <Gold.Chemscore.Internal_Hbond.Weighted>
0.0000

> <Gold.Chemscore.DEClash.Weighted>
0.1596

> <Gold.Chemscore.DEInternal.Weighted>
1.7599

> <Gold.Chemscore.Rot.Weighted>
3.1024

> <Gold.Chemscore.Internal.Correction.Weighted>
   9.000000E+99

> <Gold.Protein.RotatedTorsions>
[ 6907 6896 6895 6894 ] final -169.06 input  -60.11 | X-H torsion
[ 7974 7965 7964 7962 ] final -145.31 input  175.53 | X-H torsion
[ 8008 7997 7996 7995 ] final  -47.74 input   59.86 | X-H torsion
[ 10167 10162 10161 10158 ] final  -78.24 input  -65.29 | X-H torsion
[ 10718 10713 10712 10709 ] final -162.21 input   66.30 | X-H torsion
[ 10763 10752 10751 10750 ] final  172.95 input  -60.55 | X-H torsion
[ 11005 11000 10999 10996 ] final -132.84 input  -57.11 | X-H torsion

> <Gold.Protein.ActiveResidues>
 VAL166  LYS551  ARG553  GLY616  TRP617  ASP618  TYR619  PRO620  LYS621  CYS622 
 ASP623  PHE694  ASN695  SER759  ASP760  ASP761  ALA762  ILE779  LEU786  VAL792 
 PHE793  MET794  SER795  GLU796  ALA797  LYS798  CYS799  TRP800  GLU811  SER814 

> <Gold.Protein.RotatedAtoms>
  151.4855  133.3536  159.2844 H   0  0  0  0  0  0  0  0  0  0  0  0  # atno 6907 bound_to 6896
  150.8869  134.8269  159.7276 H   0  0  0  0  0  0  0  0  0  0  0  0  # atno 6908 bound_to 6896
  152.4798  134.4760  159.9702 H   0  0  0  0  0  0  0  0  0  0  0  0  # atno 6909 bound_to 6896
  144.8236  140.5599  143.5562 H   0  0  0  0  0  0  0  0  0  0  0  0  # atno 7974 bound_to 7965
  154.4020  140.1339  156.4224 H   0  0  0  0  0  0  0  0  0  0  0  0  # atno 8008 bound_to 7997
  155.7629  140.3485  155.5187 H   0  0  0  0  0  0  0  0  0  0  0  0  # atno 8009 bound_to 7997
  155.8841  140.0992  157.1455 H   0  0  0  0  0  0  0  0  0  0  0  0  # atno 8010 bound_to 7997
  140.4700  143.2429  151.8220 H   0  0  0  0  0  0  0  0  0  0  0  0  # atno 10167 bound_to 10162
  156.6072  130.8835  151.2928 H   0  0  0  0  0  0  0  0  0  0  0  0  # atno 10718 bound_to 10713
  154.4332  135.2760  155.1898 H   0  0  0  0  0  0  0  0  0  0  0  0  # atno 10763 bound_to 10752
  154.3795  135.6091  153.5786 H   0  0  0  0  0  0  0  0  0  0  0  0  # atno 10764 bound_to 10752
  152.9837  135.5877  154.4647 H   0  0  0  0  0  0  0  0  0  0  0  0  # atno 10765 bound_to 10752
  140.9134  134.1539  157.4372 H   0  0  0  0  0  0  0  0  0  0  0  0  # atno 11005 bound_to 11000
  145.5050  139.1481  143.3636 LP  0  0  0  0  0  0  0  0  0  0  0  0  # atno 17320 bound_to 7965
  146.2541  140.5190  142.8881 LP  0  0  0  0  0  0  0  0  0  0  0  0  # atno 17321 bound_to 7965
  139.4817  144.4904  151.9192 LP  0  0  0  0  0  0  0  0  0  0  0  0  # atno 17342 bound_to 10162
  140.3989  144.2519  150.5894 LP  0  0  0  0  0  0  0  0  0  0  0  0  # atno 17343 bound_to 10162
  157.7264  130.9628  150.1654 LP  0  0  0  0  0  0  0  0  0  0  0  0  # atno 17370 bound_to 10713
  156.2420  130.3692  149.8327 LP  0  0  0  0  0  0  0  0  0  0  0  0  # atno 17371 bound_to 10713
  139.8761  134.9944  156.5693 LP  0  0  0  0  0  0  0  0  0  0  0  0  # atno 17394 bound_to 11000
  140.8081  133.8451  155.8786 LP  0  0  0  0  0  0  0  0  0  0  0  0  # atno 17395 bound_to 11000

$$$$
