#       Name:                AV-unprocessed.smi:1254
#       Creating user name   scv26
#       Creation time:       Fri Mar 27 04:38:52 2020


#       File generated by GOLD software.
#

@<TRIPOS>MOLECULE
AV-unprocessed.smi:1254
    53    54     1
SMALL
NO_CHARGES


@<TRIPOS>ATOM
      1 ****        -3.8399   7.1544   2.4017 C.3            1 S1                 0.0000
      2 ****        -3.4168   5.7878   1.9840 C.2            1 S1                 0.0000
      3 ****        -3.3553   5.1647   0.7695 C.2            1 S1                 0.0000
      4 ****        -2.8660   3.8726   1.0975 C.2            1 S1                 0.0000
      5 ****        -2.6534   2.8973   0.0902 N.am           1 S1                 0.0000
      6 ****        -2.1984   1.6432   0.2498 C.2            1 S1                 0.0000
      7 ****        -1.9047   1.1255   1.3278 O.2            1 S1                 0.0000
      8 ****        -2.0932   1.0069  -0.9257 N.am           1 S1                 0.0000
      9 ****        -1.6206  -0.3634  -1.0927 C.3            1 S1                 0.0000
     10 ****        -0.0941  -0.4705  -0.9241 C.3            1 S1                 0.0000
     11 ****         0.3952  -1.9285  -1.0171 C.3            1 S1                 0.0000
     12 ****         1.8738  -1.9866  -0.9033 N.4            1 S1                 1.0000
     13 ****         2.4231  -3.3667  -0.9292 C.3            1 S1                 0.0000
     14 ****         2.1946  -4.1399   0.3879 C.3            1 S1                 0.0000
     15 ****         2.8822  -3.4570   1.5821 C.3            1 S1                 0.0000
     16 ****         2.6780  -5.5912   0.2506 C.3            1 S1                 0.0000
     17 ****         2.5035  -1.1095  -1.9187 C.3            1 S1                 0.0000
     18 ****         1.9437   0.3189  -1.8188 C.3            1 S1                 0.0000
     19 ****         0.5291   0.2859  -1.9573 O.3            1 S1                 0.0000
     20 ****        -2.6470   3.7207   2.3948 N.2            1 S1                 0.0000
     21 ****        -3.0003   4.9472   2.9696 O.3            1 S1                 0.0000
     22 ****        -3.7943   7.8490   1.5628 H              1 S1                 0.0000
     23 ****        -3.1944   7.5377   3.1922 H              1 S1                 0.0000
     24 ****        -4.8637   7.1425   2.7759 H              1 S1                 0.0000
     25 ****        -3.6190   5.5710  -0.1954 H              1 S1                 0.0000
     26 ****        -2.8624   3.1896  -0.8528 H              1 S1                 0.0000
     27 ****        -2.3546   1.5043  -1.7645 H              1 S1                 0.0000
     28 ****        -2.1276  -1.0109  -0.3755 H              1 S1                 0.0000
     29 ****        -1.9142  -0.7103  -2.0838 H              1 S1                 0.0000
     30 ****         0.1923  -0.0622   0.0470 H              1 S1                 0.0000
     31 ****        -0.0688  -2.5111  -0.2223 H              1 S1                 0.0000
     32 ****         0.0822  -2.3724  -1.9635 H              1 S1                 0.0000
     33 ****         1.9906  -3.9080  -1.7722 H              1 S1                 0.0000
     34 ****         3.4972  -3.3224  -1.1162 H              1 S1                 0.0000
     35 ****         1.1262  -4.1860   0.5966 H              1 S1                 0.0000
     36 ****         3.9589  -3.3779   1.4282 H              1 S1                 0.0000
     37 ****         2.7197  -4.0197   2.5021 H              1 S1                 0.0000
     38 ****         2.4944  -2.4515   1.7460 H              1 S1                 0.0000
     39 ****         3.7491  -5.6358   0.0503 H              1 S1                 0.0000
     40 ****         2.1652  -6.1019  -0.5650 H              1 S1                 0.0000
     41 ****         2.4869  -6.1582   1.1623 H              1 S1                 0.0000
     42 ****         3.5842  -1.0886  -1.7734 H              1 S1                 0.0000
     43 ****         2.3205  -1.5142  -2.9155 H              1 S1                 0.0000
     44 ****         2.2192   0.7817  -0.8698 H              1 S1                 0.0000
     45 ****         2.3617   0.9423  -2.6092 H              1 S1                 0.0000
     46 ****         2.1168  -1.5967  -0.0035 H              1 S1                 0.0000
     47 ****        -1.9986   1.6478   2.1754 LP             1 S1                 0.0000
     48 ****        -1.5723   0.1827   1.3557 LP             1 S1                 0.0000
     49 ****         0.1803   1.2225  -1.9260 LP             1 S1                 0.0000
     50 ****         0.3013  -0.1254  -2.8399 LP             1 S1                 0.0000
     51 ****        -2.3036   2.9062   2.8625 LP             1 S1                 0.0000
     52 ****        -3.7395   4.8092   3.6288 LP             1 S1                 0.0000
     53 ****        -2.2078   5.3412   3.4352 LP             1 S1                 0.0000
@<TRIPOS>BOND
    1    1    2 1     
    2    1   22 1     
    3    1   23 1     
    4    1   24 1     
    5    2   21 1     
    6    2    3 2     
    7    3    4 1     
    8    3   25 1     
    9    4    5 1     
   10    4   20 2     
   11    5    6 am    
   12    5   26 1     
   13    6    7 2     
   14    6    8 am    
   15    8    9 1     
   16    8   27 1     
   17    9   10 1     
   18    9   28 1     
   19    9   29 1     
   20   10   19 1     
   21   10   11 1     
   22   10   30 1     
   23   11   12 1     
   24   11   31 1     
   25   11   32 1     
   26   12   13 1     
   27   12   17 1     
   28   12   46 1     
   29   13   14 1     
   30   13   33 1     
   31   13   34 1     
   32   14   15 1     
   33   14   16 1     
   34   14   35 1     
   35   15   36 1     
   36   15   37 1     
   37   15   38 1     
   38   16   39 1     
   39   16   40 1     
   40   16   41 1     
   41   17   18 1     
   42   17   42 1     
   43   17   43 1     
   44   18   19 1     
   45   18   44 1     
   46   18   45 1     
   47   20   21 1     
   48    7   47 1     
   49    7   48 1     
   50   19   49 1     
   51   19   50 1     
   52   20   51 1     
   53   21   52 1     
   54   21   53 1     
@<TRIPOS>SUBSTRUCTURE
      1 S1             1
@<TRIPOS>SET
LONE_PAIRS      STATIC     ATOMS    <user>   **** ""
7 47 48 49 50 51 52 53
DONOR_HYDROGENS      STATIC     ATOMS    <user>   **** ""
3 26 27 46
ATOM$BLUE        STATIC     ATOMS    COLORGROUP SYSTEM
7 47 48 49 50 51 52 53
ATOM$RED        STATIC     ATOMS    COLORGROUP SYSTEM
3 26 27 46
