AV-unprocessed.smi:2154|AV-procd|sdf|8772|dock8
  -GOLD-   2272011553D 1   1.00000     0.00000
 Structure written by MMmdl.
 32 33  0  0  0  0  0  0  0  0  1 V2000
  152.7895  142.4606  160.2408 C   0  0  0  0  0  0  0  0  0  0  0  0
  152.9397  143.6621  159.3290 C   0  0  2  0  0  0  0  0  0  0  0  0
  152.2114  144.9523  159.6269 C   0  0  0  0  0  0  0  0  0  0  0  0
  151.8262  144.1352  158.4153 C   0  0  2  0  0  0  0  0  0  0  0  0
  150.4832  143.4281  158.3443 C   0  0  0  0  0  0  0  0  0  0  0  0
  150.2142  142.7530  157.0815 N   0  0  0  0  0  0  0  0  0  0  0  0
  150.7027  141.5547  156.7284 C   0  0  0  0  0  0  0  0  0  0  0  0
  151.4220  140.8767  157.4635 O   0  0  0  0  0  0  0  0  0  0  0  0
  150.2955  141.0406  155.3403 C   0  0  0  0  0  0  0  0  0  0  0  0
  150.4915  139.5916  155.1862 N   0  0  0  0  0  0  0  0  0  0  0  0
  149.4111  138.7247  155.2679 C   0  0  0  0  0  0  0  0  0  0  0  0
  149.5223  137.3810  155.1422 C   0  0  0  0  0  0  0  0  0  0  0  0
  150.8247  136.7662  154.9083 C   0  0  0  0  0  0  0  0  0  0  0  0
  151.0270  135.5608  154.7788 O   0  0  0  0  0  0  0  0  0  0  0  0
  151.8871  137.6710  154.8356 N   0  0  0  0  0  0  0  0  0  0  0  0
  151.7795  139.0564  154.9657 C   0  0  0  0  0  0  0  0  0  0  0  0
  152.7828  139.7644  154.8880 O   0  0  0  0  0  0  0  0  0  0  0  0
  152.8092  137.2914  154.6772 H   0  0  0  0  0  0  0  0  0  0  0  0
  151.8126  142.4477  160.7234 H   0  0  0  0  0  0  0  0  0  0  0  0
  153.5528  142.4874  161.0184 H   0  0  0  0  0  0  0  0  0  0  0  0
  152.9095  141.5401  159.6694 H   0  0  0  0  0  0  0  0  0  0  0  0
  153.9442  143.7653  158.9233 H   0  0  0  0  0  0  0  0  0  0  0  0
  151.5233  144.9632  160.4701 H   0  0  0  0  0  0  0  0  0  0  0  0
  152.7465  145.8837  159.4533 H   0  0  0  0  0  0  0  0  0  0  0  0
  152.1648  144.5142  157.4526 H   0  0  0  0  0  0  0  0  0  0  0  0
  150.4229  142.7096  159.1633 H   0  0  0  0  0  0  0  0  0  0  0  0
  149.6820  144.1480  158.5086 H   0  0  0  0  0  0  0  0  0  0  0  0
  149.6267  143.2398  156.4201 H   0  0  0  0  0  0  0  0  0  0  0  0
  149.2490  141.3016  155.1775 H   0  0  0  0  0  0  0  0  0  0  0  0
  150.8494  141.5763  154.5665 H   0  0  0  0  0  0  0  0  0  0  0  0
  148.4270  139.1355  155.4442 H   0  0  0  0  0  0  0  0  0  0  0  0
  148.6430  136.7574  155.2157 H   0  0  0  0  0  0  0  0  0  0  0  0
  1  2  1  0  0  0  0
  1 19  1  0  0  0  0
  1 20  1  0  0  0  0
  1 21  1  0  0  0  0
  2  4  1  0  0  0  0
  2  3  1  0  0  0  0
  2 22  1  0  0  0  0
  3  4  1  0  0  0  0
  3 23  1  0  0  0  0
  3 24  1  0  0  0  0
  4  5  1  0  0  0  0
  4 25  1  0  0  0  0
  5  6  1  0  0  0  0
  5 26  1  0  0  0  0
  5 27  1  0  0  0  0
  6  7  1  0  0  0  0
  6 28  1  0  0  0  0
  7  8  2  0  0  0  0
  7  9  1  0  0  0  0
  9 10  1  0  0  0  0
  9 29  1  0  0  0  0
  9 30  1  0  0  0  0
 10 16  1  0  0  0  0
 10 11  1  0  0  0  0
 11 12  2  0  0  0  0
 11 31  1  0  0  0  0
 12 13  1  0  0  0  0
 12 32  1  0  0  0  0
 13 14  2  0  0  0  0
 13 15  1  0  0  0  0
 15 18  1  0  0  0  0
 15 16  1  0  0  0  0
 16 17  2  0  0  0  0
M  END
> <s_m_source_file>
AV-unprocessed.smi

> <i_m_source_file_index>
2154

> <i_lp_mmshare_version>
43012

> <i_f3d_flags>
0

> <s_epik_input>
W0NIM11bQ0BASF0xW0NIMl1bQ0BIXTFbQ0gyXVtOSF1DKD1PKVtDSDJdbjJbY0hdW2NIXWMoPU8pW25IXWMyPU8=

> <s_epik_cmdline>
J2VwaWtfcHl0aG9uJywgJy1waCcsICc3LjAnLCAnLXRuJywgJzgnLCAnLW1hJywgJzIwMCcsICctbWV0YWxfYmluZGluZycsICctaW1hZScsICc8aW5maWxlLm1hZT4nLCAnLW9tYWUnLCAnPG91dGZpbGUubWFlPic=

> <r_lp_tautomer_probability>
0.999537

> <r_epik_Ionization_Penalty>
0.00305319

> <r_epik_Ionization_Penalty_Charging>
0.00305317

> <r_epik_Ionization_Penalty_Neutral>
2.06703e-08

> <r_epik_State_Penalty>
0.00214626

> <r_epik_Charging_Adjusted_Penalty>
0.00519944

> <i_epik_Tot_Q>
0

> <i_epik_Tot_abs_Q>
0

> <r_epik_Metal_State_Penalty>
0.361976

> <b_epik_Metal_Only>
0

> <s_lp_Force_Field>
OPLS_2005

> <r_lp_Energy>
15.9584

> <b_lp_Chiralities_Consistent>
1

> <s_lp_Variant>
AV-unprocessed.smi:2154-3

> <Gold.Version>
5.8.1

> <Gold.Id.Protein>
6NUR|6NUR_protein|mol2

> <Gold.PLP.Fitness>
45.2047

> <Gold.PLP.PLP>
-37.2472

> <Gold.PLP.part.hbond>
-4.0000

> <Gold.PLP.part.metal>
0.0000

> <Gold.PLP.part.buried>
-4.4419

> <Gold.PLP.part.nonpolar>
-29.7637

> <Gold.PLP.part.repulsive>
0.3146

> <Gold.PLP.ligand.clash>
0.0000

> <Gold.PLP.ligand.torsion>
0.9825

> <Gold.PLP.Chemscore.Hbond>
3.1298

> <Gold.PLP.Chemscore.CHOScore>
0.0000

> <Gold.PLP.Chemscore.Metal>
0.0000

> <Gold.Chemscore.Hbonds>
donor molecule, donor type, donor heavy atom, donor atom, acceptor molecule, acceptor atom, score
      L1  H     6    28       P1  8028  1.00
      P1  H  7989  7998       L1    17  0.13
      P1  H  7997  8009       L1    17  0.94
      P1  H 10752 10765       L1    14  1.00

> <Gold.PLP.Chemscore.Internal.Correction>
0.5332

> <Gold.Rescore>
     Score         DG    S(hbond)    S(metal)    S(lipo)     H(rot)  DE(clash)    DE(int)     intcor
     16.63     -17.68       2.69        0.00      71.42       2.01       0.15       0.90       ----

> <Gold.Chemscore.Fitness>
16.6276

> <Gold.Chemscore.DG>
-17.6774

> <Gold.Chemscore.ZeroCoef>
-5.4800

> <Gold.Chemscore.Hbond>
2.6879

> <Gold.Chemscore.Metal>
0.0000

> <Gold.Chemscore.Lipo>
71.4223

> <Gold.Chemscore.Internal_Hbond>
0.0000

> <Gold.Chemscore.DEClash>
0.1541

> <Gold.Chemscore.DEInternal>
0.8958

> <Gold.Chemscore.Rot>
2.0065

> <Gold.Chemscore.Internal.Correction>
   9.000000E+99

> <Gold.Chemscore.Hbonds>
donor molecule, donor type, donor heavy atom, donor atom, acceptor molecule, acceptor atom, score
      L1  H     6    28       P1  8028  0.98
      P1  H  7997  8009       L1    17  0.88
      P1  H 10752 10765       L1    14  0.24

> <Gold.Chemscore.Hbond.Weighted>
-8.9776

> <Gold.Chemscore.Metal.Weighted>
-0.0000

> <Gold.Chemscore.Lipo.Weighted>
-8.3564

> <Gold.Chemscore.Internal_Hbond.Weighted>
0.0000

> <Gold.Chemscore.DEClash.Weighted>
0.1541

> <Gold.Chemscore.DEInternal.Weighted>
0.8958

> <Gold.Chemscore.Rot.Weighted>
5.1366

> <Gold.Chemscore.Internal.Correction.Weighted>
   9.000000E+99

> <Gold.Protein.RotatedTorsions>
[ 6907 6896 6895 6894 ] final   82.96 input  -60.11 | X-H torsion
[ 7974 7965 7964 7962 ] final   73.93 input  175.53 | X-H torsion
[ 8008 7997 7996 7995 ] final -153.09 input   59.86 | X-H torsion
[ 10167 10162 10161 10158 ] final  -18.49 input  -65.29 | X-H torsion
[ 10718 10713 10712 10709 ] final   45.00 input   66.30 | X-H torsion
[ 10763 10752 10751 10750 ] final -172.22 input  -60.55 | X-H torsion
[ 11005 11000 10999 10996 ] final  -25.55 input  -57.11 | X-H torsion

> <Gold.Protein.ActiveResidues>
 VAL166  LYS551  ARG553  GLY616  TRP617  ASP618  TYR619  PRO620  LYS621  CYS622 
 ASP623  PHE694  ASN695  SER759  ASP760  ASP761  ALA762  ILE779  LEU786  VAL792 
 PHE793  MET794  SER795  GLU796  ALA797  LYS798  CYS799  TRP800  GLU811  SER814 

> <Gold.Protein.RotatedAtoms>
  152.5314  134.2969  159.9063 H   0  0  0  0  0  0  0  0  0  0  0  0  # atno 6907 bound_to 6896
  151.2920  133.4154  159.2641 H   0  0  0  0  0  0  0  0  0  0  0  0  # atno 6908 bound_to 6896
  151.0192  134.9472  159.8107 H   0  0  0  0  0  0  0  0  0  0  0  0  # atno 6909 bound_to 6896
  145.7346  139.2697  143.1521 H   0  0  0  0  0  0  0  0  0  0  0  0  # atno 7974 bound_to 7965
  155.6654  140.0727  157.2539 H   0  0  0  0  0  0  0  0  0  0  0  0  # atno 8008 bound_to 7997
  154.4134  140.1708  156.1873 H   0  0  0  0  0  0  0  0  0  0  0  0  # atno 8009 bound_to 7997
  155.9662  140.3366  155.6537 H   0  0  0  0  0  0  0  0  0  0  0  0  # atno 8010 bound_to 7997
  140.7259  143.4911  150.9991 H   0  0  0  0  0  0  0  0  0  0  0  0  # atno 10167 bound_to 10162
  157.4328  130.8035  149.7619 H   0  0  0  0  0  0  0  0  0  0  0  0  # atno 10718 bound_to 10713
  154.6217  135.2876  155.0318 H   0  0  0  0  0  0  0  0  0  0  0  0  # atno 10763 bound_to 10752
  154.1510  135.6503  153.4967 H   0  0  0  0  0  0  0  0  0  0  0  0  # atno 10764 bound_to 10752
  153.0239  135.5355  154.7010 H   0  0  0  0  0  0  0  0  0  0  0  0  # atno 10765 bound_to 10752
  140.8948  133.7563  156.0468 H   0  0  0  0  0  0  0  0  0  0  0  0  # atno 11005 bound_to 11000
  146.0505  140.8074  142.9784 LP  0  0  0  0  0  0  0  0  0  0  0  0  # atno 17320 bound_to 7965
  144.6885  140.3046  143.7258 LP  0  0  0  0  0  0  0  0  0  0  0  0  # atno 17321 bound_to 7965
  139.8615  143.7308  152.3173 LP  0  0  0  0  0  0  0  0  0  0  0  0  # atno 17342 bound_to 10162
  139.7525  144.7530  151.0485 LP  0  0  0  0  0  0  0  0  0  0  0  0  # atno 17343 bound_to 10162
  155.9919  130.3934  150.2963 LP  0  0  0  0  0  0  0  0  0  0  0  0  # atno 17370 bound_to 10713
  157.1121  131.0224  151.3044 LP  0  0  0  0  0  0  0  0  0  0  0  0  # atno 17371 bound_to 10713
  140.8302  134.3187  157.5351 LP  0  0  0  0  0  0  0  0  0  0  0  0  # atno 17394 bound_to 11000
  139.8734  134.9359  156.3646 LP  0  0  0  0  0  0  0  0  0  0  0  0  # atno 17395 bound_to 11000

$$$$
