#       Name:                AV-unprocessed.smi:2975
#       Creating user name   scv26
#       Creation time:       Fri Mar 27 16:27:32 2020


#       File generated by GOLD software.
#

@<TRIPOS>MOLECULE
AV-unprocessed.smi:2975
    44    46     1
SMALL
NO_CHARGES


@<TRIPOS>ATOM
      1 ****        -1.0456   3.0262   2.7066 C.3            1 S1                 0.0000
      2 ****        -1.2686   2.5394   1.2691 C.3            1 S1                 0.0000
      3 ****        -2.1764   3.4130   0.6301 O.3            1 S1                 0.0000
      4 ****        -1.7442   1.1195   1.2540 C.2            1 S1                 0.0000
      5 ****        -3.0405   0.7063   1.3508 N.pl3          1 S1                 1.0000
      6 ****        -3.0988  -0.6870   1.3057 C.ar           1 S1                 0.0000
      7 ****        -4.1838  -1.5562   1.3624 C.ar           1 S1                 0.0000
      8 ****        -3.8948  -2.9345   1.2859 C.ar           1 S1                 0.0000
      9 ****        -2.5702  -3.4010   1.1568 C.ar           1 S1                 0.0000
     10 ****        -1.4781  -2.5099   1.1013 C.ar           1 S1                 0.0000
     11 ****        -1.7725  -1.1489   1.1816 C.ar           1 S1                 0.0000
     12 ****        -0.9716  -0.0017   1.1671 N.pl3          1 S1                 0.0000
     13 ****         0.4862  -0.1426   1.0598 C.3            1 S1                 0.0000
     14 ****         0.9494  -0.1774  -0.4012 C.3            1 S1                 0.0000
     15 ****         2.3680  -0.2291  -0.4188 O.3            1 S1                 0.0000
     16 ****         3.0087  -0.1977  -1.6393 C.ar           1 S1                 0.0000
     17 ****         2.3387  -0.1806  -2.8895 C.ar           1 S1                 0.0000
     18 ****         3.0722  -0.1472  -4.0915 C.ar           1 S1                 0.0000
     19 ****         4.4789  -0.1304  -4.0610 C.ar           1 S1                 0.0000
     20 ****         5.1523  -0.1479  -2.8259 C.ar           1 S1                 0.0000
     21 ****         4.4200  -0.1824  -1.6234 C.ar           1 S1                 0.0000
     22 ****         5.0803  -0.1983  -0.4408 F              1 S1                 0.0000
     23 ****        -0.3109   2.4057   3.2209 H              1 S1                 0.0000
     24 ****        -1.9698   2.9965   3.2850 H              1 S1                 0.0000
     25 ****        -0.6764   4.0522   2.7206 H              1 S1                 0.0000
     26 ****        -0.3271   2.5992   0.7224 H              1 S1                 0.0000
     27 ****        -2.2005   3.2004  -0.2906 H              1 S1                 0.0000
     28 ****        -5.1995  -1.2010   1.4595 H              1 S1                 0.0000
     29 ****        -4.7052  -3.6480   1.3260 H              1 S1                 0.0000
     30 ****        -2.3879  -4.4645   1.0999 H              1 S1                 0.0000
     31 ****        -0.4678  -2.8783   1.0010 H              1 S1                 0.0000
     32 ****         0.9399   0.7026   1.5781 H              1 S1                 0.0000
     33 ****         0.8025  -1.0370   1.5971 H              1 S1                 0.0000
     34 ****         0.5318  -1.0502  -0.9056 H              1 S1                 0.0000
     35 ****         0.5993   0.7179  -0.9177 H              1 S1                 0.0000
     36 ****         1.2615  -0.1934  -2.9544 H              1 S1                 0.0000
     37 ****         2.5538  -0.1341  -5.0390 H              1 S1                 0.0000
     38 ****         5.0403  -0.1041  -4.9833 H              1 S1                 0.0000
     39 ****         6.2321  -0.1343  -2.7994 H              1 S1                 0.0000
     40 ****        -3.8253   1.3391   1.4389 H              1 S1                 0.0000
     41 ****        -1.8751   4.3590   0.7500 LP             1 S1                 0.0000
     42 ****        -3.0878   3.3008   1.0261 LP             1 S1                 0.0000
     43 ****         2.6389  -1.0775   0.0359 LP             1 S1                 0.0000
     44 ****         2.6992   0.5527   0.1095 LP             1 S1                 0.0000
@<TRIPOS>BOND
    1    1    2 1     
    2    1   23 1     
    3    1   24 1     
    4    1   25 1     
    5    2    3 1     
    6    2    4 1     
    7    2   26 1     
    8    3   27 1     
    9    4   12 1     
   10    4    5 2     
   11    5    6 1     
   12    5   40 1     
   13    6   11 ar    
   14    6    7 ar    
   15    7    8 ar    
   16    7   28 1     
   17    8    9 ar    
   18    8   29 1     
   19    9   10 ar    
   20    9   30 1     
   21   10   11 ar    
   22   10   31 1     
   23   11   12 1     
   24   12   13 1     
   25   13   14 1     
   26   13   32 1     
   27   13   33 1     
   28   14   15 1     
   29   14   34 1     
   30   14   35 1     
   31   15   16 1     
   32   16   21 ar    
   33   16   17 ar    
   34   17   18 ar    
   35   17   36 1     
   36   18   19 ar    
   37   18   37 1     
   38   19   20 ar    
   39   19   38 1     
   40   20   21 ar    
   41   20   39 1     
   42   21   22 1     
   43    3   41 1     
   44    3   42 1     
   45   15   43 1     
   46   15   44 1     
@<TRIPOS>SUBSTRUCTURE
      1 S1             1
@<TRIPOS>SET
LONE_PAIRS      STATIC     ATOMS    <user>   **** ""
4 41 42 43 44
DONOR_HYDROGENS      STATIC     ATOMS    <user>   **** ""
2 27 40
ATOM$BLUE        STATIC     ATOMS    COLORGROUP SYSTEM
4 41 42 43 44
ATOM$RED        STATIC     ATOMS    COLORGROUP SYSTEM
2 27 40
