AV-unprocessed.smi:322|AV-procd|sdf|2335|dock4
  -GOLD-   2262022243D 1   1.00000     0.00000
 Structure written by MMmdl.
 43 45  0  0  0  0  0  0  0  0  1 V2000
  151.0636  137.7902  155.1360 O   0  0  0  0  0  0  0  0  0  0  0  0
  151.4753  139.0932  154.7751 C   0  0  0  0  0  0  0  0  0  0  0  0
  151.5796  140.0436  155.9346 C   0  0  0  0  0  0  0  0  0  0  0  0
  152.3848  139.8325  156.9785 N   0  0  0  0  0  0  0  0  0  0  0  0
  152.1422  140.9299  157.7804 C   0  0  0  0  0  0  0  0  0  0  0  0
  152.6873  141.2895  159.0335 C   0  0  0  0  0  0  0  0  0  0  0  0
  152.2794  142.4775  159.6748 C   0  0  0  0  0  0  0  0  0  0  0  0
  151.3236  143.3213  159.0730 C   0  0  0  0  0  0  0  0  0  0  0  0
  150.7682  142.9814  157.8244 C   0  0  0  0  0  0  0  0  0  0  0  0
  151.1777  141.7936  157.1889 C   0  0  0  0  0  0  0  0  0  0  0  0
  150.8378  141.1788  155.9873 N   0  0  0  0  0  0  0  0  0  0  0  0
  149.8746  141.6659  155.0080 C   0  0  0  0  0  0  0  0  0  0  0  0
  148.7619  140.6429  154.7014 C   0  0  2  0  0  0  0  0  0  0  0  0
  148.2691  140.8740  153.3961 O   0  0  0  0  0  0  0  0  0  0  0  0
  147.5915  140.7605  155.6902 C   0  0  0  0  0  0  0  0  0  0  0  0
  146.8923  141.9709  155.4373 O   0  0  0  0  0  0  0  0  0  0  0  0
  145.6570  142.0778  156.1312 C   0  0  0  0  0  0  0  0  0  0  0  0
  144.9667  143.4167  155.9317 C   0  0  0  0  0  0  0  0  0  0  0  0
  144.6623  143.8716  154.6311 C   0  0  0  0  0  0  0  0  0  0  0  0
  144.0091  145.1058  154.4473 C   0  0  0  0  0  0  0  0  0  0  0  0
  143.6517  145.8873  155.5634 C   0  0  0  0  0  0  0  0  0  0  0  0
  142.8491  147.3980  155.3387 Cl  0  0  0  0  0  0  0  0  0  0  0  0
  143.9473  145.4328  156.8635 C   0  0  0  0  0  0  0  0  0  0  0  0
  144.6010  144.1987  157.0473 C   0  0  0  0  0  0  0  0  0  0  0  0
  151.6603  137.1683  154.7492 H   0  0  0  0  0  0  0  0  0  0  0  0
  152.4422  139.0173  154.2788 H   0  0  0  0  0  0  0  0  0  0  0  0
  150.7659  139.4947  154.0511 H   0  0  0  0  0  0  0  0  0  0  0  0
  153.4199  140.6494  159.5024 H   0  0  0  0  0  0  0  0  0  0  0  0
  152.7016  142.7427  160.6330 H   0  0  0  0  0  0  0  0  0  0  0  0
  151.0170  144.2299  159.5704 H   0  0  0  0  0  0  0  0  0  0  0  0
  150.0378  143.6275  157.3600 H   0  0  0  0  0  0  0  0  0  0  0  0
  149.4431  142.5964  155.3774 H   0  0  0  0  0  0  0  0  0  0  0  0
  150.4094  141.9274  154.0940 H   0  0  0  0  0  0  0  0  0  0  0  0
  149.1754  139.6352  154.7469 H   0  0  0  0  0  0  0  0  0  0  0  0
  148.9150  140.5750  152.7745 H   0  0  0  0  0  0  0  0  0  0  0  0
  146.8981  139.9321  155.5374 H   0  0  0  0  0  0  0  0  0  0  0  0
  147.9438  140.6981  156.7212 H   0  0  0  0  0  0  0  0  0  0  0  0
  144.9923  141.3016  155.7518 H   0  0  0  0  0  0  0  0  0  0  0  0
  145.8004  141.8700  157.1929 H   0  0  0  0  0  0  0  0  0  0  0  0
  144.9315  143.2753  153.7714 H   0  0  0  0  0  0  0  0  0  0  0  0
  143.7813  145.4508  153.4494 H   0  0  0  0  0  0  0  0  0  0  0  0
  143.6716  146.0287  157.7211 H   0  0  0  0  0  0  0  0  0  0  0  0
  144.8209  143.8561  158.0479 H   0  0  0  0  0  0  0  0  0  0  0  0
  1  2  1  0  0  0  0
  1 25  1  0  0  0  0
  2  3  1  0  0  0  0
  2 26  1  0  0  0  0
  2 27  1  0  0  0  0
  3 11  1  0  0  0  0
  3  4  2  0  0  0  0
  4  5  1  0  0  0  0
  5 10  2  0  0  0  0
  5  6  1  0  0  0  0
  6  7  2  0  0  0  0
  6 28  1  0  0  0  0
  7  8  1  0  0  0  0
  7 29  1  0  0  0  0
  8  9  2  0  0  0  0
  8 30  1  0  0  0  0
  9 10  1  0  0  0  0
  9 31  1  0  0  0  0
 10 11  1  0  0  0  0
 11 12  1  0  0  0  0
 12 13  1  0  0  0  0
 12 32  1  0  0  0  0
 12 33  1  0  0  0  0
 13 14  1  0  0  0  0
 13 15  1  0  0  0  0
 13 34  1  0  0  0  0
 14 35  1  0  0  0  0
 15 16  1  0  0  0  0
 15 36  1  0  0  0  0
 15 37  1  0  0  0  0
 16 17  1  0  0  0  0
 17 18  1  0  0  0  0
 17 38  1  0  0  0  0
 17 39  1  0  0  0  0
 18 24  1  0  0  0  0
 18 19  2  0  0  0  0
 19 20  1  0  0  0  0
 19 40  1  0  0  0  0
 20 21  2  0  0  0  0
 20 41  1  0  0  0  0
 21 22  1  0  0  0  0
 21 23  1  0  0  0  0
 23 24  2  0  0  0  0
 23 42  1  0  0  0  0
 24 43  1  0  0  0  0
M  END
> <s_m_source_file>
AV-unprocessed.smi

> <i_m_source_file_index>
322

> <i_lp_mmshare_version>
43012

> <i_f3d_flags>
0

> <s_epik_input>
W2NIXTFbY0hdW2NIXVtjSF1jKGMxMiluKGMobjIpW0NIMl1bT0hdKVtDSDJdW0NASF0oW09IXSlbQ0gyXU9bQ0gyXWMzW2NIXVtjSF1jKENsKVtjSF1bY0hdMw==

> <s_epik_cmdline>
J2VwaWtfcHl0aG9uJywgJy1waCcsICc3LjAnLCAnLXRuJywgJzgnLCAnLW1hJywgJzIwMCcsICctbWV0YWxfYmluZGluZycsICctaW1hZScsICc8aW5maWxlLm1hZT4nLCAnLW9tYWUnLCAnPG91dGZpbGUubWFlPic=

> <r_epik_Ionization_Penalty>
0.0649918

> <r_epik_Ionization_Penalty_Charging>
0

> <r_epik_Ionization_Penalty_Neutral>
0.0649918

> <r_epik_State_Penalty>
0.0565791

> <r_epik_Charging_Adjusted_Penalty>
0.0565791

> <i_epik_Tot_Q>
0

> <i_epik_Tot_abs_Q>
0

> <r_epik_Metal_State_Penalty>
5.93658e-05

> <b_epik_Metal_Only>
0

> <s_lp_Force_Field>
OPLS_2005

> <r_lp_Energy>
16.0387

> <b_lp_Chiralities_Consistent>
1

> <s_lp_Variant>
AV-unprocessed.smi:322-1

> <Gold.Version>
5.8.1

> <Gold.Id.Protein>
6NUR|6NUR_protein|mol2

> <Gold.PLP.Fitness>
50.6037

> <Gold.PLP.PLP>
-45.3133

> <Gold.PLP.part.hbond>
-2.0000

> <Gold.PLP.part.metal>
0.0000

> <Gold.PLP.part.buried>
-4.6986

> <Gold.PLP.part.nonpolar>
-38.0709

> <Gold.PLP.part.repulsive>
0.1314

> <Gold.PLP.ligand.clash>
0.0000

> <Gold.PLP.ligand.torsion>
0.4302

> <Gold.PLP.Chemscore.Hbond>
2.0000

> <Gold.PLP.Chemscore.CHOScore>
0.0000

> <Gold.PLP.Chemscore.Metal>
0.0000

> <Gold.Chemscore.Hbonds>
donor molecule, donor type, donor heavy atom, donor atom, acceptor molecule, acceptor atom, score
      L1  H    14    35       P1  7957  1.00
      P1  H  7997  8010       L1     4  1.00

> <Gold.PLP.Chemscore.Internal.Correction>
0.1508

> <Gold.Rescore>
     Score         DG    S(hbond)    S(metal)    S(lipo)     H(rot)  DE(clash)    DE(int)     intcor
     15.82     -16.52       1.54        0.00     118.98       3.13       0.29       0.42       ----

> <Gold.Chemscore.Fitness>
15.8178

> <Gold.Chemscore.DG>
-16.5232

> <Gold.Chemscore.ZeroCoef>
-5.4800

> <Gold.Chemscore.Hbond>
1.5402

> <Gold.Chemscore.Metal>
0.0000

> <Gold.Chemscore.Lipo>
118.9846

> <Gold.Chemscore.Internal_Hbond>
0.0000

> <Gold.Chemscore.DEClash>
0.2901

> <Gold.Chemscore.DEInternal>
0.4153

> <Gold.Chemscore.Rot>
3.1337

> <Gold.Chemscore.Internal.Correction>
   9.000000E+99

> <Gold.Chemscore.Hbonds>
donor molecule, donor type, donor heavy atom, donor atom, acceptor molecule, acceptor atom, score
      L1  H    14    35       P1  7957  0.99
      P1  H  7997  8010       L1     4  0.25

> <Gold.Chemscore.Hbond.Weighted>
-5.1443

> <Gold.Chemscore.Metal.Weighted>
-0.0000

> <Gold.Chemscore.Lipo.Weighted>
-13.9212

> <Gold.Chemscore.Internal_Hbond.Weighted>
0.0000

> <Gold.Chemscore.DEClash.Weighted>
0.2901

> <Gold.Chemscore.DEInternal.Weighted>
0.4153

> <Gold.Chemscore.Rot.Weighted>
8.0224

> <Gold.Chemscore.Internal.Correction.Weighted>
   9.000000E+99

> <Gold.Protein.RotatedTorsions>
[ 6907 6896 6895 6894 ] final  -62.92 input  -60.11 | X-H torsion
[ 7974 7965 7964 7962 ] final  -21.45 input  175.53 | X-H torsion
[ 8008 7997 7996 7995 ] final   65.07 input   59.86 | X-H torsion
[ 10167 10162 10161 10158 ] final -169.35 input  -65.29 | X-H torsion
[ 10718 10713 10712 10709 ] final  124.90 input   66.30 | X-H torsion
[ 10763 10752 10751 10750 ] final   44.48 input  -60.55 | X-H torsion
[ 11005 11000 10999 10996 ] final  -83.00 input  -57.11 | X-H torsion

> <Gold.Protein.ActiveResidues>
 VAL166  LYS551  ARG553  GLY616  TRP617  ASP618  TYR619  PRO620  LYS621  CYS622 
 ASP623  PHE694  ASN695  SER759  ASP760  ASP761  ALA762  ILE779  LEU786  VAL792 
 PHE793  MET794  SER795  GLU796  ALA797  LYS798  CYS799  TRP800  GLU811  SER814 

> <Gold.Protein.RotatedAtoms>
  150.7683  134.6505  159.6285 H   0  0  0  0  0  0  0  0  0  0  0  0  # atno 6907 bound_to 6896
  152.3724  134.6710  160.0180 H   0  0  0  0  0  0  0  0  0  0  0  0  # atno 6908 bound_to 6896
  151.7066  133.3275  159.3316 H   0  0  0  0  0  0  0  0  0  0  0  0  # atno 6909 bound_to 6896
  146.1732  140.4342  142.8524 H   0  0  0  0  0  0  0  0  0  0  0  0  # atno 7974 bound_to 7965
  155.6559  140.3497  155.4765 H   0  0  0  0  0  0  0  0  0  0  0  0  # atno 8008 bound_to 7997
  155.9809  140.1174  157.0751 H   0  0  0  0  0  0  0  0  0  0  0  0  # atno 8009 bound_to 7997
  154.4191  140.1138  156.5420 H   0  0  0  0  0  0  0  0  0  0  0  0  # atno 8010 bound_to 7997
  139.5928  144.1176  152.1654 H   0  0  0  0  0  0  0  0  0  0  0  0  # atno 10167 bound_to 10162
  157.5547  131.1092  150.8642 H   0  0  0  0  0  0  0  0  0  0  0  0  # atno 10718 bound_to 10713
  152.9840  135.6069  154.3281 H   0  0  0  0  0  0  0  0  0  0  0  0  # atno 10763 bound_to 10752
  154.2986  135.2773  155.2623 H   0  0  0  0  0  0  0  0  0  0  0  0  # atno 10764 bound_to 10752
  154.4886  135.5898  153.6498 H   0  0  0  0  0  0  0  0  0  0  0  0  # atno 10765 bound_to 10752
  141.1660  133.7272  156.8655 H   0  0  0  0  0  0  0  0  0  0  0  0  # atno 11005 bound_to 11000
  144.8195  140.6526  143.6362 LP  0  0  0  0  0  0  0  0  0  0  0  0  # atno 17320 bound_to 7965
  145.4283  139.1553  143.4036 LP  0  0  0  0  0  0  0  0  0  0  0  0  # atno 17321 bound_to 7965
  140.0754  144.5744  150.7161 LP  0  0  0  0  0  0  0  0  0  0  0  0  # atno 17342 bound_to 10162
  140.7187  143.2568  151.4349 LP  0  0  0  0  0  0  0  0  0  0  0  0  # atno 17343 bound_to 10162
  156.9156  130.5296  149.5279 LP  0  0  0  0  0  0  0  0  0  0  0  0  # atno 17370 bound_to 10713
  156.0608  130.5661  150.9188 LP  0  0  0  0  0  0  0  0  0  0  0  0  # atno 17371 bound_to 10713
  140.1818  134.9028  157.2957 LP  0  0  0  0  0  0  0  0  0  0  0  0  # atno 17394 bound_to 11000
  140.2387  134.3822  155.7490 LP  0  0  0  0  0  0  0  0  0  0  0  0  # atno 17395 bound_to 11000

$$$$
