AV-unprocessed.smi:3281|AV-procd|sdf|12559|dock8
  -GOLD-   2272018483D 1   1.00000     0.00000
 Structure written by MMmdl.
 36 37  0  0  0  0  0  0  0  0  1 V2000
  150.1730  134.9336  154.7825 C   0  0  0  0  0  0  0  0  0  0  0  0
  150.2204  135.8223  156.0300 C   0  0  0  0  0  0  0  0  0  0  0  0
  150.6507  137.2224  155.7401 C   0  0  0  0  0  0  0  0  0  0  0  0
  150.9767  137.7625  154.5206 C   0  0  0  0  0  0  0  0  0  0  0  0
  151.3339  139.1114  154.5766 N   0  0  0  0  0  0  0  0  0  0  0  0
  151.2962  139.5983  155.8192 C   0  0  0  0  0  0  0  0  0  0  0  0
  151.5948  141.0250  156.1524 C   0  0  0  0  0  0  0  0  0  0  0  0
  150.3613  141.8083  156.6299 C   0  0  0  0  0  0  0  0  0  0  0  0
  150.7491  143.1341  157.0932 N   0  0  0  0  0  0  0  0  0  0  0  0
  150.9860  143.1668  158.5306 C   0  0  1  0  0  0  0  0  0  0  0  0
  152.0327  142.0988  158.9197 C   0  0  0  0  0  0  0  0  0  0  0  0
  152.3362  142.0906  160.4268 C   0  0  0  0  0  0  0  0  0  0  0  0
  152.9036  143.4288  160.9191 C   0  0  0  0  0  0  0  0  0  0  0  0
  151.7127  144.7731  160.6740 S   0  0  0  0  0  0  0  0  0  0  0  0
  151.4657  144.5853  158.8874 C   0  0  0  0  0  0  0  0  0  0  0  0
  150.7929  138.4068  157.0138 S   0  0  0  0  0  0  0  0  0  0  0  0
  149.8493  133.9244  155.0375 H   0  0  0  0  0  0  0  0  0  0  0  0
  151.1537  134.8591  154.3121 H   0  0  0  0  0  0  0  0  0  0  0  0
  149.4759  135.3305  154.0441 H   0  0  0  0  0  0  0  0  0  0  0  0
  149.2361  135.8339  156.4995 H   0  0  0  0  0  0  0  0  0  0  0  0
  150.8975  135.3816  156.7621 H   0  0  0  0  0  0  0  0  0  0  0  0
  150.9775  137.2614  153.5637 H   0  0  0  0  0  0  0  0  0  0  0  0
  152.3792  141.0536  156.9097 H   0  0  0  0  0  0  0  0  0  0  0  0
  152.0087  141.5056  155.2652 H   0  0  0  0  0  0  0  0  0  0  0  0
  149.6525  141.9154  155.8080 H   0  0  0  0  0  0  0  0  0  0  0  0
  149.8579  141.2495  157.4184 H   0  0  0  0  0  0  0  0  0  0  0  0
  150.0143  143.7866  156.8593 H   0  0  0  0  0  0  0  0  0  0  0  0
  150.0474  142.9798  159.0546 H   0  0  0  0  0  0  0  0  0  0  0  0
  151.6860  141.1050  158.6370 H   0  0  0  0  0  0  0  0  0  0  0  0
  152.9572  142.2653  158.3646 H   0  0  0  0  0  0  0  0  0  0  0  0
  151.4313  141.8466  160.9846 H   0  0  0  0  0  0  0  0  0  0  0  0
  153.0516  141.2968  160.6435 H   0  0  0  0  0  0  0  0  0  0  0  0
  153.1490  143.3679  161.9794 H   0  0  0  0  0  0  0  0  0  0  0  0
  153.8264  143.6688  160.3900 H   0  0  0  0  0  0  0  0  0  0  0  0
  152.4016  144.8167  158.3766 H   0  0  0  0  0  0  0  0  0  0  0  0
  150.7340  145.3283  158.5673 H   0  0  0  0  0  0  0  0  0  0  0  0
  1  2  1  0  0  0  0
  1 17  1  0  0  0  0
  1 18  1  0  0  0  0
  1 19  1  0  0  0  0
  2  3  1  0  0  0  0
  2 20  1  0  0  0  0
  2 21  1  0  0  0  0
  3 16  1  0  0  0  0
  3  4  2  0  0  0  0
  4  5  1  0  0  0  0
  4 22  1  0  0  0  0
  5  6  2  0  0  0  0
  6  7  1  0  0  0  0
  6 16  1  0  0  0  0
  7  8  1  0  0  0  0
  7 23  1  0  0  0  0
  7 24  1  0  0  0  0
  8  9  1  0  0  0  0
  8 25  1  0  0  0  0
  8 26  1  0  0  0  0
  9 10  1  0  0  0  0
  9 27  1  0  0  0  0
 10 15  1  0  0  0  0
 10 11  1  0  0  0  0
 10 28  1  0  0  0  0
 11 12  1  0  0  0  0
 11 29  1  0  0  0  0
 11 30  1  0  0  0  0
 12 13  1  0  0  0  0
 12 31  1  0  0  0  0
 12 32  1  0  0  0  0
 13 14  1  0  0  0  0
 13 33  1  0  0  0  0
 13 34  1  0  0  0  0
 14 15  1  0  0  0  0
 15 35  1  0  0  0  0
 15 36  1  0  0  0  0
M  END
> <s_m_source_file>
AV-unprocessed.smi

> <i_m_source_file_index>
3281

> <i_lp_mmshare_version>
43012

> <i_f3d_flags>
0

> <s_epik_input>
W0NIM11bQ0gyXWMxW2NIXW5jKHMxKVtDSDJdW0NIMl1bTkhdW0NAQEhdMltDSDJdW0NIMl1bQ0gyXVNbQ0gyXTI=

> <s_epik_cmdline>
J2VwaWtfcHl0aG9uJywgJy1waCcsICc3LjAnLCAnLXRuJywgJzgnLCAnLW1hJywgJzIwMCcsICctbWV0YWxfYmluZGluZycsICctaW1hZScsICc8aW5maWxlLm1hZT4nLCAnLW9tYWUnLCAnPG91dGZpbGUubWFlPic=

> <r_epik_Ionization_Penalty>
2.53829

> <r_epik_Ionization_Penalty_Charging>
0

> <r_epik_Ionization_Penalty_Neutral>
2.53829

> <r_epik_State_Penalty>
2.70274

> <r_epik_Charging_Adjusted_Penalty>
2.70274

> <i_epik_Tot_Q>
0

> <i_epik_Tot_abs_Q>
0

> <r_epik_Metal_State_Penalty>
2.69977

> <b_epik_Metal_Only>
0

> <s_lp_Force_Field>
OPLS_2005

> <r_lp_Energy>
0.42492

> <b_lp_Chiralities_Consistent>
1

> <s_lp_Variant>
AV-unprocessed.smi:3281-4

> <Gold.Version>
5.8.1

> <Gold.Id.Protein>
6NUR|6NUR_protein|mol2

> <Gold.PLP.Fitness>
42.8557

> <Gold.PLP.PLP>
-34.0750

> <Gold.PLP.part.hbond>
-2.0000

> <Gold.PLP.part.metal>
0.0000

> <Gold.PLP.part.buried>
-5.1555

> <Gold.PLP.part.nonpolar>
-26.5738

> <Gold.PLP.part.repulsive>
0.1251

> <Gold.PLP.ligand.clash>
0.0000

> <Gold.PLP.ligand.torsion>
0.2984

> <Gold.PLP.Chemscore.Hbond>
2.0000

> <Gold.PLP.Chemscore.CHOScore>
1.1169

> <Gold.PLP.Chemscore.Metal>
0.0000

> <Gold.Chemscore.Hbonds>
donor molecule, donor type, donor heavy atom, donor atom, acceptor molecule, acceptor atom, score
      L1  H     9    27       P1  8028  1.00
      P1  H  7989  7998       L1     5  0.89
      L1  C     4    22       P1  7948  0.10
      L1  C     4    22       P1  7949  1.00

> <Gold.PLP.Chemscore.Internal.Correction>
0.0269

> <Gold.Rescore>
     Score         DG    S(hbond)    S(metal)    S(lipo)     H(rot)  DE(clash)    DE(int)     intcor
     17.90     -18.22       1.00        0.00     108.60       1.30       0.03       0.29       ----

> <Gold.Chemscore.Fitness>
17.9013

> <Gold.Chemscore.DG>
-18.2150

> <Gold.Chemscore.ZeroCoef>
-5.4800

> <Gold.Chemscore.Hbond>
1.0027

> <Gold.Chemscore.Metal>
0.0000

> <Gold.Chemscore.Lipo>
108.6050

> <Gold.Chemscore.Internal_Hbond>
0.0000

> <Gold.Chemscore.DEClash>
0.0270

> <Gold.Chemscore.DEInternal>
0.2867

> <Gold.Chemscore.Rot>
1.2972

> <Gold.Chemscore.Internal.Correction>
   9.000000E+99

> <Gold.Chemscore.Hbonds>
donor molecule, donor type, donor heavy atom, donor atom, acceptor molecule, acceptor atom, score
      L1  H     9    27       P1  8028  0.97
      P1  H  7989  7998       L1     5  0.26

> <Gold.Chemscore.Hbond.Weighted>
-3.3490

> <Gold.Chemscore.Metal.Weighted>
-0.0000

> <Gold.Chemscore.Lipo.Weighted>
-12.7068

> <Gold.Chemscore.Internal_Hbond.Weighted>
0.0000

> <Gold.Chemscore.DEClash.Weighted>
0.0270

> <Gold.Chemscore.DEInternal.Weighted>
0.2867

> <Gold.Chemscore.Rot.Weighted>
3.3208

> <Gold.Chemscore.Internal.Correction.Weighted>
   9.000000E+99

> <Gold.Protein.RotatedTorsions>
[ 6907 6896 6895 6894 ] final -108.30 input  -60.11 | X-H torsion
[ 7974 7965 7964 7962 ] final   35.89 input  175.53 | X-H torsion
[ 8008 7997 7996 7995 ] final  -56.99 input   59.86 | X-H torsion
[ 10167 10162 10161 10158 ] final -129.27 input  -65.29 | X-H torsion
[ 10718 10713 10712 10709 ] final -135.34 input   66.30 | X-H torsion
[ 10763 10752 10751 10750 ] final   54.58 input  -60.55 | X-H torsion
[ 11005 11000 10999 10996 ] final  -77.42 input  -57.11 | X-H torsion

> <Gold.Protein.ActiveResidues>
 VAL166  LYS551  ARG553  GLY616  TRP617  ASP618  TYR619  PRO620  LYS621  CYS622 
 ASP623  PHE694  ASN695  SER759  ASP760  ASP761  ALA762  ILE779  LEU786  VAL792 
 PHE793  MET794  SER795  GLU796  ALA797  LYS798  CYS799  TRP800  GLU811  SER814 

> <Gold.Protein.RotatedAtoms>
  150.7494  133.9698  159.3541 H   0  0  0  0  0  0  0  0  0  0  0  0  # atno 6907 bound_to 6896
  151.7631  135.0803  160.0358 H   0  0  0  0  0  0  0  0  0  0  0  0  # atno 6908 bound_to 6896
  152.3390  133.6008  159.5899 H   0  0  0  0  0  0  0  0  0  0  0  0  # atno 6909 bound_to 6896
  146.1250  139.6085  142.9264 H   0  0  0  0  0  0  0  0  0  0  0  0  # atno 7974 bound_to 7965
  154.4250  140.1117  156.5725 H   0  0  0  0  0  0  0  0  0  0  0  0  # atno 8008 bound_to 7997
  155.6197  140.3495  155.4629 H   0  0  0  0  0  0  0  0  0  0  0  0  # atno 8009 bound_to 7997
  156.0034  140.1204  157.0515 H   0  0  0  0  0  0  0  0  0  0  0  0  # atno 8010 bound_to 7997
  139.9415  143.6158  152.2502 H   0  0  0  0  0  0  0  0  0  0  0  0  # atno 10167 bound_to 10162
  156.2651  130.7232  151.1180 H   0  0  0  0  0  0  0  0  0  0  0  0  # atno 10718 bound_to 10713
  152.9806  135.5740  154.4927 H   0  0  0  0  0  0  0  0  0  0  0  0  # atno 10763 bound_to 10752
  154.4459  135.2777  155.1817 H   0  0  0  0  0  0  0  0  0  0  0  0  # atno 10764 bound_to 10752
  154.3465  135.6218  153.5675 H   0  0  0  0  0  0  0  0  0  0  0  0  # atno 10765 bound_to 10752
  141.1660  133.7022  156.7818 H   0  0  0  0  0  0  0  0  0  0  0  0  # atno 11005 bound_to 11000
  145.5384  141.0422  143.2344 LP  0  0  0  0  0  0  0  0  0  0  0  0  # atno 17320 bound_to 7965
  144.7634  139.6903  143.7225 LP  0  0  0  0  0  0  0  0  0  0  0  0  # atno 17321 bound_to 7965
  139.6701  144.7661  151.1800 LP  0  0  0  0  0  0  0  0  0  0  0  0  # atno 17342 bound_to 10162
  140.7609  143.5879  150.8827 LP  0  0  0  0  0  0  0  0  0  0  0  0  # atno 17343 bound_to 10162
  157.7264  131.0646  150.5910 LP  0  0  0  0  0  0  0  0  0  0  0  0  # atno 17370 bound_to 10713
  156.6001  130.4352  149.5900 LP  0  0  0  0  0  0  0  0  0  0  0  0  # atno 17371 bound_to 10713
  140.2389  134.8629  157.3553 LP  0  0  0  0  0  0  0  0  0  0  0  0  # atno 17394 bound_to 11000
  140.1816  134.4483  155.7769 LP  0  0  0  0  0  0  0  0  0  0  0  0  # atno 17395 bound_to 11000

$$$$
