AV-unprocessed.smi:8|AV-procd|sdf|45|dock3
  -GOLD-   2262015163D 1   1.00000     0.00000
 Structure written by MMmdl.
 34 35  0  0  0  0  0  0  0  0  1 V2000
  145.7834  143.4555  154.1661 C   0  0  0  0  0  0  0  0  0  0  0  0
  145.9663  142.2850  155.1439 C   0  0  0  0  0  0  0  0  0  0  0  0
  147.2893  141.7128  155.0942 N   0  0  0  0  0  0  0  0  0  0  0  0
  148.1461  141.7233  156.1841 C   0  0  0  0  0  0  0  0  0  0  0  0
  149.4038  141.2135  156.1579 C   0  0  0  0  0  0  0  0  0  0  0  0
  150.2994  141.2261  157.3870 C   0  0  0  0  0  0  0  0  0  0  0  0
  151.3943  142.1821  157.2820 N   0  0  0  0  0  0  0  0  0  0  0  0
  151.6718  143.0652  158.3366 C   0  0  0  0  0  0  0  0  0  0  0  0
  151.2080  144.3359  158.2672 N   0  0  0  0  0  0  0  0  0  0  0  0
  151.4895  145.1490  159.2881 C   0  0  0  0  0  0  0  0  0  0  0  0
  152.1876  144.8426  160.3833 N   0  0  0  0  0  0  0  0  0  0  0  0
  152.6554  143.5794  160.4690 C   0  0  0  0  0  0  0  0  0  0  0  0
  152.4233  142.6268  159.4533 C   0  0  0  0  0  0  0  0  0  0  0  0
  152.9603  141.2119  159.5703 C   0  0  0  0  0  0  0  0  0  0  0  0
  149.9009  140.5946  154.9236 C   0  0  0  0  0  0  0  0  0  0  0  0
  151.0103  140.0842  154.7785 O   0  0  0  0  0  0  0  0  0  0  0  0
  149.0056  140.6117  153.8499 N   0  0  0  0  0  0  0  0  0  0  0  0
  147.7198  141.1494  153.8722 C   0  0  0  0  0  0  0  0  0  0  0  0
  147.0226  141.1180  152.8580 O   0  0  0  0  0  0  0  0  0  0  0  0
  149.3175  140.2003  152.9820 H   0  0  0  0  0  0  0  0  0  0  0  0
  144.7859  143.8850  154.2610 H   0  0  0  0  0  0  0  0  0  0  0  0
  145.9078  143.1382  153.1305 H   0  0  0  0  0  0  0  0  0  0  0  0
  146.5058  144.2481  154.3625 H   0  0  0  0  0  0  0  0  0  0  0  0
  145.8142  142.6170  156.1720 H   0  0  0  0  0  0  0  0  0  0  0  0
  145.2475  141.4807  154.9738 H   0  0  0  0  0  0  0  0  0  0  0  0
  147.7955  142.1670  157.1052 H   0  0  0  0  0  0  0  0  0  0  0  0
  149.7071  141.4646  158.2712 H   0  0  0  0  0  0  0  0  0  0  0  0
  150.7008  140.2226  157.5360 H   0  0  0  0  0  0  0  0  0  0  0  0
  151.7891  142.3680  156.3716 H   0  0  0  0  0  0  0  0  0  0  0  0
  151.1153  146.1597  159.2193 H   0  0  0  0  0  0  0  0  0  0  0  0
  153.2195  143.3296  161.3556 H   0  0  0  0  0  0  0  0  0  0  0  0
  153.5128  141.0755  160.5002 H   0  0  0  0  0  0  0  0  0  0  0  0
  153.6325  140.9905  158.7409 H   0  0  0  0  0  0  0  0  0  0  0  0
  152.1415  140.4922  159.5540 H   0  0  0  0  0  0  0  0  0  0  0  0
  1  2  1  0  0  0  0
  1 21  1  0  0  0  0
  1 22  1  0  0  0  0
  1 23  1  0  0  0  0
  2  3  1  0  0  0  0
  2 24  1  0  0  0  0
  2 25  1  0  0  0  0
  3 18  1  0  0  0  0
  3  4  1  0  0  0  0
  4  5  2  0  0  0  0
  4 26  1  0  0  0  0
  5  6  1  0  0  0  0
  5 15  1  0  0  0  0
  6  7  1  0  0  0  0
  6 27  1  0  0  0  0
  6 28  1  0  0  0  0
  7  8  1  0  0  0  0
  7 29  1  0  0  0  0
  8 13  1  0  0  0  0
  8  9  2  0  0  0  0
  9 10  1  0  0  0  0
 10 11  2  0  0  0  0
 10 30  1  0  0  0  0
 11 12  1  0  0  0  0
 12 13  2  0  0  0  0
 12 31  1  0  0  0  0
 13 14  1  0  0  0  0
 14 32  1  0  0  0  0
 14 33  1  0  0  0  0
 14 34  1  0  0  0  0
 15 16  2  0  0  0  0
 15 17  1  0  0  0  0
 17 20  1  0  0  0  0
 17 18  1  0  0  0  0
 18 19  2  0  0  0  0
M  END
> <s_m_source_file>
AV-unprocessed.smi

> <i_m_source_file_index>
8

> <i_lp_mmshare_version>
43012

> <i_f3d_flags>
0

> <s_epik_input>
W0NIM11bQ0gyXW4xW2NIXWMoYyg9TylbbkhdYzE9TylbQ0gyXVtOSF1jMm5bY0hdbltjSF1jMltDSDNd

> <s_epik_cmdline>
J2VwaWtfcHl0aG9uJywgJy1waCcsICc3LjAnLCAnLXRuJywgJzgnLCAnLW1hJywgJzIwMCcsICctbWV0YWxfYmluZGluZycsICctaW1hZScsICc8aW5maWxlLm1hZT4nLCAnLW9tYWUnLCAnPG91dGZpbGUubWFlPic=

> <r_lp_tautomer_probability>
0.999537

> <r_epik_Ionization_Penalty>
0.0165471

> <r_epik_Ionization_Penalty_Charging>
0.000694205

> <r_epik_Ionization_Penalty_Neutral>
0.0158529

> <r_epik_State_Penalty>
0.0119799

> <r_epik_Charging_Adjusted_Penalty>
0.0126741

> <i_epik_Tot_Q>
0

> <i_epik_Tot_abs_Q>
0

> <r_epik_Metal_State_Penalty>
0.262409

> <b_epik_Metal_Only>
0

> <s_lp_Force_Field>
OPLS_2005

> <r_lp_Energy>
9.23324

> <b_lp_Chiralities_Consistent>
1

> <s_lp_Variant>
AV-unprocessed.smi:8-1

> <Gold.Version>
5.8.1

> <Gold.Id.Protein>
6NUR|6NUR_protein|mol2

> <Gold.PLP.Fitness>
41.2840

> <Gold.PLP.PLP>
-37.1604

> <Gold.PLP.part.hbond>
-2.0000

> <Gold.PLP.part.metal>
0.0000

> <Gold.PLP.part.buried>
-5.2265

> <Gold.PLP.part.nonpolar>
-30.9309

> <Gold.PLP.part.repulsive>
1.0629

> <Gold.PLP.ligand.clash>
0.0000

> <Gold.PLP.ligand.torsion>
0.9415

> <Gold.PLP.Chemscore.Hbond>
2.0000

> <Gold.PLP.Chemscore.CHOScore>
0.0000

> <Gold.PLP.Chemscore.Metal>
0.0000

> <Gold.Chemscore.Hbonds>
donor molecule, donor type, donor heavy atom, donor atom, acceptor molecule, acceptor atom, score
      L1  H    17    20       P1  7957  1.00
      P1  H  7989  7998       L1    16  1.00

> <Gold.PLP.Chemscore.Internal.Correction>
0.0067

> <Gold.Rescore>
     Score         DG    S(hbond)    S(metal)    S(lipo)     H(rot)  DE(clash)    DE(int)     intcor
     12.74     -13.87       1.89        0.00      55.65       1.73       0.08       1.05       ----

> <Gold.Chemscore.Fitness>
12.7371

> <Gold.Chemscore.DG>
-13.8652

> <Gold.Chemscore.ZeroCoef>
-5.4800

> <Gold.Chemscore.Hbond>
1.8878

> <Gold.Chemscore.Metal>
0.0000

> <Gold.Chemscore.Lipo>
55.6462

> <Gold.Chemscore.Internal_Hbond>
0.0000

> <Gold.Chemscore.DEClash>
0.0798

> <Gold.Chemscore.DEInternal>
1.0483

> <Gold.Chemscore.Rot>
1.7307

> <Gold.Chemscore.Internal.Correction>
   9.000000E+99

> <Gold.Chemscore.Hbonds>
donor molecule, donor type, donor heavy atom, donor atom, acceptor molecule, acceptor atom, score
      L1  H    17    20       P1  7957  0.99
      P1  H  7989  7998       L1    16  0.44

> <Gold.Chemscore.Hbond.Weighted>
-6.3051

> <Gold.Chemscore.Metal.Weighted>
-0.0000

> <Gold.Chemscore.Lipo.Weighted>
-6.5106

> <Gold.Chemscore.Internal_Hbond.Weighted>
0.0000

> <Gold.Chemscore.DEClash.Weighted>
0.0798

> <Gold.Chemscore.DEInternal.Weighted>
1.0483

> <Gold.Chemscore.Rot.Weighted>
4.4305

> <Gold.Chemscore.Internal.Correction.Weighted>
   9.000000E+99

> <Gold.Protein.RotatedTorsions>
[ 6907 6896 6895 6894 ] final   32.46 input  -60.11 | X-H torsion
[ 7974 7965 7964 7962 ] final   50.07 input  175.53 | X-H torsion
[ 8008 7997 7996 7995 ] final   38.26 input   59.86 | X-H torsion
[ 10167 10162 10161 10158 ] final    7.69 input  -65.29 | X-H torsion
[ 10718 10713 10712 10709 ] final -145.28 input   66.30 | X-H torsion
[ 10763 10752 10751 10750 ] final   33.18 input  -60.55 | X-H torsion
[ 11005 11000 10999 10996 ] final -128.70 input  -57.11 | X-H torsion

> <Gold.Protein.ActiveResidues>
 VAL166  LYS551  ARG553  GLY616  TRP617  ASP618  TYR619  PRO620  LYS621  CYS622 
 ASP623  PHE694  ASN695  SER759  ASP760  ASP761  ALA762  ILE779  LEU786  VAL792 
 PHE793  MET794  SER795  GLU796  ALA797  LYS798  CYS799  TRP800  GLU811  SER814 

> <Gold.Protein.RotatedAtoms>
  152.0748  134.9510  160.0573 H   0  0  0  0  0  0  0  0  0  0  0  0  # atno 6907 bound_to 6896
  152.0821  133.4153  159.4514 H   0  0  0  0  0  0  0  0  0  0  0  0  # atno 6908 bound_to 6896
  150.6836  134.2889  159.4702 H   0  0  0  0  0  0  0  0  0  0  0  0  # atno 6909 bound_to 6896
  146.0048  139.4478  142.9993 H   0  0  0  0  0  0  0  0  0  0  0  0  # atno 7974 bound_to 7965
  155.2173  140.3328  155.4320 H   0  0  0  0  0  0  0  0  0  0  0  0  # atno 8008 bound_to 7997
  156.2347  140.1867  156.7198 H   0  0  0  0  0  0  0  0  0  0  0  0  # atno 8009 bound_to 7997
  154.6039  140.0619  156.9390 H   0  0  0  0  0  0  0  0  0  0  0  0  # atno 8010 bound_to 7997
  140.6357  143.7891  150.7356 H   0  0  0  0  0  0  0  0  0  0  0  0  # atno 10167 bound_to 10162
  156.3805  130.7835  151.2026 H   0  0  0  0  0  0  0  0  0  0  0  0  # atno 10718 bound_to 10713
  153.0224  135.6393  154.1472 H   0  0  0  0  0  0  0  0  0  0  0  0  # atno 10763 bound_to 10752
  154.1205  135.2847  155.3211 H   0  0  0  0  0  0  0  0  0  0  0  0  # atno 10764 bound_to 10752
  154.6267  135.5506  153.7697 H   0  0  0  0  0  0  0  0  0  0  0  0  # atno 10765 bound_to 10752
  140.9494  134.1086  157.4076 H   0  0  0  0  0  0  0  0  0  0  0  0  # atno 11005 bound_to 11000
  145.7433  141.0000  143.1289 LP  0  0  0  0  0  0  0  0  0  0  0  0  # atno 17320 bound_to 7965
  144.6932  139.9125  143.7464 LP  0  0  0  0  0  0  0  0  0  0  0  0  # atno 17321 bound_to 7965
  140.1512  143.4356  152.2130 LP  0  0  0  0  0  0  0  0  0  0  0  0  # atno 17342 bound_to 10162
  139.5568  144.7378  151.4272 LP  0  0  0  0  0  0  0  0  0  0  0  0  # atno 17343 bound_to 10162
  157.7492  131.0345  150.4321 LP  0  0  0  0  0  0  0  0  0  0  0  0  # atno 17370 bound_to 10713
  156.4564  130.4022  149.6603 LP  0  0  0  0  0  0  0  0  0  0  0  0  # atno 17371 bound_to 10713
  139.8843  135.0061  156.6359 LP  0  0  0  0  0  0  0  0  0  0  0  0  # atno 17394 bound_to 11000
  140.7624  133.8807  155.8428 LP  0  0  0  0  0  0  0  0  0  0  0  0  # atno 17395 bound_to 11000

$$$$
