AV-unprocessed.smi:1292|AV-procd|sdf|5395|dock1
  -GOLD-   22720 4553D 1   1.00000     0.00000
 Structure written by MMmdl.
 40 41  0  0  0  0  0  0  0  0  1 V2000
  146.3363  138.4898  152.8298 C   0  0  0  0  0  0  0  0  0  0  0  0
  147.0251  139.3442  153.9030 C   0  0  2  0  0  0  0  0  0  0  0  0
  146.8500  140.8441  153.6250 C   0  0  0  0  0  0  0  0  0  0  0  0
  147.5463  141.6570  154.7205 C   0  0  0  0  0  0  0  0  0  0  0  0
  149.0298  141.2742  154.8421 C   0  0  0  0  0  0  0  0  0  0  0  0
  149.1905  139.8226  155.0493 N   0  0  0  0  0  0  0  0  0  0  0  0
  150.7149  139.2688  155.6636 S   0  0  0  0  0  0  0  0  0  0  0  0
  150.7444  137.8017  155.5654 O   0  0  0  0  0  0  0  0  0  0  0  0
  151.7867  140.0960  155.0881 O   0  0  0  0  0  0  0  0  0  0  0  0
  150.5315  139.7050  157.3233 N   0  0  0  0  0  0  0  0  0  0  0  0
  150.5930  141.1148  157.7097 C   0  0  0  0  0  0  0  0  0  0  0  0
  151.8150  141.3729  158.6002 C   0  0  0  0  0  0  0  0  0  0  0  0
  151.8938  142.8182  159.0548 C   0  0  0  0  0  0  0  0  0  0  0  0
  152.1070  143.8550  158.1213 C   0  0  0  0  0  0  0  0  0  0  0  0
  152.1870  145.1787  158.5955 C   0  0  0  0  0  0  0  0  0  0  0  0
  152.0532  145.4134  159.9776 C   0  0  0  0  0  0  0  0  0  0  0  0
  151.8452  144.3090  160.8277 C   0  0  0  0  0  0  0  0  0  0  0  0
  151.7673  143.0358  160.3834 N   0  0  0  0  0  0  0  0  0  0  0  0
  148.5205  138.9928  154.0262 C   0  0  0  0  0  0  0  0  0  0  0  0
  146.7679  138.6674  151.8443 H   0  0  0  0  0  0  0  0  0  0  0  0
  145.2712  138.7151  152.7726 H   0  0  0  0  0  0  0  0  0  0  0  0
  146.4365  137.4267  153.0503 H   0  0  0  0  0  0  0  0  0  0  0  0
  146.5478  139.1179  154.8579 H   0  0  0  0  0  0  0  0  0  0  0  0
  147.2710  141.0980  152.6510 H   0  0  0  0  0  0  0  0  0  0  0  0
  145.7913  141.1025  153.5875 H   0  0  0  0  0  0  0  0  0  0  0  0
  147.4544  142.7224  154.5082 H   0  0  0  0  0  0  0  0  0  0  0  0
  147.0466  141.4887  155.6755 H   0  0  0  0  0  0  0  0  0  0  0  0
  149.5760  141.5675  153.9448 H   0  0  0  0  0  0  0  0  0  0  0  0
  149.4744  141.8179  155.6756 H   0  0  0  0  0  0  0  0  0  0  0  0
  149.7971  139.1763  157.7928 H   0  0  0  0  0  0  0  0  0  0  0  0
  150.6344  141.7297  156.8100 H   0  0  0  0  0  0  0  0  0  0  0  0
  149.6816  141.3833  158.2447 H   0  0  0  0  0  0  0  0  0  0  0  0
  151.7815  140.7247  159.4771 H   0  0  0  0  0  0  0  0  0  0  0  0
  152.7308  141.1181  158.0645 H   0  0  0  0  0  0  0  0  0  0  0  0
  152.2107  143.6424  157.0674 H   0  0  0  0  0  0  0  0  0  0  0  0
  152.3499  145.9986  157.9117 H   0  0  0  0  0  0  0  0  0  0  0  0
  152.1098  146.4153  160.3768 H   0  0  0  0  0  0  0  0  0  0  0  0
  151.7388  144.4520  161.8928 H   0  0  0  0  0  0  0  0  0  0  0  0
  148.6247  137.9383  154.2797 H   0  0  0  0  0  0  0  0  0  0  0  0
  149.0275  139.1353  153.0707 H   0  0  0  0  0  0  0  0  0  0  0  0
  1  2  1  0  0  0  0
  1 20  1  0  0  0  0
  1 21  1  0  0  0  0
  1 22  1  0  0  0  0
  2 19  1  0  0  0  0
  2  3  1  0  0  0  0
  2 23  1  0  0  0  0
  3  4  1  0  0  0  0
  3 24  1  0  0  0  0
  3 25  1  0  0  0  0
  4  5  1  0  0  0  0
  4 26  1  0  0  0  0
  4 27  1  0  0  0  0
  5  6  1  0  0  0  0
  5 28  1  0  0  0  0
  5 29  1  0  0  0  0
  6  7  1  0  0  0  0
  6 19  1  0  0  0  0
  7  8  2  0  0  0  0
  7  9  2  0  0  0  0
  7 10  1  0  0  0  0
 10 11  1  0  0  0  0
 10 30  1  0  0  0  0
 11 12  1  0  0  0  0
 11 31  1  0  0  0  0
 11 32  1  0  0  0  0
 12 13  1  0  0  0  0
 12 33  1  0  0  0  0
 12 34  1  0  0  0  0
 13 18  1  0  0  0  0
 13 14  2  0  0  0  0
 14 15  1  0  0  0  0
 14 35  1  0  0  0  0
 15 16  2  0  0  0  0
 15 36  1  0  0  0  0
 16 17  1  0  0  0  0
 16 37  1  0  0  0  0
 17 18  2  0  0  0  0
 17 38  1  0  0  0  0
 19 39  1  0  0  0  0
 19 40  1  0  0  0  0
M  END
> <s_m_source_file>
AV-unprocessed.smi

> <i_m_source_file_index>
1292

> <i_lp_mmshare_version>
43012

> <i_f3d_flags>
0

> <s_epik_input>
W0NIM11bQ0BASF0xW0NIMl1bQ0gyXVtDSDJdTihbQ0gyXTEpUyg9TykoPU8pW05IXVtDSDJdW0NIMl1jMltjSF1bY0hdW2NIXVtjSF1uMg==

> <s_epik_cmdline>
J2VwaWtfcHl0aG9uJywgJy1waCcsICc3LjAnLCAnLXRuJywgJzgnLCAnLW1hJywgJzIwMCcsICctbWV0YWxfYmluZGluZycsICctaW1hZScsICc8aW5maWxlLm1hZT4nLCAnLW9tYWUnLCAnPG91dGZpbGUubWFlPic=

> <r_epik_Ionization_Penalty>
0.0252758

> <r_epik_Ionization_Penalty_Charging>
0

> <r_epik_Ionization_Penalty_Neutral>
0.0252758

> <r_epik_State_Penalty>
0.0138562

> <r_epik_Charging_Adjusted_Penalty>
0.0138562

> <i_epik_Tot_Q>
0

> <i_epik_Tot_abs_Q>
0

> <r_epik_Metal_State_Penalty>
0.204365

> <b_epik_Metal_Only>
0

> <s_lp_Force_Field>
OPLS_2005

> <r_lp_Energy>
7.0541

> <b_lp_Chiralities_Consistent>
1

> <s_lp_Variant>
AV-unprocessed.smi:1292-1

> <Gold.Version>
5.8.1

> <Gold.Id.Protein>
6NUR|6NUR_protein|mol2

> <Gold.PLP.Fitness>
43.8793

> <Gold.PLP.PLP>
-43.2476

> <Gold.PLP.part.hbond>
-1.9496

> <Gold.PLP.part.metal>
0.0000

> <Gold.PLP.part.buried>
-4.2918

> <Gold.PLP.part.nonpolar>
-38.8633

> <Gold.PLP.part.repulsive>
0.2573

> <Gold.PLP.ligand.clash>
0.0000

> <Gold.PLP.ligand.torsion>
1.3602

> <Gold.PLP.Chemscore.Hbond>
0.8160

> <Gold.PLP.Chemscore.CHOScore>
0.0000

> <Gold.PLP.Chemscore.Metal>
0.0000

> <Gold.Chemscore.Hbonds>
donor molecule, donor type, donor heavy atom, donor atom, acceptor molecule, acceptor atom, score
      P1  H  7989  7998       L1     9  0.93

> <Gold.PLP.Chemscore.Internal.Correction>
0.9040

> <Gold.Rescore>
     Score         DG    S(hbond)    S(metal)    S(lipo)     H(rot)  DE(clash)    DE(int)     intcor
     16.05     -17.30       0.93        0.00     110.40       1.64       0.10       1.14       ----

> <Gold.Chemscore.Fitness>
16.0544

> <Gold.Chemscore.DG>
-17.2958

> <Gold.Chemscore.ZeroCoef>
-5.4800

> <Gold.Chemscore.Hbond>
0.9270

> <Gold.Chemscore.Metal>
0.0000

> <Gold.Chemscore.Lipo>
110.3982

> <Gold.Chemscore.Internal_Hbond>
0.0000

> <Gold.Chemscore.DEClash>
0.1008

> <Gold.Chemscore.DEInternal>
1.1406

> <Gold.Chemscore.Rot>
1.6394

> <Gold.Chemscore.Internal.Correction>
   9.000000E+99

> <Gold.Chemscore.Hbonds>
donor molecule, donor type, donor heavy atom, donor atom, acceptor molecule, acceptor atom, score
      P1  H  7989  7998       L1     9  0.89

> <Gold.Chemscore.Hbond.Weighted>
-3.0961

> <Gold.Chemscore.Metal.Weighted>
-0.0000

> <Gold.Chemscore.Lipo.Weighted>
-12.9166

> <Gold.Chemscore.Internal_Hbond.Weighted>
0.0000

> <Gold.Chemscore.DEClash.Weighted>
0.1008

> <Gold.Chemscore.DEInternal.Weighted>
1.1406

> <Gold.Chemscore.Rot.Weighted>
4.1968

> <Gold.Chemscore.Internal.Correction.Weighted>
   9.000000E+99

> <Gold.Protein.RotatedTorsions>
[ 6907 6896 6895 6894 ] final -162.78 input  -60.11 | X-H torsion
[ 7974 7965 7964 7962 ] final  165.73 input  175.53 | X-H torsion
[ 8008 7997 7996 7995 ] final   21.53 input   59.86 | X-H torsion
[ 10167 10162 10161 10158 ] final  -43.31 input  -65.29 | X-H torsion
[ 10718 10713 10712 10709 ] final   -6.25 input   66.30 | X-H torsion
[ 10763 10752 10751 10750 ] final   80.41 input  -60.55 | X-H torsion
[ 11005 11000 10999 10996 ] final   72.43 input  -57.11 | X-H torsion

> <Gold.Protein.ActiveResidues>
 VAL166  LYS551  ARG553  GLY616  TRP617  ASP618  TYR619  PRO620  LYS621  CYS622 
 ASP623  PHE694  ASN695  SER759  ASP760  ASP761  ALA762  ILE779  LEU786  VAL792 
 PHE793  MET794  SER795  GLU796  ALA797  LYS798  CYS799  TRP800  GLU811  SER814 

> <Gold.Protein.RotatedAtoms>
  151.3857  133.3806  159.2714 H   0  0  0  0  0  0  0  0  0  0  0  0  # atno 6907 bound_to 6896
  150.9543  134.8941  159.7702 H   0  0  0  0  0  0  0  0  0  0  0  0  # atno 6908 bound_to 6896
  152.5124  134.3814  159.9404 H   0  0  0  0  0  0  0  0  0  0  0  0  # atno 6909 bound_to 6896
  144.7491  139.8512  143.6372 H   0  0  0  0  0  0  0  0  0  0  0  0  # atno 7974 bound_to 7965
  154.9520  140.3067  155.5071 H   0  0  0  0  0  0  0  0  0  0  0  0  # atno 8008 bound_to 7997
  156.2986  140.2317  156.4536 H   0  0  0  0  0  0  0  0  0  0  0  0  # atno 8009 bound_to 7997
  154.8046  140.0432  157.1286 H   0  0  0  0  0  0  0  0  0  0  0  0  # atno 8010 bound_to 7997
  140.6938  143.2990  151.3333 H   0  0  0  0  0  0  0  0  0  0  0  0  # atno 10167 bound_to 10162
  156.7346  130.5191  149.5838 H   0  0  0  0  0  0  0  0  0  0  0  0  # atno 10718 bound_to 10713
  153.1031  135.4803  154.8903 H   0  0  0  0  0  0  0  0  0  0  0  0  # atno 10763 bound_to 10752
  154.7401  135.3080  154.8746 H   0  0  0  0  0  0  0  0  0  0  0  0  # atno 10764 bound_to 10752
  153.9356  135.6840  153.4798 H   0  0  0  0  0  0  0  0  0  0  0  0  # atno 10765 bound_to 10752
  139.9491  134.7259  156.0906 H   0  0  0  0  0  0  0  0  0  0  0  0  # atno 11005 bound_to 11000
  146.1415  139.4473  143.0106 LP  0  0  0  0  0  0  0  0  0  0  0  0  # atno 17320 bound_to 7965
  145.7011  141.0135  143.1503 LP  0  0  0  0  0  0  0  0  0  0  0  0  # atno 17321 bound_to 7965
  139.6370  144.0611  152.2524 LP  0  0  0  0  0  0  0  0  0  0  0  0  # atno 17342 bound_to 10162
  140.0104  144.6228  150.7652 LP  0  0  0  0  0  0  0  0  0  0  0  0  # atno 17343 bound_to 10162
  156.1506  130.6307  151.0590 LP  0  0  0  0  0  0  0  0  0  0  0  0  # atno 17370 bound_to 10713
  157.6844  131.0829  150.7282 LP  0  0  0  0  0  0  0  0  0  0  0  0  # atno 17371 bound_to 10713
  141.1150  133.6631  156.3071 LP  0  0  0  0  0  0  0  0  0  0  0  0  # atno 17394 bound_to 11000
  140.5762  134.5791  157.5469 LP  0  0  0  0  0  0  0  0  0  0  0  0  # atno 17395 bound_to 11000

$$$$
