AV-unprocessed.smi:2772|AV-procd|sdf|10675|dock3
  -GOLD-   2272015123D 1   1.00000     0.00000
 Structure written by MMmdl.
 56 58  0  0  0  0  0  0  0  0  4 V2000
  150.8894  142.0571  155.6759 C   0  0  0  0  0  0  0  0  0  0  0  0
  149.6693  141.3753  155.0937 C   0  0  0  0  0  0  0  0  0  0  0  0
  149.6891  140.0340  154.6580 C   0  0  0  0  0  0  0  0  0  0  0  0
  148.5139  139.4666  154.1233 C   0  0  0  0  0  0  0  0  0  0  0  0
  147.3359  140.2415  154.0398 C   0  0  0  0  0  0  0  0  0  0  0  0
  146.1793  139.6300  153.4820 N   0  0  0  0  0  0  0  0  0  0  0  0
  145.9559  138.3257  153.2438 C   0  0  0  0  0  0  0  0  0  0  0  0
  146.7582  137.4187  153.4624 O   0  0  0  0  0  0  0  0  0  0  0  0
  144.7394  138.1287  152.7134 N   0  0  0  0  0  0  0  0  0  0  0  0
  144.1827  136.8365  152.3173 C   0  0  2  0  0  0  0  0  0  0  0  0
  144.5692  135.7556  153.3427 C   0  0  0  0  0  0  0  0  0  0  0  0
  144.1129  134.3606  152.8726 C   0  0  0  0  0  0  0  0  0  0  0  0
  144.6693  134.0128  151.5328 N   0  3  2  0  0  0  0  0  0  0  0  0
  146.1402  133.6932  151.5088 C   0  0  2  0  0  0  0  0  0  0  0  0
  146.5526  132.7669  150.3388 C   0  0  0  0  0  0  0  0  0  0  0  0
  145.9677  131.3504  150.4936 C   0  0  0  0  0  0  0  0  0  0  0  0
  146.3903  130.7338  151.7763 N   0  3  2  0  0  0  0  0  0  0  0  0
  145.8946  129.3481  151.9235 C   0  0  0  0  0  0  0  0  0  0  0  0
  146.0553  131.5798  152.9497 C   0  0  0  0  0  0  0  0  0  0  0  0
  146.6395  132.9971  152.7984 C   0  0  0  0  0  0  0  0  0  0  0  0
  144.2175  135.0283  150.5376 C   0  0  0  0  0  0  0  0  0  0  0  0
  144.6810  136.4495  150.9133 C   0  0  0  0  0  0  0  0  0  0  0  0
  147.3829  141.5870  154.4840 C   0  0  0  0  0  0  0  0  0  0  0  0
  148.5293  142.0928  154.9888 N   0  3  0  0  0  0  0  0  0  0  0  0
  151.7381  141.3739  155.7202 H   0  0  0  0  0  0  0  0  0  0  0  0
  150.6827  142.4094  156.6869 H   0  0  0  0  0  0  0  0  0  0  0  0
  151.1734  142.9134  155.0634 H   0  0  0  0  0  0  0  0  0  0  0  0
  150.5916  139.4444  154.7301 H   0  0  0  0  0  0  0  0  0  0  0  0
  148.5201  138.4406  153.7848 H   0  0  0  0  0  0  0  0  0  0  0  0
  145.4547  140.2666  153.1831 H   0  0  0  0  0  0  0  0  0  0  0  0
  144.1528  138.9377  152.5678 H   0  0  0  0  0  0  0  0  0  0  0  0
  143.0928  136.8867  152.2806 H   0  0  0  0  0  0  0  0  0  0  0  0
  145.6467  135.7600  153.5112 H   0  0  0  0  0  0  0  0  0  0  0  0
  144.1114  135.9832  154.3063 H   0  0  0  0  0  0  0  0  0  0  0  0
  144.3352  133.6053  153.6226 H   0  0  0  0  0  0  0  0  0  0  0  0
  143.0246  134.3556  152.7965 H   0  0  0  0  0  0  0  0  0  0  0  0
  146.6882  134.6291  151.4008 H   0  0  0  0  0  0  0  0  0  0  0  0
  146.3013  133.1866  149.3668 H   0  0  0  0  0  0  0  0  0  0  0  0
  147.6409  132.6887  150.3227 H   0  0  0  0  0  0  0  0  0  0  0  0
  144.8784  131.3810  150.4400 H   0  0  0  0  0  0  0  0  0  0  0  0
  146.3067  130.7260  149.6660 H   0  0  0  0  0  0  0  0  0  0  0  0
  144.8048  129.3253  151.9661 H   0  0  0  0  0  0  0  0  0  0  0  0
  146.2820  128.8941  152.8361 H   0  0  0  0  0  0  0  0  0  0  0  0
  146.2167  128.7313  151.0839 H   0  0  0  0  0  0  0  0  0  0  0  0
  144.9723  131.6264  153.0738 H   0  0  0  0  0  0  0  0  0  0  0  0
  146.4564  131.1170  153.8523 H   0  0  0  0  0  0  0  0  0  0  0  0
  147.7268  132.9170  152.7533 H   0  0  0  0  0  0  0  0  0  0  0  0
  146.4522  133.5899  153.6914 H   0  0  0  0  0  0  0  0  0  0  0  0
  144.5159  134.7755  149.5230 H   0  0  0  0  0  0  0  0  0  0  0  0
  143.1269  135.0110  150.5109 H   0  0  0  0  0  0  0  0  0  0  0  0
  144.3019  137.1618  150.1794 H   0  0  0  0  0  0  0  0  0  0  0  0
  145.7685  136.5136  150.8643 H   0  0  0  0  0  0  0  0  0  0  0  0
  146.5609  142.2856  154.4481 H   0  0  0  0  0  0  0  0  0  0  0  0
  144.2097  133.1539  151.2661 H   0  0  0  0  0  0  0  0  0  0  0  0
  147.3986  130.6731  151.7459 H   0  0  0  0  0  0  0  0  0  0  0  0
  148.5341  143.0635  155.3028 H   0  0  0  0  0  0  0  0  0  0  0  0
  1  2  1  0  0  0  0
  1 25  1  0  0  0  0
  1 26  1  0  0  0  0
  1 27  1  0  0  0  0
  2 24  1  0  0  0  0
  2  3  2  0  0  0  0
  3  4  1  0  0  0  0
  3 28  1  0  0  0  0
  4  5  2  0  0  0  0
  4 29  1  0  0  0  0
  5  6  1  0  0  0  0
  5 23  1  0  0  0  0
  6  7  1  0  0  0  0
  6 30  1  0  0  0  0
  7  8  2  0  0  0  0
  7  9  1  0  0  0  0
  9 10  1  0  0  0  0
  9 31  1  0  0  0  0
 10 22  1  0  0  0  0
 10 11  1  0  0  0  0
 10 32  1  0  0  0  0
 11 12  1  0  0  0  0
 11 33  1  0  0  0  0
 11 34  1  0  0  0  0
 12 13  1  0  0  0  0
 12 35  1  0  0  0  0
 12 36  1  0  0  0  0
 13 14  1  0  0  0  0
 13 21  1  0  0  0  0
 13 54  1  0  0  0  0
 14 20  1  0  0  0  0
 14 15  1  0  0  0  0
 14 37  1  0  0  0  0
 15 16  1  0  0  0  0
 15 38  1  0  0  0  0
 15 39  1  0  0  0  0
 16 17  1  0  0  0  0
 16 40  1  0  0  0  0
 16 41  1  0  0  0  0
 17 18  1  0  0  0  0
 17 19  1  0  0  0  0
 17 55  1  0  0  0  0
 18 42  1  0  0  0  0
 18 43  1  0  0  0  0
 18 44  1  0  0  0  0
 19 20  1  0  0  0  0
 19 45  1  0  0  0  0
 19 46  1  0  0  0  0
 20 47  1  0  0  0  0
 20 48  1  0  0  0  0
 21 22  1  0  0  0  0
 21 49  1  0  0  0  0
 21 50  1  0  0  0  0
 22 51  1  0  0  0  0
 22 52  1  0  0  0  0
 23 24  2  0  0  0  0
 23 53  1  0  0  0  0
 24 56  1  0  0  0  0
M  CHG  1  13   1
M  CHG  1  17   1
M  CHG  1  24   1
M  END
> <s_m_source_file>
AV-unprocessed.smi

> <i_m_source_file_index>
2772

> <i_lp_mmshare_version>
43012

> <i_f3d_flags>
0

> <s_epik_input>
W0NIM11jMVtjSF1bY0hdYyhbY0hdbjEpW05IXUMoPU8pW05IXVtDSF0yW0NIMl1bQ0gyXU4oW0NIMl1bQ0gyXTIpW0NIXTNbQ0gyXVtDSDJdTihbQ0gzXSlbQ0gyXVtDSDJdMw==

> <s_epik_cmdline>
J2VwaWtfcHl0aG9uJywgJy1waCcsICc3LjAnLCAnLXRuJywgJzgnLCAnLW1hJywgJzIwMCcsICctbWV0YWxfYmluZGluZycsICctaW1hZScsICc8aW5maWxlLm1hZT4nLCAnLW9tYWUnLCAnPG91dGZpbGUubWFlPic=

> <r_epik_Ionization_Penalty>
2.34117

> <r_epik_Ionization_Penalty_Charging>
2.34115

> <r_epik_Ionization_Penalty_Neutral>
2.22786e-05

> <r_epik_State_Penalty>
2.43944

> <r_epik_Charging_Adjusted_Penalty>
4.78059

> <i_epik_Tot_Q>
3

> <i_epik_Tot_abs_Q>
3

> <r_epik_Metal_State_Penalty>
2.45906

> <b_epik_Metal_Only>
0

> <s_lp_Force_Field>
OPLS_2005

> <r_lp_Energy>
58.0527

> <b_lp_Chiralities_Consistent>
1

> <s_lp_Variant>
AV-unprocessed.smi:2772-12

> <Gold.Version>
5.8.1

> <Gold.Id.Protein>
6NUR|6NUR_protein|mol2

> <Gold.PLP.Fitness>
48.0346

> <Gold.PLP.PLP>
-35.0997

> <Gold.PLP.part.hbond>
-4.8123

> <Gold.PLP.part.metal>
0.0000

> <Gold.PLP.part.buried>
0.9585

> <Gold.PLP.part.nonpolar>
-32.4421

> <Gold.PLP.part.repulsive>
1.1788

> <Gold.PLP.ligand.clash>
0.0000

> <Gold.PLP.ligand.torsion>
0.7912

> <Gold.PLP.Chemscore.Hbond>
4.8240

> <Gold.PLP.Chemscore.CHOScore>
0.0000

> <Gold.PLP.Chemscore.Metal>
0.0000

> <Gold.Chemscore.Hbonds>
donor molecule, donor type, donor heavy atom, donor atom, acceptor molecule, acceptor atom, score
      L1  H     6    30       P1 10175  0.96
      L1  H     9    31       P1 10175  1.00
      L1  H    17    55       P1 10747  0.52
      L1  H    24    56       P1  8028  2.00

> <Gold.PLP.Chemscore.Internal.Correction>
0.0454

> <Gold.Rescore>
     Score         DG    S(hbond)    S(metal)    S(lipo)     H(rot)  DE(clash)    DE(int)     intcor
     21.91     -27.38       3.81        0.00     105.04       1.22       1.77       3.70       ----

> <Gold.Chemscore.Fitness>
21.9101

> <Gold.Chemscore.DG>
-27.3781

> <Gold.Chemscore.ZeroCoef>
-5.4800

> <Gold.Chemscore.Hbond>
3.8136

> <Gold.Chemscore.Metal>
0.0000

> <Gold.Chemscore.Lipo>
105.0384

> <Gold.Chemscore.Internal_Hbond>
0.0000

> <Gold.Chemscore.DEClash>
1.7725

> <Gold.Chemscore.DEInternal>
3.6955

> <Gold.Chemscore.Rot>
1.2222

> <Gold.Chemscore.Internal.Correction>
   9.000000E+99

> <Gold.Chemscore.Hbonds>
donor molecule, donor type, donor heavy atom, donor atom, acceptor molecule, acceptor atom, score
      L1  H     6    30       P1 10175  0.91
      L1  H     9    31       P1 10175  0.98
      L1  H    17    55       P1 10747  0.52
      L1  H    24    56       P1  8028  1.00

> <Gold.Chemscore.Hbond.Weighted>
-12.7375

> <Gold.Chemscore.Metal.Weighted>
-0.0000

> <Gold.Chemscore.Lipo.Weighted>
-12.2895

> <Gold.Chemscore.Internal_Hbond.Weighted>
0.0000

> <Gold.Chemscore.DEClash.Weighted>
1.7725

> <Gold.Chemscore.DEInternal.Weighted>
3.6955

> <Gold.Chemscore.Rot.Weighted>
3.1289

> <Gold.Chemscore.Internal.Correction.Weighted>
   9.000000E+99

> <Gold.Protein.RotatedTorsions>
[ 6907 6896 6895 6894 ] final -140.53 input  -60.11 | X-H torsion
[ 7974 7965 7964 7962 ] final  -90.39 input  175.53 | X-H torsion
[ 8008 7997 7996 7995 ] final    4.04 input   59.86 | X-H torsion
[ 10167 10162 10161 10158 ] final   73.43 input  -65.29 | X-H torsion
[ 10718 10713 10712 10709 ] final  -76.28 input   66.30 | X-H torsion
[ 10763 10752 10751 10750 ] final   10.64 input  -60.55 | X-H torsion
[ 11005 11000 10999 10996 ] final -155.79 input  -57.11 | X-H torsion

> <Gold.Protein.ActiveResidues>
 VAL166  LYS551  ARG553  GLY616  TRP617  ASP618  TYR619  PRO620  LYS621  CYS622 
 ASP623  PHE694  ASN695  SER759  ASP760  ASP761  ALA762  ILE779  LEU786  VAL792 
 PHE793  MET794  SER795  GLU796  ALA797  LYS798  CYS799  TRP800  GLU811  SER814 

> <Gold.Protein.RotatedAtoms>
  151.0620  133.5537  159.2633 H   0  0  0  0  0  0  0  0  0  0  0  0  # atno 6907 bound_to 6896
  151.2508  135.0621  159.9071 H   0  0  0  0  0  0  0  0  0  0  0  0  # atno 6908 bound_to 6896
  152.5399  134.0380  159.8108 H   0  0  0  0  0  0  0  0  0  0  0  0  # atno 6909 bound_to 6896
  145.4271  140.9554  143.2148 H   0  0  0  0  0  0  0  0  0  0  0  0  # atno 7974 bound_to 7965
  154.7111  140.2693  155.6629 H   0  0  0  0  0  0  0  0  0  0  0  0  # atno 8008 bound_to 7997
  156.2795  140.2753  156.1677 H   0  0  0  0  0  0  0  0  0  0  0  0  # atno 8009 bound_to 7997
  155.0634  140.0371  157.2574 H   0  0  0  0  0  0  0  0  0  0  0  0  # atno 8010 bound_to 7997
  140.0246  144.5513  150.7554 H   0  0  0  0  0  0  0  0  0  0  0  0  # atno 10167 bound_to 10162
  156.0180  130.4462  150.3170 H   0  0  0  0  0  0  0  0  0  0  0  0  # atno 10718 bound_to 10713
  153.2010  135.6856  153.8231 H   0  0  0  0  0  0  0  0  0  0  0  0  # atno 10763 bound_to 10752
  153.7497  135.3225  155.3320 H   0  0  0  0  0  0  0  0  0  0  0  0  # atno 10764 bound_to 10752
  154.8171  135.4678  154.0776 H   0  0  0  0  0  0  0  0  0  0  0  0  # atno 10765 bound_to 10752
  140.6826  134.4128  157.5225 H   0  0  0  0  0  0  0  0  0  0  0  0  # atno 11005 bound_to 11000
  144.8207  139.5797  143.6988 LP  0  0  0  0  0  0  0  0  0  0  0  0  # atno 17320 bound_to 7965
  146.2626  139.6446  142.9351 LP  0  0  0  0  0  0  0  0  0  0  0  0  # atno 17321 bound_to 7965
  140.7328  143.2710  151.3890 LP  0  0  0  0  0  0  0  0  0  0  0  0  # atno 17342 bound_to 10162
  139.6117  144.1086  152.2305 LP  0  0  0  0  0  0  0  0  0  0  0  0  # atno 17343 bound_to 10162
  157.1271  131.0262  151.2985 LP  0  0  0  0  0  0  0  0  0  0  0  0  # atno 17370 bound_to 10713
  157.4581  130.7637  149.7211 LP  0  0  0  0  0  0  0  0  0  0  0  0  # atno 17371 bound_to 10713
  139.8947  134.8700  156.2164 LP  0  0  0  0  0  0  0  0  0  0  0  0  # atno 17394 bound_to 11000
  141.0305  133.6991  156.1422 LP  0  0  0  0  0  0  0  0  0  0  0  0  # atno 17395 bound_to 11000

$$$$
