#       Name:                AV-unprocessed.smi:229
#       Creating user name   scv26
#       Creation time:       Thu Mar 26 20:27:30 2020


#       File generated by GOLD software.
#

@<TRIPOS>MOLECULE
AV-unprocessed.smi:229
    70    74     1
SMALL
NO_CHARGES


@<TRIPOS>ATOM
      1 ****        -5.9637   3.3198   0.1805 C.3            1 S1                 0.0000
      2 ****        -5.6877   2.4298  -1.0406 C.3            1 S1                 0.0000
      3 ****        -4.5500   1.4121  -0.8449 C.3            1 S1                 0.0000
      4 ****        -3.1748   2.0643  -0.6091 C.3            1 S1                 0.0000
      5 ****        -2.1824   1.0301  -0.3447 N.3            1 S1                 0.0000
      6 ****        -0.8689   1.3564  -0.4205 C.ar           1 S1                 0.0000
      7 ****        -0.4796   2.6547  -0.3116 N.ar           1 S1                 0.0000
      8 ****         0.8162   2.9768  -0.3719 C.ar           1 S1                 0.0000
      9 ****         1.8694   2.1735  -0.5362 N.ar           1 S1                 0.0000
     10 ****         1.4838   0.8714  -0.6578 C.ar           1 S1                 0.0000
     11 ****         0.1486   0.3805  -0.6121 C.ar           1 S1                 0.0000
     12 ****         0.1446  -0.9992  -0.7831 N.2            1 S1                 0.0000
     13 ****         1.4058  -1.3074  -0.9136 C.2            1 S1                 0.0000
     14 ****         2.2786  -0.2456  -0.8468 N.pl3          1 S1                 0.0000
     15 ****         3.7251  -0.3093  -0.9595 C.3            1 S1                 0.0000
     16 ****         4.3908  -0.8180   0.3337 C.3            1 S1                 0.0000
     17 ****         4.0858   0.0697   1.3925 O.3            1 S1                 0.0000
     18 ****         5.9201  -0.9285   0.1964 C.3            1 S1                 0.0000
     19 ****         6.6309  -1.4829   1.4318 C.3            1 S1                 0.0000
     20 ****         7.9174  -2.0669   0.8703 C.3            1 S1                 0.0000
     21 ****         7.6427  -2.1986  -0.6302 C.3            1 S1                 0.0000
     22 ****         6.2641  -1.8923  -0.7874 O.3            1 S1                 0.0000
     23 ****        -2.5418   0.1807   0.7839 C.3            1 S1                 0.0000
     24 ****        -3.9243  -0.4643   0.5583 C.3            1 S1                 0.0000
     25 ****        -3.9215  -1.5980  -0.4628 C.3            1 S1                 0.0000
     26 ****        -5.1399  -2.4062  -0.0445 C.3            1 S1                 0.0000
     27 ****        -5.0930  -2.3809   1.3738 O.3            1 S1                 0.0000
     28 ****        -4.4434  -1.1890   1.8110 C.3            1 S1                 0.0000
     29 ****        -4.8862   0.5518   0.2459 O.3            1 S1                 0.0000
     30 ****        -6.8203   3.9683  -0.0037 H              1 S1                 0.0000
     31 ****        -5.1143   3.9616   0.4126 H              1 S1                 0.0000
     32 ****        -6.1872   2.7228   1.0650 H              1 S1                 0.0000
     33 ****        -6.6010   1.8898  -1.2922 H              1 S1                 0.0000
     34 ****        -5.4653   3.0608  -1.9015 H              1 S1                 0.0000
     35 ****        -4.4950   0.8208  -1.7583 H              1 S1                 0.0000
     36 ****        -2.8891   2.6488  -1.4848 H              1 S1                 0.0000
     37 ****        -3.2083   2.7446   0.2425 H              1 S1                 0.0000
     38 ****         1.0413   4.0285  -0.2732 H              1 S1                 0.0000
     39 ****         1.7371  -2.3250  -1.0612 H              1 S1                 0.0000
     40 ****         3.9674  -0.9682  -1.7940 H              1 S1                 0.0000
     41 ****         4.1046   0.6786  -1.2238 H              1 S1                 0.0000
     42 ****         3.9822  -1.7968   0.5885 H              1 S1                 0.0000
     43 ****         3.1460   0.1326   1.4692 H              1 S1                 0.0000
     44 ****         6.3526   0.0343  -0.0836 H              1 S1                 0.0000
     45 ****         6.8076  -0.7226   2.1930 H              1 S1                 0.0000
     46 ****         6.0365  -2.2784   1.8832 H              1 S1                 0.0000
     47 ****         8.7636  -1.4018   1.0451 H              1 S1                 0.0000
     48 ****         8.1450  -3.0292   1.3295 H              1 S1                 0.0000
     49 ****         8.2380  -1.4783  -1.1930 H              1 S1                 0.0000
     50 ****         7.8663  -3.1955  -1.0105 H              1 S1                 0.0000
     51 ****        -1.7946  -0.5914   0.9652 H              1 S1                 0.0000
     52 ****        -2.5681   0.8009   1.6811 H              1 S1                 0.0000
     53 ****        -3.9578  -1.2810  -1.5035 H              1 S1                 0.0000
     54 ****        -3.0262  -2.2095  -0.3413 H              1 S1                 0.0000
     55 ****        -6.0572  -1.9243  -0.3854 H              1 S1                 0.0000
     56 ****        -5.1236  -3.4263  -0.4283 H              1 S1                 0.0000
     57 ****        -3.6229  -1.4824   2.4671 H              1 S1                 0.0000
     58 ****        -5.1218  -0.5666   2.3956 H              1 S1                 0.0000
     59 ****        -2.2461   0.4665  -1.1683 LP             1 S1                 0.0000
     60 ****        -1.1656   3.3714  -0.1859 LP             1 S1                 0.0000
     61 ****         2.8187   2.4863  -0.5662 LP             1 S1                 0.0000
     62 ****        -0.6438  -1.6141  -0.8018 LP             1 S1                 0.0000
     63 ****         4.4695   0.9723   1.1973 LP             1 S1                 0.0000
     64 ****         4.4715  -0.2788   2.2468 LP             1 S1                 0.0000
     65 ****         6.1001  -1.5198  -1.7008 LP             1 S1                 0.0000
     66 ****         5.7152  -2.7186  -0.6610 LP             1 S1                 0.0000
     67 ****        -4.5854  -3.1767   1.7040 LP             1 S1                 0.0000
     68 ****        -6.0241  -2.4049   1.7378 LP             1 S1                 0.0000
     69 ****        -5.7500   0.0991   0.0247 LP             1 S1                 0.0000
     70 ****        -5.0069   1.1207   1.0594 LP             1 S1                 0.0000
@<TRIPOS>BOND
    1    1    2 1     
    2    1   30 1     
    3    1   31 1     
    4    1   32 1     
    5    2    3 1     
    6    2   33 1     
    7    2   34 1     
    8    3   29 1     
    9    3    4 1     
   10    3   35 1     
   11    4    5 1     
   12    4   36 1     
   13    4   37 1     
   14    5    6 1     
   15    5   23 1     
   16    6   11 ar    
   17    6    7 ar    
   18    7    8 ar    
   19    8    9 ar    
   20    8   38 1     
   21    9   10 ar    
   22   10   14 1     
   23   10   11 ar    
   24   11   12 1     
   25   12   13 2     
   26   13   14 1     
   27   13   39 1     
   28   14   15 1     
   29   15   16 1     
   30   15   40 1     
   31   15   41 1     
   32   16   17 1     
   33   16   18 1     
   34   16   42 1     
   35   17   43 1     
   36   18   22 1     
   37   18   19 1     
   38   18   44 1     
   39   19   20 1     
   40   19   45 1     
   41   19   46 1     
   42   20   21 1     
   43   20   47 1     
   44   20   48 1     
   45   21   22 1     
   46   21   49 1     
   47   21   50 1     
   48   23   24 1     
   49   23   51 1     
   50   23   52 1     
   51   24   28 1     
   52   24   25 1     
   53   24   29 1     
   54   25   26 1     
   55   25   53 1     
   56   25   54 1     
   57   26   27 1     
   58   26   55 1     
   59   26   56 1     
   60   27   28 1     
   61   28   57 1     
   62   28   58 1     
   63    5   59 1     
   64    7   60 1     
   65    9   61 1     
   66   12   62 1     
   67   17   63 1     
   68   17   64 1     
   69   22   65 1     
   70   22   66 1     
   71   27   67 1     
   72   27   68 1     
   73   29   69 1     
   74   29   70 1     
@<TRIPOS>SUBSTRUCTURE
      1 S1             1
@<TRIPOS>SET
LONE_PAIRS      STATIC     ATOMS    <user>   **** ""
12 59 60 61 62 63 64 65 66 67 68 69 70
DONOR_HYDROGENS      STATIC     ATOMS    <user>   **** ""
1 43
ATOM$BLUE        STATIC     ATOMS    COLORGROUP SYSTEM
12 59 60 61 62 63 64 65 66 67 68 69 70
ATOM$RED        STATIC     ATOMS    COLORGROUP SYSTEM
1 43
