#       Name:                AV-unprocessed.smi:1973
#       Creating user name   scv26
#       Creation time:       Fri Mar 27 10:15:24 2020


#       File generated by GOLD software.
#

@<TRIPOS>MOLECULE
AV-unprocessed.smi:1973
    55    57     1
SMALL
NO_CHARGES


@<TRIPOS>ATOM
      1 ****        -5.0159   0.5138  -4.1108 C.3            1 S1                 0.0000
      2 ****        -4.3975  -0.7482  -3.9318 O.3            1 S1                 0.0000
      3 ****        -2.9826  -0.6653  -3.9455 C.3            1 S1                 0.0000
      4 ****        -2.3995  -2.0706  -3.7362 C.3            1 S1                 0.0000
      5 ****        -0.9341  -2.0405  -3.7032 N.am           1 S1                 0.0000
      6 ****        -0.4026  -1.9147  -2.4307 N.2            1 S1                 0.0000
      7 ****         0.8792  -1.8558  -2.2645 C.2            1 S1                 0.0000
      8 ****         1.4888  -1.7036  -0.9143 C.2            1 S1                 0.0000
      9 ****         2.7075  -1.6166  -0.7556 O.2            1 S1                 0.0000
     10 ****         0.6174  -1.6574   0.1096 N.am           1 S1                 0.0000
     11 ****         0.9778  -1.4802   1.5117 C.3            1 S1                 0.0000
     12 ****         1.2968  -0.0091   1.8391 C.3            1 S1                 0.0000
     13 ****         0.1390   0.9633   1.6120 C.3            1 S1                 0.0000
     14 ****         0.4696   2.1623   2.5096 C.3            1 S1                 0.0000
     15 ****         1.4730   1.6958   3.4953 N.4            1 S1                 1.0000
     16 ****         1.1859   2.0916   4.8904 C.3            1 S1                 0.0000
     17 ****         1.6827   3.4743   5.2389 C.3            1 S1                 0.0000
     18 ****         2.4242   2.2535   5.7392 C.3            1 S1                 0.0000
     19 ****         1.6432   0.2411   3.3055 C.3            1 S1                 0.0000
     20 ****         1.7813  -1.9277  -3.4015 C.2            1 S1                 0.0000
     21 ****         1.2474  -2.0438  -4.6372 C.2            1 S1                 0.0000
     22 ****        -0.1991  -2.0989  -4.8546 C.2            1 S1                 0.0000
     23 ****        -0.7093  -2.1834  -5.9712 O.2            1 S1                 0.0000
     24 ****        -6.0993   0.3964  -4.0963 H              1 S1                 0.0000
     25 ****        -4.7379   0.9576  -5.0676 H              1 S1                 0.0000
     26 ****        -4.7416   1.2037  -3.3117 H              1 S1                 0.0000
     27 ****        -2.6429  -0.2505  -4.8959 H              1 S1                 0.0000
     28 ****        -2.6420   0.0035  -3.1532 H              1 S1                 0.0000
     29 ****        -2.7808  -2.4860  -2.8016 H              1 S1                 0.0000
     30 ****        -2.7546  -2.7439  -4.5183 H              1 S1                 0.0000
     31 ****        -0.3665  -1.7412  -0.1041 H              1 S1                 0.0000
     32 ****         0.1442  -1.8296   2.1217 H              1 S1                 0.0000
     33 ****         1.8284  -2.1174   1.7599 H              1 S1                 0.0000
     34 ****         2.1440   0.3191   1.2340 H              1 S1                 0.0000
     35 ****         0.0231   1.2432   0.5643 H              1 S1                 0.0000
     36 ****        -0.7979   0.5107   1.9401 H              1 S1                 0.0000
     37 ****         0.9087   2.9738   1.9286 H              1 S1                 0.0000
     38 ****        -0.4319   2.5489   2.9878 H              1 S1                 0.0000
     39 ****         0.2636   1.7091   5.3245 H              1 S1                 0.0000
     40 ****         2.1560   4.0647   4.4562 H              1 S1                 0.0000
     41 ****         1.1115   4.0439   5.9693 H              1 S1                 0.0000
     42 ****         2.3410   2.0202   6.7989 H              1 S1                 0.0000
     43 ****         3.3906   2.0327   5.2893 H              1 S1                 0.0000
     44 ****         0.9470  -0.2978   3.9509 H              1 S1                 0.0000
     45 ****         2.6546  -0.0787   3.5586 H              1 S1                 0.0000
     46 ****         2.8529  -1.8901  -3.2707 H              1 S1                 0.0000
     47 ****         1.9060  -2.0981  -5.4917 H              1 S1                 0.0000
     48 ****         2.3488   2.1240   3.2307 H              1 S1                 0.0000
     49 ****        -4.6904  -1.3565  -4.6694 LP             1 S1                 0.0000
     50 ****        -4.6882  -1.1261  -3.0528 LP             1 S1                 0.0000
     51 ****        -1.0109  -1.8692  -1.6383 LP             1 S1                 0.0000
     52 ****         3.3183  -1.6474  -1.5468 LP             1 S1                 0.0000
     53 ****         3.0860  -1.5151   0.1645 LP             1 S1                 0.0000
     54 ****        -1.7044  -2.2122  -6.0653 LP             1 S1                 0.0000
     55 ****        -0.1287  -2.2232  -6.7844 LP             1 S1                 0.0000
@<TRIPOS>BOND
    1    1    2 1     
    2    1   24 1     
    3    1   25 1     
    4    1   26 1     
    5    2    3 1     
    6    3    4 1     
    7    3   27 1     
    8    3   28 1     
    9    4    5 1     
   10    4   29 1     
   11    4   30 1     
   12    5   22 am    
   13    5    6 1     
   14    6    7 2     
   15    7    8 1     
   16    7   20 1     
   17    8    9 2     
   18    8   10 am    
   19   10   11 1     
   20   10   31 1     
   21   11   12 1     
   22   11   32 1     
   23   11   33 1     
   24   12   19 1     
   25   12   13 1     
   26   12   34 1     
   27   13   14 1     
   28   13   35 1     
   29   13   36 1     
   30   14   15 1     
   31   14   37 1     
   32   14   38 1     
   33   15   16 1     
   34   15   19 1     
   35   15   48 1     
   36   16   18 1     
   37   16   17 1     
   38   16   39 1     
   39   17   18 1     
   40   17   40 1     
   41   17   41 1     
   42   18   42 1     
   43   18   43 1     
   44   19   44 1     
   45   19   45 1     
   46   20   21 2     
   47   20   46 1     
   48   21   22 1     
   49   21   47 1     
   50   22   23 2     
   51    2   49 1     
   52    2   50 1     
   53    6   51 1     
   54    9   52 1     
   55    9   53 1     
   56   23   54 1     
   57   23   55 1     
@<TRIPOS>SUBSTRUCTURE
      1 S1             1
@<TRIPOS>SET
LONE_PAIRS      STATIC     ATOMS    <user>   **** ""
7 49 50 51 52 53 54 55
DONOR_HYDROGENS      STATIC     ATOMS    <user>   **** ""
2 31 48
ATOM$BLUE        STATIC     ATOMS    COLORGROUP SYSTEM
7 49 50 51 52 53 54 55
ATOM$RED        STATIC     ATOMS    COLORGROUP SYSTEM
2 31 48
