AV-unprocessed.smi:191|AV-procd|sdf|1493|dock6
  -GOLD-   2262019313D 1   1.00000     0.00000
 Structure written by MMmdl.
 46 48  0  0  0  0  0  0  0  0  1 V2000
  153.4641  141.0361  160.7661 C   0  0  0  0  0  0  0  0  0  0  0  0
  152.7189  140.8837  159.4338 C   0  0  0  0  0  0  0  0  0  0  0  0
  153.3311  139.8827  158.5636 N   0  0  0  0  0  0  0  0  0  0  0  0
  153.5367  138.5485  159.1285 C   0  0  0  0  0  0  0  0  0  0  0  0
  154.9041  138.3715  159.8182 C   0  0  2  0  0  0  0  0  0  0  0  0
  156.0264  139.0104  158.9922 C   0  0  0  0  0  0  0  0  0  0  0  0
  155.1976  136.9533  160.0843 C   0  0  0  0  0  0  0  0  0  0  0  0
  155.4284  135.8392  160.2934 N   0  0  0  0  0  0  0  0  0  0  0  0
  152.7760  139.8728  157.3323 C   0  0  0  0  0  0  0  0  0  0  0  0
  153.5014  139.3255  156.3269 N   0  0  0  0  0  0  0  0  0  0  0  0
  153.0005  139.2871  155.0886 C   0  0  0  0  0  0  0  0  0  0  0  0
  151.8202  139.7322  154.6510 N   0  0  0  0  0  0  0  0  0  0  0  0
  151.0887  140.2824  155.6622 C   0  0  0  0  0  0  0  0  0  0  0  0
  151.4891  140.3952  157.0231 C   0  0  0  0  0  0  0  0  0  0  0  0
  150.4911  141.0162  157.7636 N   0  0  0  0  0  0  0  0  0  0  0  0
  149.5549  141.2620  156.8883 C   0  0  0  0  0  0  0  0  0  0  0  0
  149.8254  140.8451  155.6036 N   0  0  0  0  0  0  0  0  0  0  0  0
  148.9588  140.9946  154.4440 C   0  0  0  0  0  0  0  0  0  0  0  0
  147.7055  140.0944  154.4680 C   0  0  0  0  0  0  0  0  0  0  0  0
  147.8990  138.8587  153.5716 C   0  0  0  0  0  0  0  0  0  0  0  0
  147.9046  139.2093  152.2022 O   0  0  0  0  0  0  0  0  0  0  0  0
  147.1266  139.7964  155.8582 C   0  0  0  0  0  0  0  0  0  0  0  0
  145.7987  140.1890  155.4510 O   0  0  0  0  0  0  0  0  0  0  0  0
  146.3598  140.8087  154.2745 C   0  0  0  0  0  0  0  0  0  0  0  0
  153.0136  141.8251  161.3683 H   0  0  0  0  0  0  0  0  0  0  0  0
  154.5093  141.3008  160.6026 H   0  0  0  0  0  0  0  0  0  0  0  0
  153.4367  140.1201  161.3558 H   0  0  0  0  0  0  0  0  0  0  0  0
  151.6800  140.6102  159.6231 H   0  0  0  0  0  0  0  0  0  0  0  0
  152.6991  141.8527  158.9316 H   0  0  0  0  0  0  0  0  0  0  0  0
  152.7497  138.3434  159.8536 H   0  0  0  0  0  0  0  0  0  0  0  0
  153.4216  137.8048  158.3393 H   0  0  0  0  0  0  0  0  0  0  0  0
  154.8894  138.8667  160.7893 H   0  0  0  0  0  0  0  0  0  0  0  0
  156.9883  138.9063  159.4949 H   0  0  0  0  0  0  0  0  0  0  0  0
  155.8454  140.0748  158.8404 H   0  0  0  0  0  0  0  0  0  0  0  0
  156.1108  138.5416  158.0114 H   0  0  0  0  0  0  0  0  0  0  0  0
  153.6363  138.8352  154.3414 H   0  0  0  0  0  0  0  0  0  0  0  0
  148.6308  141.7519  157.1589 H   0  0  0  0  0  0  0  0  0  0  0  0
  148.6716  142.0440  154.3680 H   0  0  0  0  0  0  0  0  0  0  0  0
  149.5570  140.7940  153.5544 H   0  0  0  0  0  0  0  0  0  0  0  0
  148.8490  138.3711  153.7934 H   0  0  0  0  0  0  0  0  0  0  0  0
  147.1290  138.1076  153.7475 H   0  0  0  0  0  0  0  0  0  0  0  0
  148.7364  139.6091  151.9976 H   0  0  0  0  0  0  0  0  0  0  0  0
  147.1839  138.7474  156.1513 H   0  0  0  0  0  0  0  0  0  0  0  0
  147.5148  140.4425  156.6477 H   0  0  0  0  0  0  0  0  0  0  0  0
  146.4078  141.8933  154.3816 H   0  0  0  0  0  0  0  0  0  0  0  0
  145.8352  140.5308  153.3596 H   0  0  0  0  0  0  0  0  0  0  0  0
  1  2  1  0  0  0  0
  1 25  1  0  0  0  0
  1 26  1  0  0  0  0
  1 27  1  0  0  0  0
  2  3  1  0  0  0  0
  2 28  1  0  0  0  0
  2 29  1  0  0  0  0
  3  4  1  0  0  0  0
  3  9  1  0  0  0  0
  4  5  1  0  0  0  0
  4 30  1  0  0  0  0
  4 31  1  0  0  0  0
  5  6  1  0  0  0  0
  5  7  1  0  0  0  0
  5 32  1  0  0  0  0
  6 33  1  0  0  0  0
  6 34  1  0  0  0  0
  6 35  1  0  0  0  0
  7  8  3  0  0  0  0
  9 14  1  0  0  0  0
  9 10  2  0  0  0  0
 10 11  1  0  0  0  0
 11 12  2  0  0  0  0
 11 36  1  0  0  0  0
 12 13  1  0  0  0  0
 13 17  1  0  0  0  0
 13 14  2  0  0  0  0
 14 15  1  0  0  0  0
 15 16  2  0  0  0  0
 16 17  1  0  0  0  0
 16 37  1  0  0  0  0
 17 18  1  0  0  0  0
 18 19  1  0  0  0  0
 18 38  1  0  0  0  0
 18 39  1  0  0  0  0
 19 24  1  0  0  0  0
 19 20  1  0  0  0  0
 19 22  1  0  0  0  0
 20 21  1  0  0  0  0
 20 40  1  0  0  0  0
 20 41  1  0  0  0  0
 21 42  1  0  0  0  0
 22 23  1  0  0  0  0
 22 43  1  0  0  0  0
 22 44  1  0  0  0  0
 23 24  1  0  0  0  0
 24 45  1  0  0  0  0
 24 46  1  0  0  0  0
M  END
> <s_m_source_file>
AV-unprocessed.smi

> <i_m_source_file_index>
191

> <i_lp_mmshare_version>
43012

> <i_f3d_flags>
0

> <s_epik_input>
TiNDW0NAQEhdKFtDSDNdKVtDSDJdTihbQ0gyXVtDSDNdKWMobltjSF1uMSljKGMxMiluW2NIXW4yW0NIMl1DMyhbQ0gyXVtPSF0pW0NIMl1PW0NIMl0z

> <s_epik_cmdline>
J2VwaWtfcHl0aG9uJywgJy1waCcsICc3LjAnLCAnLXRuJywgJzgnLCAnLW1hJywgJzIwMCcsICctbWV0YWxfYmluZGluZycsICctaW1hZScsICc8aW5maWxlLm1hZT4nLCAnLW9tYWUnLCAnPG91dGZpbGUubWFlPic=

> <r_lp_tautomer_probability>
1

> <r_epik_Ionization_Penalty>
0.000569684

> <r_epik_Ionization_Penalty_Charging>
0

> <r_epik_Ionization_Penalty_Neutral>
0.000569684

> <r_epik_State_Penalty>
0.000286009

> <r_epik_Charging_Adjusted_Penalty>
0.000286009

> <i_epik_Tot_Q>
0

> <i_epik_Tot_abs_Q>
0

> <r_epik_Metal_State_Penalty>
-0

> <b_epik_Metal_Only>
0

> <s_lp_Force_Field>
OPLS_2005

> <r_lp_Energy>
28.3961

> <b_lp_Chiralities_Consistent>
1

> <s_lp_Variant>
AV-unprocessed.smi:191-1

> <Gold.Version>
5.8.1

> <Gold.Id.Protein>
6NUR|6NUR_protein|mol2

> <Gold.PLP.Fitness>
47.7529

> <Gold.PLP.PLP>
-37.9046

> <Gold.PLP.part.hbond>
-4.7009

> <Gold.PLP.part.metal>
0.0000

> <Gold.PLP.part.buried>
-0.8263

> <Gold.PLP.part.nonpolar>
-32.3043

> <Gold.PLP.part.repulsive>
0.2522

> <Gold.PLP.ligand.clash>
0.0014

> <Gold.PLP.ligand.torsion>
2.0289

> <Gold.PLP.Chemscore.Hbond>
3.6000

> <Gold.PLP.Chemscore.CHOScore>
0.7686

> <Gold.PLP.Chemscore.Metal>
0.0000

> <Gold.Chemscore.Hbonds>
donor molecule, donor type, donor heavy atom, donor atom, acceptor molecule, acceptor atom, score
      L1  H    21    42       P1  7957  0.34
      P1  H  7989  7998       L1    12  1.00
      P1  H  7997  8008       L1    10  0.18

> <Gold.PLP.Chemscore.Internal.Correction>
0.8018

> <Gold.Rescore>
     Score         DG    S(hbond)    S(metal)    S(lipo)     H(rot)  DE(clash)    DE(int)     intcor
      6.93     -12.32       2.38        0.00      65.59       3.43       2.33       3.07       ----

> <Gold.Chemscore.Fitness>
6.9252

> <Gold.Chemscore.DG>
-12.3216

> <Gold.Chemscore.ZeroCoef>
-5.4800

> <Gold.Chemscore.Hbond>
2.3800

> <Gold.Chemscore.Metal>
0.0000

> <Gold.Chemscore.Lipo>
65.5897

> <Gold.Chemscore.Internal_Hbond>
0.0000

> <Gold.Chemscore.DEClash>
2.3258

> <Gold.Chemscore.DEInternal>
3.0705

> <Gold.Chemscore.Rot>
3.4303

> <Gold.Chemscore.Internal.Correction>
   9.000000E+99

> <Gold.Chemscore.Hbonds>
donor molecule, donor type, donor heavy atom, donor atom, acceptor molecule, acceptor atom, score
      L1  H    21    42       P1  7957  0.33
      P1  H  7989  7998       L1    12  0.28
      P1  H  7997  8008       L1    10  0.01

> <Gold.Chemscore.Hbond.Weighted>
-7.9492

> <Gold.Chemscore.Metal.Weighted>
-0.0000

> <Gold.Chemscore.Lipo.Weighted>
-7.6740

> <Gold.Chemscore.Internal_Hbond.Weighted>
0.0000

> <Gold.Chemscore.DEClash.Weighted>
2.3258

> <Gold.Chemscore.DEInternal.Weighted>
3.0705

> <Gold.Chemscore.Rot.Weighted>
8.7817

> <Gold.Chemscore.Internal.Correction.Weighted>
   9.000000E+99

> <Gold.Protein.RotatedTorsions>
[ 6907 6896 6895 6894 ] final   49.43 input  -60.11 | X-H torsion
[ 7974 7965 7964 7962 ] final   85.88 input  175.53 | X-H torsion
[ 8008 7997 7996 7995 ] final  -19.57 input   59.86 | X-H torsion
[ 10167 10162 10161 10158 ] final -176.27 input  -65.29 | X-H torsion
[ 10718 10713 10712 10709 ] final  -12.37 input   66.30 | X-H torsion
[ 10763 10752 10751 10750 ] final  165.17 input  -60.55 | X-H torsion
[ 11005 11000 10999 10996 ] final  -30.18 input  -57.11 | X-H torsion

> <Gold.Protein.ActiveResidues>
 VAL166  LYS551  ARG553  GLY616  TRP617  ASP618  TYR619  PRO620  LYS621  CYS622 
 ASP623  PHE694  ASN695  SER759  ASP760  ASP761  ALA762  ILE779  LEU786  VAL792 
 PHE793  MET794  SER795  GLU796  ALA797  LYS798  CYS799  TRP800  GLU811  SER814 

> <Gold.Protein.RotatedAtoms>
  152.2907  134.7725  160.0378 H   0  0  0  0  0  0  0  0  0  0  0  0  # atno 6907 bound_to 6896
  151.8272  133.3398  159.3610 H   0  0  0  0  0  0  0  0  0  0  0  0  # atno 6908 bound_to 6896
  150.7229  134.5446  159.5808 H   0  0  0  0  0  0  0  0  0  0  0  0  # atno 6909 bound_to 6896
  145.5796  139.2323  143.2360 H   0  0  0  0  0  0  0  0  0  0  0  0  # atno 7974 bound_to 7965
  154.4828  140.2085  155.9725 H   0  0  0  0  0  0  0  0  0  0  0  0  # atno 8008 bound_to 7997
  156.1191  140.3216  155.8151 H   0  0  0  0  0  0  0  0  0  0  0  0  # atno 8009 bound_to 7997
  155.4500  140.0516  157.2993 H   0  0  0  0  0  0  0  0  0  0  0  0  # atno 8010 bound_to 7997
  139.5538  144.2041  152.1124 H   0  0  0  0  0  0  0  0  0  0  0  0  # atno 10167 bound_to 10162
  156.6456  130.4940  149.6080 H   0  0  0  0  0  0  0  0  0  0  0  0  # atno 10718 bound_to 10713
  154.3200  135.2756  155.2524 H   0  0  0  0  0  0  0  0  0  0  0  0  # atno 10763 bound_to 10752
  154.4881  135.5841  153.6442 H   0  0  0  0  0  0  0  0  0  0  0  0  # atno 10764 bound_to 10752
  152.9878  135.6128  154.3384 H   0  0  0  0  0  0  0  0  0  0  0  0  # atno 10765 bound_to 10752
  140.9361  133.7308  156.1007 H   0  0  0  0  0  0  0  0  0  0  0  0  # atno 11005 bound_to 11000
  146.1726  140.6623  142.9226 LP  0  0  0  0  0  0  0  0  0  0  0  0  # atno 17320 bound_to 7965
  144.7400  140.4915  143.6876 LP  0  0  0  0  0  0  0  0  0  0  0  0  # atno 17321 bound_to 7965
  140.1541  144.5087  150.6670 LP  0  0  0  0  0  0  0  0  0  0  0  0  # atno 17342 bound_to 10162
  140.6807  143.2325  151.5392 LP  0  0  0  0  0  0  0  0  0  0  0  0  # atno 17343 bound_to 10162
  156.2125  130.6687  151.1284 LP  0  0  0  0  0  0  0  0  0  0  0  0  # atno 17370 bound_to 10713
  157.7157  131.0711  150.6334 LP  0  0  0  0  0  0  0  0  0  0  0  0  # atno 17371 bound_to 10713
  140.7797  134.3739  157.5490 LP  0  0  0  0  0  0  0  0  0  0  0  0  # atno 17394 bound_to 11000
  139.8808  134.9074  156.2944 LP  0  0  0  0  0  0  0  0  0  0  0  0  # atno 17395 bound_to 11000

$$$$
