AV-unprocessed.smi:1758|AV-procd|sdf|7084|dock10
  -GOLD-   22720 8303D 1   1.00000     0.00000
 Structure written by MMmdl.
 44 46  0  0  0  0  0  0  0  0  2 V2000
  145.8361  143.3807  153.8411 C   0  0  0  0  0  0  0  0  0  0  0  0
  146.7545  142.6272  154.8105 C   0  0  0  0  0  0  0  0  0  0  0  0
  147.2732  141.4083  154.2217 N   0  0  0  0  0  0  0  0  0  0  0  0
  146.5724  140.2875  153.8229 C   0  0  0  0  0  0  0  0  0  0  0  0
  147.5090  139.4223  153.3317 C   0  0  0  0  0  0  0  0  0  0  0  0
  147.3369  138.1258  152.7852 N   0  0  0  0  0  0  0  0  0  0  0  0
  146.2114  137.3941  152.7640 C   0  0  0  0  0  0  0  0  0  0  0  0
  145.1311  137.7406  153.2418 O   0  0  0  0  0  0  0  0  0  0  0  0
  146.4087  136.2151  152.1579 N   0  0  0  0  0  0  0  0  0  0  0  0
  145.3944  135.1792  151.9866 C   0  0  1  0  0  0  0  0  0  0  0  0
  144.5938  135.3335  150.6815 C   0  0  0  0  0  0  0  0  0  0  0  0
  144.3534  133.8964  150.1772 C   0  0  0  0  0  0  0  0  0  0  0  0
  144.9227  133.0161  151.2156 N   0  3  1  0  0  0  0  0  0  0  0  0
  145.3457  131.6628  150.7941 C   0  0  0  0  0  0  0  0  0  0  0  0
  145.8299  130.8742  152.0275 C   0  0  0  0  0  0  0  0  0  0  0  0
  146.9133  131.6443  152.8097 C   0  0  0  0  0  0  0  0  0  0  0  0
  146.4503  133.0767  153.1392 C   0  0  0  0  0  0  0  0  0  0  0  0
  146.0069  133.7835  151.8470 C   0  0  2  0  0  0  0  0  0  0  0  0
  148.7566  140.0852  153.4648 C   0  0  0  0  0  0  0  0  0  0  0  0
  148.6062  141.2847  154.0052 N   0  0  0  0  0  0  0  0  0  0  0  0
  145.4522  144.2915  154.3002 H   0  0  0  0  0  0  0  0  0  0  0  0
  144.9822  142.7676  153.5518 H   0  0  0  0  0  0  0  0  0  0  0  0
  146.3678  143.6655  152.9328 H   0  0  0  0  0  0  0  0  0  0  0  0
  147.5932  143.2575  155.1085 H   0  0  0  0  0  0  0  0  0  0  0  0
  146.2113  142.3718  155.7208 H   0  0  0  0  0  0  0  0  0  0  0  0
  145.4992  140.2167  153.9221 H   0  0  0  0  0  0  0  0  0  0  0  0
  148.1583  137.7142  152.3666 H   0  0  0  0  0  0  0  0  0  0  0  0
  147.3298  136.0180  151.7943 H   0  0  0  0  0  0  0  0  0  0  0  0
  144.6909  135.1866  152.8221 H   0  0  0  0  0  0  0  0  0  0  0  0
  143.6578  135.8657  150.8553 H   0  0  0  0  0  0  0  0  0  0  0  0
  145.1552  135.8959  149.9338 H   0  0  0  0  0  0  0  0  0  0  0  0
  143.2957  133.6795  150.0259 H   0  0  0  0  0  0  0  0  0  0  0  0
  144.8703  133.7423  149.2288 H   0  0  0  0  0  0  0  0  0  0  0  0
  144.5087  131.1475  150.3217 H   0  0  0  0  0  0  0  0  0  0  0  0
  146.1412  131.7363  150.0508 H   0  0  0  0  0  0  0  0  0  0  0  0
  144.9825  130.6799  152.6864 H   0  0  0  0  0  0  0  0  0  0  0  0
  146.2111  129.8994  151.7219 H   0  0  0  0  0  0  0  0  0  0  0  0
  147.1666  131.1109  153.7264 H   0  0  0  0  0  0  0  0  0  0  0  0
  147.8270  131.6874  152.2153 H   0  0  0  0  0  0  0  0  0  0  0  0
  145.6270  133.0476  153.8543 H   0  0  0  0  0  0  0  0  0  0  0  0
  147.2614  133.6274  153.6160 H   0  0  0  0  0  0  0  0  0  0  0  0
  146.8489  133.8309  151.1524 H   0  0  0  0  0  0  0  0  0  0  0  0
  149.7449  139.7444  153.1936 H   0  0  0  0  0  0  0  0  0  0  0  0
  144.2071  132.9026  151.9193 H   0  0  0  0  0  0  0  0  0  0  0  0
  1  2  1  0  0  0  0
  1 21  1  0  0  0  0
  1 22  1  0  0  0  0
  1 23  1  0  0  0  0
  2  3  1  0  0  0  0
  2 24  1  0  0  0  0
  2 25  1  0  0  0  0
  3 20  1  0  0  0  0
  3  4  1  0  0  0  0
  4  5  2  0  0  0  0
  4 26  1  0  0  0  0
  5  6  1  0  0  0  0
  5 19  1  0  0  0  0
  6  7  1  0  0  0  0
  6 27  1  0  0  0  0
  7  8  2  0  0  0  0
  7  9  1  0  0  0  0
  9 10  1  0  0  0  0
  9 28  1  0  0  0  0
 10 18  1  0  0  0  0
 10 11  1  0  0  0  0
 10 29  1  0  0  0  0
 11 12  1  0  0  0  0
 11 30  1  0  0  0  0
 11 31  1  0  0  0  0
 12 13  1  0  0  0  0
 12 32  1  0  0  0  0
 12 33  1  0  0  0  0
 13 18  1  0  0  0  0
 13 14  1  0  0  0  0
 13 44  1  0  0  0  0
 14 15  1  0  0  0  0
 14 34  1  0  0  0  0
 14 35  1  0  0  0  0
 15 16  1  0  0  0  0
 15 36  1  0  0  0  0
 15 37  1  0  0  0  0
 16 17  1  0  0  0  0
 16 38  1  0  0  0  0
 16 39  1  0  0  0  0
 17 18  1  0  0  0  0
 17 40  1  0  0  0  0
 17 41  1  0  0  0  0
 18 42  1  0  0  0  0
 19 20  2  0  0  0  0
 19 43  1  0  0  0  0
M  CHG  1  13   1
M  END
> <s_m_source_file>
AV-unprocessed.smi

> <i_m_source_file_index>
1758

> <i_lp_mmshare_version>
43012

> <i_f3d_flags>
0

> <s_epik_input>
W0NIM11bQ0gyXW4xW2NIXWMoW2NIXW4xKVtOSF1DKD1PKVtOSF1bQ0BIXShbQ0gyXVtDSDJdMilbQ0BASF0oTjIzKVtDSDJdW0NIMl1bQ0gyXVtDSDJdMw==

> <s_epik_cmdline>
J2VwaWtfcHl0aG9uJywgJy1waCcsICc3LjAnLCAnLXRuJywgJzgnLCAnLW1hJywgJzIwMCcsICctbWV0YWxfYmluZGluZycsICctaW1hZScsICc8aW5maWxlLm1hZT4nLCAnLW9tYWUnLCAnPG91dGZpbGUubWFlPic=

> <r_lp_tautomer_probability>
1

> <r_epik_Ionization_Penalty>
0.00111541

> <r_epik_Ionization_Penalty_Charging>
0.000974069

> <r_epik_Ionization_Penalty_Neutral>
0.000141346

> <r_epik_State_Penalty>
0.000633842

> <r_epik_Charging_Adjusted_Penalty>
0.00160791

> <i_epik_Tot_Q>
1

> <i_epik_Tot_abs_Q>
1

> <r_epik_Metal_State_Penalty>
-0

> <b_epik_Metal_Only>
0

> <s_lp_Force_Field>
OPLS_2005

> <r_lp_Energy>
38.7451

> <b_lp_Chiralities_Consistent>
1

> <s_lp_Variant>
AV-unprocessed.smi:1758-6

> <Gold.Version>
5.8.1

> <Gold.Id.Protein>
6NUR|6NUR_protein|mol2

> <Gold.PLP.Fitness>
41.4648

> <Gold.PLP.PLP>
-31.5155

> <Gold.PLP.part.hbond>
-2.9364

> <Gold.PLP.part.metal>
0.0000

> <Gold.PLP.part.buried>
3.1049

> <Gold.PLP.part.nonpolar>
-32.4962

> <Gold.PLP.part.repulsive>
0.8786

> <Gold.PLP.ligand.clash>
0.0000

> <Gold.PLP.ligand.torsion>
0.3964

> <Gold.PLP.Chemscore.Hbond>
2.2548

> <Gold.PLP.Chemscore.CHOScore>
1.3226

> <Gold.PLP.Chemscore.Metal>
0.0000

> <Gold.Chemscore.Hbonds>
donor molecule, donor type, donor heavy atom, donor atom, acceptor molecule, acceptor atom, score
      L1  H     6    27       P1  7948  0.94
      L1  H     9    28       P1  7948  1.00
      P1  H  8011  8017       L1    20  0.13
      L1  C     4    26       P1 10175  1.00
      L1  C    19    43       P1  7957  0.37

> <Gold.PLP.Chemscore.Internal.Correction>
0.0098

> <Gold.Rescore>
     Score         DG    S(hbond)    S(metal)    S(lipo)     H(rot)  DE(clash)    DE(int)     intcor
     16.35     -17.92       1.95        0.00      76.53       1.19       0.00       1.56       ----

> <Gold.Chemscore.Fitness>
16.3536

> <Gold.Chemscore.DG>
-17.9192

> <Gold.Chemscore.ZeroCoef>
-5.4800

> <Gold.Chemscore.Hbond>
1.9543

> <Gold.Chemscore.Metal>
0.0000

> <Gold.Chemscore.Lipo>
76.5306

> <Gold.Chemscore.Internal_Hbond>
0.0000

> <Gold.Chemscore.DEClash>
0.0033

> <Gold.Chemscore.DEInternal>
1.5623

> <Gold.Chemscore.Rot>
1.1884

> <Gold.Chemscore.Internal.Correction>
   9.000000E+99

> <Gold.Chemscore.Hbonds>
donor molecule, donor type, donor heavy atom, donor atom, acceptor molecule, acceptor atom, score
      L1  H     6    27       P1  7948  0.92
      L1  H     9    28       P1  7948  0.95
      P1  H  8011  8017       L1    20  0.02

> <Gold.Chemscore.Hbond.Weighted>
-6.5274

> <Gold.Chemscore.Metal.Weighted>
-0.0000

> <Gold.Chemscore.Lipo.Weighted>
-8.9541

> <Gold.Chemscore.Internal_Hbond.Weighted>
0.0000

> <Gold.Chemscore.DEClash.Weighted>
0.0033

> <Gold.Chemscore.DEInternal.Weighted>
1.5623

> <Gold.Chemscore.Rot.Weighted>
3.0423

> <Gold.Chemscore.Internal.Correction.Weighted>
   9.000000E+99

> <Gold.Protein.RotatedTorsions>
[ 6907 6896 6895 6894 ] final  135.44 input  -60.11 | X-H torsion
[ 7974 7965 7964 7962 ] final -109.77 input  175.53 | X-H torsion
[ 8008 7997 7996 7995 ] final  145.16 input   59.86 | X-H torsion
[ 10167 10162 10161 10158 ] final  107.30 input  -65.29 | X-H torsion
[ 10718 10713 10712 10709 ] final   12.55 input   66.30 | X-H torsion
[ 10763 10752 10751 10750 ] final  -68.84 input  -60.55 | X-H torsion
[ 11005 11000 10999 10996 ] final  -65.78 input  -57.11 | X-H torsion

> <Gold.Protein.ActiveResidues>
 VAL166  LYS551  ARG553  GLY616  TRP617  ASP618  TYR619  PRO620  LYS621  CYS622 
 ASP623  PHE694  ASN695  SER759  ASP760  ASP761  ALA762  ILE779  LEU786  VAL792 
 PHE793  MET794  SER795  GLU796  ALA797  LYS798  CYS799  TRP800  GLU811  SER814 

> <Gold.Protein.RotatedAtoms>
  152.3004  133.5649  159.5614 H   0  0  0  0  0  0  0  0  0  0  0  0  # atno 6907 bound_to 6896
  150.7275  134.0300  159.3739 H   0  0  0  0  0  0  0  0  0  0  0  0  # atno 6908 bound_to 6896
  151.8200  135.0655  160.0475 H   0  0  0  0  0  0  0  0  0  0  0  0  # atno 6909 bound_to 6896
  145.1765  140.8951  143.3505 H   0  0  0  0  0  0  0  0  0  0  0  0  # atno 7974 bound_to 7965
  156.2890  140.2216  156.5171 H   0  0  0  0  0  0  0  0  0  0  0  0  # atno 8008 bound_to 7997
  154.7560  140.0477  157.0955 H   0  0  0  0  0  0  0  0  0  0  0  0  # atno 8009 bound_to 7997
  155.0050  140.3106  155.4855 H   0  0  0  0  0  0  0  0  0  0  0  0  # atno 8010 bound_to 7997
  139.6939  144.7104  151.1301 H   0  0  0  0  0  0  0  0  0  0  0  0  # atno 10167 bound_to 10162
  157.0118  130.6120  149.5709 H   0  0  0  0  0  0  0  0  0  0  0  0  # atno 10718 bound_to 10713
  154.3948  135.6044  153.5863 H   0  0  0  0  0  0  0  0  0  0  0  0  # atno 10763 bound_to 10752
  152.9787  135.5892  154.4255 H   0  0  0  0  0  0  0  0  0  0  0  0  # atno 10764 bound_to 10752
  154.4044  135.2843  155.2054 H   0  0  0  0  0  0  0  0  0  0  0  0  # atno 10765 bound_to 10752
  141.1464  133.6687  156.6038 H   0  0  0  0  0  0  0  0  0  0  0  0  # atno 11005 bound_to 11000
  145.0180  139.3450  143.6087 LP  0  0  0  0  0  0  0  0  0  0  0  0  # atno 17320 bound_to 7965
  146.3460  139.9468  142.8734 LP  0  0  0  0  0  0  0  0  0  0  0  0  # atno 17321 bound_to 7965
  140.7690  143.5520  150.9194 LP  0  0  0  0  0  0  0  0  0  0  0  0  # atno 17342 bound_to 10162
  139.9199  143.6619  152.3099 LP  0  0  0  0  0  0  0  0  0  0  0  0  # atno 17343 bound_to 10162
  156.0133  130.5226  150.8058 LP  0  0  0  0  0  0  0  0  0  0  0  0  # atno 17370 bound_to 10713
  157.5315  131.0937  150.9949 LP  0  0  0  0  0  0  0  0  0  0  0  0  # atno 17371 bound_to 10713
  140.3667  134.7640  157.4571 LP  0  0  0  0  0  0  0  0  0  0  0  0  # atno 17394 bound_to 11000
  140.0742  134.5820  155.8609 LP  0  0  0  0  0  0  0  0  0  0  0  0  # atno 17395 bound_to 11000

$$$$
