#       Name:                AV-unprocessed.smi:2018
#       Creating user name   scv26
#       Creation time:       Fri Mar 27 10:41:46 2020


#       File generated by GOLD software.
#

@<TRIPOS>MOLECULE
AV-unprocessed.smi:2018
    41    42     1
SMALL
NO_CHARGES


@<TRIPOS>ATOM
      1 ****        -3.6427   5.5142   1.6974 C.3            1 S1                 0.0000
      2 ****        -2.9618   4.7544   0.6112 C.2            1 S1                 0.0000
      3 ****        -2.5388   3.4946   0.7439 N.2            1 S1                 0.0000
      4 ****        -1.9310   3.0058  -0.4171 C.2            1 S1                 0.0000
      5 ****        -1.3935   1.6076  -0.4496 C.3            1 S1                 0.0000
      6 ****        -0.0324   1.4904   0.2562 C.3            1 S1                 0.0000
      7 ****         0.4686   0.1212   0.2301 N.am           1 S1                 0.0000
      8 ****         1.0912  -0.4562  -0.8139 C.2            1 S1                 0.0000
      9 ****         1.3117   0.1353  -1.8712 O.2            1 S1                 0.0000
     10 ****         1.5010  -1.8741  -0.6273 C.2            1 S1                 0.0000
     11 ****         1.1953  -2.4997   0.4663 N.2            1 S1                 0.0000
     12 ****         1.5381  -3.8200   0.6762 N.am           1 S1                 0.0000
     13 ****         0.8905  -4.4467   1.8270 C.3            1 S1                 0.0000
     14 ****         2.4215  -4.5173  -0.0808 C.2            1 S1                 0.0000
     15 ****         2.7019  -5.7005   0.1104 O.2            1 S1                 0.0000
     16 ****         3.1117  -3.7459  -1.2093 C.3            1 S1                 0.0000
     17 ****         2.2451  -2.5864  -1.7399 C.3            1 S1                 0.0000
     18 ****        -1.8979   3.9229  -1.4377 C.2            1 S1                 0.0000
     19 ****        -2.6313   5.4346  -0.9773 S.3            1 S1                 0.0000
     20 ****        -3.9504   4.8436   2.5004 H              1 S1                 0.0000
     21 ****        -4.5270   6.0160   1.3044 H              1 S1                 0.0000
     22 ****        -2.9662   6.2642   2.1070 H              1 S1                 0.0000
     23 ****        -2.1052   0.9263   0.0187 H              1 S1                 0.0000
     24 ****        -1.3005   1.2748  -1.4842 H              1 S1                 0.0000
     25 ****         0.6947   2.1643  -0.2001 H              1 S1                 0.0000
     26 ****        -0.1259   1.7951   1.2991 H              1 S1                 0.0000
     27 ****         0.3268  -0.4338   1.0620 H              1 S1                 0.0000
     28 ****         1.6337  -4.7940   2.5463 H              1 S1                 0.0000
     29 ****         0.2947  -5.3042   1.5108 H              1 S1                 0.0000
     30 ****         0.2240  -3.7573   2.3481 H              1 S1                 0.0000
     31 ****         4.0477  -3.3520  -0.8114 H              1 S1                 0.0000
     32 ****         3.3760  -4.4244  -2.0211 H              1 S1                 0.0000
     33 ****         1.5261  -2.9627  -2.4686 H              1 S1                 0.0000
     34 ****         2.8922  -1.8921  -2.2773 H              1 S1                 0.0000
     35 ****        -1.4868   3.8008  -2.4289 H              1 S1                 0.0000
     36 ****        -2.6451   2.9593   1.5818 LP             1 S1                 0.0000
     37 ****         1.0244   1.0868  -1.9811 LP             1 S1                 0.0000
     38 ****         1.7780  -0.3358  -2.6199 LP             1 S1                 0.0000
     39 ****         0.6952  -2.0100   1.1805 LP             1 S1                 0.0000
     40 ****         2.2692  -6.2021   0.8595 LP             1 S1                 0.0000
     41 ****         3.3624  -6.1600  -0.4833 LP             1 S1                 0.0000
@<TRIPOS>BOND
    1    1    2 1     
    2    1   20 1     
    3    1   21 1     
    4    1   22 1     
    5    2   19 1     
    6    2    3 2     
    7    3    4 1     
    8    4    5 1     
    9    4   18 2     
   10    5    6 1     
   11    5   23 1     
   12    5   24 1     
   13    6    7 1     
   14    6   25 1     
   15    6   26 1     
   16    7    8 am    
   17    7   27 1     
   18    8    9 2     
   19    8   10 1     
   20   10   17 1     
   21   10   11 2     
   22   11   12 1     
   23   12   13 1     
   24   12   14 am    
   25   13   28 1     
   26   13   29 1     
   27   13   30 1     
   28   14   15 2     
   29   14   16 1     
   30   16   17 1     
   31   16   31 1     
   32   16   32 1     
   33   17   33 1     
   34   17   34 1     
   35   18   19 1     
   36   18   35 1     
   37    3   36 1     
   38    9   37 1     
   39    9   38 1     
   40   11   39 1     
   41   15   40 1     
   42   15   41 1     
@<TRIPOS>SUBSTRUCTURE
      1 S1             1
@<TRIPOS>SET
LONE_PAIRS      STATIC     ATOMS    <user>   **** ""
6 36 37 38 39 40 41
DONOR_HYDROGENS      STATIC     ATOMS    <user>   **** ""
1 27
ATOM$BLUE        STATIC     ATOMS    COLORGROUP SYSTEM
6 36 37 38 39 40 41
ATOM$RED        STATIC     ATOMS    COLORGROUP SYSTEM
1 27
