AV-unprocessed.smi:220|AV-procd|sdf|1682|dock6
  -GOLD-   2262020113D 1   1.00000     0.00000
 Structure written by MMmdl.
 51 55  0  0  0  0  0  0  0  0  1 V2000
  150.7301  141.6461  156.0006 N   0  0  0  0  0  0  0  0  0  0  0  0
  151.6387  141.1038  156.8146 C   0  0  0  0  0  0  0  0  0  0  0  0
  152.3876  140.1996  156.4482 O   0  0  0  0  0  0  0  0  0  0  0  0
  151.7197  141.6770  158.2384 C   0  0  2  0  0  0  0  0  0  0  0  0
  152.0344  143.1877  158.2395 C   0  0  1  0  0  0  0  0  0  0  0  0
  150.8234  144.1281  158.3584 C   0  0  0  0  0  0  0  0  0  0  0  0
  151.2713  145.2130  159.3394 C   0  0  0  0  0  0  0  0  0  0  0  0
  152.1580  144.4685  160.3382 C   0  0  0  0  0  0  0  0  0  0  0  0
  152.8971  143.4286  159.4846 C   0  0  1  0  0  0  0  0  0  0  0  0
  153.0848  142.0443  160.1126 C   0  0  0  0  0  0  0  0  0  0  0  0
  152.8064  141.1081  159.0356 N   0  0  0  0  0  0  0  0  0  0  0  0
  152.7026  139.8182  159.4286 C   0  0  0  0  0  0  0  0  0  0  0  0
  151.6218  139.1338  158.9816 N   0  0  0  0  0  0  0  0  0  0  0  0
  151.4489  137.8553  159.3286 C   0  0  0  0  0  0  0  0  0  0  0  0
  152.2259  137.0858  160.0935 N   0  0  0  0  0  0  0  0  0  0  0  0
  153.3218  137.7680  160.5343 C   0  0  0  0  0  0  0  0  0  0  0  0
  153.6378  139.1269  160.2511 C   0  0  0  0  0  0  0  0  0  0  0  0
  154.8365  139.4696  160.8658 N   0  0  0  0  0  0  0  0  0  0  0  0
  155.2008  138.3809  161.4859 C   0  0  0  0  0  0  0  0  0  0  0  0
  154.3542  137.3063  161.3329 N   0  0  0  0  0  0  0  0  0  0  0  0
  154.5143  135.9797  161.9086 C   0  0  0  0  0  0  0  0  0  0  0  0
  154.5994  135.9747  163.4483 C   0  0  0  0  0  0  0  0  0  0  0  0
  154.6338  134.5316  163.9815 C   0  0  0  0  0  0  0  0  0  0  0  0
  154.5475  134.5014  165.3915 O   0  0  0  0  0  0  0  0  0  0  0  0
  155.6550  136.9030  164.0662 C   0  0  0  0  0  0  0  0  0  0  0  0
  154.6882  137.5105  164.9483 O   0  0  0  0  0  0  0  0  0  0  0  0
  153.6260  136.9116  164.1762 C   0  0  0  0  0  0  0  0  0  0  0  0
  150.6399  141.3062  155.0541 H   0  0  0  0  0  0  0  0  0  0  0  0
  150.1389  142.3946  156.3313 H   0  0  0  0  0  0  0  0  0  0  0  0
  150.7717  141.5006  158.7459 H   0  0  0  0  0  0  0  0  0  0  0  0
  152.6247  143.4644  157.3632 H   0  0  0  0  0  0  0  0  0  0  0  0
  150.5187  144.5376  157.3949 H   0  0  0  0  0  0  0  0  0  0  0  0
  149.9641  143.6036  158.7779 H   0  0  0  0  0  0  0  0  0  0  0  0
  151.8601  145.9659  158.8137 H   0  0  0  0  0  0  0  0  0  0  0  0
  150.4322  145.7188  159.8180 H   0  0  0  0  0  0  0  0  0  0  0  0
  152.8397  145.1327  160.8697 H   0  0  0  0  0  0  0  0  0  0  0  0
  151.5254  143.9812  161.0809 H   0  0  0  0  0  0  0  0  0  0  0  0
  153.8615  143.8272  159.1653 H   0  0  0  0  0  0  0  0  0  0  0  0
  154.0988  141.9148  160.4931 H   0  0  0  0  0  0  0  0  0  0  0  0
  152.3932  141.8842  160.9413 H   0  0  0  0  0  0  0  0  0  0  0  0
  150.5609  137.3813  158.9373 H   0  0  0  0  0  0  0  0  0  0  0  0
  156.1052  138.3338  162.0740 H   0  0  0  0  0  0  0  0  0  0  0  0
  153.6730  135.3727  161.5717 H   0  0  0  0  0  0  0  0  0  0  0  0
  155.3989  135.5150  161.4718 H   0  0  0  0  0  0  0  0  0  0  0  0
  153.8302  133.9263  163.5617 H   0  0  0  0  0  0  0  0  0  0  0  0
  155.5636  134.0389  163.6949 H   0  0  0  0  0  0  0  0  0  0  0  0
  155.4213  134.5539  165.7474 H   0  0  0  0  0  0  0  0  0  0  0  0
  156.4471  136.3814  164.6049 H   0  0  0  0  0  0  0  0  0  0  0  0
  156.0722  137.6323  163.3704 H   0  0  0  0  0  0  0  0  0  0  0  0
  153.1400  137.6390  163.5239 H   0  0  0  0  0  0  0  0  0  0  0  0
  152.8926  136.3982  164.7990 H   0  0  0  0  0  0  0  0  0  0  0  0
  1  2  1  0  0  0  0
  1 28  1  0  0  0  0
  1 29  1  0  0  0  0
  2  3  2  0  0  0  0
  2  4  1  0  0  0  0
  4 11  1  0  0  0  0
  4  5  1  0  0  0  0
  4 30  1  0  0  0  0
  5  9  1  0  0  0  0
  5  6  1  0  0  0  0
  5 31  1  0  0  0  0
  6  7  1  0  0  0  0
  6 32  1  0  0  0  0
  6 33  1  0  0  0  0
  7  8  1  0  0  0  0
  7 34  1  0  0  0  0
  7 35  1  0  0  0  0
  8  9  1  0  0  0  0
  8 36  1  0  0  0  0
  8 37  1  0  0  0  0
  9 10  1  0  0  0  0
  9 38  1  0  0  0  0
 10 11  1  0  0  0  0
 10 39  1  0  0  0  0
 10 40  1  0  0  0  0
 11 12  1  0  0  0  0
 12 17  1  0  0  0  0
 12 13  2  0  0  0  0
 13 14  1  0  0  0  0
 14 15  2  0  0  0  0
 14 41  1  0  0  0  0
 15 16  1  0  0  0  0
 16 20  1  0  0  0  0
 16 17  2  0  0  0  0
 17 18  1  0  0  0  0
 18 19  2  0  0  0  0
 19 20  1  0  0  0  0
 19 42  1  0  0  0  0
 20 21  1  0  0  0  0
 21 22  1  0  0  0  0
 21 43  1  0  0  0  0
 21 44  1  0  0  0  0
 22 27  1  0  0  0  0
 22 23  1  0  0  0  0
 22 25  1  0  0  0  0
 23 24  1  0  0  0  0
 23 45  1  0  0  0  0
 23 46  1  0  0  0  0
 24 47  1  0  0  0  0
 25 26  1  0  0  0  0
 25 48  1  0  0  0  0
 25 49  1  0  0  0  0
 26 27  1  0  0  0  0
 27 50  1  0  0  0  0
 27 51  1  0  0  0  0
M  END
> <s_m_source_file>
AV-unprocessed.smi

> <i_m_source_file_index>
220

> <i_lp_mmshare_version>
43012

> <i_f3d_flags>
0

> <s_epik_input>
W0NIMl0xW0NIMl1bQ0gyXVtDQEhdKFtDQEhdMTIpW0NIMl1OKFtDQEBIXTJDKD1PKVtOSDJdKWMobltjSF1uMyljKGMzNCluW2NIXW40W0NIMl1DNShbQ0gyXVtPSF0pW0NIMl1PW0NIMl01

> <s_epik_cmdline>
J2VwaWtfcHl0aG9uJywgJy1waCcsICc3LjAnLCAnLXRuJywgJzgnLCAnLW1hJywgJzIwMCcsICctbWV0YWxfYmluZGluZycsICctaW1hZScsICc8aW5maWxlLm1hZT4nLCAnLW9tYWUnLCAnPG91dGZpbGUubWFlPic=

> <r_lp_tautomer_probability>
1

> <r_epik_Ionization_Penalty>
0.00118987

> <r_epik_Ionization_Penalty_Charging>
0

> <r_epik_Ionization_Penalty_Neutral>
0.00118987

> <r_epik_State_Penalty>
0.000654261

> <r_epik_Charging_Adjusted_Penalty>
0.000654261

> <i_epik_Tot_Q>
0

> <i_epik_Tot_abs_Q>
0

> <r_epik_Metal_State_Penalty>
-0

> <b_epik_Metal_Only>
0

> <s_lp_Force_Field>
OPLS_2005

> <r_lp_Energy>
61.293

> <b_lp_Chiralities_Consistent>
1

> <s_lp_Variant>
AV-unprocessed.smi:220-1

> <Gold.Version>
5.8.1

> <Gold.Id.Protein>
6NUR|6NUR_protein|mol2

> <Gold.PLP.Fitness>
56.9286

> <Gold.PLP.PLP>
-51.2271

> <Gold.PLP.part.hbond>
-3.0000

> <Gold.PLP.part.metal>
0.0000

> <Gold.PLP.part.buried>
-7.7843

> <Gold.PLP.part.nonpolar>
-39.5366

> <Gold.PLP.part.repulsive>
0.2158

> <Gold.PLP.ligand.clash>
0.0000

> <Gold.PLP.ligand.torsion>
0.3632

> <Gold.PLP.Chemscore.Hbond>
2.0000

> <Gold.PLP.Chemscore.CHOScore>
0.0000

> <Gold.PLP.Chemscore.Metal>
0.0000

> <Gold.Chemscore.Hbonds>
donor molecule, donor type, donor heavy atom, donor atom, acceptor molecule, acceptor atom, score
      P1  H  6896  6909       L1    15  1.00
      P1  H  7997  8008       L1     3  1.00

> <Gold.PLP.Chemscore.Internal.Correction>
0.4280

> <Gold.Rescore>
     Score         DG    S(hbond)    S(metal)    S(lipo)     H(rot)  DE(clash)    DE(int)     intcor
     12.90     -17.44       1.94        0.00     118.30       3.27       0.26       4.28       ----

> <Gold.Chemscore.Fitness>
12.9046

> <Gold.Chemscore.DG>
-17.4421

> <Gold.Chemscore.ZeroCoef>
-5.4800

> <Gold.Chemscore.Hbond>
1.9440

> <Gold.Chemscore.Metal>
0.0000

> <Gold.Chemscore.Lipo>
118.3014

> <Gold.Chemscore.Internal_Hbond>
0.0000

> <Gold.Chemscore.DEClash>
0.2581

> <Gold.Chemscore.DEInternal>
4.2794

> <Gold.Chemscore.Rot>
3.2703

> <Gold.Chemscore.Internal.Correction>
   9.000000E+99

> <Gold.Chemscore.Hbonds>
donor molecule, donor type, donor heavy atom, donor atom, acceptor molecule, acceptor atom, score
      P1  H  6896  6909       L1    15  0.75
      P1  H  7997  8008       L1     3  0.97

> <Gold.Chemscore.Hbond.Weighted>
-6.4929

> <Gold.Chemscore.Metal.Weighted>
-0.0000

> <Gold.Chemscore.Lipo.Weighted>
-13.8413

> <Gold.Chemscore.Internal_Hbond.Weighted>
0.0000

> <Gold.Chemscore.DEClash.Weighted>
0.2581

> <Gold.Chemscore.DEInternal.Weighted>
4.2794

> <Gold.Chemscore.Rot.Weighted>
8.3721

> <Gold.Chemscore.Internal.Correction.Weighted>
   9.000000E+99

> <Gold.Protein.RotatedTorsions>
[ 6907 6896 6895 6894 ] final  122.78 input  -60.11 | X-H torsion
[ 7974 7965 7964 7962 ] final   30.82 input  175.53 | X-H torsion
[ 8008 7997 7996 7995 ] final  -47.95 input   59.86 | X-H torsion
[ 10167 10162 10161 10158 ] final    6.00 input  -65.29 | X-H torsion
[ 10718 10713 10712 10709 ] final  105.30 input   66.30 | X-H torsion
[ 10763 10752 10751 10750 ] final  -25.84 input  -60.55 | X-H torsion
[ 11005 11000 10999 10996 ] final  -27.52 input  -57.11 | X-H torsion

> <Gold.Protein.ActiveResidues>
 VAL166  LYS551  ARG553  GLY616  TRP617  ASP618  TYR619  PRO620  LYS621  CYS622 
 ASP623  PHE694  ASN695  SER759  ASP760  ASP761  ALA762  ILE779  LEU786  VAL792 
 PHE793  MET794  SER795  GLU796  ALA797  LYS798  CYS799  TRP800  GLU811  SER814 

> <Gold.Protein.RotatedAtoms>
  152.4215  133.7124  159.6486 H   0  0  0  0  0  0  0  0  0  0  0  0  # atno 6907 bound_to 6896
  150.8091  133.8444  159.3197 H   0  0  0  0  0  0  0  0  0  0  0  0  # atno 6908 bound_to 6896
  151.6160  135.1038  160.0143 H   0  0  0  0  0  0  0  0  0  0  0  0  # atno 6909 bound_to 6896
  146.1588  139.6738  142.9048 H   0  0  0  0  0  0  0  0  0  0  0  0  # atno 7974 bound_to 7965
  154.4023  140.1333  156.4259 H   0  0  0  0  0  0  0  0  0  0  0  0  # atno 8008 bound_to 7997
  155.7597  140.3486  155.5172 H   0  0  0  0  0  0  0  0  0  0  0  0  # atno 8009 bound_to 7997
  155.8870  140.0997  157.1435 H   0  0  0  0  0  0  0  0  0  0  0  0  # atno 8010 bound_to 7997
  140.6452  143.7680  150.7487 H   0  0  0  0  0  0  0  0  0  0  0  0  # atno 10167 bound_to 10162
  157.6710  131.0824  150.5836 H   0  0  0  0  0  0  0  0  0  0  0  0  # atno 10718 bound_to 10713
  153.7063  135.6953  153.5049 H   0  0  0  0  0  0  0  0  0  0  0  0  # atno 10763 bound_to 10752
  153.2305  135.4339  155.0589 H   0  0  0  0  0  0  0  0  0  0  0  0  # atno 10764 bound_to 10752
  154.8329  135.3483  154.6601 H   0  0  0  0  0  0  0  0  0  0  0  0  # atno 10765 bound_to 10752
  140.9126  133.7450  156.0692 H   0  0  0  0  0  0  0  0  0  0  0  0  # atno 11005 bound_to 11000
  145.4640  141.0434  143.2736 LP  0  0  0  0  0  0  0  0  0  0  0  0  # atno 17320 bound_to 7965
  144.7999  139.6160  143.7076 LP  0  0  0  0  0  0  0  0  0  0  0  0  # atno 17321 bound_to 7965
  140.1320  143.4518  152.2248 LP  0  0  0  0  0  0  0  0  0  0  0  0  # atno 17342 bound_to 10162
  139.5662  144.7436  151.4016 LP  0  0  0  0  0  0  0  0  0  0  0  0  # atno 17343 bound_to 10162
  156.6137  130.4387  149.5849 LP  0  0  0  0  0  0  0  0  0  0  0  0  # atno 17370 bound_to 10713
  156.2410  130.6851  151.1556 LP  0  0  0  0  0  0  0  0  0  0  0  0  # atno 17371 bound_to 10713
  140.8090  134.3421  157.5417 LP  0  0  0  0  0  0  0  0  0  0  0  0  # atno 17394 bound_to 11000
  139.8760  134.9243  156.3346 LP  0  0  0  0  0  0  0  0  0  0  0  0  # atno 17395 bound_to 11000

$$$$
