AV-unprocessed.smi:926|AV-procd|sdf|4184|dock6
  -GOLD-   22720 2 93D 1   1.00000     0.00000
 Structure written by MMmdl.
 37 39  0  0  0  0  0  0  0  0  1 V2000
  148.3437  141.3507  154.5132 O   0  0  0  0  0  0  0  0  0  0  0  0
  149.2522  140.5637  154.7785 C   0  0  0  0  0  0  0  0  0  0  0  0
  149.5678  139.4130  153.8239 C   0  0  0  0  0  0  0  0  0  0  0  0
  150.6359  138.5861  154.3518 N   0  0  0  0  0  0  0  0  0  0  0  0
  150.7147  137.2661  154.5336 C   0  0  0  0  0  0  0  0  0  0  0  0
  151.8770  136.9145  155.0621 N   0  0  0  0  0  0  0  0  0  0  0  0
  152.5373  138.1239  155.2044 N   0  0  0  0  0  0  0  0  0  0  0  0
  151.8057  139.1195  154.7849 N   0  0  0  0  0  0  0  0  0  0  0  0
  150.0007  140.6423  155.8898 N   0  0  0  0  0  0  0  0  0  0  0  0
  149.8260  141.6301  156.9470 C   0  0  0  0  0  0  0  0  0  0  0  0
  151.0401  142.5714  157.0375 C   0  0  0  0  0  0  0  0  0  0  0  0
  151.0622  143.4048  158.3335 C   0  0  1  0  0  0  0  0  0  0  0  0
  151.3051  142.5650  159.6097 C   0  0  0  0  0  0  0  0  0  0  0  0
  152.5284  143.2458  160.2501 C   0  0  2  0  0  0  0  0  0  0  0  0
  152.1266  144.6332  160.7838 C   0  0  0  0  0  0  0  0  0  0  0  0
  151.9452  145.4527  159.4922 C   0  0  0  0  0  0  0  0  0  0  0  0
  152.2312  144.4155  158.3892 C   0  0  1  0  0  0  0  0  0  0  0  0
  153.3571  143.6043  159.0238 C   0  0  0  0  0  0  0  0  0  0  0  0
  148.6826  138.7918  153.6815 H   0  0  0  0  0  0  0  0  0  0  0  0
  149.8535  139.7992  152.8442 H   0  0  0  0  0  0  0  0  0  0  0  0
  149.9262  136.5707  154.2850 H   0  0  0  0  0  0  0  0  0  0  0  0
  150.7249  139.9515  156.0257 H   0  0  0  0  0  0  0  0  0  0  0  0
  148.9257  142.2046  156.7274 H   0  0  0  0  0  0  0  0  0  0  0  0
  149.6483  141.1289  157.8996 H   0  0  0  0  0  0  0  0  0  0  0  0
  151.9631  141.9971  156.9486 H   0  0  0  0  0  0  0  0  0  0  0  0
  151.0228  143.2476  156.1817 H   0  0  0  0  0  0  0  0  0  0  0  0
  150.1149  143.9407  158.4094 H   0  0  0  0  0  0  0  0  0  0  0  0
  150.4395  142.5593  160.2729 H   0  0  0  0  0  0  0  0  0  0  0  0
  151.5404  141.5279  159.3663 H   0  0  0  0  0  0  0  0  0  0  0  0
  153.0387  142.6241  160.9862 H   0  0  0  0  0  0  0  0  0  0  0  0
  151.2177  144.5967  161.3855 H   0  0  0  0  0  0  0  0  0  0  0  0
  152.9198  145.0591  161.3996 H   0  0  0  0  0  0  0  0  0  0  0  0
  150.9489  145.8889  159.4098 H   0  0  0  0  0  0  0  0  0  0  0  0
  152.6690  146.2678  159.4523 H   0  0  0  0  0  0  0  0  0  0  0  0
  152.4741  144.8671  157.4267 H   0  0  0  0  0  0  0  0  0  0  0  0
  154.2408  144.2003  159.2586 H   0  0  0  0  0  0  0  0  0  0  0  0
  153.6595  142.7367  158.4354 H   0  0  0  0  0  0  0  0  0  0  0  0
  1  2  2  0  0  0  0
  2  3  1  0  0  0  0
  2  9  1  0  0  0  0
  3  4  1  0  0  0  0
  3 19  1  0  0  0  0
  3 20  1  0  0  0  0
  4  8  1  0  0  0  0
  4  5  1  0  0  0  0
  5  6  2  0  0  0  0
  5 21  1  0  0  0  0
  6  7  1  0  0  0  0
  7  8  2  0  0  0  0
  9 10  1  0  0  0  0
  9 22  1  0  0  0  0
 10 11  1  0  0  0  0
 10 23  1  0  0  0  0
 10 24  1  0  0  0  0
 11 12  1  0  0  0  0
 11 25  1  0  0  0  0
 11 26  1  0  0  0  0
 12 17  1  0  0  0  0
 12 13  1  0  0  0  0
 12 27  1  0  0  0  0
 13 14  1  0  0  0  0
 13 28  1  0  0  0  0
 13 29  1  0  0  0  0
 14 18  1  0  0  0  0
 14 15  1  0  0  0  0
 14 30  1  0  0  0  0
 15 16  1  0  0  0  0
 15 31  1  0  0  0  0
 15 32  1  0  0  0  0
 16 17  1  0  0  0  0
 16 33  1  0  0  0  0
 16 34  1  0  0  0  0
 17 18  1  0  0  0  0
 17 35  1  0  0  0  0
 18 36  1  0  0  0  0
 18 37  1  0  0  0  0
M  END
> <s_m_source_file>
AV-unprocessed.smi

> <i_m_source_file_index>
926

> <i_lp_mmshare_version>
43012

> <i_f3d_flags>
0

> <s_epik_input>
bjFubltjSF1uMVtDSDJdQyg9TylbTkhdW0NIMl1bQ0gyXVtDQEhdKFtDSDJdW0NASF0yMylbQ0BIXShbQ0gyXTMpW0NIMl1bQ0gyXTI=

> <s_epik_cmdline>
J2VwaWtfcHl0aG9uJywgJy1waCcsICc3LjAnLCAnLXRuJywgJzgnLCAnLW1hJywgJzIwMCcsICctbWV0YWxfYmluZGluZycsICctaW1hZScsICc8aW5maWxlLm1hZT4nLCAnLW9tYWUnLCAnPG91dGZpbGUubWFlPic=

> <r_lp_tautomer_probability>
1

> <r_epik_Ionization_Penalty>
4.22645e-07

> <r_epik_Ionization_Penalty_Charging>
0

> <r_epik_Ionization_Penalty_Neutral>
4.22645e-07

> <r_epik_State_Penalty>
-0

> <r_epik_Charging_Adjusted_Penalty>
0

> <i_epik_Tot_Q>
0

> <i_epik_Tot_abs_Q>
0

> <r_epik_Metal_State_Penalty>
-0

> <b_epik_Metal_Only>
0

> <s_lp_Force_Field>
OPLS_2005

> <r_lp_Energy>
50.6471

> <b_lp_Chiralities_Consistent>
1

> <s_lp_Variant>
AV-unprocessed.smi:926-2

> <Gold.Version>
5.8.1

> <Gold.Id.Protein>
6NUR|6NUR_protein|mol2

> <Gold.PLP.Fitness>
47.1034

> <Gold.PLP.PLP>
-39.1079

> <Gold.PLP.part.hbond>
-2.0000

> <Gold.PLP.part.metal>
0.0000

> <Gold.PLP.part.buried>
-2.2914

> <Gold.PLP.part.nonpolar>
-35.0948

> <Gold.PLP.part.repulsive>
0.4232

> <Gold.PLP.ligand.clash>
0.0000

> <Gold.PLP.ligand.torsion>
0.1588

> <Gold.PLP.Chemscore.Hbond>
1.8760

> <Gold.PLP.Chemscore.CHOScore>
0.8854

> <Gold.PLP.Chemscore.Metal>
0.0000

> <Gold.Chemscore.Hbonds>
donor molecule, donor type, donor heavy atom, donor atom, acceptor molecule, acceptor atom, score
      P1  H  7989  7998       L1     8  0.47
      P1  H 10752 10764       L1     6  0.98
      L1  C     5    21       P1  7948  0.72

> <Gold.PLP.Chemscore.Internal.Correction>
0.0289

> <Gold.Rescore>
     Score         DG    S(hbond)    S(metal)    S(lipo)     H(rot)  DE(clash)    DE(int)     intcor
     16.76     -17.09       1.82        0.00     102.92       2.54       0.24       0.09       ----

> <Gold.Chemscore.Fitness>
16.7556

> <Gold.Chemscore.DG>
-17.0850

> <Gold.Chemscore.ZeroCoef>
-5.4800

> <Gold.Chemscore.Hbond>
1.8190

> <Gold.Chemscore.Metal>
0.0000

> <Gold.Chemscore.Lipo>
102.9178

> <Gold.Chemscore.Internal_Hbond>
0.0000

> <Gold.Chemscore.DEClash>
0.2398

> <Gold.Chemscore.DEInternal>
0.0896

> <Gold.Chemscore.Rot>
2.5436

> <Gold.Chemscore.Internal.Correction>
   9.000000E+99

> <Gold.Chemscore.Hbonds>
donor molecule, donor type, donor heavy atom, donor atom, acceptor molecule, acceptor atom, score
      P1  H  7989  7998       L1     8  0.05
      P1  H 10752 10764       L1     6  0.76

> <Gold.Chemscore.Hbond.Weighted>
-6.0754

> <Gold.Chemscore.Metal.Weighted>
-0.0000

> <Gold.Chemscore.Lipo.Weighted>
-12.0414

> <Gold.Chemscore.Internal_Hbond.Weighted>
0.0000

> <Gold.Chemscore.DEClash.Weighted>
0.2398

> <Gold.Chemscore.DEInternal.Weighted>
0.0896

> <Gold.Chemscore.Rot.Weighted>
6.5117

> <Gold.Chemscore.Internal.Correction.Weighted>
   9.000000E+99

> <Gold.Protein.RotatedTorsions>
[ 6907 6896 6895 6894 ] final  -29.80 input  -60.11 | X-H torsion
[ 7974 7965 7964 7962 ] final  -62.68 input  175.53 | X-H torsion
[ 8008 7997 7996 7995 ] final -150.59 input   59.86 | X-H torsion
[ 10167 10162 10161 10158 ] final   77.58 input  -65.29 | X-H torsion
[ 10718 10713 10712 10709 ] final   31.16 input   66.30 | X-H torsion
[ 10763 10752 10751 10750 ] final  -72.24 input  -60.55 | X-H torsion
[ 11005 11000 10999 10996 ] final   -9.59 input  -57.11 | X-H torsion

> <Gold.Protein.ActiveResidues>
 VAL166  LYS551  ARG553  GLY616  TRP617  ASP618  TYR619  PRO620  LYS621  CYS622 
 ASP623  PHE694  ASN695  SER759  ASP760  ASP761  ALA762  ILE779  LEU786  VAL792 
 PHE793  MET794  SER795  GLU796  ALA797  LYS798  CYS799  TRP800  GLU811  SER814 

> <Gold.Protein.RotatedAtoms>
  151.1143  135.0044  159.8508 H   0  0  0  0  0  0  0  0  0  0  0  0  # atno 6907 bound_to 6896
  152.5445  134.1799  159.8641 H   0  0  0  0  0  0  0  0  0  0  0  0  # atno 6908 bound_to 6896
  151.1851  133.4656  159.2627 H   0  0  0  0  0  0  0  0  0  0  0  0  # atno 6909 bound_to 6896
  145.7884  140.8723  143.0294 H   0  0  0  0  0  0  0  0  0  0  0  0  # atno 7974 bound_to 7965
  155.6260  140.0686  157.2663 H   0  0  0  0  0  0  0  0  0  0  0  0  # atno 8008 bound_to 7997
  154.4217  140.1776  156.1471 H   0  0  0  0  0  0  0  0  0  0  0  0  # atno 8009 bound_to 7997
  155.9971  140.3339  155.6812 H   0  0  0  0  0  0  0  0  0  0  0  0  # atno 8010 bound_to 7997
  139.9800  144.5833  150.7909 H   0  0  0  0  0  0  0  0  0  0  0  0  # atno 10167 bound_to 10162
  157.2689  130.7198  149.6494 H   0  0  0  0  0  0  0  0  0  0  0  0  # atno 10718 bound_to 10713
  154.4430  135.5936  153.6141 H   0  0  0  0  0  0  0  0  0  0  0  0  # atno 10763 bound_to 10752
  152.9807  135.6002  154.3699 H   0  0  0  0  0  0  0  0  0  0  0  0  # atno 10764 bound_to 10752
  154.3551  135.2841  155.2329 H   0  0  0  0  0  0  0  0  0  0  0  0  # atno 10765 bound_to 10752
  140.7357  133.8712  155.8928 H   0  0  0  0  0  0  0  0  0  0  0  0  # atno 11005 bound_to 11000
  144.6785  140.0088  143.7484 LP  0  0  0  0  0  0  0  0  0  0  0  0  # atno 17320 bound_to 7965
  146.0002  139.3085  143.0932 LP  0  0  0  0  0  0  0  0  0  0  0  0  # atno 17321 bound_to 7965
  140.7492  143.2935  151.3267 LP  0  0  0  0  0  0  0  0  0  0  0  0  # atno 17342 bound_to 10162
  139.6417  144.0528  152.2559 LP  0  0  0  0  0  0  0  0  0  0  0  0  # atno 17343 bound_to 10162
  155.9663  130.4374  150.5173 LP  0  0  0  0  0  0  0  0  0  0  0  0  # atno 17370 bound_to 10713
  157.3093  131.0660  151.2012 LP  0  0  0  0  0  0  0  0  0  0  0  0  # atno 17371 bound_to 10713
  140.9881  134.1315  157.4433 LP  0  0  0  0  0  0  0  0  0  0  0  0  # atno 17394 bound_to 11000
  139.8816  135.0032  156.6171 LP  0  0  0  0  0  0  0  0  0  0  0  0  # atno 17395 bound_to 11000

$$$$
