AV-unprocessed.smi:1178|AV-procd|sdf|4957|dock9
  -GOLD-   22720 3553D 1   1.00000     0.00000
 Structure written by MMmdl.
 32 33  0  0  0  0  0  0  0  0  2 V2000
  147.7047  136.1370  156.3086 O   0  0  0  0  0  0  0  0  0  0  0  0
  147.9383  136.3968  155.1286 C   0  0  0  0  0  0  0  0  0  0  0  0
  148.1319  137.8650  154.7100 C   0  0  0  0  0  0  0  0  0  0  0  0
  149.5286  138.3381  154.7247 N   0  0  0  0  0  0  0  0  0  0  0  0
  150.5438  137.3659  154.7647 C   0  0  0  0  0  0  0  0  0  0  0  0
  151.8481  137.7002  154.7753 C   0  0  0  0  0  0  0  0  0  0  0  0
  152.1982  139.1148  154.7439 C   0  0  0  0  0  0  0  0  0  0  0  0
  153.3842  139.4386  154.7527 O   0  0  0  0  0  0  0  0  0  0  0  0
  151.1774  140.0204  154.7043 N   0  5  0  0  0  0  0  0  0  0  0  0
  149.8552  139.6659  154.6929 C   0  0  0  0  0  0  0  0  0  0  0  0
  148.9501  140.4991  154.6478 O   0  0  0  0  0  0  0  0  0  0  0  0
  148.0373  135.4475  154.1845 N   0  0  0  0  0  0  0  0  0  0  0  0
  147.8705  134.0223  154.4213 C   0  0  0  0  0  0  0  0  0  0  0  0
  147.7456  133.2674  153.0884 C   0  0  0  0  0  0  0  0  0  0  0  0
  148.0186  131.8349  153.2601 N   0  0  0  0  0  0  0  0  0  0  0  0
  147.1989  130.8709  152.7810 C   0  0  0  0  0  0  0  0  0  0  0  0
  146.1606  131.0779  152.1535 O   0  0  0  0  0  0  0  0  0  0  0  0
  147.6559  129.4396  153.0874 C   0  0  0  0  0  0  0  0  0  0  0  0
  149.1746  129.6308  154.0243 S   0  0  0  0  0  0  0  0  0  0  0  0
  149.0822  131.3692  153.9368 C   0  0  0  0  0  0  0  0  0  0  0  0
  149.9375  132.0752  154.4701 O   0  0  0  0  0  0  0  0  0  0  0  0
  147.6983  138.0014  153.7180 H   0  0  0  0  0  0  0  0  0  0  0  0
  147.5228  138.4852  155.3690 H   0  0  0  0  0  0  0  0  0  0  0  0
  150.1994  136.3422  154.7811 H   0  0  0  0  0  0  0  0  0  0  0  0
  152.6156  136.9411  154.8045 H   0  0  0  0  0  0  0  0  0  0  0  0
  148.2239  135.7400  153.2358 H   0  0  0  0  0  0  0  0  0  0  0  0
  148.7243  133.6501  154.9896 H   0  0  0  0  0  0  0  0  0  0  0  0
  146.9794  133.8599  155.0300 H   0  0  0  0  0  0  0  0  0  0  0  0
  146.7465  133.4114  152.6727 H   0  0  0  0  0  0  0  0  0  0  0  0
  148.4266  133.6982  152.3520 H   0  0  0  0  0  0  0  0  0  0  0  0
  146.9052  128.9131  153.6772 H   0  0  0  0  0  0  0  0  0  0  0  0
  147.8395  128.8866  152.1660 H   0  0  0  0  0  0  0  0  0  0  0  0
  1  2  2  0  0  0  0
  2  3  1  0  0  0  0
  2 12  1  0  0  0  0
  3  4  1  0  0  0  0
  3 22  1  0  0  0  0
  3 23  1  0  0  0  0
  4 10  1  0  0  0  0
  4  5  1  0  0  0  0
  5  6  2  0  0  0  0
  5 24  1  0  0  0  0
  6  7  1  0  0  0  0
  6 25  1  0  0  0  0
  7  8  2  0  0  0  0
  7  9  1  0  0  0  0
  9 10  1  0  0  0  0
 10 11  2  0  0  0  0
 12 13  1  0  0  0  0
 12 26  1  0  0  0  0
 13 14  1  0  0  0  0
 13 27  1  0  0  0  0
 13 28  1  0  0  0  0
 14 15  1  0  0  0  0
 14 29  1  0  0  0  0
 14 30  1  0  0  0  0
 15 20  1  0  0  0  0
 15 16  1  0  0  0  0
 16 17  2  0  0  0  0
 16 18  1  0  0  0  0
 18 19  1  0  0  0  0
 18 31  1  0  0  0  0
 18 32  1  0  0  0  0
 19 20  1  0  0  0  0
 20 21  2  0  0  0  0
M  CHG  1   9  -1
M  END
> <s_m_source_file>
AV-unprocessed.smi

> <i_m_source_file_index>
1178

> <i_lp_mmshare_version>
43012

> <i_f3d_flags>
0

> <s_epik_input>
Tz1jMVtuSF1jKD1PKVtjSF1bY0hdbjFbQ0gyXUMoPU8pW05IXVtDSDJdW0NIMl1OMkMoPU8pW0NIMl1TQzI9Tw==

> <s_epik_cmdline>
J2VwaWtfcHl0aG9uJywgJy1waCcsICc3LjAnLCAnLXRuJywgJzgnLCAnLW1hJywgJzIwMCcsICctbWV0YWxfYmluZGluZycsICctaW1hZScsICc8aW5maWxlLm1hZT4nLCAnLW9tYWUnLCAnPG91dGZpbGUubWFlPic=

> <r_lp_tautomer_probability>
0.999537

> <r_epik_Ionization_Penalty>
3.05962

> <r_epik_Ionization_Penalty_Charging>
2.46074e-08

> <r_epik_Ionization_Penalty_Neutral>
3.05962

> <r_epik_State_Penalty>
3.05863

> <r_epik_Charging_Adjusted_Penalty>
3.05863

> <i_epik_Tot_Q>
-1

> <i_epik_Tot_abs_Q>
1

> <r_epik_Metal_State_Penalty>
0.458209

> <b_epik_Metal_Only>
1

> <s_lp_Force_Field>
OPLS_2005

> <r_lp_Energy>
17.4268

> <b_lp_Chiralities_Consistent>
1

> <s_lp_Variant>
AV-unprocessed.smi:1178-2

> <Gold.Version>
5.8.1

> <Gold.Id.Protein>
6NUR|6NUR_protein|mol2

> <Gold.PLP.Fitness>
37.4410

> <Gold.PLP.PLP>
-30.1337

> <Gold.PLP.part.hbond>
-3.6385

> <Gold.PLP.part.metal>
0.0000

> <Gold.PLP.part.buried>
-3.8053

> <Gold.PLP.part.nonpolar>
-24.0427

> <Gold.PLP.part.repulsive>
0.4104

> <Gold.PLP.ligand.clash>
0.0000

> <Gold.PLP.ligand.torsion>
0.8468

> <Gold.PLP.Chemscore.Hbond>
2.9913

> <Gold.PLP.Chemscore.CHOScore>
0.0000

> <Gold.PLP.Chemscore.Metal>
0.0000

> <Gold.Chemscore.Hbonds>
donor molecule, donor type, donor heavy atom, donor atom, acceptor molecule, acceptor atom, score
      L1  H    12    26       P1  7948  1.00
      P1  H  7989  7998       L1     9  0.95
      P1  H  7997  8009       L1     8  1.00

> <Gold.PLP.Chemscore.Internal.Correction>
0.0271

> <Gold.Rescore>
     Score         DG    S(hbond)    S(metal)    S(lipo)     H(rot)  DE(clash)    DE(int)     intcor
      9.05     -10.98       2.72        0.00      32.95       2.91       0.00       1.93       ----

> <Gold.Chemscore.Fitness>
9.0470

> <Gold.Chemscore.DG>
-10.9777

> <Gold.Chemscore.ZeroCoef>
-5.4800

> <Gold.Chemscore.Hbond>
2.7217

> <Gold.Chemscore.Metal>
0.0000

> <Gold.Chemscore.Lipo>
32.9467

> <Gold.Chemscore.Internal_Hbond>
0.0000

> <Gold.Chemscore.DEClash>
0.0038

> <Gold.Chemscore.DEInternal>
1.9269

> <Gold.Chemscore.Rot>
2.9092

> <Gold.Chemscore.Internal.Correction>
   9.000000E+99

> <Gold.Chemscore.Hbonds>
donor molecule, donor type, donor heavy atom, donor atom, acceptor molecule, acceptor atom, score
      L1  H    12    26       P1  7948  0.99
      P1  H  7989  7998       L1     9  0.18
      P1  H  7997  8009       L1     8  1.00

> <Gold.Chemscore.Hbond.Weighted>
-9.0904

> <Gold.Chemscore.Metal.Weighted>
-0.0000

> <Gold.Chemscore.Lipo.Weighted>
-3.8548

> <Gold.Chemscore.Internal_Hbond.Weighted>
0.0000

> <Gold.Chemscore.DEClash.Weighted>
0.0038

> <Gold.Chemscore.DEInternal.Weighted>
1.9269

> <Gold.Chemscore.Rot.Weighted>
7.4474

> <Gold.Chemscore.Internal.Correction.Weighted>
   9.000000E+99

> <Gold.Protein.RotatedTorsions>
[ 6907 6896 6895 6894 ] final  -44.66 input  -60.11 | X-H torsion
[ 7974 7965 7964 7962 ] final -123.06 input  175.53 | X-H torsion
[ 8008 7997 7996 7995 ] final -122.91 input   59.86 | X-H torsion
[ 10167 10162 10161 10158 ] final   -0.48 input  -65.29 | X-H torsion
[ 10718 10713 10712 10709 ] final  -87.26 input   66.30 | X-H torsion
[ 10763 10752 10751 10750 ] final  137.48 input  -60.55 | X-H torsion
[ 11005 11000 10999 10996 ] final   64.54 input  -57.11 | X-H torsion

> <Gold.Protein.ActiveResidues>
 VAL166  LYS551  ARG553  GLY616  TRP617  ASP618  TYR619  PRO620  LYS621  CYS622 
 ASP623  PHE694  ASN695  SER759  ASP760  ASP761  ALA762  ILE779  LEU786  VAL792 
 PHE793  MET794  SER795  GLU796  ALA797  LYS798  CYS799  TRP800  GLU811  SER814 

> <Gold.Protein.RotatedAtoms>
  150.9304  134.8719  159.7547 H   0  0  0  0  0  0  0  0  0  0  0  0  # atno 6907 bound_to 6896
  152.5035  134.4088  159.9451 H   0  0  0  0  0  0  0  0  0  0  0  0  # atno 6908 bound_to 6896
  151.4115  133.3686  159.2779 H   0  0  0  0  0  0  0  0  0  0  0  0  # atno 6909 bound_to 6896
  145.0228  140.8002  143.4371 H   0  0  0  0  0  0  0  0  0  0  0  0  # atno 7974 bound_to 7965
  155.1719  140.0408  157.2864 H   0  0  0  0  0  0  0  0  0  0  0  0  # atno 8008 bound_to 7997
  154.6264  140.2513  155.7460 H   0  0  0  0  0  0  0  0  0  0  0  0  # atno 8009 bound_to 7997
  156.2461  140.2884  156.0595 H   0  0  0  0  0  0  0  0  0  0  0  0  # atno 8010 bound_to 7997
  140.6769  143.6889  150.8044 H   0  0  0  0  0  0  0  0  0  0  0  0  # atno 10167 bound_to 10162
  155.9986  130.4794  150.4840 H   0  0  0  0  0  0  0  0  0  0  0  0  # atno 10718 bound_to 10713
  153.8738  135.3052  155.3443 H   0  0  0  0  0  0  0  0  0  0  0  0  # atno 10763 bound_to 10752
  154.7793  135.4844  153.9814 H   0  0  0  0  0  0  0  0  0  0  0  0  # atno 10764 bound_to 10752
  153.1391  135.6820  153.9152 H   0  0  0  0  0  0  0  0  0  0  0  0  # atno 10765 bound_to 10752
  139.9952  134.6528  156.0022 H   0  0  0  0  0  0  0  0  0  0  0  0  # atno 11005 bound_to 11000
  145.1873  139.2319  143.5261 LP  0  0  0  0  0  0  0  0  0  0  0  0  # atno 17320 bound_to 7965
  146.3488  140.1661  142.8590 LP  0  0  0  0  0  0  0  0  0  0  0  0  # atno 17321 bound_to 7965
  140.0583  143.5180  152.2640 LP  0  0  0  0  0  0  0  0  0  0  0  0  # atno 17342 bound_to 10162
  139.6067  144.7598  151.3045 LP  0  0  0  0  0  0  0  0  0  0  0  0  # atno 17343 bound_to 10162
  157.2842  131.0613  151.2177 LP  0  0  0  0  0  0  0  0  0  0  0  0  # atno 17370 bound_to 10713
  157.3212  130.6938  149.6270 LP  0  0  0  0  0  0  0  0  0  0  0  0  # atno 17371 bound_to 10713
  141.1599  133.6539  156.4283 LP  0  0  0  0  0  0  0  0  0  0  0  0  # atno 17394 bound_to 11000
  140.4832  134.6645  157.5179 LP  0  0  0  0  0  0  0  0  0  0  0  0  # atno 17395 bound_to 11000

$$$$
