#       Name:                AV-unprocessed.smi:1665
#       Creating user name   scv26
#       Creation time:       Fri Mar 27 07:38:18 2020


#       File generated by GOLD software.
#

@<TRIPOS>MOLECULE
AV-unprocessed.smi:1665
    42    43     1
SMALL
NO_CHARGES


@<TRIPOS>ATOM
      1 ****        -1.8510  -0.4231  -0.2562 C.3            1 S1                 0.0000
      2 ****        -0.9148   0.1741   0.8071 C.3            1 S1                 0.0000
      3 ****        -1.3032  -0.2113   2.2509 C.3            1 S1                 0.0000
      4 ****        -2.6639   0.1638   2.5907 N.pl3          1 S1                 0.0000
      5 ****        -3.7499  -0.6565   2.8143 C.2            1 S1                 0.0000
      6 ****        -4.8129   0.1485   3.1091 C.2            1 S1                 0.0000
      7 ****        -4.2701   1.4624   3.0448 C.2            1 S1                 0.0000
      8 ****        -2.9830   1.4679   2.7379 N.2            1 S1                 0.0000
      9 ****         0.4533  -0.2488   0.5263 N.am           1 S1                 0.0000
     10 ****         1.5566   0.4712   0.7815 C.2            1 S1                 0.0000
     11 ****         1.5434   1.5605   1.3539 O.2            1 S1                 0.0000
     12 ****         2.8818  -0.1215   0.2983 C.3            1 S1                 0.0000
     13 ****         3.4395   0.5779  -0.9603 C.3            1 S1                 0.0000
     14 ****         2.6200   0.3344  -2.1503 N.am           1 S1                 0.0000
     15 ****         2.9390  -0.7938  -3.0132 C.3            1 S1                 0.0000
     16 ****         1.7336  -1.0309  -3.9249 C.3            1 S1                 0.0000
     17 ****         0.8390   0.5307  -4.0585 S.3            1 S1                 0.0000
     18 ****         1.6138   1.1913  -2.5789 C.2            1 S1                 0.0000
     19 ****         1.2524   2.2488  -2.0661 O.2            1 S1                 0.0000
     20 ****        -2.8728  -0.0616  -0.1378 H              1 S1                 0.0000
     21 ****        -1.8730  -1.5118  -0.1995 H              1 S1                 0.0000
     22 ****        -1.5259  -0.1481  -1.2606 H              1 S1                 0.0000
     23 ****        -0.9706   1.2601   0.7093 H              1 S1                 0.0000
     24 ****        -1.1983  -1.2878   2.3940 H              1 S1                 0.0000
     25 ****        -0.6308   0.2643   2.9667 H              1 S1                 0.0000
     26 ****        -3.6770  -1.7319   2.7442 H              1 S1                 0.0000
     27 ****        -5.8239  -0.1548   3.3374 H              1 S1                 0.0000
     28 ****        -4.7687   2.4057   3.2127 H              1 S1                 0.0000
     29 ****         0.5662  -1.1350   0.0560 H              1 S1                 0.0000
     30 ****         3.6038  -0.0277   1.1101 H              1 S1                 0.0000
     31 ****         2.7697  -1.1916   0.1163 H              1 S1                 0.0000
     32 ****         3.5411   1.6503  -0.7836 H              1 S1                 0.0000
     33 ****         4.4506   0.2168  -1.1529 H              1 S1                 0.0000
     34 ****         3.8180  -0.5364  -3.6058 H              1 S1                 0.0000
     35 ****         3.1791  -1.6856  -2.4330 H              1 S1                 0.0000
     36 ****         2.0250  -1.4060  -4.9063 H              1 S1                 0.0000
     37 ****         1.0640  -1.7634  -3.4729 H              1 S1                 0.0000
     38 ****        -2.3813   2.2602   2.6374 LP             1 S1                 0.0000
     39 ****         0.6762   1.9555   1.6570 LP             1 S1                 0.0000
     40 ****         2.3999   2.0506   1.5159 LP             1 S1                 0.0000
     41 ****         1.7022   2.5820  -1.2375 LP             1 S1                 0.0000
     42 ****         0.5087   2.7756  -2.4777 LP             1 S1                 0.0000
@<TRIPOS>BOND
    1    1    2 1     
    2    1   20 1     
    3    1   21 1     
    4    1   22 1     
    5    2    3 1     
    6    2    9 1     
    7    2   23 1     
    8    3    4 1     
    9    3   24 1     
   10    3   25 1     
   11    4    8 1     
   12    4    5 1     
   13    5    6 2     
   14    5   26 1     
   15    6    7 1     
   16    6   27 1     
   17    7    8 2     
   18    7   28 1     
   19    9   10 am    
   20    9   29 1     
   21   10   11 2     
   22   10   12 1     
   23   12   13 1     
   24   12   30 1     
   25   12   31 1     
   26   13   14 1     
   27   13   32 1     
   28   13   33 1     
   29   14   18 am    
   30   14   15 1     
   31   15   16 1     
   32   15   34 1     
   33   15   35 1     
   34   16   17 1     
   35   16   36 1     
   36   16   37 1     
   37   17   18 1     
   38   18   19 2     
   39    8   38 1     
   40   11   39 1     
   41   11   40 1     
   42   19   41 1     
   43   19   42 1     
@<TRIPOS>SUBSTRUCTURE
      1 S1             1
@<TRIPOS>SET
LONE_PAIRS      STATIC     ATOMS    <user>   **** ""
5 38 39 40 41 42
DONOR_HYDROGENS      STATIC     ATOMS    <user>   **** ""
1 29
ATOM$BLUE        STATIC     ATOMS    COLORGROUP SYSTEM
5 38 39 40 41 42
ATOM$RED        STATIC     ATOMS    COLORGROUP SYSTEM
1 29
