#       Name:                AV-unprocessed.smi:2869
#       Creating user name   scv26
#       Creation time:       Fri Mar 27 15:49:14 2020


#       File generated by GOLD software.
#

@<TRIPOS>MOLECULE
AV-unprocessed.smi:2869
    56    58     1
SMALL
NO_CHARGES


@<TRIPOS>ATOM
      1 ****        -5.6652  -2.9836  -2.5772 N.1            1 S1                 0.0000
      2 ****        -5.0079  -2.0392  -2.4518 C.1            1 S1                 0.0000
      3 ****        -4.2229  -0.8588  -2.3010 C.2            1 S1                 0.0000
      4 ****        -4.7851   0.3654  -2.2341 C.2            1 S1                 0.0000
      5 ****        -4.0416   1.5147  -2.0769 N.am           1 S1                 0.0000
      6 ****        -4.6494   2.8137  -2.1494 C.3            1 S1                 0.0000
      7 ****        -4.4365   3.8263  -1.0407 C.3            1 S1                 0.0000
      8 ****        -5.7758   3.1485  -1.1964 C.3            1 S1                 0.0000
      9 ****        -2.6308   1.4520  -2.0647 C.2            1 S1                 0.0000
     10 ****        -1.9469   2.4770  -2.0058 O.2            1 S1                 0.0000
     11 ****        -2.0241   0.1740  -2.1251 N.am           1 S1                 0.0000
     12 ****        -0.5488   0.0834  -2.0561 C.3            1 S1                 0.0000
     13 ****        -0.0083  -0.0739  -0.6266 C.2            1 S1                 0.0000
     14 ****        -0.7603  -0.0217   0.3479 O.2            1 S1                 0.0000
     15 ****         1.3153  -0.2711  -0.5257 N.am           1 S1                 0.0000
     16 ****         2.0618  -0.4599   0.7185 C.3            1 S1                 0.0000
     17 ****         3.4502   0.1923   0.5239 C.3            1 S1                 0.0000
     18 ****         4.1459   0.7690   1.7762 C.3            1 S1                 0.0000
     19 ****         4.3952  -0.1714   2.9693 C.3            1 S1                 0.0000
     20 ****         4.8515  -1.5921   2.5922 C.3            1 S1                 0.0000
     21 ****         3.8082  -2.6863   2.8755 C.3            1 S1                 0.0000
     22 ****         2.3495  -2.3742   2.4860 C.3            1 S1                 0.0000
     23 ****         2.1045  -1.9823   1.0191 C.3            1 S1                 0.0000
     24 ****        -2.7732  -1.0262  -2.2277 C.2            1 S1                 0.0000
     25 ****        -2.2137  -2.1239  -2.2529 O.2            1 S1                 0.0000
     26 ****        -5.8604   0.4512  -2.2980 H              1 S1                 0.0000
     27 ****        -4.7415   3.2253  -3.1531 H              1 S1                 0.0000
     28 ****        -3.8297   3.5351  -0.1852 H              1 S1                 0.0000
     29 ****        -4.3655   4.8738  -1.3264 H              1 S1                 0.0000
     30 ****        -6.5994   3.7450  -1.5832 H              1 S1                 0.0000
     31 ****        -6.0489   2.4108  -0.4440 H              1 S1                 0.0000
     32 ****        -0.1846  -0.7502  -2.6588 H              1 S1                 0.0000
     33 ****        -0.0768   0.9576  -2.5071 H              1 S1                 0.0000
     34 ****         1.8513  -0.2986  -1.3808 H              1 S1                 0.0000
     35 ****         1.5367   0.0648   1.5188 H              1 S1                 0.0000
     36 ****         4.1104  -0.4945  -0.0051 H              1 S1                 0.0000
     37 ****         3.3441   1.0372  -0.1590 H              1 S1                 0.0000
     38 ****         5.1092   1.1678   1.4560 H              1 S1                 0.0000
     39 ****         3.5819   1.6323   2.1311 H              1 S1                 0.0000
     40 ****         5.1642   0.2856   3.5934 H              1 S1                 0.0000
     41 ****         3.5159  -0.1991   3.6110 H              1 S1                 0.0000
     42 ****         5.1713  -1.6404   1.5525 H              1 S1                 0.0000
     43 ****         5.7495  -1.8344   3.1619 H              1 S1                 0.0000
     44 ****         4.1244  -3.6047   2.3795 H              1 S1                 0.0000
     45 ****         3.8253  -2.9107   3.9425 H              1 S1                 0.0000
     46 ****         1.7783  -3.2820   2.6845 H              1 S1                 0.0000
     47 ****         1.9111  -1.6311   3.1513 H              1 S1                 0.0000
     48 ****         1.1300  -2.4006   0.7611 H              1 S1                 0.0000
     49 ****         2.8099  -2.4914   0.3613 H              1 S1                 0.0000
     50 ****        -6.2331  -3.7996  -2.6856 LP             1 S1                 0.0000
     51 ****        -2.3904   3.3724  -1.9657 LP             1 S1                 0.0000
     52 ****        -0.9490   2.4125  -1.9982 LP             1 S1                 0.0000
     53 ****        -1.7405   0.1252   0.2157 LP             1 S1                 0.0000
     54 ****        -0.3904  -0.1263   1.2711 LP             1 S1                 0.0000
     55 ****        -2.7567  -2.9603  -2.3269 LP             1 S1                 0.0000
     56 ****        -1.2166  -2.1782  -2.1994 LP             1 S1                 0.0000
@<TRIPOS>BOND
    1    1    2 3     
    2    2    3 1     
    3    3   24 1     
    4    3    4 2     
    5    4    5 1     
    6    4   26 1     
    7    5    6 1     
    8    5    9 am    
    9    6    8 1     
   10    6    7 1     
   11    6   27 1     
   12    7    8 1     
   13    7   28 1     
   14    7   29 1     
   15    8   30 1     
   16    8   31 1     
   17    9   10 2     
   18    9   11 am    
   19   11   12 1     
   20   11   24 am    
   21   12   13 1     
   22   12   32 1     
   23   12   33 1     
   24   13   14 2     
   25   13   15 am    
   26   15   16 1     
   27   15   34 1     
   28   16   23 1     
   29   16   17 1     
   30   16   35 1     
   31   17   18 1     
   32   17   36 1     
   33   17   37 1     
   34   18   19 1     
   35   18   38 1     
   36   18   39 1     
   37   19   20 1     
   38   19   40 1     
   39   19   41 1     
   40   20   21 1     
   41   20   42 1     
   42   20   43 1     
   43   21   22 1     
   44   21   44 1     
   45   21   45 1     
   46   22   23 1     
   47   22   46 1     
   48   22   47 1     
   49   23   48 1     
   50   23   49 1     
   51   24   25 2     
   52    1   50 1     
   53   10   51 1     
   54   10   52 1     
   55   14   53 1     
   56   14   54 1     
   57   25   55 1     
   58   25   56 1     
@<TRIPOS>SUBSTRUCTURE
      1 S1             1
@<TRIPOS>SET
LONE_PAIRS      STATIC     ATOMS    <user>   **** ""
7 50 51 52 53 54 55 56
DONOR_HYDROGENS      STATIC     ATOMS    <user>   **** ""
1 34
ATOM$BLUE        STATIC     ATOMS    COLORGROUP SYSTEM
7 50 51 52 53 54 55 56
ATOM$RED        STATIC     ATOMS    COLORGROUP SYSTEM
1 34
