AV-unprocessed.smi:2786|AV-procd|sdf|10751|dock5
  -GOLD-   2272015183D 1   1.00000     0.00000
 Structure written by MMmdl.
 28 29  0  0  0  0  0  0  0  0  3 V2000
  145.0048  135.2564  150.7860 C   0  0  0  0  0  0  0  0  0  0  0  0
  144.9474  133.7932  150.8019 N   0  0  0  0  0  0  0  0  0  0  0  0
  143.9719  133.0105  150.2392 C   0  0  0  0  0  0  0  0  0  0  0  0
  144.3126  131.7094  150.5005 C   0  0  0  0  0  0  0  0  0  0  0  0
  145.4818  131.7518  151.2098 N   0  3  0  0  0  0  0  0  0  0  0  0
  145.8767  133.0194  151.3886 C   0  0  0  0  0  0  0  0  0  0  0  0
  147.1056  133.4636  152.1295 C   0  0  1  0  0  0  0  0  0  0  0  0
  146.7422  134.3668  153.3304 C   0  0  0  0  0  0  0  0  0  0  0  0
  147.9632  134.8292  154.0226 N   0  3  0  0  0  0  0  0  0  0  0  0
  148.8081  133.6896  154.4305 C   0  0  0  0  0  0  0  0  0  0  0  0
  149.1368  132.8158  153.2068 C   0  0  0  0  0  0  0  0  0  0  0  0
  147.9022  132.3289  152.5979 N   0  0  0  0  0  0  0  0  0  0  0  0
  144.0907  135.6530  150.3423 H   0  0  0  0  0  0  0  0  0  0  0  0
  145.8619  135.5768  150.1929 H   0  0  0  0  0  0  0  0  0  0  0  0
  145.0984  135.6288  151.8065 H   0  0  0  0  0  0  0  0  0  0  0  0
  143.1264  133.4257  149.7090 H   0  0  0  0  0  0  0  0  0  0  0  0
  143.8230  130.7815  150.2424 H   0  0  0  0  0  0  0  0  0  0  0  0
  147.7052  134.0248  151.4117 H   0  0  0  0  0  0  0  0  0  0  0  0
  146.1808  135.2398  152.9967 H   0  0  0  0  0  0  0  0  0  0  0  0
  146.1071  133.8315  154.0381 H   0  0  0  0  0  0  0  0  0  0  0  0
  148.4936  135.4156  153.3940 H   0  0  0  0  0  0  0  0  0  0  0  0
  149.7244  134.0693  154.8831 H   0  0  0  0  0  0  0  0  0  0  0  0
  148.2917  133.1055  155.1937 H   0  0  0  0  0  0  0  0  0  0  0  0
  149.7191  133.3755  152.4735 H   0  0  0  0  0  0  0  0  0  0  0  0
  149.7418  131.9609  153.5101 H   0  0  0  0  0  0  0  0  0  0  0  0
  148.1284  131.7260  151.8185 H   0  0  0  0  0  0  0  0  0  0  0  0
  147.7070  135.3669  154.8386 H   0  0  0  0  0  0  0  0  0  0  0  0
  145.9842  130.9404  151.5482 H   0  0  0  0  0  0  0  0  0  0  0  0
  1  2  1  0  0  0  0
  1 13  1  0  0  0  0
  1 14  1  0  0  0  0
  1 15  1  0  0  0  0
  2  6  1  0  0  0  0
  2  3  1  0  0  0  0
  3  4  2  0  0  0  0
  3 16  1  0  0  0  0
  4  5  1  0  0  0  0
  4 17  1  0  0  0  0
  5  6  2  0  0  0  0
  5 28  1  0  0  0  0
  6  7  1  0  0  0  0
  7 12  1  0  0  0  0
  7  8  1  0  0  0  0
  7 18  1  0  0  0  0
  8  9  1  0  0  0  0
  8 19  1  0  0  0  0
  8 20  1  0  0  0  0
  9 10  1  0  0  0  0
  9 21  1  0  0  0  0
  9 27  1  0  0  0  0
 10 11  1  0  0  0  0
 10 22  1  0  0  0  0
 10 23  1  0  0  0  0
 11 12  1  0  0  0  0
 11 24  1  0  0  0  0
 11 25  1  0  0  0  0
 12 26  1  0  0  0  0
M  CHG  1   5   1
M  CHG  1   9   1
M  END
> <s_m_source_file>
AV-unprocessed.smi

> <i_m_source_file_index>
2786

> <i_lp_mmshare_version>
43012

> <i_f3d_flags>
0

> <s_epik_input>
W0NIM11uMVtjSF1bY0hdbmMxW0NAQEhdMltDSDJdW05IXVtDSDJdW0NIMl1bTkhdMg==

> <s_epik_cmdline>
J2VwaWtfcHl0aG9uJywgJy1waCcsICc3LjAnLCAnLXRuJywgJzgnLCAnLW1hJywgJzIwMCcsICctbWV0YWxfYmluZGluZycsICctaW1hZScsICc8aW5maWxlLm1hZT4nLCAnLW9tYWUnLCAnPG91dGZpbGUubWFlPic=

> <r_lp_tautomer_probability>
1

> <r_epik_Ionization_Penalty>
1.19986

> <r_epik_Ionization_Penalty_Charging>
0.069211

> <r_epik_Ionization_Penalty_Neutral>
1.13065

> <r_epik_State_Penalty>
0.776615

> <r_epik_Charging_Adjusted_Penalty>
0.845826

> <i_epik_Tot_Q>
2

> <i_epik_Tot_abs_Q>
2

> <r_epik_Metal_State_Penalty>
4.73559

> <b_epik_Metal_Only>
0

> <s_lp_Force_Field>
OPLS_2005

> <r_lp_Energy>
18.3539

> <b_lp_Chiralities_Consistent>
1

> <s_lp_Variant>
AV-unprocessed.smi:2786-4

> <Gold.Version>
5.8.1

> <Gold.Id.Protein>
6NUR|6NUR_protein|mol2

> <Gold.PLP.Fitness>
36.8666

> <Gold.PLP.PLP>
-24.8705

> <Gold.PLP.part.hbond>
-2.0000

> <Gold.PLP.part.metal>
0.0000

> <Gold.PLP.part.buried>
-4.1811

> <Gold.PLP.part.nonpolar>
-18.9392

> <Gold.PLP.part.repulsive>
0.0376

> <Gold.PLP.ligand.clash>
0.0000

> <Gold.PLP.ligand.torsion>
0.0071

> <Gold.PLP.Chemscore.Hbond>
3.0000

> <Gold.PLP.Chemscore.CHOScore>
1.0000

> <Gold.PLP.Chemscore.Metal>
0.0000

> <Gold.Chemscore.Hbonds>
donor molecule, donor type, donor heavy atom, donor atom, acceptor molecule, acceptor atom, score
      L1  H     9    21       P1  7948  2.00
      L1  H    12    26       P1 10747  1.00
      L1  C     3    16       P1 10186  1.00

> <Gold.PLP.Chemscore.Internal.Correction>
0.0103

> <Gold.Rescore>
     Score         DG    S(hbond)    S(metal)    S(lipo)     H(rot)  DE(clash)    DE(int)     intcor
     15.17     -15.25       1.99        0.00      48.61       1.00       0.08       0.01       ----

> <Gold.Chemscore.Fitness>
15.1653

> <Gold.Chemscore.DG>
-15.2543

> <Gold.Chemscore.ZeroCoef>
-5.4800

> <Gold.Chemscore.Hbond>
1.9899

> <Gold.Chemscore.Metal>
0.0000

> <Gold.Chemscore.Lipo>
48.6150

> <Gold.Chemscore.Internal_Hbond>
0.0000

> <Gold.Chemscore.DEClash>
0.0781

> <Gold.Chemscore.DEInternal>
0.0109

> <Gold.Chemscore.Rot>
1.0000

> <Gold.Chemscore.Internal.Correction>
   9.000000E+99

> <Gold.Chemscore.Hbonds>
donor molecule, donor type, donor heavy atom, donor atom, acceptor molecule, acceptor atom, score
      L1  H     9    21       P1  7948  0.97
      L1  H    12    26       P1 10747  0.99

> <Gold.Chemscore.Hbond.Weighted>
-6.6463

> <Gold.Chemscore.Metal.Weighted>
-0.0000

> <Gold.Chemscore.Lipo.Weighted>
-5.6880

> <Gold.Chemscore.Internal_Hbond.Weighted>
0.0000

> <Gold.Chemscore.DEClash.Weighted>
0.0781

> <Gold.Chemscore.DEInternal.Weighted>
0.0109

> <Gold.Chemscore.Rot.Weighted>
2.5600

> <Gold.Chemscore.Internal.Correction.Weighted>
   9.000000E+99

> <Gold.Protein.RotatedTorsions>
[ 6907 6896 6895 6894 ] final   36.65 input  -60.11 | X-H torsion
[ 7974 7965 7964 7962 ] final  -60.94 input  175.53 | X-H torsion
[ 8008 7997 7996 7995 ] final  102.60 input   59.86 | X-H torsion
[ 10167 10162 10161 10158 ] final  -18.51 input  -65.29 | X-H torsion
[ 10718 10713 10712 10709 ] final  159.99 input   66.30 | X-H torsion
[ 10763 10752 10751 10750 ] final   60.15 input  -60.55 | X-H torsion
[ 11005 11000 10999 10996 ] final  -98.24 input  -57.11 | X-H torsion

> <Gold.Protein.ActiveResidues>
 VAL166  LYS551  ARG553  GLY616  TRP617  ASP618  TYR619  PRO620  LYS621  CYS622 
 ASP623  PHE694  ASN695  SER759  ASP760  ASP761  ALA762  ILE779  LEU786  VAL792 
 PHE793  MET794  SER795  GLU796  ALA797  LYS798  CYS799  TRP800  GLU811  SER814 

> <Gold.Protein.RotatedAtoms>
  152.1326  134.9123  160.0557 H   0  0  0  0  0  0  0  0  0  0  0  0  # atno 6907 bound_to 6896
  152.0222  133.3898  159.4271 H   0  0  0  0  0  0  0  0  0  0  0  0  # atno 6908 bound_to 6896
  150.6857  134.3535  159.4963 H   0  0  0  0  0  0  0  0  0  0  0  0  # atno 6909 bound_to 6896
  145.8095  140.8607  143.0189 H   0  0  0  0  0  0  0  0  0  0  0  0  # atno 7974 bound_to 7965
  156.1407  140.3178  155.8492 H   0  0  0  0  0  0  0  0  0  0  0  0  # atno 8008 bound_to 7997
  155.4159  140.0509  157.3046 H   0  0  0  0  0  0  0  0  0  0  0  0  # atno 8009 bound_to 7997
  154.4974  140.2116  155.9430 H   0  0  0  0  0  0  0  0  0  0  0  0  # atno 8010 bound_to 7997
  140.7259  143.4909  150.9993 H   0  0  0  0  0  0  0  0  0  0  0  0  # atno 10167 bound_to 10162
  157.1566  131.0577  151.2253 H   0  0  0  0  0  0  0  0  0  0  0  0  # atno 10718 bound_to 10713
  152.9913  135.5546  154.5828 H   0  0  0  0  0  0  0  0  0  0  0  0  # atno 10763 bound_to 10752
  154.5206  135.2807  155.1268 H   0  0  0  0  0  0  0  0  0  0  0  0  # atno 10764 bound_to 10752
  154.2623  135.6379  153.5332 H   0  0  0  0  0  0  0  0  0  0  0  0  # atno 10765 bound_to 10752
  141.1351  133.8231  157.0813 H   0  0  0  0  0  0  0  0  0  0  0  0  # atno 11005 bound_to 11000
  144.6759  140.0375  143.7481 LP  0  0  0  0  0  0  0  0  0  0  0  0  # atno 17320 bound_to 7965
  145.9793  139.2928  143.1052 LP  0  0  0  0  0  0  0  0  0  0  0  0  # atno 17321 bound_to 7965
  139.8613  143.7310  152.3173 LP  0  0  0  0  0  0  0  0  0  0  0  0  # atno 17342 bound_to 10162
  139.7527  144.7529  151.0482 LP  0  0  0  0  0  0  0  0  0  0  0  0  # atno 17343 bound_to 10162
  157.4171  130.7417  149.6884 LP  0  0  0  0  0  0  0  0  0  0  0  0  # atno 17370 bound_to 10713
  155.9761  130.4080  150.3802 LP  0  0  0  0  0  0  0  0  0  0  0  0  # atno 17371 bound_to 10713
  140.0449  134.9835  157.1031 LP  0  0  0  0  0  0  0  0  0  0  0  0  # atno 17394 bound_to 11000
  140.4077  134.2014  155.7163 LP  0  0  0  0  0  0  0  0  0  0  0  0  # atno 17395 bound_to 11000

$$$$
