AV-unprocessed.smi:41|AV-procd|sdf|386|dock4
  -GOLD-   2262016243D 1   1.00000     0.00000
 Structure written by MMmdl.
 26 27  0  0  0  0  0  0  0  0  1 V2000
  149.2737  138.6940  153.7439 N   0  0  0  0  0  0  0  0  0  0  0  0
  149.9085  139.5623  154.5444 C   0  0  0  0  0  0  0  0  0  0  0  0
  151.0553  139.2090  155.0916 N   0  0  0  0  0  0  0  0  0  0  0  0
  151.7759  140.0260  155.9231 C   0  0  0  0  0  0  0  0  0  0  0  0
  152.8294  139.6320  156.4216 O   0  0  0  0  0  0  0  0  0  0  0  0
  151.2621  141.3238  156.1741 N   0  0  0  0  0  0  0  0  0  0  0  0
  151.9346  142.2254  157.1059 C   0  0  1  0  0  0  0  0  0  0  0  0
  151.1212  143.4890  157.4653 C   0  0  0  0  0  0  0  0  0  0  0  0
  151.7101  144.0383  159.0767 S   0  0  0  0  0  0  0  0  0  0  0  0
  152.6546  142.5042  159.2338 C   0  0  1  0  0  0  0  0  0  0  0  0
  152.6067  141.8910  160.6430 C   0  0  0  0  0  0  0  0  0  0  0  0
  151.6767  142.5607  161.4702 O   0  0  0  0  0  0  0  0  0  0  0  0
  152.2158  141.5453  158.2869 O   0  0  0  0  0  0  0  0  0  0  0  0
  150.0384  141.6897  155.6268 C   0  0  0  0  0  0  0  0  0  0  0  0
  149.3438  140.8643  154.8149 C   0  0  0  0  0  0  0  0  0  0  0  0
  148.1662  141.2406  154.2871 F   0  0  0  0  0  0  0  0  0  0  0  0
  152.8951  142.5395  156.6935 H   0  0  0  0  0  0  0  0  0  0  0  0
  153.6920  142.7397  158.9907 H   0  0  0  0  0  0  0  0  0  0  0  0
  148.3915  138.9501  153.3242 H   0  0  0  0  0  0  0  0  0  0  0  0
  149.6778  137.7864  153.5636 H   0  0  0  0  0  0  0  0  0  0  0  0
  151.2576  144.2552  156.7021 H   0  0  0  0  0  0  0  0  0  0  0  0
  150.0574  143.2795  157.5535 H   0  0  0  0  0  0  0  0  0  0  0  0
  152.3594  140.8301  160.5947 H   0  0  0  0  0  0  0  0  0  0  0  0
  153.5876  141.9694  161.1126 H   0  0  0  0  0  0  0  0  0  0  0  0
  152.1528  143.1054  162.0781 H   0  0  0  0  0  0  0  0  0  0  0  0
  149.6032  142.6518  155.8533 H   0  0  0  0  0  0  0  0  0  0  0  0
  1  2  1  0  0  0  0
  1 19  1  0  0  0  0
  1 20  1  0  0  0  0
  2 15  1  0  0  0  0
  2  3  2  0  0  0  0
  3  4  1  0  0  0  0
  4  5  2  0  0  0  0
  4  6  1  0  0  0  0
  6  7  1  0  0  0  0
  6 14  1  0  0  0  0
  7 17  1  0  0  0  0
  7 13  1  0  0  0  0
  7  8  1  0  0  0  0
  8  9  1  0  0  0  0
  8 21  1  0  0  0  0
  8 22  1  0  0  0  0
  9 10  1  0  0  0  0
 10 18  1  0  0  0  0
 10 11  1  0  0  0  0
 10 13  1  0  0  0  0
 11 12  1  0  0  0  0
 11 23  1  0  0  0  0
 11 24  1  0  0  0  0
 12 25  1  0  0  0  0
 14 15  2  0  0  0  0
 14 26  1  0  0  0  0
 15 16  1  0  0  0  0
M  END
> <s_m_source_file>
AV-unprocessed.smi

> <i_m_source_file_index>
41

> <i_lp_mmshare_version>
43012

> <i_f3d_flags>
0

> <s_epik_input>
W05IMl1jMW5jKD1PKW4oW2NIXWMxRilbQ0BASF0yW0NIMl1TW0NAQEhdKE8yKVtDSDJdW09IXQ==

> <s_epik_cmdline>
J2VwaWtfcHl0aG9uJywgJy1waCcsICc3LjAnLCAnLXRuJywgJzgnLCAnLW1hJywgJzIwMCcsICctbWV0YWxfYmluZGluZycsICctaW1hZScsICc8aW5maWxlLm1hZT4nLCAnLW9tYWUnLCAnPG91dGZpbGUubWFlPic=

> <r_lp_tautomer_probability>
1

> <r_epik_Ionization_Penalty>
0.000101883

> <r_epik_Ionization_Penalty_Charging>
1.48607e-08

> <r_epik_Ionization_Penalty_Neutral>
0.000101868

> <r_epik_State_Penalty>
-0

> <r_epik_Charging_Adjusted_Penalty>
1.48607e-08

> <i_epik_Tot_Q>
0

> <i_epik_Tot_abs_Q>
0

> <r_epik_Metal_State_Penalty>
-0

> <b_epik_Metal_Only>
0

> <s_epik_Chemistry_Notes>
This compound contains an acetal/aminal-like group ( X-CH(R)-Y where X, Y are N, S, or O) that may be acid/base labile, releasing an aldehyde.

> <s_lp_Force_Field>
OPLS_2005

> <r_lp_Energy>
14.0891

> <b_lp_Chiralities_Consistent>
1

> <s_lp_Variant>
AV-unprocessed.smi:41-4

> <Gold.Version>
5.8.1

> <Gold.Id.Protein>
6NUR|6NUR_protein|mol2

> <Gold.PLP.Fitness>
39.2723

> <Gold.PLP.PLP>
-33.0770

> <Gold.PLP.part.hbond>
-3.7544

> <Gold.PLP.part.metal>
0.0000

> <Gold.PLP.part.buried>
-4.5842

> <Gold.PLP.part.nonpolar>
-24.7672

> <Gold.PLP.part.repulsive>
0.1061

> <Gold.PLP.ligand.clash>
0.0000

> <Gold.PLP.ligand.torsion>
0.8691

> <Gold.PLP.Chemscore.Hbond>
1.6290

> <Gold.PLP.Chemscore.CHOScore>
1.0000

> <Gold.PLP.Chemscore.Metal>
0.0000

> <Gold.Chemscore.Hbonds>
donor molecule, donor type, donor heavy atom, donor atom, acceptor molecule, acceptor atom, score
      L1  H     1    20       P1  7948  0.06
      P1  H  6933  6945       L1    12  0.58
      P1  H  7997  8009       L1     5  1.00
      L1  C    14    26       P1  8028  1.00

> <Gold.PLP.Chemscore.Internal.Correction>
0.0464

> <Gold.Rescore>
     Score         DG    S(hbond)    S(metal)    S(lipo)     H(rot)  DE(clash)    DE(int)     intcor
      9.57     -12.24       1.77        0.00      55.24       2.19       0.55       2.11       ----

> <Gold.Chemscore.Fitness>
9.5674

> <Gold.Chemscore.DG>
-12.2360

> <Gold.Chemscore.ZeroCoef>
-5.4800

> <Gold.Chemscore.Hbond>
1.7683

> <Gold.Chemscore.Metal>
0.0000

> <Gold.Chemscore.Lipo>
55.2440

> <Gold.Chemscore.Internal_Hbond>
0.0000

> <Gold.Chemscore.DEClash>
0.5540

> <Gold.Chemscore.DEInternal>
2.1146

> <Gold.Chemscore.Rot>
2.1929

> <Gold.Chemscore.Internal.Correction>
   9.000000E+99

> <Gold.Chemscore.Hbonds>
donor molecule, donor type, donor heavy atom, donor atom, acceptor molecule, acceptor atom, score
      L1  H     1    20       P1  7948  0.06
      P1  H  6933  6945       L1    12  0.50
      P1  H  7997  8009       L1     5  0.95

> <Gold.Chemscore.Hbond.Weighted>
-5.9061

> <Gold.Chemscore.Metal.Weighted>
-0.0000

> <Gold.Chemscore.Lipo.Weighted>
-6.4635

> <Gold.Chemscore.Internal_Hbond.Weighted>
0.0000

> <Gold.Chemscore.DEClash.Weighted>
0.5540

> <Gold.Chemscore.DEInternal.Weighted>
2.1146

> <Gold.Chemscore.Rot.Weighted>
5.6137

> <Gold.Chemscore.Internal.Correction.Weighted>
   9.000000E+99

> <Gold.Protein.RotatedTorsions>
[ 6907 6896 6895 6894 ] final  -45.93 input  -60.11 | X-H torsion
[ 7974 7965 7964 7962 ] final   24.39 input  175.53 | X-H torsion
[ 8008 7997 7996 7995 ] final  174.14 input   59.86 | X-H torsion
[ 10167 10162 10161 10158 ] final -148.44 input  -65.29 | X-H torsion
[ 10718 10713 10712 10709 ] final    1.34 input   66.30 | X-H torsion
[ 10763 10752 10751 10750 ] final    3.03 input  -60.55 | X-H torsion
[ 11005 11000 10999 10996 ] final  111.76 input  -57.11 | X-H torsion

> <Gold.Protein.ActiveResidues>
 VAL166  LYS551  ARG553  GLY616  TRP617  ASP618  TYR619  PRO620  LYS621  CYS622 
 ASP623  PHE694  ASN695  SER759  ASP760  ASP761  ALA762  ILE779  LEU786  VAL792 
 PHE793  MET794  SER795  GLU796  ALA797  LYS798  CYS799  TRP800  GLU811  SER814 

> <Gold.Protein.RotatedAtoms>
  150.9167  134.8585  159.7461 H   0  0  0  0  0  0  0  0  0  0  0  0  # atno 6907 bound_to 6896
  152.4972  134.4278  159.9512 H   0  0  0  0  0  0  0  0  0  0  0  0  # atno 6908 bound_to 6896
  151.4316  133.3629  159.2804 H   0  0  0  0  0  0  0  0  0  0  0  0  # atno 6909 bound_to 6896
  146.1940  139.7612  142.8811 H   0  0  0  0  0  0  0  0  0  0  0  0  # atno 7974 bound_to 7965
  156.1004  140.1442  156.9475 H   0  0  0  0  0  0  0  0  0  0  0  0  # atno 8008 bound_to 7997
  154.4699  140.0913  156.7162 H   0  0  0  0  0  0  0  0  0  0  0  0  # atno 8009 bound_to 7997
  155.4769  140.3443  155.4336 H   0  0  0  0  0  0  0  0  0  0  0  0  # atno 8010 bound_to 7997
  139.7532  143.8487  152.2591 H   0  0  0  0  0  0  0  0  0  0  0  0  # atno 10167 bound_to 10162
  156.8467  130.5539  149.5673 H   0  0  0  0  0  0  0  0  0  0  0  0  # atno 10718 bound_to 10713
  153.2883  135.6946  153.7318 H   0  0  0  0  0  0  0  0  0  0  0  0  # atno 10763 bound_to 10752
  153.6279  135.3415  155.3033 H   0  0  0  0  0  0  0  0  0  0  0  0  # atno 10764 bound_to 10752
  154.8516  135.4402  154.1958 H   0  0  0  0  0  0  0  0  0  0  0  0  # atno 10765 bound_to 10752
  139.8911  134.9515  156.6482 H   0  0  0  0  0  0  0  0  0  0  0  0  # atno 11005 bound_to 11000
  145.3704  141.0341  143.3234 LP  0  0  0  0  0  0  0  0  0  0  0  0  # atno 17320 bound_to 7965
  144.8542  139.5275  143.6842 LP  0  0  0  0  0  0  0  0  0  0  0  0  # atno 17321 bound_to 7965
  139.8472  144.7182  150.9259 LP  0  0  0  0  0  0  0  0  0  0  0  0  # atno 17342 bound_to 10162
  140.7800  143.3931  151.1275 LP  0  0  0  0  0  0  0  0  0  0  0  0  # atno 17343 bound_to 10162
  156.0850  130.5851  150.9633 LP  0  0  0  0  0  0  0  0  0  0  0  0  # atno 17370 bound_to 10713
  157.6326  131.0919  150.8412 LP  0  0  0  0  0  0  0  0  0  0  0  0  # atno 17371 bound_to 10713
  140.7541  133.8873  155.8368 LP  0  0  0  0  0  0  0  0  0  0  0  0  # atno 17394 bound_to 11000
  140.9976  134.1193  157.4348 LP  0  0  0  0  0  0  0  0  0  0  0  0  # atno 17395 bound_to 11000

$$$$
