AV-unprocessed.smi:232|AV-procd|sdf|1767|dock7
  -GOLD-   2262020303D 1   1.00000     0.00000
 Structure written by MMmdl.
 52 55  0  0  0  0  0  0  0  0  1 V2000
  151.9065  145.1015  159.0189 C   0  0  0  0  0  0  0  0  0  0  0  0
  152.5168  143.7839  158.5215 C   0  0  0  0  0  0  0  0  0  0  0  0
  152.3732  142.5795  159.4801 C   0  0  2  0  0  0  0  0  0  0  0  0
  153.0405  142.8545  160.8304 C   0  0  0  0  0  0  0  0  0  0  0  0
  153.3065  141.4562  161.3736 C   0  0  0  0  0  0  0  0  0  0  0  0
  153.6443  140.6349  160.1222 C   0  0  1  0  0  0  0  0  0  0  0  0
  153.2300  139.1562  160.2816 C   0  0  0  0  0  0  0  0  0  0  0  0
  153.0240  141.3577  159.0055 N   0  0  0  0  0  0  0  0  0  0  0  0
  152.5222  140.6521  157.9644 C   0  0  0  0  0  0  0  0  0  0  0  0
  153.1400  139.5130  157.5565 N   0  0  0  0  0  0  0  0  0  0  0  0
  152.6589  138.8281  156.5147 C   0  0  0  0  0  0  0  0  0  0  0  0
  151.5999  139.1048  155.7506 N   0  0  0  0  0  0  0  0  0  0  0  0
  150.9818  140.2511  156.1567 C   0  0  0  0  0  0  0  0  0  0  0  0
  151.3726  141.0766  157.2468 C   0  0  0  0  0  0  0  0  0  0  0  0
  150.5048  142.1545  157.3657 N   0  0  0  0  0  0  0  0  0  0  0  0
  149.6491  141.9784  156.3963 C   0  0  0  0  0  0  0  0  0  0  0  0
  149.8745  140.8726  155.6066 N   0  0  0  0  0  0  0  0  0  0  0  0
  149.0858  140.4457  154.4640 C   0  0  0  0  0  0  0  0  0  0  0  0
  148.7816  138.9297  154.4494 C   0  0  2  0  0  0  0  0  0  0  0  0
  149.6407  138.3782  153.4722 O   0  0  0  0  0  0  0  0  0  0  0  0
  147.3361  138.5434  154.0563 C   0  0  2  0  0  0  0  0  0  0  0  0
  146.9449  137.0767  154.2663 C   0  0  0  0  0  0  0  0  0  0  0  0
  145.8603  136.8246  153.2310 C   0  0  0  0  0  0  0  0  0  0  0  0
  145.9629  138.0261  152.2922 C   0  0  0  0  0  0  0  0  0  0  0  0
  147.1848  138.6545  152.6480 O   0  0  0  0  0  0  0  0  0  0  0  0
  152.1803  145.9237  158.3579 H   0  0  0  0  0  0  0  0  0  0  0  0
  152.2608  145.3485  160.0197 H   0  0  0  0  0  0  0  0  0  0  0  0
  150.8184  145.0595  159.0427 H   0  0  0  0  0  0  0  0  0  0  0  0
  152.1021  143.5344  157.5439 H   0  0  0  0  0  0  0  0  0  0  0  0
  153.5804  143.9605  158.3575 H   0  0  0  0  0  0  0  0  0  0  0  0
  151.3167  142.3747  159.6592 H   0  0  0  0  0  0  0  0  0  0  0  0
  153.9891  143.3751  160.6891 H   0  0  0  0  0  0  0  0  0  0  0  0
  152.4204  143.4577  161.4940 H   0  0  0  0  0  0  0  0  0  0  0  0
  154.1009  141.4340  162.1201 H   0  0  0  0  0  0  0  0  0  0  0  0
  152.3969  141.0779  161.8427 H   0  0  0  0  0  0  0  0  0  0  0  0
  154.7214  140.6805  159.9582 H   0  0  0  0  0  0  0  0  0  0  0  0
  153.6801  138.7260  161.1765 H   0  0  0  0  0  0  0  0  0  0  0  0
  153.5557  138.5475  159.4384 H   0  0  0  0  0  0  0  0  0  0  0  0
  152.1484  139.0522  160.3747 H   0  0  0  0  0  0  0  0  0  0  0  0
  153.2030  137.9326  156.2535 H   0  0  0  0  0  0  0  0  0  0  0  0
  148.8304  142.6617  156.2224 H   0  0  0  0  0  0  0  0  0  0  0  0
  148.1583  141.0190  154.4320 H   0  0  0  0  0  0  0  0  0  0  0  0
  149.6488  140.7211  153.5708 H   0  0  0  0  0  0  0  0  0  0  0  0
  149.0385  138.4893  155.4134 H   0  0  0  0  0  0  0  0  0  0  0  0
  149.5391  138.8694  152.6713 H   0  0  0  0  0  0  0  0  0  0  0  0
  146.6116  139.1911  154.5548 H   0  0  0  0  0  0  0  0  0  0  0  0
  147.7942  136.4245  154.0597 H   0  0  0  0  0  0  0  0  0  0  0  0
  146.5997  136.8749  155.2799 H   0  0  0  0  0  0  0  0  0  0  0  0
  146.0398  135.8866  152.7045 H   0  0  0  0  0  0  0  0  0  0  0  0
  144.8707  136.7718  153.6860 H   0  0  0  0  0  0  0  0  0  0  0  0
  145.9576  137.7399  151.2401 H   0  0  0  0  0  0  0  0  0  0  0  0
  145.1383  138.7199  152.4625 H   0  0  0  0  0  0  0  0  0  0  0  0
  1  2  1  0  0  0  0
  1 26  1  0  0  0  0
  1 27  1  0  0  0  0
  1 28  1  0  0  0  0
  2  3  1  0  0  0  0
  2 29  1  0  0  0  0
  2 30  1  0  0  0  0
  3  8  1  0  0  0  0
  3  4  1  0  0  0  0
  3 31  1  0  0  0  0
  4  5  1  0  0  0  0
  4 32  1  0  0  0  0
  4 33  1  0  0  0  0
  5  6  1  0  0  0  0
  5 34  1  0  0  0  0
  5 35  1  0  0  0  0
  6  7  1  0  0  0  0
  6  8  1  0  0  0  0
  6 36  1  0  0  0  0
  7 37  1  0  0  0  0
  7 38  1  0  0  0  0
  7 39  1  0  0  0  0
  8  9  1  0  0  0  0
  9 14  1  0  0  0  0
  9 10  2  0  0  0  0
 10 11  1  0  0  0  0
 11 12  2  0  0  0  0
 11 40  1  0  0  0  0
 12 13  1  0  0  0  0
 13 17  1  0  0  0  0
 13 14  2  0  0  0  0
 14 15  1  0  0  0  0
 15 16  2  0  0  0  0
 16 17  1  0  0  0  0
 16 41  1  0  0  0  0
 17 18  1  0  0  0  0
 18 19  1  0  0  0  0
 18 42  1  0  0  0  0
 18 43  1  0  0  0  0
 19 20  1  0  0  0  0
 19 21  1  0  0  0  0
 19 44  1  0  0  0  0
 20 45  1  0  0  0  0
 21 25  1  0  0  0  0
 21 22  1  0  0  0  0
 21 46  1  0  0  0  0
 22 23  1  0  0  0  0
 22 47  1  0  0  0  0
 22 48  1  0  0  0  0
 23 24  1  0  0  0  0
 23 49  1  0  0  0  0
 23 50  1  0  0  0  0
 24 25  1  0  0  0  0
 24 51  1  0  0  0  0
 24 52  1  0  0  0  0
M  END
> <s_m_source_file>
AV-unprocessed.smi

> <i_m_source_file_index>
232

> <i_lp_mmshare_version>
43012

> <i_f3d_flags>
0

> <s_epik_input>
W0NIM11bQ0gyXVtDQEBIXTFbQ0gyXVtDSDJdW0NAQEhdKFtDSDNdKU4xYyhuW2NIXW4yKWMoYzIzKW5bY0hdbjNbQ0gyXVtDQEhdKFtPSF0pW0NAQEhdNFtDSDJdW0NIMl1bQ0gyXU80

> <s_epik_cmdline>
J2VwaWtfcHl0aG9uJywgJy1waCcsICc3LjAnLCAnLXRuJywgJzgnLCAnLW1hJywgJzIwMCcsICctbWV0YWxfYmluZGluZycsICctaW1hZScsICc8aW5maWxlLm1hZT4nLCAnLW9tYWUnLCAnPG91dGZpbGUubWFlPic=

> <r_lp_tautomer_probability>
1

> <r_epik_Ionization_Penalty>
0.00258048

> <r_epik_Ionization_Penalty_Charging>
0

> <r_epik_Ionization_Penalty_Neutral>
0.00258048

> <r_epik_State_Penalty>
0.00168551

> <r_epik_Charging_Adjusted_Penalty>
0.00168551

> <i_epik_Tot_Q>
0

> <i_epik_Tot_abs_Q>
0

> <r_epik_Metal_State_Penalty>
-0

> <b_epik_Metal_Only>
0

> <s_lp_Force_Field>
OPLS_2005

> <r_lp_Energy>
58.3797

> <b_lp_Chiralities_Consistent>
1

> <s_lp_Variant>
AV-unprocessed.smi:232-1

> <Gold.Version>
5.8.1

> <Gold.Id.Protein>
6NUR|6NUR_protein|mol2

> <Gold.PLP.Fitness>
51.5861

> <Gold.PLP.PLP>
-44.6292

> <Gold.PLP.part.hbond>
-3.0000

> <Gold.PLP.part.metal>
0.0000

> <Gold.PLP.part.buried>
-2.9570

> <Gold.PLP.part.nonpolar>
-40.5354

> <Gold.PLP.part.repulsive>
1.0565

> <Gold.PLP.ligand.clash>
0.0035

> <Gold.PLP.ligand.torsion>
1.2984

> <Gold.PLP.Chemscore.Hbond>
2.0000

> <Gold.PLP.Chemscore.CHOScore>
1.0000

> <Gold.PLP.Chemscore.Metal>
0.0000

> <Gold.Chemscore.Hbonds>
donor molecule, donor type, donor heavy atom, donor atom, acceptor molecule, acceptor atom, score
      L1  H    20    45       P1  7957  1.00
      P1  H  7997  8009       L1    10  1.00
      L1  C    16    41       P1  8028  1.00

> <Gold.PLP.Chemscore.Internal.Correction>
0.5572

> <Gold.Rescore>
     Score         DG    S(hbond)    S(metal)    S(lipo)     H(rot)  DE(clash)    DE(int)     intcor
     10.47     -16.58       1.18        0.00     108.91       2.18       0.86       5.26       ----

> <Gold.Chemscore.Fitness>
10.4689

> <Gold.Chemscore.DG>
-16.5830

> <Gold.Chemscore.ZeroCoef>
-5.4800

> <Gold.Chemscore.Hbond>
1.1782

> <Gold.Chemscore.Metal>
0.0000

> <Gold.Chemscore.Lipo>
108.9066

> <Gold.Chemscore.Internal_Hbond>
0.0000

> <Gold.Chemscore.DEClash>
0.8569

> <Gold.Chemscore.DEInternal>
5.2572

> <Gold.Chemscore.Rot>
2.1775

> <Gold.Chemscore.Internal.Correction>
   9.000000E+99

> <Gold.Chemscore.Hbonds>
donor molecule, donor type, donor heavy atom, donor atom, acceptor molecule, acceptor atom, score
      L1  H    20    45       P1  7957  0.88
      P1  H  7997  8009       L1    10  0.22

> <Gold.Chemscore.Hbond.Weighted>
-3.9353

> <Gold.Chemscore.Metal.Weighted>
-0.0000

> <Gold.Chemscore.Lipo.Weighted>
-12.7421

> <Gold.Chemscore.Internal_Hbond.Weighted>
0.0000

> <Gold.Chemscore.DEClash.Weighted>
0.8569

> <Gold.Chemscore.DEInternal.Weighted>
5.2572

> <Gold.Chemscore.Rot.Weighted>
5.5744

> <Gold.Chemscore.Internal.Correction.Weighted>
   9.000000E+99

> <Gold.Protein.RotatedTorsions>
[ 6907 6896 6895 6894 ] final  143.61 input  -60.11 | X-H torsion
[ 7974 7965 7964 7962 ] final -150.65 input  175.53 | X-H torsion
[ 8008 7997 7996 7995 ] final  149.01 input   59.86 | X-H torsion
[ 10167 10162 10161 10158 ] final -134.50 input  -65.29 | X-H torsion
[ 10718 10713 10712 10709 ] final -146.47 input   66.30 | X-H torsion
[ 10763 10752 10751 10750 ] final -141.63 input  -60.55 | X-H torsion
[ 11005 11000 10999 10996 ] final  -22.40 input  -57.11 | X-H torsion

> <Gold.Protein.ActiveResidues>
 VAL166  LYS551  ARG553  GLY616  TRP617  ASP618  TYR619  PRO620  LYS621  CYS622 
 ASP623  PHE694  ASN695  SER759  ASP760  ASP761  ALA762  ILE779  LEU786  VAL792 
 PHE793  MET794  SER795  GLU796  ALA797  LYS798  CYS799  TRP800  GLU811  SER814 

> <Gold.Protein.RotatedAtoms>
  152.2041  133.4862  159.5073 H   0  0  0  0  0  0  0  0  0  0  0  0  # atno 6907 bound_to 6896
  150.6976  134.1553  159.4165 H   0  0  0  0  0  0  0  0  0  0  0  0  # atno 6908 bound_to 6896
  151.9471  135.0186  160.0590 H   0  0  0  0  0  0  0  0  0  0  0  0  # atno 6909 bound_to 6896
  144.7895  140.4903  143.5783 H   0  0  0  0  0  0  0  0  0  0  0  0  # atno 7974 bound_to 7965
  156.2770  140.2113  156.5790 H   0  0  0  0  0  0  0  0  0  0  0  0  # atno 8008 bound_to 7997
  154.7074  140.0515  157.0540 H   0  0  0  0  0  0  0  0  0  0  0  0  # atno 8009 bound_to 7997
  155.0652  140.3171  155.4651 H   0  0  0  0  0  0  0  0  0  0  0  0  # atno 8010 bound_to 7997
  139.8874  143.6764  152.2618 H   0  0  0  0  0  0  0  0  0  0  0  0  # atno 10167 bound_to 10162
  156.3953  130.7906  151.2112 H   0  0  0  0  0  0  0  0  0  0  0  0  # atno 10718 bound_to 10713
  154.8538  135.3519  154.5899 H   0  0  0  0  0  0  0  0  0  0  0  0  # atno 10763 bound_to 10752
  153.6508  135.6994  153.5214 H   0  0  0  0  0  0  0  0  0  0  0  0  # atno 10764 bound_to 10752
  153.2895  135.4239  155.1112 H   0  0  0  0  0  0  0  0  0  0  0  0  # atno 10765 bound_to 10752
  140.8653  133.7759  156.0122 H   0  0  0  0  0  0  0  0  0  0  0  0  # atno 11005 bound_to 11000
  145.5832  139.1490  143.3224 LP  0  0  0  0  0  0  0  0  0  0  0  0  # atno 17320 bound_to 7965
  146.2141  140.5961  142.9046 LP  0  0  0  0  0  0  0  0  0  0  0  0  # atno 17321 bound_to 7965
  139.7140  144.7615  151.1064 LP  0  0  0  0  0  0  0  0  0  0  0  0  # atno 17342 bound_to 10162
  140.7733  143.5293  150.9442 LP  0  0  0  0  0  0  0  0  0  0  0  0  # atno 17343 bound_to 10162
  157.7501  131.0303  150.4132 LP  0  0  0  0  0  0  0  0  0  0  0  0  # atno 17370 bound_to 10713
  156.4401  130.3990  149.6703 LP  0  0  0  0  0  0  0  0  0  0  0  0  # atno 17371 bound_to 10713
  140.8636  134.2811  157.5223 LP  0  0  0  0  0  0  0  0  0  0  0  0  # atno 17394 bound_to 11000
  139.8709  134.9531  156.4134 LP  0  0  0  0  0  0  0  0  0  0  0  0  # atno 17395 bound_to 11000

$$$$
