AV-unprocessed.smi:2482|AV-procd|sdf|9783|dock7
  -GOLD-   2272013423D 1   1.00000     0.00000
 Structure written by MMmdl.
 34 35  0  0  0  0  0  0  0  0  3 V2000
  152.1846  143.6740  161.4804 C   0  0  0  0  0  0  0  0  0  0  0  0
  152.5630  142.2839  161.0039 C   0  0  0  0  0  0  0  0  0  0  0  0
  153.1753  141.5017  161.9187 N   0  0  0  0  0  0  0  0  0  0  0  0
  153.5353  140.2590  161.5418 C   0  0  0  0  0  0  0  0  0  0  0  0
  153.3017  139.7444  160.2526 C   0  0  0  0  0  0  0  0  0  0  0  0
  152.6547  140.5482  159.2876 C   0  0  0  0  0  0  0  0  0  0  0  0
  152.4307  140.0725  158.0515 N   0  5  0  0  0  0  0  0  0  0  0  0
  151.1881  140.1406  157.5153 C   0  0  0  0  0  0  0  0  0  0  0  0
  150.1139  139.8172  158.0268 O   0  0  0  0  0  0  0  0  0  0  0  0
  151.2225  140.7099  156.0791 C   0  0  2  0  0  0  0  0  0  0  0  0
  149.8346  140.8376  155.4073 C   0  0  0  0  0  0  0  0  0  0  0  0
  149.2744  139.5045  155.0815 N   0  3  1  0  0  0  0  0  0  0  0  0
  147.9179  139.5813  154.4999 C   0  0  0  0  0  0  0  0  0  0  0  0
  150.2154  138.7281  154.2432 C   0  0  0  0  0  0  0  0  0  0  0  0
  151.5840  138.6220  154.9355 C   0  0  0  0  0  0  0  0  0  0  0  0
  152.0738  139.9293  155.2309 O   0  0  0  0  0  0  0  0  0  0  0  0
  152.2829  141.8598  159.6829 C   0  0  0  0  0  0  0  0  0  0  0  0
  151.4972  142.9338  158.5714 Cl  0  0  0  0  0  0  0  0  0  0  0  0
  151.1060  143.8176  161.4118 H   0  0  0  0  0  0  0  0  0  0  0  0
  152.6738  144.4308  160.8666 H   0  0  0  0  0  0  0  0  0  0  0  0
  152.4814  143.8380  162.5171 H   0  0  0  0  0  0  0  0  0  0  0  0
  154.0259  139.6547  162.2902 H   0  0  0  0  0  0  0  0  0  0  0  0
  153.6155  138.7396  160.0098 H   0  0  0  0  0  0  0  0  0  0  0  0
  151.6568  141.7088  156.1435 H   0  0  0  0  0  0  0  0  0  0  0  0
  149.1462  141.3808  156.0567 H   0  0  0  0  0  0  0  0  0  0  0  0
  149.9243  141.4242  154.4916 H   0  0  0  0  0  0  0  0  0  0  0  0
  147.9297  140.1117  153.5468 H   0  0  0  0  0  0  0  0  0  0  0  0
  147.2401  140.1042  155.1755 H   0  0  0  0  0  0  0  0  0  0  0  0
  147.5150  138.5823  154.3317 H   0  0  0  0  0  0  0  0  0  0  0  0
  149.8137  137.7303  154.0626 H   0  0  0  0  0  0  0  0  0  0  0  0
  150.3250  139.2118  153.2712 H   0  0  0  0  0  0  0  0  0  0  0  0
  151.5189  138.0113  155.8368 H   0  0  0  0  0  0  0  0  0  0  0  0
  152.2964  138.1247  154.2772 H   0  0  0  0  0  0  0  0  0  0  0  0
  149.1888  139.0092  155.9584 H   0  0  0  0  0  0  0  0  0  0  0  0
  1  2  1  0  0  0  0
  1 19  1  0  0  0  0
  1 20  1  0  0  0  0
  1 21  1  0  0  0  0
  2 17  1  0  0  0  0
  2  3  2  0  0  0  0
  3  4  1  0  0  0  0
  4  5  2  0  0  0  0
  4 22  1  0  0  0  0
  5  6  1  0  0  0  0
  5 23  1  0  0  0  0
  6  7  1  0  0  0  0
  6 17  2  0  0  0  0
  7  8  1  0  0  0  0
  8  9  2  0  0  0  0
  8 10  1  0  0  0  0
 10 16  1  0  0  0  0
 10 11  1  0  0  0  0
 10 24  1  0  0  0  0
 11 12  1  0  0  0  0
 11 25  1  0  0  0  0
 11 26  1  0  0  0  0
 12 13  1  0  0  0  0
 12 14  1  0  0  0  0
 12 34  1  0  0  0  0
 13 27  1  0  0  0  0
 13 28  1  0  0  0  0
 13 29  1  0  0  0  0
 14 15  1  0  0  0  0
 14 30  1  0  0  0  0
 14 31  1  0  0  0  0
 15 16  1  0  0  0  0
 15 32  1  0  0  0  0
 15 33  1  0  0  0  0
 17 18  1  0  0  0  0
M  CHG  1   7  -1
M  CHG  1  12   1
M  END
> <s_m_source_file>
AV-unprocessed.smi

> <i_m_source_file_index>
2482

> <i_lp_mmshare_version>
43012

> <i_f3d_flags>
0

> <s_epik_input>
W0NIM11jMW5bY0hdW2NIXWMoYzFDbClbTkhdQyg9TylbQ0BASF0yW0NIMl1OKFtDSDNdKVtDSDJdW0NIMl1PMg==

> <s_epik_cmdline>
J2VwaWtfcHl0aG9uJywgJy1waCcsICc3LjAnLCAnLXRuJywgJzgnLCAnLW1hJywgJzIwMCcsICctbWV0YWxfYmluZGluZycsICctaW1hZScsICc8aW5maWxlLm1hZT4nLCAnLW9tYWUnLCAnPG91dGZpbGUubWFlPic=

> <r_epik_Ionization_Penalty>
6.9249

> <r_epik_Ionization_Penalty_Charging>
6.74596

> <r_epik_Ionization_Penalty_Neutral>
0.178941

> <r_epik_State_Penalty>
6.78185

> <r_epik_Charging_Adjusted_Penalty>
13.5278

> <i_epik_Tot_Q>
0

> <i_epik_Tot_abs_Q>
2

> <r_epik_Metal_State_Penalty>
2.70608

> <b_epik_Metal_Only>
1

> <s_lp_Force_Field>
OPLS_2005

> <r_lp_Energy>
12.3895

> <b_lp_Chiralities_Consistent>
1

> <s_lp_Variant>
AV-unprocessed.smi:2482-9

> <Gold.Version>
5.8.1

> <Gold.Id.Protein>
6NUR|6NUR_protein|mol2

> <Gold.PLP.Fitness>
43.8499

> <Gold.PLP.PLP>
-37.3770

> <Gold.PLP.part.hbond>
-2.0000

> <Gold.PLP.part.metal>
0.0000

> <Gold.PLP.part.buried>
-4.2989

> <Gold.PLP.part.nonpolar>
-30.2669

> <Gold.PLP.part.repulsive>
0.1015

> <Gold.PLP.ligand.clash>
0.0000

> <Gold.PLP.ligand.torsion>
0.8869

> <Gold.PLP.Chemscore.Hbond>
2.5920

> <Gold.PLP.Chemscore.CHOScore>
0.0000

> <Gold.PLP.Chemscore.Metal>
0.0000

> <Gold.Chemscore.Hbonds>
donor molecule, donor type, donor heavy atom, donor atom, acceptor molecule, acceptor atom, score
      P1  H  7989  7998       L1    16  0.73
      P1  H  7997  8010       L1     7  0.36

> <Gold.PLP.Chemscore.Internal.Correction>
0.4706

> <Gold.Rescore>
     Score         DG    S(hbond)    S(metal)    S(lipo)     H(rot)  DE(clash)    DE(int)     intcor
     16.60     -17.59       0.87        0.00     100.65       1.00       0.05       0.94       ----

> <Gold.Chemscore.Fitness>
16.6047

> <Gold.Chemscore.DG>
-17.5891

> <Gold.Chemscore.ZeroCoef>
-5.4800

> <Gold.Chemscore.Hbond>
0.8662

> <Gold.Chemscore.Metal>
0.0000

> <Gold.Chemscore.Lipo>
100.6483

> <Gold.Chemscore.Internal_Hbond>
0.0000

> <Gold.Chemscore.DEClash>
0.0456

> <Gold.Chemscore.DEInternal>
0.9387

> <Gold.Chemscore.Rot>
1.0000

> <Gold.Chemscore.Internal.Correction>
   9.000000E+99

> <Gold.Chemscore.Hbonds>
donor molecule, donor type, donor heavy atom, donor atom, acceptor molecule, acceptor atom, score
      P1  H  7989  7998       L1    16  0.04
      P1  H  7997  8010       L1     7  0.13

> <Gold.Chemscore.Hbond.Weighted>
-2.8932

> <Gold.Chemscore.Metal.Weighted>
-0.0000

> <Gold.Chemscore.Lipo.Weighted>
-11.7758

> <Gold.Chemscore.Internal_Hbond.Weighted>
0.0000

> <Gold.Chemscore.DEClash.Weighted>
0.0456

> <Gold.Chemscore.DEInternal.Weighted>
0.9387

> <Gold.Chemscore.Rot.Weighted>
2.5600

> <Gold.Chemscore.Internal.Correction.Weighted>
   9.000000E+99

> <Gold.Protein.RotatedTorsions>
[ 6907 6896 6895 6894 ] final  -54.81 input  -60.11 | X-H torsion
[ 7974 7965 7964 7962 ] final -130.96 input  175.53 | X-H torsion
[ 8008 7997 7996 7995 ] final   48.65 input   59.86 | X-H torsion
[ 10167 10162 10161 10158 ] final -156.68 input  -65.29 | X-H torsion
[ 10718 10713 10712 10709 ] final  -33.08 input   66.30 | X-H torsion
[ 10763 10752 10751 10750 ] final -135.96 input  -60.55 | X-H torsion
[ 11005 11000 10999 10996 ] final  168.19 input  -57.11 | X-H torsion

> <Gold.Protein.ActiveResidues>
 VAL166  LYS551  ARG553  GLY616  TRP617  ASP618  TYR619  PRO620  LYS621  CYS622 
 ASP623  PHE694  ASN695  SER759  ASP760  ASP761  ALA762  ILE779  LEU786  VAL792 
 PHE793  MET794  SER795  GLU796  ALA797  LYS798  CYS799  TRP800  GLU811  SER814 

> <Gold.Protein.RotatedAtoms>
  150.8306  134.7557  159.6849 H   0  0  0  0  0  0  0  0  0  0  0  0  # atno 6907 bound_to 6896
  152.4411  134.5586  159.9897 H   0  0  0  0  0  0  0  0  0  0  0  0  # atno 6908 bound_to 6896
  151.5748  133.3347  159.3032 H   0  0  0  0  0  0  0  0  0  0  0  0  # atno 6909 bound_to 6896
  144.9425  140.7255  143.4838 H   0  0  0  0  0  0  0  0  0  0  0  0  # atno 7974 bound_to 7965
  155.3892  140.3432  155.4250 H   0  0  0  0  0  0  0  0  0  0  0  0  # atno 8008 bound_to 7997
  156.1567  140.1588  156.8714 H   0  0  0  0  0  0  0  0  0  0  0  0  # atno 8009 bound_to 7997
  154.5101  140.0792  156.7955 H   0  0  0  0  0  0  0  0  0  0  0  0  # atno 8010 bound_to 7997
  139.6830  143.9548  152.2347 H   0  0  0  0  0  0  0  0  0  0  0  0  # atno 10167 bound_to 10162
  156.3670  130.4333  149.7576 H   0  0  0  0  0  0  0  0  0  0  0  0  # atno 10718 bound_to 10713
  154.8693  135.3687  154.4984 H   0  0  0  0  0  0  0  0  0  0  0  0  # atno 10763 bound_to 10752
  153.5626  135.7022  153.5545 H   0  0  0  0  0  0  0  0  0  0  0  0  # atno 10764 bound_to 10752
  153.3614  135.4045  155.1684 H   0  0  0  0  0  0  0  0  0  0  0  0  # atno 10765 bound_to 10752
  140.2846  134.7723  157.3787 H   0  0  0  0  0  0  0  0  0  0  0  0  # atno 11005 bound_to 11000
  145.2969  139.1864  143.4710 LP  0  0  0  0  0  0  0  0  0  0  0  0  # atno 17320 bound_to 7965
  146.3291  140.2954  142.8617 LP  0  0  0  0  0  0  0  0  0  0  0  0  # atno 17321 bound_to 7965
  139.9343  144.6721  150.8330 LP  0  0  0  0  0  0  0  0  0  0  0  0  # atno 17342 bound_to 10162
  140.7658  143.3287  151.2458 LP  0  0  0  0  0  0  0  0  0  0  0  0  # atno 17343 bound_to 10162
  156.4718  130.8000  151.3018 LP  0  0  0  0  0  0  0  0  0  0  0  0  # atno 17370 bound_to 10713
  157.7480  131.0033  150.3034 LP  0  0  0  0  0  0  0  0  0  0  0  0  # atno 17371 bound_to 10713
  140.1252  134.5168  155.8151 LP  0  0  0  0  0  0  0  0  0  0  0  0  # atno 17394 bound_to 11000
  141.2157  133.6770  156.6938 LP  0  0  0  0  0  0  0  0  0  0  0  0  # atno 17395 bound_to 11000

$$$$
