#       Name:                AV-unprocessed.smi:702
#       Creating user name   scv26
#       Creation time:       Fri Mar 27 00:40:40 2020


#       File generated by GOLD software.
#

@<TRIPOS>MOLECULE
AV-unprocessed.smi:702
    55    57     1
SMALL
NO_CHARGES


@<TRIPOS>ATOM
      1 ****        -1.2397  -0.7121   2.3043 C.3            1 S1                 0.0000
      2 ****        -0.7292  -0.0947   0.9874 C.3            1 S1                 0.0000
      3 ****         0.7370  -0.0406   1.0385 N.am           1 S1                 0.0000
      4 ****         1.4993   1.0628   1.0678 C.2            1 S1                 0.0000
      5 ****         1.0486   2.2077   1.0711 O.2            1 S1                 0.0000
      6 ****         2.8053   0.7448   1.0660 N.am           1 S1                 0.0000
      7 ****         3.9275   1.6165   1.0537 C.ar           1 S1                 0.0000
      8 ****         5.1499   1.1016   0.5680 C.ar           1 S1                 0.0000
      9 ****         6.2939   1.9252   0.5500 C.ar           1 S1                 0.0000
     10 ****         6.2159   3.1940   1.0053 N.pl3          1 S1                 1.0000
     11 ****         5.0745   3.7258   1.4925 C.ar           1 S1                 0.0000
     12 ****         3.8980   2.9502   1.5354 C.ar           1 S1                 0.0000
     13 ****        -1.2589  -0.8280  -0.3029 C.3            1 S1                 0.0000
     14 ****        -2.7537  -0.8807  -0.3211 N.3            1 S1                 0.0000
     15 ****        -3.3474  -1.6735  -1.4105 C.3            1 S1                 0.0000
     16 ****        -4.8767  -1.7758  -1.2896 C.3            1 S1                 0.0000
     17 ****        -5.4400  -0.4708  -1.2722 O.3            1 S1                 0.0000
     18 ****        -4.9470   0.3136  -0.1941 C.3            1 S1                 0.0000
     19 ****        -3.4157   0.4308  -0.2863 C.3            1 S1                 0.0000
     20 ****        -0.6669  -0.1294  -1.5692 C.3            1 S1                 0.0000
     21 ****         0.4101  -1.0528  -2.1427 C.3            1 S1                 0.0000
     22 ****        -0.0486  -2.4496  -1.7515 C.3            1 S1                 0.0000
     23 ****        -0.6365  -2.2631  -0.3520 C.3            1 S1                 0.0000
     24 ****        -2.3278  -0.6917   2.3628 H              1 S1                 0.0000
     25 ****        -0.8636  -0.1577   3.1647 H              1 S1                 0.0000
     26 ****        -0.9218  -1.7484   2.4177 H              1 S1                 0.0000
     27 ****        -1.0808   0.9355   0.9686 H              1 S1                 0.0000
     28 ****         1.2092  -0.9328   1.0326 H              1 S1                 0.0000
     29 ****         3.0192  -0.2387   0.9868 H              1 S1                 0.0000
     30 ****         5.2130   0.0857   0.2051 H              1 S1                 0.0000
     31 ****         7.2619   1.6088   0.1892 H              1 S1                 0.0000
     32 ****         5.1366   4.7479   1.8366 H              1 S1                 0.0000
     33 ****         3.0021   3.3890   1.9471 H              1 S1                 0.0000
     34 ****        -3.1100  -1.2383  -2.3800 H              1 S1                 0.0000
     35 ****        -2.9527  -2.6870  -1.4230 H              1 S1                 0.0000
     36 ****        -5.2871  -2.3285  -2.1349 H              1 S1                 0.0000
     37 ****        -5.1589  -2.3168  -0.3851 H              1 S1                 0.0000
     38 ****        -5.4047   1.3021  -0.2349 H              1 S1                 0.0000
     39 ****        -5.2416  -0.1352   0.7558 H              1 S1                 0.0000
     40 ****        -3.0941   1.0124   0.5741 H              1 S1                 0.0000
     41 ****        -3.1535   1.0084  -1.1731 H              1 S1                 0.0000
     42 ****        -1.4197   0.0258  -2.3396 H              1 S1                 0.0000
     43 ****        -0.2682   0.8639  -1.3614 H              1 S1                 0.0000
     44 ****         0.5303  -0.9374  -3.2201 H              1 S1                 0.0000
     45 ****         1.3720  -0.8368  -1.6764 H              1 S1                 0.0000
     46 ****        -0.8195  -2.7915  -2.4427 H              1 S1                 0.0000
     47 ****         0.7625  -3.1779  -1.7723 H              1 S1                 0.0000
     48 ****         0.1805  -2.3827   0.3581 H              1 S1                 0.0000
     49 ****        -1.3377  -3.0546  -0.0876 H              1 S1                 0.0000
     50 ****         7.0555   3.7738   0.9852 H              1 S1                 0.0000
     51 ****         0.0598   2.3559   1.0512 LP             1 S1                 0.0000
     52 ****         1.6710   2.9900   1.0936 LP             1 S1                 0.0000
     53 ****        -2.9318  -1.3568   0.5400 LP             1 S1                 0.0000
     54 ****        -6.4330  -0.5500  -1.1849 LP             1 S1                 0.0000
     55 ****        -5.2166  -0.0123  -2.1324 LP             1 S1                 0.0000
@<TRIPOS>BOND
    1    1    2 1     
    2    1   24 1     
    3    1   25 1     
    4    1   26 1     
    5    2    3 1     
    6    2   13 1     
    7    2   27 1     
    8    3    4 am    
    9    3   28 1     
   10    4    5 2     
   11    4    6 am    
   12    6    7 1     
   13    6   29 1     
   14    7   12 ar    
   15    7    8 ar    
   16    8    9 ar    
   17    8   30 1     
   18    9   10 ar    
   19    9   31 1     
   20   10   11 ar    
   21   10   50 1     
   22   11   12 ar    
   23   11   32 1     
   24   12   33 1     
   25   13   23 1     
   26   13   14 1     
   27   13   20 1     
   28   14   19 1     
   29   14   15 1     
   30   15   16 1     
   31   15   34 1     
   32   15   35 1     
   33   16   17 1     
   34   16   36 1     
   35   16   37 1     
   36   17   18 1     
   37   18   19 1     
   38   18   38 1     
   39   18   39 1     
   40   19   40 1     
   41   19   41 1     
   42   20   21 1     
   43   20   42 1     
   44   20   43 1     
   45   21   22 1     
   46   21   44 1     
   47   21   45 1     
   48   22   23 1     
   49   22   46 1     
   50   22   47 1     
   51   23   48 1     
   52   23   49 1     
   53    5   51 1     
   54    5   52 1     
   55   14   53 1     
   56   17   54 1     
   57   17   55 1     
@<TRIPOS>SUBSTRUCTURE
      1 S1             1
@<TRIPOS>SET
LONE_PAIRS      STATIC     ATOMS    <user>   **** ""
5 51 52 53 54 55
DONOR_HYDROGENS      STATIC     ATOMS    <user>   **** ""
3 28 29 50
ATOM$BLUE        STATIC     ATOMS    COLORGROUP SYSTEM
5 51 52 53 54 55
ATOM$RED        STATIC     ATOMS    COLORGROUP SYSTEM
3 28 29 50
