AV-unprocessed.smi:54|AV-procd|sdf|537|dock2
  -GOLD-   2262016423D 1   1.00000     0.00000
 Structure written by MMmdl.
 44 46  0  0  0  0  0  0  0  0  1 V2000
  144.6480  136.4063  159.6865 C   0  0  0  0  0  0  0  0  0  0  0  0
  145.7951  135.7052  160.4322 C   0  0  0  0  0  0  0  0  0  0  0  0
  145.3980  135.3696  161.8789 C   0  0  0  0  0  0  0  0  0  0  0  0
  147.0584  136.5718  160.4023 C   0  0  0  0  0  0  0  0  0  0  0  0
  147.5204  137.0913  161.4185 O   0  0  0  0  0  0  0  0  0  0  0  0
  147.6813  136.7276  159.1027 N   0  0  0  0  0  0  0  0  0  0  0  0
  148.7748  137.4716  158.8275 C   0  0  0  0  0  0  0  0  0  0  0  0
  148.7236  138.5539  158.0648 N   0  0  0  0  0  0  0  0  0  0  0  0
  149.9294  139.1719  157.8718 C   0  0  0  0  0  0  0  0  0  0  0  0
  151.1458  138.7694  158.3857 C   0  0  0  0  0  0  0  0  0  0  0  0
  152.1515  139.6398  157.9817 N   0  0  0  0  0  0  0  0  0  0  0  0
  151.5318  140.5161  157.2425 C   0  0  0  0  0  0  0  0  0  0  0  0
  150.1806  140.3032  157.1178 N   0  0  0  0  0  0  0  0  0  0  0  0
  149.2041  141.1132  156.3234 C   0  0  2  0  0  0  0  0  0  0  0  0
  147.9674  140.4783  156.3099 O   0  0  0  0  0  0  0  0  0  0  0  0
  147.2622  140.8528  155.1297 C   0  0  2  0  0  0  0  0  0  0  0  0
  146.5312  139.6223  154.5614 C   0  0  0  0  0  0  0  0  0  0  0  0
  146.2009  139.7840  153.1967 O   0  0  0  0  0  0  0  0  0  0  0  0
  148.2777  141.5249  154.1812 C   0  0  1  0  0  0  0  0  0  0  0  0
  148.0036  142.9115  154.1047 O   0  0  0  0  0  0  0  0  0  0  0  0
  149.6232  141.2975  154.8591 C   0  0  2  0  0  0  0  0  0  0  0  0
  150.2801  140.1665  154.3174 O   0  0  0  0  0  0  0  0  0  0  0  0
  151.2166  137.5925  159.2031 C   0  0  0  0  0  0  0  0  0  0  0  0
  152.2061  137.0917  159.7328 O   0  0  0  0  0  0  0  0  0  0  0  0
  149.9641  136.9897  159.3717 N   0  0  0  0  0  0  0  0  0  0  0  0
  149.1180  142.0607  156.8573 H   0  0  0  0  0  0  0  0  0  0  0  0
  146.5045  141.5747  155.4397 H   0  0  0  0  0  0  0  0  0  0  0  0
  148.2500  141.1253  153.1664 H   0  0  0  0  0  0  0  0  0  0  0  0
  150.2950  142.1523  154.7708 H   0  0  0  0  0  0  0  0  0  0  0  0
  144.9329  136.6543  158.6631 H   0  0  0  0  0  0  0  0  0  0  0  0
  144.3534  137.3315  160.1836 H   0  0  0  0  0  0  0  0  0  0  0  0
  143.7677  135.7652  159.6340 H   0  0  0  0  0  0  0  0  0  0  0  0
  146.0118  134.7689  159.9159 H   0  0  0  0  0  0  0  0  0  0  0  0
  146.2143  134.8805  162.4118 H   0  0  0  0  0  0  0  0  0  0  0  0
  144.5431  134.6933  161.9005 H   0  0  0  0  0  0  0  0  0  0  0  0
  145.1238  136.2651  162.4385 H   0  0  0  0  0  0  0  0  0  0  0  0
  147.2883  136.1865  158.3469 H   0  0  0  0  0  0  0  0  0  0  0  0
  152.0449  141.3358  156.7609 H   0  0  0  0  0  0  0  0  0  0  0  0
  147.1352  138.7243  154.6906 H   0  0  0  0  0  0  0  0  0  0  0  0
  145.6028  139.4619  155.1096 H   0  0  0  0  0  0  0  0  0  0  0  0
  145.3100  140.0934  153.1397 H   0  0  0  0  0  0  0  0  0  0  0  0
  147.3903  143.1364  154.7874 H   0  0  0  0  0  0  0  0  0  0  0  0
  149.6224  139.5327  154.0713 H   0  0  0  0  0  0  0  0  0  0  0  0
  149.9370  136.1529  159.9354 H   0  0  0  0  0  0  0  0  0  0  0  0
  1  2  1  0  0  0  0
  1 30  1  0  0  0  0
  1 31  1  0  0  0  0
  1 32  1  0  0  0  0
  2  3  1  0  0  0  0
  2  4  1  0  0  0  0
  2 33  1  0  0  0  0
  3 34  1  0  0  0  0
  3 35  1  0  0  0  0
  3 36  1  0  0  0  0
  4  5  2  0  0  0  0
  4  6  1  0  0  0  0
  6 37  1  0  0  0  0
  6  7  1  0  0  0  0
  7 25  1  0  0  0  0
  7  8  2  0  0  0  0
  8  9  1  0  0  0  0
  9 13  1  0  0  0  0
  9 10  2  0  0  0  0
 10 11  1  0  0  0  0
 10 23  1  0  0  0  0
 11 12  2  0  0  0  0
 12 13  1  0  0  0  0
 12 38  1  0  0  0  0
 13 14  1  0  0  0  0
 14 26  1  0  0  0  0
 14 21  1  0  0  0  0
 14 15  1  0  0  0  0
 15 16  1  0  0  0  0
 16 27  1  0  0  0  0
 16 17  1  0  0  0  0
 16 19  1  0  0  0  0
 17 18  1  0  0  0  0
 17 39  1  0  0  0  0
 17 40  1  0  0  0  0
 18 41  1  0  0  0  0
 19 28  1  0  0  0  0
 19 20  1  0  0  0  0
 19 21  1  0  0  0  0
 20 42  1  0  0  0  0
 21 29  1  0  0  0  0
 21 22  1  0  0  0  0
 22 43  1  0  0  0  0
 23 24  2  0  0  0  0
 23 25  1  0  0  0  0
 25 44  1  0  0  0  0
M  END
> <s_m_source_file>
AV-unprocessed.smi

> <i_m_source_file_index>
54

> <i_lp_mmshare_version>
43012

> <i_f3d_flags>
0

> <s_epik_input>
W0NIM11bQ0hdKFtDSDNdKUMoPU8pW05IXWMobjEpW25IXWMoPU8pYyhjMTIpbltjSF1uMltDQEBIXTNPW0NASF0oW0NIMl1bT0hdKVtDQEBIXShbT0hdKVtDQEhdM1tPSF0=

> <s_epik_cmdline>
J2VwaWtfcHl0aG9uJywgJy1waCcsICc3LjAnLCAnLXRuJywgJzgnLCAnLW1hJywgJzIwMCcsICctbWV0YWxfYmluZGluZycsICctaW1hZScsICc8aW5maWxlLm1hZT4nLCAnLW9tYWUnLCAnPG91dGZpbGUubWFlPic=

> <r_lp_tautomer_probability>
0.85571

> <r_epik_Ionization_Penalty>
0.0316551

> <r_epik_Ionization_Penalty_Charging>
0.0316043

> <r_epik_Ionization_Penalty_Neutral>
5.07097e-05

> <r_epik_State_Penalty>
3.15494e-07

> <r_epik_Charging_Adjusted_Penalty>
0.0316047

> <i_epik_Tot_Q>
0

> <i_epik_Tot_abs_Q>
0

> <r_epik_Metal_State_Penalty>
0.421206

> <b_epik_Metal_Only>
0

> <s_epik_Chemistry_Notes>
This compound contains an acetal/aminal-like group ( X-CH(R)-Y where X, Y are N, S, or O) that may be acid/base labile, releasing an aldehyde.

> <s_lp_Force_Field>
OPLS_2005

> <r_lp_Energy>
42.9464

> <b_lp_Chiralities_Consistent>
1

> <s_lp_Variant>
AV-unprocessed.smi:54-9

> <Gold.Version>
5.8.1

> <Gold.Id.Protein>
6NUR|6NUR_protein|mol2

> <Gold.PLP.Fitness>
44.8906

> <Gold.PLP.PLP>
-29.9448

> <Gold.PLP.part.hbond>
-8.2728

> <Gold.PLP.part.metal>
0.0000

> <Gold.PLP.part.buried>
-5.1115

> <Gold.PLP.part.nonpolar>
-16.6247

> <Gold.PLP.part.repulsive>
0.3647

> <Gold.PLP.ligand.clash>
0.0000

> <Gold.PLP.ligand.torsion>
1.1174

> <Gold.PLP.Chemscore.Hbond>
5.7009

> <Gold.PLP.Chemscore.CHOScore>
0.0000

> <Gold.PLP.Chemscore.Metal>
0.0000

> <Gold.Chemscore.Hbonds>
donor molecule, donor type, donor heavy atom, donor atom, acceptor molecule, acceptor atom, score
      L1  H    18    41       P1 10175  1.00
      P1  H  6896  6907       L1    24  0.96
      P1  H  6931  6943       L1     5  0.99
      P1  H  6934  6947       L1     5  0.85
      P1  H  7989  7998       L1    22  1.00
      P1  H  8022  8030       L1    20  0.82

> <Gold.PLP.Chemscore.Internal.Correction>
0.0779

> <Gold.Rescore>
     Score         DG    S(hbond)    S(metal)    S(lipo)     H(rot)  DE(clash)    DE(int)     intcor
      8.56     -11.48       3.65        0.00      35.57       4.05       0.33       2.59       ----

> <Gold.Chemscore.Fitness>
8.5553

> <Gold.Chemscore.DG>
-11.4751

> <Gold.Chemscore.ZeroCoef>
-5.4800

> <Gold.Chemscore.Hbond>
3.6526

> <Gold.Chemscore.Metal>
0.0000

> <Gold.Chemscore.Lipo>
35.5690

> <Gold.Chemscore.Internal_Hbond>
0.0000

> <Gold.Chemscore.DEClash>
0.3294

> <Gold.Chemscore.DEInternal>
2.5904

> <Gold.Chemscore.Rot>
4.0493

> <Gold.Chemscore.Internal.Correction>
   9.000000E+99

> <Gold.Chemscore.Hbonds>
donor molecule, donor type, donor heavy atom, donor atom, acceptor molecule, acceptor atom, score
      L1  H    18    41       P1 10175  1.00
      P1  H  6896  6907       L1    24  0.23
      P1  H  6931  6943       L1     5  0.92
      P1  H  6934  6947       L1     5  0.18
      P1  H  7989  7998       L1    22  0.34
      P1  H  8022  8030       L1    20  0.15

> <Gold.Chemscore.Hbond.Weighted>
-12.1997

> <Gold.Chemscore.Metal.Weighted>
-0.0000

> <Gold.Chemscore.Lipo.Weighted>
-4.1616

> <Gold.Chemscore.Internal_Hbond.Weighted>
0.0000

> <Gold.Chemscore.DEClash.Weighted>
0.3294

> <Gold.Chemscore.DEInternal.Weighted>
2.5904

> <Gold.Chemscore.Rot.Weighted>
10.3662

> <Gold.Chemscore.Internal.Correction.Weighted>
   9.000000E+99

> <Gold.Protein.RotatedTorsions>
[ 6907 6896 6895 6894 ] final   -2.92 input  -60.11 | X-H torsion
[ 7974 7965 7964 7962 ] final  136.01 input  175.53 | X-H torsion
[ 8008 7997 7996 7995 ] final -122.73 input   59.86 | X-H torsion
[ 10167 10162 10161 10158 ] final  -26.89 input  -65.29 | X-H torsion
[ 10718 10713 10712 10709 ] final   99.59 input   66.30 | X-H torsion
[ 10763 10752 10751 10750 ] final   78.63 input  -60.55 | X-H torsion
[ 11005 11000 10999 10996 ] final -110.98 input  -57.11 | X-H torsion

> <Gold.Protein.ActiveResidues>
 VAL166  LYS551  ARG553  GLY616  TRP617  ASP618  TYR619  PRO620  LYS621  CYS622 
 ASP623  PHE694  ASN695  SER759  ASP760  ASP761  ALA762  ILE779  LEU786  VAL792 
 PHE793  MET794  SER795  GLU796  ALA797  LYS798  CYS799  TRP800  GLU811  SER814 

> <Gold.Protein.RotatedAtoms>
  151.5220  135.1067  159.9880 H   0  0  0  0  0  0  0  0  0  0  0  0  # atno 6907 bound_to 6896
  152.4616  133.7830  159.6871 H   0  0  0  0  0  0  0  0  0  0  0  0  # atno 6908 bound_to 6896
  150.8581  133.7620  159.3027 H   0  0  0  0  0  0  0  0  0  0  0  0  # atno 6909 bound_to 6896
  144.9606  139.4714  143.5481 H   0  0  0  0  0  0  0  0  0  0  0  0  # atno 7974 bound_to 7965
  155.1690  140.0407  157.2859 H   0  0  0  0  0  0  0  0  0  0  0  0  # atno 8008 bound_to 7997
  154.6283  140.2518  155.7438 H   0  0  0  0  0  0  0  0  0  0  0  0  # atno 8009 bound_to 7997
  156.2471  140.2880  156.0623 H   0  0  0  0  0  0  0  0  0  0  0  0  # atno 8010 bound_to 7997
  140.7280  143.4140  151.1059 H   0  0  0  0  0  0  0  0  0  0  0  0  # atno 10167 bound_to 10162
  157.6872  131.0674  150.4972 H   0  0  0  0  0  0  0  0  0  0  0  0  # atno 10718 bound_to 10713
  153.0889  135.4870  154.8651 H   0  0  0  0  0  0  0  0  0  0  0  0  # atno 10763 bound_to 10752
  154.7245  135.3046  154.8996 H   0  0  0  0  0  0  0  0  0  0  0  0  # atno 10764 bound_to 10752
  153.9650  135.6808  153.4799 H   0  0  0  0  0  0  0  0  0  0  0  0  # atno 10765 bound_to 10752
  141.0761  133.9299  157.2387 H   0  0  0  0  0  0  0  0  0  0  0  0  # atno 11005 bound_to 11000
  146.3352  139.8754  142.8833 LP  0  0  0  0  0  0  0  0  0  0  0  0  # atno 17320 bound_to 7965
  145.2705  141.0107  143.3774 LP  0  0  0  0  0  0  0  0  0  0  0  0  # atno 17321 bound_to 7965
  139.7777  143.8401  152.3132 LP  0  0  0  0  0  0  0  0  0  0  0  0  # atno 17342 bound_to 10162
  139.8341  144.7240  150.9413 LP  0  0  0  0  0  0  0  0  0  0  0  0  # atno 17343 bound_to 10162
  156.5296  130.4181  149.6208 LP  0  0  0  0  0  0  0  0  0  0  0  0  # atno 17370 bound_to 10713
  156.3081  130.7214  151.2101 LP  0  0  0  0  0  0  0  0  0  0  0  0  # atno 17371 bound_to 10713
  139.9573  135.0162  156.9163 LP  0  0  0  0  0  0  0  0  0  0  0  0  # atno 17394 bound_to 11000
  140.5571  134.0571  155.7387 LP  0  0  0  0  0  0  0  0  0  0  0  0  # atno 17395 bound_to 11000

$$$$
