AV-unprocessed.smi:2760|AV-procd|sdf|10628|dock3
  -GOLD-   2272015 73D 1   1.00000     0.00000
 Structure written by MMmdl.
 32 33  0  0  0  0  0  0  0  0  1 V2000
  152.9464  136.6949  159.8377 O   0  0  0  0  0  0  0  0  0  0  0  0
  152.8632  137.7729  159.2533 C   0  0  0  0  0  0  0  0  0  0  0  0
  153.2663  139.0532  159.8340 C   0  0  0  0  0  0  0  0  0  0  0  0
  153.1437  140.2028  159.1227 C   0  0  0  0  0  0  0  0  0  0  0  0
  153.5327  141.5440  159.6518 C   0  0  0  0  0  0  0  0  0  0  0  0
  152.9893  142.0873  160.9557 C   0  0  0  0  0  0  0  0  0  0  0  0
  152.5720  142.7132  159.6471 C   0  0  0  0  0  0  0  0  0  0  0  0
  152.6282  140.1793  157.8191 N   0  0  0  0  0  0  0  0  0  0  0  0
  152.2617  139.0570  157.2827 C   0  0  0  0  0  0  0  0  0  0  0  0
  151.5629  138.7457  155.6353 S   0  0  0  0  0  0  0  0  0  0  0  0
  150.0157  139.6927  155.7190 C   0  0  0  0  0  0  0  0  0  0  0  0
  149.2189  139.5971  154.4136 C   0  0  0  0  0  0  0  0  0  0  0  0
  147.9031  140.0814  154.6268 O   0  0  0  0  0  0  0  0  0  0  0  0
  147.7247  141.4111  154.1646 C   0  0  0  0  0  0  0  0  0  0  0  0
  146.4659  142.0120  154.8022 C   0  0  0  0  0  0  0  0  0  0  0  0
  146.0836  143.0784  154.1006 F   0  0  0  0  0  0  0  0  0  0  0  0
  145.4762  141.1195  154.7972 F   0  0  0  0  0  0  0  0  0  0  0  0
  146.7197  142.3923  156.0541 F   0  0  0  0  0  0  0  0  0  0  0  0
  152.3784  137.8577  157.9934 N   0  0  0  0  0  0  0  0  0  0  0  0
  152.0859  137.0015  157.5454 H   0  0  0  0  0  0  0  0  0  0  0  0
  153.6610  139.0676  160.8391 H   0  0  0  0  0  0  0  0  0  0  0  0
  154.5731  141.7843  159.4383 H   0  0  0  0  0  0  0  0  0  0  0  0
  152.2467  141.5002  161.4919 H   0  0  0  0  0  0  0  0  0  0  0  0
  153.6735  142.6525  161.5853 H   0  0  0  0  0  0  0  0  0  0  0  0
  152.9791  143.6929  159.4068 H   0  0  0  0  0  0  0  0  0  0  0  0
  151.5521  142.5402  159.3095 H   0  0  0  0  0  0  0  0  0  0  0  0
  150.2425  140.7346  155.9470 H   0  0  0  0  0  0  0  0  0  0  0  0
  149.4144  139.3065  156.5424 H   0  0  0  0  0  0  0  0  0  0  0  0
  149.7143  140.1717  153.6294 H   0  0  0  0  0  0  0  0  0  0  0  0
  149.1801  138.5581  154.0829 H   0  0  0  0  0  0  0  0  0  0  0  0
  148.5955  142.0164  154.4222 H   0  0  0  0  0  0  0  0  0  0  0  0
  147.6310  141.4191  153.0776 H   0  0  0  0  0  0  0  0  0  0  0  0
  1  2  2  0  0  0  0
  2 19  1  0  0  0  0
  2  3  1  0  0  0  0
  3 21  1  0  0  0  0
  3  4  2  0  0  0  0
  4  5  1  0  0  0  0
  4  8  1  0  0  0  0
  5  7  1  0  0  0  0
  5  6  1  0  0  0  0
  5 22  1  0  0  0  0
  6  7  1  0  0  0  0
  6 23  1  0  0  0  0
  6 24  1  0  0  0  0
  7 25  1  0  0  0  0
  7 26  1  0  0  0  0
  8  9  2  0  0  0  0
  9 10  1  0  0  0  0
  9 19  1  0  0  0  0
 10 11  1  0  0  0  0
 11 12  1  0  0  0  0
 11 27  1  0  0  0  0
 11 28  1  0  0  0  0
 12 13  1  0  0  0  0
 12 29  1  0  0  0  0
 12 30  1  0  0  0  0
 13 14  1  0  0  0  0
 14 15  1  0  0  0  0
 14 31  1  0  0  0  0
 14 32  1  0  0  0  0
 15 16  1  0  0  0  0
 15 17  1  0  0  0  0
 15 18  1  0  0  0  0
 19 20  1  0  0  0  0
M  END
> <s_m_source_file>
AV-unprocessed.smi

> <i_m_source_file_index>
2760

> <i_lp_mmshare_version>
43012

> <i_f3d_flags>
0

> <s_epik_input>
W09IXWMxW2NIXWMoW0NIXTJbQ0gyXVtDSDJdMiluYyhuMSlTW0NIMl1bQ0gyXU9bQ0gyXUMoRikoRilG

> <s_epik_cmdline>
J2VwaWtfcHl0aG9uJywgJy1waCcsICc3LjAnLCAnLXRuJywgJzgnLCAnLW1hJywgJzIwMCcsICctbWV0YWxfYmluZGluZycsICctaW1hZScsICc8aW5maWxlLm1hZT4nLCAnLW9tYWUnLCAnPG91dGZpbGUubWFlPic=

> <r_lp_tautomer_probability>
0.660323

> <r_epik_Ionization_Penalty>
0.00540315

> <r_epik_Ionization_Penalty_Charging>
0.00540219

> <r_epik_Ionization_Penalty_Neutral>
9.53041e-07

> <r_epik_State_Penalty>
0.139188

> <r_epik_Charging_Adjusted_Penalty>
0.14459

> <i_epik_Tot_Q>
0

> <i_epik_Tot_abs_Q>
0

> <r_epik_Metal_State_Penalty>
0.790013

> <b_epik_Metal_Only>
0

> <s_lp_Force_Field>
OPLS_2005

> <r_lp_Energy>
15.5574

> <b_lp_Chiralities_Consistent>
1

> <s_lp_Variant>
AV-unprocessed.smi:2760-1

> <Gold.Version>
5.8.1

> <Gold.Id.Protein>
6NUR|6NUR_protein|mol2

> <Gold.PLP.Fitness>
37.5898

> <Gold.PLP.PLP>
-34.6370

> <Gold.PLP.part.hbond>
-2.0000

> <Gold.PLP.part.metal>
0.0000

> <Gold.PLP.part.buried>
-1.6058

> <Gold.PLP.part.nonpolar>
-31.4180

> <Gold.PLP.part.repulsive>
0.1843

> <Gold.PLP.ligand.clash>
0.0000

> <Gold.PLP.ligand.torsion>
0.7046

> <Gold.PLP.Chemscore.Hbond>
1.3876

> <Gold.PLP.Chemscore.CHOScore>
0.0000

> <Gold.PLP.Chemscore.Metal>
0.0000

> <Gold.Chemscore.Hbonds>
donor molecule, donor type, donor heavy atom, donor atom, acceptor molecule, acceptor atom, score
      P1  H  6896  6909       L1     1  1.00
      P1  H  7997  8009       L1     8  0.19

> <Gold.PLP.Chemscore.Internal.Correction>
0.1992

> <Gold.Rescore>
     Score         DG    S(hbond)    S(metal)    S(lipo)     H(rot)  DE(clash)    DE(int)     intcor
     10.58     -11.32       1.00        0.00      77.60       2.57       0.04       0.69       ----

> <Gold.Chemscore.Fitness>
10.5843

> <Gold.Chemscore.DG>
-11.3165

> <Gold.Chemscore.ZeroCoef>
-5.4800

> <Gold.Chemscore.Hbond>
0.9975

> <Gold.Chemscore.Metal>
0.0000

> <Gold.Chemscore.Lipo>
77.5969

> <Gold.Chemscore.Internal_Hbond>
0.0000

> <Gold.Chemscore.DEClash>
0.0429

> <Gold.Chemscore.DEInternal>
0.6893

> <Gold.Chemscore.Rot>
2.5680

> <Gold.Chemscore.Internal.Correction>
   9.000000E+99

> <Gold.Chemscore.Hbonds>
donor molecule, donor type, donor heavy atom, donor atom, acceptor molecule, acceptor atom, score
      P1  H  6896  6909       L1     1  0.95

> <Gold.Chemscore.Hbond.Weighted>
-3.3318

> <Gold.Chemscore.Metal.Weighted>
-0.0000

> <Gold.Chemscore.Lipo.Weighted>
-9.0788

> <Gold.Chemscore.Internal_Hbond.Weighted>
0.0000

> <Gold.Chemscore.DEClash.Weighted>
0.0429

> <Gold.Chemscore.DEInternal.Weighted>
0.6893

> <Gold.Chemscore.Rot.Weighted>
6.5741

> <Gold.Chemscore.Internal.Correction.Weighted>
   9.000000E+99

> <Gold.Protein.RotatedTorsions>
[ 6907 6896 6895 6894 ] final  166.90 input  -60.11 | X-H torsion
[ 7974 7965 7964 7962 ] final -116.59 input  175.53 | X-H torsion
[ 8008 7997 7996 7995 ] final  150.82 input   59.86 | X-H torsion
[ 10167 10162 10161 10158 ] final  171.00 input  -65.29 | X-H torsion
[ 10718 10713 10712 10709 ] final  117.67 input   66.30 | X-H torsion
[ 10763 10752 10751 10750 ] final   56.24 input  -60.55 | X-H torsion
[ 11005 11000 10999 10996 ] final -131.07 input  -57.11 | X-H torsion

> <Gold.Protein.ActiveResidues>
 VAL166  LYS551  ARG553  GLY616  TRP617  ASP618  TYR619  PRO620  LYS621  CYS622 
 ASP623  PHE694  ASN695  SER759  ASP760  ASP761  ALA762  ILE779  LEU786  VAL792 
 PHE793  MET794  SER795  GLU796  ALA797  LYS798  CYS799  TRP800  GLU811  SER814 

> <Gold.Protein.RotatedAtoms>
  151.8718  133.3477  159.3736 H   0  0  0  0  0  0  0  0  0  0  0  0  # atno 6907 bound_to 6896
  150.7151  134.5106  159.5614 H   0  0  0  0  0  0  0  0  0  0  0  0  # atno 6908 bound_to 6896
  152.2640  134.8005  160.0477 H   0  0  0  0  0  0  0  0  0  0  0  0  # atno 6909 bound_to 6896
  145.0949  140.8514  143.3960 H   0  0  0  0  0  0  0  0  0  0  0  0  # atno 7974 bound_to 7965
  156.2700  140.2064  156.6078 H   0  0  0  0  0  0  0  0  0  0  0  0  # atno 8008 bound_to 7997
  154.6855  140.0535  157.0334 H   0  0  0  0  0  0  0  0  0  0  0  0  # atno 8009 bound_to 7997
  155.0939  140.3199  155.4569 H   0  0  0  0  0  0  0  0  0  0  0  0  # atno 8010 bound_to 7997
  139.5034  144.3534  151.9899 H   0  0  0  0  0  0  0  0  0  0  0  0  # atno 10167 bound_to 10162
  157.6081  131.1040  150.7648 H   0  0  0  0  0  0  0  0  0  0  0  0  # atno 10718 bound_to 10713
  152.9829  135.5683  154.5197 H   0  0  0  0  0  0  0  0  0  0  0  0  # atno 10763 bound_to 10752
  154.4687  135.2784  155.1661 H   0  0  0  0  0  0  0  0  0  0  0  0  # atno 10764 bound_to 10752
  154.3218  135.6267  153.5564 H   0  0  0  0  0  0  0  0  0  0  0  0  # atno 10765 bound_to 10752
  140.9290  134.1344  157.4250 H   0  0  0  0  0  0  0  0  0  0  0  0  # atno 11005 bound_to 11000
  145.1022  139.2814  143.5680 LP  0  0  0  0  0  0  0  0  0  0  0  0  # atno 17320 bound_to 7965
  146.3531  140.0593  142.8630 LP  0  0  0  0  0  0  0  0  0  0  0  0  # atno 17321 bound_to 7965
  140.2971  144.3688  150.6071 LP  0  0  0  0  0  0  0  0  0  0  0  0  # atno 17342 bound_to 10162
  140.5902  143.2168  151.7267 LP  0  0  0  0  0  0  0  0  0  0  0  0  # atno 17343 bound_to 10162
  156.8032  130.4928  149.5366 LP  0  0  0  0  0  0  0  0  0  0  0  0  # atno 17370 bound_to 10713
  156.1174  130.6085  151.0141 LP  0  0  0  0  0  0  0  0  0  0  0  0  # atno 17371 bound_to 10713
  139.8792  134.9998  156.5977 LP  0  0  0  0  0  0  0  0  0  0  0  0  # atno 17394 bound_to 11000
  140.7887  133.8600  155.8628 LP  0  0  0  0  0  0  0  0  0  0  0  0  # atno 17395 bound_to 11000

$$$$
