#       Name:                AV-unprocessed.smi:1303
#       Creating user name   scv26
#       Creation time:       Fri Mar 27 04:58:53 2020


#       File generated by GOLD software.
#

@<TRIPOS>MOLECULE
AV-unprocessed.smi:1303
    46    47     1
SMALL
NO_CHARGES


@<TRIPOS>ATOM
      1 ****        -3.6122  -0.8440   3.5104 C.3            1 S1                 0.0000
      2 ****        -2.7341  -0.1523   2.4544 C.3            1 S1                 0.0000
      3 ****        -3.2524  -0.4221   1.0321 C.3            1 S1                 0.0000
      4 ****        -1.2710  -0.5942   2.5846 C.2            1 S1                 0.0000
      5 ****        -0.9710  -1.7850   2.4910 O.2            1 S1                 0.0000
      6 ****        -0.3671   0.3771   2.7862 N.am           1 S1                 0.0000
      7 ****         1.0753   0.1700   2.8738 C.3            1 S1                 0.0000
      8 ****         1.7572  -0.0998   1.5383 C.ar           1 S1                 0.0000
      9 ****         2.9712  -0.8131   1.5050 C.ar           1 S1                 0.0000
     10 ****         3.5801  -1.0437   0.2577 C.ar           1 S1                 0.0000
     11 ****         3.0585  -0.6168  -0.9111 N.ar           1 S1                 0.0000
     12 ****         1.8897   0.0703  -0.8947 C.ar           1 S1                 0.0000
     13 ****         1.3472   0.5022  -2.1244 N.3            1 S1                 0.0000
     14 ****         2.1903   0.4107  -3.3150 C.3            1 S1                 0.0000
     15 ****         1.5488   1.1746  -4.4856 C.3            1 S1                 0.0000
     16 ****         0.2291   0.6897  -4.7090 O.3            1 S1                 0.0000
     17 ****        -0.6068   0.8876  -3.5735 C.3            1 S1                 0.0000
     18 ****        -0.0409   0.1168  -2.3686 C.3            1 S1                 0.0000
     19 ****         1.2166   0.3590   0.3160 C.ar           1 S1                 0.0000
     20 ****        -3.2352  -0.6665   4.5184 H              1 S1                 0.0000
     21 ****        -3.6536  -1.9228   3.3547 H              1 S1                 0.0000
     22 ****        -4.6343  -0.4668   3.4733 H              1 S1                 0.0000
     23 ****        -2.7845   0.9234   2.6316 H              1 S1                 0.0000
     24 ****        -2.6247   0.0619   0.2823 H              1 S1                 0.0000
     25 ****        -4.2648  -0.0374   0.9073 H              1 S1                 0.0000
     26 ****        -3.2751  -1.4895   0.8082 H              1 S1                 0.0000
     27 ****        -0.6971   1.3290   2.8517 H              1 S1                 0.0000
     28 ****         1.5210   1.0639   3.3099 H              1 S1                 0.0000
     29 ****         1.2846  -0.6485   3.5647 H              1 S1                 0.0000
     30 ****         3.4277  -1.1778   2.4134 H              1 S1                 0.0000
     31 ****         4.5110  -1.5878   0.1962 H              1 S1                 0.0000
     32 ****         3.1780   0.8255  -3.1108 H              1 S1                 0.0000
     33 ****         2.3249  -0.6380  -3.5833 H              1 S1                 0.0000
     34 ****         1.5255   2.2468  -4.2844 H              1 S1                 0.0000
     35 ****         2.1374   1.0340  -5.3923 H              1 S1                 0.0000
     36 ****        -0.6891   1.9525  -3.3498 H              1 S1                 0.0000
     37 ****        -1.6109   0.5333  -3.8062 H              1 S1                 0.0000
     38 ****        -0.0786  -0.9559  -2.5621 H              1 S1                 0.0000
     39 ****        -0.6727   0.3036  -1.5015 H              1 S1                 0.0000
     40 ****         0.3016   0.9318   0.3101 H              1 S1                 0.0000
     41 ****        -1.6826  -2.4687   2.3294 LP             1 S1                 0.0000
     42 ****        -0.0158  -2.0682   2.5766 LP             1 S1                 0.0000
     43 ****         3.5261  -0.8040  -1.7750 LP             1 S1                 0.0000
     44 ****         1.3300   1.4871  -1.9521 LP             1 S1                 0.0000
     45 ****         0.2738  -0.2886  -4.9114 LP             1 S1                 0.0000
     46 ****        -0.1657   1.1739  -5.4898 LP             1 S1                 0.0000
@<TRIPOS>BOND
    1    1    2 1     
    2    1   20 1     
    3    1   21 1     
    4    1   22 1     
    5    2    3 1     
    6    2    4 1     
    7    2   23 1     
    8    3   24 1     
    9    3   25 1     
   10    3   26 1     
   11    4    5 2     
   12    4    6 am    
   13    6    7 1     
   14    6   27 1     
   15    7    8 1     
   16    7   28 1     
   17    7   29 1     
   18    8   19 ar    
   19    8    9 ar    
   20    9   10 ar    
   21    9   30 1     
   22   10   11 ar    
   23   10   31 1     
   24   11   12 ar    
   25   12   13 1     
   26   12   19 ar    
   27   13   18 1     
   28   13   14 1     
   29   14   15 1     
   30   14   32 1     
   31   14   33 1     
   32   15   16 1     
   33   15   34 1     
   34   15   35 1     
   35   16   17 1     
   36   17   18 1     
   37   17   36 1     
   38   17   37 1     
   39   18   38 1     
   40   18   39 1     
   41   19   40 1     
   42    5   41 1     
   43    5   42 1     
   44   11   43 1     
   45   13   44 1     
   46   16   45 1     
   47   16   46 1     
@<TRIPOS>SUBSTRUCTURE
      1 S1             1
@<TRIPOS>SET
LONE_PAIRS      STATIC     ATOMS    <user>   **** ""
6 41 42 43 44 45 46
DONOR_HYDROGENS      STATIC     ATOMS    <user>   **** ""
1 27
ATOM$BLUE        STATIC     ATOMS    COLORGROUP SYSTEM
6 41 42 43 44 45 46
ATOM$RED        STATIC     ATOMS    COLORGROUP SYSTEM
1 27
