AV-unprocessed.smi:126|AV-procd|sdf|1151|dock3
  -GOLD-   2262018283D 1   1.00000     0.00000
 Structure written by MMmdl.
 40 42  0  0  0  0  0  0  0  0  1 V2000
  152.0949  136.9086  155.5887 O   0  0  0  0  0  0  0  0  0  0  0  0
  151.3581  136.9333  154.6017 C   0  0  0  0  0  0  0  0  0  0  0  0
  151.2275  138.2122  153.7596 C   0  0  0  0  0  0  0  0  0  0  0  0
  150.6851  139.3630  154.5145 N   0  0  0  0  0  0  0  0  0  0  0  0
  149.3279  139.7250  154.3285 C   0  0  0  0  0  0  0  0  0  0  0  0
  148.6021  139.1058  153.5494 O   0  0  0  0  0  0  0  0  0  0  0  0
  148.8648  140.8594  155.1198 C   0  0  0  0  0  0  0  0  0  0  0  0
  147.5931  141.2776  155.0023 F   0  0  0  0  0  0  0  0  0  0  0  0
  149.6937  141.4987  155.9707 C   0  0  0  0  0  0  0  0  0  0  0  0
  151.0140  141.1272  156.1499 N   0  0  0  0  0  0  0  0  0  0  0  0
  151.9260  141.8457  157.1203 C   0  0  2  0  0  0  0  0  0  0  0  0
  152.3004  140.9226  158.2932 C   0  0  0  0  0  0  0  0  0  0  0  0
  152.0273  141.7962  159.5007 C   0  0  0  0  0  0  0  0  0  0  0  0
  150.8870  142.6708  159.0013 C   0  0  0  0  0  0  0  0  0  0  0  0
  151.2659  142.9554  157.6606 O   0  0  0  0  0  0  0  0  0  0  0  0
  151.5377  140.0392  155.4191 C   0  0  0  0  0  0  0  0  0  0  0  0
  152.7083  139.6841  155.5741 O   0  0  0  0  0  0  0  0  0  0  0  0
  150.5952  135.9024  154.1948 N   0  0  0  0  0  0  0  0  0  0  0  0
  150.5047  134.5943  154.7429 C   0  0  0  0  0  0  0  0  0  0  0  0
  149.8015  133.6271  153.9940 C   0  0  0  0  0  0  0  0  0  0  0  0
  149.6861  132.3046  154.4639 C   0  0  0  0  0  0  0  0  0  0  0  0
  150.2837  131.9359  155.6836 C   0  0  0  0  0  0  0  0  0  0  0  0
  151.0021  132.8892  156.4293 C   0  0  0  0  0  0  0  0  0  0  0  0
  151.1185  134.2126  155.9611 C   0  0  0  0  0  0  0  0  0  0  0  0
  152.2037  138.4598  153.3385 H   0  0  0  0  0  0  0  0  0  0  0  0
  150.6148  137.9836  152.8864 H   0  0  0  0  0  0  0  0  0  0  0  0
  149.2893  142.3310  156.5257 H   0  0  0  0  0  0  0  0  0  0  0  0
  152.7789  142.1905  156.5330 H   0  0  0  0  0  0  0  0  0  0  0  0
  151.6513  140.0454  158.3041 H   0  0  0  0  0  0  0  0  0  0  0  0
  153.3380  140.5957  158.2201 H   0  0  0  0  0  0  0  0  0  0  0  0
  151.7698  141.2251  160.3928 H   0  0  0  0  0  0  0  0  0  0  0  0
  152.8998  142.4110  159.7253 H   0  0  0  0  0  0  0  0  0  0  0  0
  149.9437  142.1234  159.0179 H   0  0  0  0  0  0  0  0  0  0  0  0
  150.7662  143.5830  159.5858 H   0  0  0  0  0  0  0  0  0  0  0  0
  149.9617  136.0971  153.4332 H   0  0  0  0  0  0  0  0  0  0  0  0
  149.3410  133.8979  153.0550 H   0  0  0  0  0  0  0  0  0  0  0  0
  149.1404  131.5725  153.8873 H   0  0  0  0  0  0  0  0  0  0  0  0
  150.1972  130.9213  156.0437 H   0  0  0  0  0  0  0  0  0  0  0  0
  151.4704  132.6044  157.3599 H   0  0  0  0  0  0  0  0  0  0  0  0
  151.6953  134.9128  156.5454 H   0  0  0  0  0  0  0  0  0  0  0  0
  1  2  2  0  0  0  0
  2  3  1  0  0  0  0
  2 18  1  0  0  0  0
  3  4  1  0  0  0  0
  3 25  1  0  0  0  0
  3 26  1  0  0  0  0
  4 16  1  0  0  0  0
  4  5  1  0  0  0  0
  5  6  2  0  0  0  0
  5  7  1  0  0  0  0
  7  8  1  0  0  0  0
  7  9  2  0  0  0  0
  9 10  1  0  0  0  0
  9 27  1  0  0  0  0
 10 11  1  0  0  0  0
 10 16  1  0  0  0  0
 11 15  1  0  0  0  0
 11 12  1  0  0  0  0
 11 28  1  0  0  0  0
 12 13  1  0  0  0  0
 12 29  1  0  0  0  0
 12 30  1  0  0  0  0
 13 14  1  0  0  0  0
 13 31  1  0  0  0  0
 13 32  1  0  0  0  0
 14 15  1  0  0  0  0
 14 33  1  0  0  0  0
 14 34  1  0  0  0  0
 16 17  2  0  0  0  0
 18 19  1  0  0  0  0
 18 35  1  0  0  0  0
 19 24  1  0  0  0  0
 19 20  2  0  0  0  0
 20 21  1  0  0  0  0
 20 36  1  0  0  0  0
 21 22  2  0  0  0  0
 21 37  1  0  0  0  0
 22 23  1  0  0  0  0
 22 38  1  0  0  0  0
 23 24  2  0  0  0  0
 23 39  1  0  0  0  0
 24 40  1  0  0  0  0
M  END
> <s_m_source_file>
AV-unprocessed.smi

> <i_m_source_file_index>
126

> <i_lp_mmshare_version>
43012

> <i_f3d_flags>
0

> <s_epik_input>
W2NIXTFbY0hdW2NIXVtjSF1bY0hdYzFbTkhdQyg9TylbQ0gyXW4yYyg9TyljKEYpW2NIXW4oYzI9TylbQ0BASF0zW0NIMl1bQ0gyXVtDSDJdTzM=

> <s_epik_cmdline>
J2VwaWtfcHl0aG9uJywgJy1waCcsICc3LjAnLCAnLXRuJywgJzgnLCAnLW1hJywgJzIwMCcsICctbWV0YWxfYmluZGluZycsICctaW1hZScsICc8aW5maWxlLm1hZT4nLCAnLW9tYWUnLCAnPG91dGZpbGUubWFlPic=

> <r_lp_tautomer_probability>
1

> <r_epik_Ionization_Penalty>
1.86934e-06

> <r_epik_Ionization_Penalty_Charging>
3.88729e-08

> <r_epik_Ionization_Penalty_Neutral>
1.83046e-06

> <r_epik_State_Penalty>
-0

> <r_epik_Charging_Adjusted_Penalty>
3.88729e-08

> <i_epik_Tot_Q>
0

> <i_epik_Tot_abs_Q>
0

> <r_epik_Metal_State_Penalty>
-0

> <b_epik_Metal_Only>
0

> <s_epik_Chemistry_Notes>
This compound contains an acetal/aminal-like group ( X-CH(R)-Y where X, Y are N, S, or O) that may be acid/base labile, releasing an aldehyde.

> <s_lp_Force_Field>
OPLS_2005

> <r_lp_Energy>
33.0924

> <b_lp_Chiralities_Consistent>
1

> <s_lp_Variant>
AV-unprocessed.smi:126-1

> <Gold.Version>
5.8.1

> <Gold.Id.Protein>
6NUR|6NUR_protein|mol2

> <Gold.PLP.Fitness>
50.5482

> <Gold.PLP.PLP>
-39.5484

> <Gold.PLP.part.hbond>
-4.0000

> <Gold.PLP.part.metal>
0.0000

> <Gold.PLP.part.buried>
-3.7621

> <Gold.PLP.part.nonpolar>
-33.5370

> <Gold.PLP.part.repulsive>
1.7310

> <Gold.PLP.ligand.clash>
0.0000

> <Gold.PLP.ligand.torsion>
0.3274

> <Gold.PLP.Chemscore.Hbond>
2.9120

> <Gold.PLP.Chemscore.CHOScore>
0.9664

> <Gold.PLP.Chemscore.Metal>
0.0000

> <Gold.Chemscore.Hbonds>
donor molecule, donor type, donor heavy atom, donor atom, acceptor molecule, acceptor atom, score
      L1  H    18    35       P1  7948  0.60
      P1  H  7997  8008       L1    17  1.00
      P1  H 10752 10765       L1     1  0.79
      L1  C     9    27       P1  8028  0.85

> <Gold.PLP.Chemscore.Internal.Correction>
0.0196

> <Gold.Rescore>
     Score         DG    S(hbond)    S(metal)    S(lipo)     H(rot)  DE(clash)    DE(int)     intcor
     10.36     -14.96       1.65        0.00      70.16       1.66       0.63       3.96       ----

> <Gold.Chemscore.Fitness>
10.3614

> <Gold.Chemscore.DG>
-14.9551

> <Gold.Chemscore.ZeroCoef>
-5.4800

> <Gold.Chemscore.Hbond>
1.6531

> <Gold.Chemscore.Metal>
0.0000

> <Gold.Chemscore.Lipo>
70.1606

> <Gold.Chemscore.Internal_Hbond>
0.0000

> <Gold.Chemscore.DEClash>
0.6350

> <Gold.Chemscore.DEInternal>
3.9587

> <Gold.Chemscore.Rot>
1.6621

> <Gold.Chemscore.Internal.Correction>
   9.000000E+99

> <Gold.Chemscore.Hbonds>
donor molecule, donor type, donor heavy atom, donor atom, acceptor molecule, acceptor atom, score
      L1  H    18    35       P1  7948  0.04
      P1  H  7997  8008       L1    17  1.00
      P1  H 10752 10765       L1     1  0.18

> <Gold.Chemscore.Hbond.Weighted>
-5.5212

> <Gold.Chemscore.Metal.Weighted>
-0.0000

> <Gold.Chemscore.Lipo.Weighted>
-8.2088

> <Gold.Chemscore.Internal_Hbond.Weighted>
0.0000

> <Gold.Chemscore.DEClash.Weighted>
0.6350

> <Gold.Chemscore.DEInternal.Weighted>
3.9587

> <Gold.Chemscore.Rot.Weighted>
4.2550

> <Gold.Chemscore.Internal.Correction.Weighted>
   9.000000E+99

> <Gold.Protein.RotatedTorsions>
[ 6907 6896 6895 6894 ] final  -72.88 input  -60.11 | X-H torsion
[ 7974 7965 7964 7962 ] final   99.81 input  175.53 | X-H torsion
[ 8008 7997 7996 7995 ] final  -32.38 input   59.86 | X-H torsion
[ 10167 10162 10161 10158 ] final -174.36 input  -65.29 | X-H torsion
[ 10718 10713 10712 10709 ] final -142.49 input   66.30 | X-H torsion
[ 10763 10752 10751 10750 ] final -146.18 input  -60.55 | X-H torsion
[ 11005 11000 10999 10996 ] final  159.02 input  -57.11 | X-H torsion

> <Gold.Protein.ActiveResidues>
 VAL166  LYS551  ARG553  GLY616  TRP617  ASP618  TYR619  PRO620  LYS621  CYS622 
 ASP623  PHE694  ASN695  SER759  ASP760  ASP761  ALA762  ILE779  LEU786  VAL792 
 PHE793  MET794  SER795  GLU796  ALA797  LYS798  CYS799  TRP800  GLU811  SER814 

> <Gold.Protein.RotatedAtoms>
  150.7152  134.5097  159.5601 H   0  0  0  0  0  0  0  0  0  0  0  0  # atno 6907 bound_to 6896
  152.2677  134.7964  160.0429 H   0  0  0  0  0  0  0  0  0  0  0  0  # atno 6908 bound_to 6896
  151.8655  133.3430  159.3754 H   0  0  0  0  0  0  0  0  0  0  0  0  # atno 6909 bound_to 6896
  145.3940  139.2358  143.3336 H   0  0  0  0  0  0  0  0  0  0  0  0  # atno 7974 bound_to 7965
  154.4182  140.1739  156.1718 H   0  0  0  0  0  0  0  0  0  0  0  0  # atno 8008 bound_to 7997
  155.9754  140.3382  155.6590 H   0  0  0  0  0  0  0  0  0  0  0  0  # atno 8009 bound_to 7997
  155.6570  140.0696  157.2558 H   0  0  0  0  0  0  0  0  0  0  0  0  # atno 8010 bound_to 7997
  139.5638  144.1805  152.1280 H   0  0  0  0  0  0  0  0  0  0  0  0  # atno 10167 bound_to 10162
  156.3466  130.7665  151.1811 H   0  0  0  0  0  0  0  0  0  0  0  0  # atno 10718 bound_to 10713
  154.8348  135.3393  154.6622 H   0  0  0  0  0  0  0  0  0  0  0  0  # atno 10763 bound_to 10752
  153.7238  135.6956  153.5011 H   0  0  0  0  0  0  0  0  0  0  0  0  # atno 10764 bound_to 10752
  153.2362  135.4400  155.0602 H   0  0  0  0  0  0  0  0  0  0  0  0  # atno 10765 bound_to 10752
  140.1921  134.8399  157.2924 H   0  0  0  0  0  0  0  0  0  0  0  0  # atno 11005 bound_to 11000
  146.2784  140.4627  142.8786 LP  0  0  0  0  0  0  0  0  0  0  0  0  # atno 17320 bound_to 7965
  144.8420  140.6872  143.6223 LP  0  0  0  0  0  0  0  0  0  0  0  0  # atno 17321 bound_to 7965
  140.1324  144.5276  150.6794 LP  0  0  0  0  0  0  0  0  0  0  0  0  # atno 17342 bound_to 10162
  140.6920  143.2381  151.5105 LP  0  0  0  0  0  0  0  0  0  0  0  0  # atno 17343 bound_to 10162
  157.7455  131.0439  150.4769 LP  0  0  0  0  0  0  0  0  0  0  0  0  # atno 17370 bound_to 10713
  156.4957  130.4105  149.6381 LP  0  0  0  0  0  0  0  0  0  0  0  0  # atno 17371 bound_to 10713
  140.2148  134.4095  155.7595 LP  0  0  0  0  0  0  0  0  0  0  0  0  # atno 17394 bound_to 11000
  141.2226  133.7136  156.8396 LP  0  0  0  0  0  0  0  0  0  0  0  0  # atno 17395 bound_to 11000

$$$$
