#       Name:                AV-unprocessed.smi:2329
#       Creating user name   scv26
#       Creation time:       Fri Mar 27 12:52:30 2020


#       File generated by GOLD software.
#

@<TRIPOS>MOLECULE
AV-unprocessed.smi:2329
    50    53     1
SMALL
NO_CHARGES


@<TRIPOS>ATOM
      1 ****        -5.2795   2.9070  -0.7504 C.3            1 S1                 0.0000
      2 ****        -4.5616   1.6711  -0.2509 C.ar           1 S1                 0.0000
      3 ****        -5.2644   0.4772   0.0052 C.ar           1 S1                 0.0000
      4 ****        -4.5371  -0.6340   0.4682 C.ar           1 S1                 0.0000
      5 ****        -3.1473  -0.5065   0.6548 C.ar           1 S1                 0.0000
      6 ****        -2.5193   0.7278   0.3749 C.ar           1 S1                 0.0000
      7 ****        -1.1170   0.7492   0.5896 N.am           1 S1                 0.0000
      8 ****        -0.2518   1.7595   0.3758 C.2            1 S1                 0.0000
      9 ****        -0.5706   2.8978   0.0374 O.2            1 S1                 0.0000
     10 ****         1.0357   1.4253   0.5703 N.am           1 S1                 0.0000
     11 ****         2.2148   2.2802   0.4246 C.3            1 S1                 0.0000
     12 ****         3.4990   1.5530   0.8247 C.3            1 S1                 0.0000
     13 ****         4.6925   1.0657   0.0836 C.3            1 S1                 0.0000
     14 ****         5.7807   1.6169   1.0427 C.3            1 S1                 0.0000
     15 ****         5.0903   2.4968   1.9626 O.3            1 S1                 0.0000
     16 ****         3.9633   2.9356   1.2316 C.3            1 S1                 0.0000
     17 ****         2.5100   3.2098   1.6666 C.3            1 S1                 0.0000
     18 ****         2.0392   4.6668   1.5802 C.3            1 S1                 0.0000
     19 ****         1.0560   4.9447   2.7244 C.3            1 S1                 0.0000
     20 ****         0.8372   3.6090   3.4275 C.3            1 S1                 0.0000
     21 ****         2.0701   2.7812   3.0772 C.3            1 S1                 0.0000
     22 ****        -3.2290   1.7938  -0.0713 N.ar           1 S1                 0.0000
     23 ****        -6.3294   2.6986  -0.9577 H              1 S1                 0.0000
     24 ****        -4.8176   3.2701  -1.6689 H              1 S1                 0.0000
     25 ****        -5.2298   3.6998  -0.0036 H              1 S1                 0.0000
     26 ****        -6.3315   0.4116  -0.1481 H              1 S1                 0.0000
     27 ****        -5.0361  -1.5688   0.6764 H              1 S1                 0.0000
     28 ****        -2.5733  -1.3509   1.0079 H              1 S1                 0.0000
     29 ****        -0.7118  -0.1239   0.8929 H              1 S1                 0.0000
     30 ****         1.2150   0.4755   0.8629 H              1 S1                 0.0000
     31 ****         2.2912   2.7791  -0.5460 H              1 S1                 0.0000
     32 ****         3.3161   0.9034   1.6859 H              1 S1                 0.0000
     33 ****         4.7223  -0.0206  -0.0049 H              1 S1                 0.0000
     34 ****         4.7624   1.5073  -0.9115 H              1 S1                 0.0000
     35 ****         6.2738   0.8206   1.6010 H              1 S1                 0.0000
     36 ****         6.5440   2.1660   0.4899 H              1 S1                 0.0000
     37 ****         4.2685   3.5690   0.3906 H              1 S1                 0.0000
     38 ****         2.8852   5.3512   1.6542 H              1 S1                 0.0000
     39 ****         1.5691   4.8726   0.6190 H              1 S1                 0.0000
     40 ****         1.4949   5.6619   3.4186 H              1 S1                 0.0000
     41 ****         0.1176   5.3682   2.3653 H              1 S1                 0.0000
     42 ****         0.6965   3.7182   4.5031 H              1 S1                 0.0000
     43 ****        -0.0549   3.1270   3.0263 H              1 S1                 0.0000
     44 ****         1.8523   1.7171   3.1652 H              1 S1                 0.0000
     45 ****         2.8648   2.9976   3.7924 H              1 S1                 0.0000
     46 ****        -1.5343   3.1276  -0.0986 LP             1 S1                 0.0000
     47 ****         0.1338   3.5938  -0.1017 LP             1 S1                 0.0000
     48 ****         5.6708   3.2695   2.2194 LP             1 S1                 0.0000
     49 ****         4.8102   2.0023   2.7855 LP             1 S1                 0.0000
     50 ****        -2.7705   2.6611  -0.2651 LP             1 S1                 0.0000
@<TRIPOS>BOND
    1    1    2 1     
    2    1   23 1     
    3    1   24 1     
    4    1   25 1     
    5    2   22 ar    
    6    2    3 ar    
    7    3    4 ar    
    8    3   26 1     
    9    4    5 ar    
   10    4   27 1     
   11    5    6 ar    
   12    5   28 1     
   13    6    7 1     
   14    6   22 ar    
   15    7    8 am    
   16    7   29 1     
   17    8    9 2     
   18    8   10 am    
   19   10   11 1     
   20   10   30 1     
   21   11   17 1     
   22   11   12 1     
   23   11   31 1     
   24   12   16 1     
   25   12   13 1     
   26   12   32 1     
   27   13   14 1     
   28   13   33 1     
   29   13   34 1     
   30   14   15 1     
   31   14   35 1     
   32   14   36 1     
   33   15   16 1     
   34   16   17 1     
   35   16   37 1     
   36   17   21 1     
   37   17   18 1     
   38   18   19 1     
   39   18   38 1     
   40   18   39 1     
   41   19   20 1     
   42   19   40 1     
   43   19   41 1     
   44   20   21 1     
   45   20   42 1     
   46   20   43 1     
   47   21   44 1     
   48   21   45 1     
   49    9   46 1     
   50    9   47 1     
   51   15   48 1     
   52   15   49 1     
   53   22   50 1     
@<TRIPOS>SUBSTRUCTURE
      1 S1             1
@<TRIPOS>SET
LONE_PAIRS      STATIC     ATOMS    <user>   **** ""
5 46 47 48 49 50
DONOR_HYDROGENS      STATIC     ATOMS    <user>   **** ""
2 29 30
ATOM$BLUE        STATIC     ATOMS    COLORGROUP SYSTEM
5 46 47 48 49 50
ATOM$RED        STATIC     ATOMS    COLORGROUP SYSTEM
2 29 30
