AV-unprocessed.smi:2|AV-procd|sdf|25|dock6
  -GOLD-   2262015133D 1   1.00000     0.00000
 Structure written by MMmdl.
 52 54  0  0  0  0  0  0  0  0  3 V2000
  151.9844  145.1636  159.7603 C   0  0  0  0  0  0  0  0  0  0  0  0
  152.1964  143.9209  160.6362 C   0  0  0  0  0  0  0  0  0  0  0  0
  152.8513  142.7713  159.8631 C   0  0  0  0  0  0  0  0  0  0  0  0
  153.9244  142.3306  160.2739 O   0  0  0  0  0  0  0  0  0  0  0  0
  152.1601  142.2353  158.6526 C   0  0  0  0  0  0  0  0  0  0  0  0
  151.6706  143.0763  157.6260 C   0  0  0  0  0  0  0  0  0  0  0  0
  151.0205  142.5300  156.5028 C   0  0  0  0  0  0  0  0  0  0  0  0
  150.8409  141.1391  156.3740 C   0  0  0  0  0  0  0  0  0  0  0  0
  150.1886  140.6923  155.2449 O   0  0  0  0  0  0  0  0  0  0  0  0
  149.4438  139.4847  155.3317 C   0  0  0  0  0  0  0  0  0  0  0  0
  150.2633  138.3472  154.7022 C   0  0  2  0  0  0  0  0  0  0  0  0
  150.1229  138.4253  153.2983 O   0  0  0  0  0  0  0  0  0  0  0  0
  149.7937  136.9594  155.1989 C   0  0  0  0  0  0  0  0  0  0  0  0
  150.0216  136.7491  156.6332 N   0  0  0  0  0  0  0  0  0  0  0  0
  151.2240  136.5514  157.2542 C   0  0  0  0  0  0  0  0  0  0  0  0
  152.5379  136.4882  156.6284 N   0  3  0  0  0  0  0  0  0  0  0  0
  153.5351  136.3749  157.3300 O   0  0  0  0  0  0  0  0  0  0  0  0
  152.5826  136.5885  155.4060 O   0  5  0  0  0  0  0  0  0  0  0  0
  151.1354  136.3856  158.5734 N   0  0  0  0  0  0  0  0  0  0  0  0
  149.7812  136.4671  158.8254 C   0  0  0  0  0  0  0  0  0  0  0  0
  149.0662  136.3136  160.1069 C   0  0  0  0  0  0  0  0  0  0  0  0
  149.6809  136.1494  161.1618 O   0  0  0  0  0  0  0  0  0  0  0  0
  147.7025  136.3462  159.9928 N   0  0  0  0  0  0  0  0  0  0  0  0
  146.8968  136.1261  161.2093 C   0  0  0  0  0  0  0  0  0  0  0  0
  147.0055  136.5775  158.8214 C   0  0  0  0  0  0  0  0  0  0  0  0
  145.7709  136.5536  158.8150 O   0  0  0  0  0  0  0  0  0  0  0  0
  147.7142  136.8423  157.6705 N   0  0  0  0  0  0  0  0  0  0  0  0
  146.9672  137.2634  156.4762 C   0  0  0  0  0  0  0  0  0  0  0  0
  149.0787  136.7096  157.6874 C   0  0  0  0  0  0  0  0  0  0  0  0
  151.3346  140.2941  157.3975 C   0  0  0  0  0  0  0  0  0  0  0  0
  151.9862  140.8389  158.5208 C   0  0  0  0  0  0  0  0  0  0  0  0
  151.5485  145.9739  160.3445 H   0  0  0  0  0  0  0  0  0  0  0  0
  151.3132  144.9613  158.9255 H   0  0  0  0  0  0  0  0  0  0  0  0
  152.9289  145.5240  159.3508 H   0  0  0  0  0  0  0  0  0  0  0  0
  152.8428  144.1797  161.4755 H   0  0  0  0  0  0  0  0  0  0  0  0
  151.2552  143.5901  161.0745 H   0  0  0  0  0  0  0  0  0  0  0  0
  151.7817  144.1487  157.6738 H   0  0  0  0  0  0  0  0  0  0  0  0
  150.6524  143.1896  155.7304 H   0  0  0  0  0  0  0  0  0  0  0  0
  149.2726  139.2660  156.3869 H   0  0  0  0  0  0  0  0  0  0  0  0
  148.4700  139.5728  154.8465 H   0  0  0  0  0  0  0  0  0  0  0  0
  151.3180  138.4850  154.9376 H   0  0  0  0  0  0  0  0  0  0  0  0
  149.7759  137.6042  152.9840 H   0  0  0  0  0  0  0  0  0  0  0  0
  148.7455  136.7986  154.9727 H   0  0  0  0  0  0  0  0  0  0  0  0
  150.2663  136.1686  154.6230 H   0  0  0  0  0  0  0  0  0  0  0  0
  146.2906  137.0072  161.4262 H   0  0  0  0  0  0  0  0  0  0  0  0
  147.4724  135.9137  162.1109 H   0  0  0  0  0  0  0  0  0  0  0  0
  146.2213  135.2799  161.0730 H   0  0  0  0  0  0  0  0  0  0  0  0
  146.8105  136.4186  155.8055 H   0  0  0  0  0  0  0  0  0  0  0  0
  147.4752  138.0624  155.9458 H   0  0  0  0  0  0  0  0  0  0  0  0
  145.9831  137.6786  156.6977 H   0  0  0  0  0  0  0  0  0  0  0  0
  151.2273  139.2213  157.3461 H   0  0  0  0  0  0  0  0  0  0  0  0
  152.3495  140.1653  159.2836 H   0  0  0  0  0  0  0  0  0  0  0  0
  1  2  1  0  0  0  0
  1 32  1  0  0  0  0
  1 33  1  0  0  0  0
  1 34  1  0  0  0  0
  2  3  1  0  0  0  0
  2 35  1  0  0  0  0
  2 36  1  0  0  0  0
  3  4  2  0  0  0  0
  3  5  1  0  0  0  0
  5 31  1  0  0  0  0
  5  6  2  0  0  0  0
  6  7  1  0  0  0  0
  6 37  1  0  0  0  0
  7  8  2  0  0  0  0
  7 38  1  0  0  0  0
  8  9  1  0  0  0  0
  8 30  1  0  0  0  0
  9 10  1  0  0  0  0
 10 11  1  0  0  0  0
 10 39  1  0  0  0  0
 10 40  1  0  0  0  0
 11 12  1  0  0  0  0
 11 13  1  0  0  0  0
 11 41  1  0  0  0  0
 12 42  1  0  0  0  0
 13 14  1  0  0  0  0
 13 43  1  0  0  0  0
 13 44  1  0  0  0  0
 14 29  1  0  0  0  0
 14 15  1  0  0  0  0
 15 16  1  0  0  0  0
 15 19  2  0  0  0  0
 16 17  2  0  0  0  0
 16 18  1  0  0  0  0
 19 20  1  0  0  0  0
 20 29  2  0  0  0  0
 20 21  1  0  0  0  0
 21 22  2  0  0  0  0
 21 23  1  0  0  0  0
 23 24  1  0  0  0  0
 23 25  1  0  0  0  0
 24 45  1  0  0  0  0
 24 46  1  0  0  0  0
 24 47  1  0  0  0  0
 25 26  2  0  0  0  0
 25 27  1  0  0  0  0
 27 28  1  0  0  0  0
 27 29  1  0  0  0  0
 28 48  1  0  0  0  0
 28 49  1  0  0  0  0
 28 50  1  0  0  0  0
 30 31  2  0  0  0  0
 30 51  1  0  0  0  0
 31 52  1  0  0  0  0
M  CHG  1  16   1
M  CHG  1  18  -1
M  END
> <s_m_source_file>
AV-unprocessed.smi

> <i_m_source_file_index>
2

> <i_lp_mmshare_version>
43012

> <i_f3d_flags>
0

> <s_epik_input>
W0NIM11bQ0gyXUMoPU8pYzFbY0hdW2NIXWMoW2NIXVtjSF0xKU9bQ0gyXVtDQEhdKFtPSF0pW0NIMl1uKGMobjIpW04rXSg9TylbTy1dKWMoYzIzKW4oW0NIM10pYyg9TyluKGMzPU8pW0NIM10=

> <s_epik_cmdline>
J2VwaWtfcHl0aG9uJywgJy1waCcsICc3LjAnLCAnLXRuJywgJzgnLCAnLW1hJywgJzIwMCcsICctbWV0YWxfYmluZGluZycsICctaW1hZScsICc8aW5maWxlLm1hZT4nLCAnLW9tYWUnLCAnPG91dGZpbGUubWFlPic=

> <r_lp_tautomer_probability>
1

> <r_epik_Ionization_Penalty>
1.02275e-06

> <r_epik_Ionization_Penalty_Charging>
4.46226e-11

> <r_epik_Ionization_Penalty_Neutral>
1.02271e-06

> <r_epik_State_Penalty>
-0

> <r_epik_Charging_Adjusted_Penalty>
4.46226e-11

> <i_epik_Tot_Q>
0

> <i_epik_Tot_abs_Q>
2

> <r_epik_Metal_State_Penalty>
-0

> <b_epik_Metal_Only>
0

> <s_lp_Force_Field>
OPLS_2005

> <r_lp_Energy>
60.0216

> <b_lp_Chiralities_Consistent>
1

> <s_lp_Variant>
AV-unprocessed.smi:2-1

> <Gold.Version>
5.8.1

> <Gold.Id.Protein>
6NUR|6NUR_protein|mol2

> <Gold.PLP.Fitness>
54.5266

> <Gold.PLP.PLP>
-43.7111

> <Gold.PLP.part.hbond>
-7.5536

> <Gold.PLP.part.metal>
0.0000

> <Gold.PLP.part.buried>
-7.5593

> <Gold.PLP.part.nonpolar>
-28.7906

> <Gold.PLP.part.repulsive>
0.0932

> <Gold.PLP.ligand.clash>
0.0000

> <Gold.PLP.ligand.torsion>
1.8716

> <Gold.PLP.Chemscore.Hbond>
4.7020

> <Gold.PLP.Chemscore.CHOScore>
0.0000

> <Gold.PLP.Chemscore.Metal>
0.0000

> <Gold.Chemscore.Hbonds>
donor molecule, donor type, donor heavy atom, donor atom, acceptor molecule, acceptor atom, score
      L1  H    12    42       P1  7948  1.00
      P1  H  6896  6909       L1    19  0.11
      P1  H  6931  6943       L1    22  0.17
      P1  H  7989  7998       L1     9  0.35
      P1  H 10752 10764       L1    18  0.30

> <Gold.PLP.Chemscore.Internal.Correction>
0.4526

> <Gold.Rescore>
     Score         DG    S(hbond)    S(metal)    S(lipo)     H(rot)  DE(clash)    DE(int)     intcor
     16.69     -20.52       3.74        0.00      90.80       3.16       0.29       3.54       ----

> <Gold.Chemscore.Fitness>
16.6881

> <Gold.Chemscore.DG>
-20.5193

> <Gold.Chemscore.ZeroCoef>
-5.4800

> <Gold.Chemscore.Hbond>
3.7440

> <Gold.Chemscore.Metal>
0.0000

> <Gold.Chemscore.Lipo>
90.7962

> <Gold.Chemscore.Internal_Hbond>
0.0000

> <Gold.Chemscore.DEClash>
0.2944

> <Gold.Chemscore.DEInternal>
3.5368

> <Gold.Chemscore.Rot>
3.1597

> <Gold.Chemscore.Internal.Correction>
   9.000000E+99

> <Gold.Chemscore.Hbonds>
donor molecule, donor type, donor heavy atom, donor atom, acceptor molecule, acceptor atom, score
      L1  H    12    42       P1  7948  0.50
      P1  H  6931  6943       L1    22  0.01
      P1  H  7989  7998       L1     9  0.22
      P1  H 10752 10764       L1    18  0.10

> <Gold.Chemscore.Hbond.Weighted>
-12.5050

> <Gold.Chemscore.Metal.Weighted>
-0.0000

> <Gold.Chemscore.Lipo.Weighted>
-10.6232

> <Gold.Chemscore.Internal_Hbond.Weighted>
0.0000

> <Gold.Chemscore.DEClash.Weighted>
0.2944

> <Gold.Chemscore.DEInternal.Weighted>
3.5368

> <Gold.Chemscore.Rot.Weighted>
8.0888

> <Gold.Chemscore.Internal.Correction.Weighted>
   9.000000E+99

> <Gold.Protein.RotatedTorsions>
[ 6907 6896 6895 6894 ] final   84.66 input  -60.11 | X-H torsion
[ 7974 7965 7964 7962 ] final   59.82 input  175.53 | X-H torsion
[ 8008 7997 7996 7995 ] final   96.75 input   59.86 | X-H torsion
[ 10167 10162 10161 10158 ] final  104.89 input  -65.29 | X-H torsion
[ 10718 10713 10712 10709 ] final -120.77 input   66.30 | X-H torsion
[ 10763 10752 10751 10750 ] final  -26.26 input  -60.55 | X-H torsion
[ 11005 11000 10999 10996 ] final   29.17 input  -57.11 | X-H torsion

> <Gold.Protein.ActiveResidues>
 VAL166  LYS551  ARG553  GLY616  TRP617  ASP618  TYR619  PRO620  LYS621  CYS622 
 ASP623  PHE694  ASN695  SER759  ASP760  ASP761  ALA762  ILE779  LEU786  VAL792 
 PHE793  MET794  SER795  GLU796  ALA797  LYS798  CYS799  TRP800  GLU811  SER814 

> <Gold.Protein.RotatedAtoms>
  152.5357  134.2706  159.8969 H   0  0  0  0  0  0  0  0  0  0  0  0  # atno 6907 bound_to 6896
  151.2663  133.4270  159.2626 H   0  0  0  0  0  0  0  0  0  0  0  0  # atno 6908 bound_to 6896
  151.0407  134.9620  159.8217 H   0  0  0  0  0  0  0  0  0  0  0  0  # atno 6909 bound_to 6896
  145.9029  139.3594  143.0582 H   0  0  0  0  0  0  0  0  0  0  0  0  # atno 7974 bound_to 7965
  156.0829  140.3268  155.7717 H   0  0  0  0  0  0  0  0  0  0  0  0  # atno 8008 bound_to 7997
  155.5123  140.0578  157.2938 H   0  0  0  0  0  0  0  0  0  0  0  0  # atno 8009 bound_to 7997
  154.4592  140.1958  156.0308 H   0  0  0  0  0  0  0  0  0  0  0  0  # atno 8010 bound_to 7997
  139.7139  144.7072  151.0982 H   0  0  0  0  0  0  0  0  0  0  0  0  # atno 10167 bound_to 10162
  156.1284  130.6377  150.9581 H   0  0  0  0  0  0  0  0  0  0  0  0  # atno 10718 bound_to 10713
  153.7131  135.6949  153.5032 H   0  0  0  0  0  0  0  0  0  0  0  0  # atno 10763 bound_to 10752
  153.2258  135.4354  155.0539 H   0  0  0  0  0  0  0  0  0  0  0  0  # atno 10764 bound_to 10752
  154.8308  135.3472  154.6667 H   0  0  0  0  0  0  0  0  0  0  0  0  # atno 10765 bound_to 10752
  140.3078  134.2683  155.7740 H   0  0  0  0  0  0  0  0  0  0  0  0  # atno 11005 bound_to 11000
  145.8769  140.9386  143.0621 LP  0  0  0  0  0  0  0  0  0  0  0  0  # atno 17320 bound_to 7965
  144.6737  140.0728  143.7472 LP  0  0  0  0  0  0  0  0  0  0  0  0  # atno 17321 bound_to 7965
  140.7739  143.5256  150.9484 LP  0  0  0  0  0  0  0  0  0  0  0  0  # atno 17342 bound_to 10162
  139.8942  143.6916  152.3141 LP  0  0  0  0  0  0  0  0  0  0  0  0  # atno 17343 bound_to 10162
  157.6464  131.0903  150.8143 LP  0  0  0  0  0  0  0  0  0  0  0  0  # atno 17370 bound_to 10713
  156.8231  130.4990  149.5340 LP  0  0  0  0  0  0  0  0  0  0  0  0  # atno 17371 bound_to 10713
  141.2114  133.7688  156.9863 LP  0  0  0  0  0  0  0  0  0  0  0  0  # atno 17394 bound_to 11000
  140.1051  134.9511  157.1982 LP  0  0  0  0  0  0  0  0  0  0  0  0  # atno 17395 bound_to 11000

$$$$
