AV-unprocessed.smi:1611|AV-procd|sdf|6475|dock5
  -GOLD-   22720 7133D 1   1.00000     0.00000
 Structure written by MMmdl.
 48 49  0  0  0  0  0  0  0  0  1 V2000
  151.2856  145.3245  160.2655 C   0  0  0  0  0  0  0  0  0  0  0  0
  151.9960  144.0137  160.5554 C   0  0  0  0  0  0  0  0  0  0  0  0
  152.4993  143.7827  161.8519 C   0  0  0  0  0  0  0  0  0  0  0  0
  153.1594  142.5795  162.1558 C   0  0  0  0  0  0  0  0  0  0  0  0
  153.3318  141.5956  161.1631 C   0  0  0  0  0  0  0  0  0  0  0  0
  154.0416  140.3002  161.5097 C   0  0  0  0  0  0  0  0  0  0  0  0
  152.8457  141.8242  159.8552 C   0  0  0  0  0  0  0  0  0  0  0  0
  153.0260  140.8650  158.8918 O   0  0  0  0  0  0  0  0  0  0  0  0
  152.2033  139.7204  159.0681 C   0  0  0  0  0  0  0  0  0  0  0  0
  152.5070  138.7073  157.9515 C   0  0  1  0  0  0  0  0  0  0  0  0
  153.9070  138.5065  157.9454 O   0  0  0  0  0  0  0  0  0  0  0  0
  151.8214  137.3469  158.2071 C   0  0  0  0  0  0  0  0  0  0  0  0
  150.3619  137.4777  158.3047 N   0  0  0  0  0  0  0  0  0  0  0  0
  149.8157  136.8649  159.4162 N   0  0  0  0  0  0  0  0  0  0  0  0
  148.5456  136.9071  159.6524 C   0  0  0  0  0  0  0  0  0  0  0  0
  148.0644  136.2031  160.8925 C   0  0  0  0  0  0  0  0  0  0  0  0
  147.6619  137.6142  158.7314 C   0  0  0  0  0  0  0  0  0  0  0  0
  146.1755  137.6311  159.0612 C   0  0  0  0  0  0  0  0  0  0  0  0
  148.2097  138.2092  157.6424 C   0  0  0  0  0  0  0  0  0  0  0  0
  147.4249  138.9218  156.6863 C   0  0  0  0  0  0  0  0  0  0  0  0
  146.7990  139.4906  155.8958 N   0  0  0  0  0  0  0  0  0  0  0  0
  149.6478  138.1648  157.3679 C   0  0  0  0  0  0  0  0  0  0  0  0
  150.1739  138.6946  156.3880 O   0  0  0  0  0  0  0  0  0  0  0  0
  152.1584  143.0266  159.5510 C   0  0  0  0  0  0  0  0  0  0  0  0
  151.6024  143.2550  158.1517 C   0  0  0  0  0  0  0  0  0  0  0  0
  151.3789  146.0197  161.1003 H   0  0  0  0  0  0  0  0  0  0  0  0
  150.2235  145.1507  160.0912 H   0  0  0  0  0  0  0  0  0  0  0  0
  151.7089  145.8062  159.3836 H   0  0  0  0  0  0  0  0  0  0  0  0
  152.3774  144.5282  162.6241 H   0  0  0  0  0  0  0  0  0  0  0  0
  153.5340  142.4158  163.1556 H   0  0  0  0  0  0  0  0  0  0  0  0
  153.5325  139.4467  161.0609 H   0  0  0  0  0  0  0  0  0  0  0  0
  154.0681  140.1429  162.5885 H   0  0  0  0  0  0  0  0  0  0  0  0
  155.0680  140.3219  161.1435 H   0  0  0  0  0  0  0  0  0  0  0  0
  152.3288  139.2697  160.0547 H   0  0  0  0  0  0  0  0  0  0  0  0
  151.1651  140.0474  159.0011 H   0  0  0  0  0  0  0  0  0  0  0  0
  152.1847  139.1154  156.9924 H   0  0  0  0  0  0  0  0  0  0  0  0
  154.1344  137.9447  158.6705 H   0  0  0  0  0  0  0  0  0  0  0  0
  152.1214  136.6097  157.4599 H   0  0  0  0  0  0  0  0  0  0  0  0
  152.1760  136.9375  159.1548 H   0  0  0  0  0  0  0  0  0  0  0  0
  147.3603  135.4107  160.6384 H   0  0  0  0  0  0  0  0  0  0  0  0
  147.5620  136.9000  161.5635 H   0  0  0  0  0  0  0  0  0  0  0  0
  148.8859  135.7476  161.4473 H   0  0  0  0  0  0  0  0  0  0  0  0
  145.5971  138.1991  158.3332 H   0  0  0  0  0  0  0  0  0  0  0  0
  146.0044  138.0844  160.0381 H   0  0  0  0  0  0  0  0  0  0  0  0
  145.7761  136.6165  159.0774 H   0  0  0  0  0  0  0  0  0  0  0  0
  151.5065  142.3246  157.5926 H   0  0  0  0  0  0  0  0  0  0  0  0
  152.2588  143.9210  157.5915 H   0  0  0  0  0  0  0  0  0  0  0  0
  150.6094  143.7025  158.1901 H   0  0  0  0  0  0  0  0  0  0  0  0
  1  2  1  0  0  0  0
  1 26  1  0  0  0  0
  1 27  1  0  0  0  0
  1 28  1  0  0  0  0
  2 24  1  0  0  0  0
  2  3  2  0  0  0  0
  3  4  1  0  0  0  0
  3 29  1  0  0  0  0
  4  5  2  0  0  0  0
  4 30  1  0  0  0  0
  5  6  1  0  0  0  0
  5  7  1  0  0  0  0
  6 31  1  0  0  0  0
  6 32  1  0  0  0  0
  6 33  1  0  0  0  0
  7  8  1  0  0  0  0
  7 24  2  0  0  0  0
  8  9  1  0  0  0  0
  9 10  1  0  0  0  0
  9 34  1  0  0  0  0
  9 35  1  0  0  0  0
 10 11  1  0  0  0  0
 10 12  1  0  0  0  0
 10 36  1  0  0  0  0
 11 37  1  0  0  0  0
 12 13  1  0  0  0  0
 12 38  1  0  0  0  0
 12 39  1  0  0  0  0
 13 22  1  0  0  0  0
 13 14  1  0  0  0  0
 14 15  2  0  0  0  0
 15 16  1  0  0  0  0
 15 17  1  0  0  0  0
 16 40  1  0  0  0  0
 16 41  1  0  0  0  0
 16 42  1  0  0  0  0
 17 18  1  0  0  0  0
 17 19  2  0  0  0  0
 18 43  1  0  0  0  0
 18 44  1  0  0  0  0
 18 45  1  0  0  0  0
 19 20  1  0  0  0  0
 19 22  1  0  0  0  0
 20 21  3  0  0  0  0
 22 23  2  0  0  0  0
 24 25  1  0  0  0  0
 25 46  1  0  0  0  0
 25 47  1  0  0  0  0
 25 48  1  0  0  0  0
M  END
> <s_m_source_file>
AV-unprocessed.smi

> <i_m_source_file_index>
1611

> <i_lp_mmshare_version>
43012

> <i_f3d_flags>
0

> <s_epik_input>
W0NIM11jMVtjSF1bY0hdYyhbQ0gzXSljKGMxW0NIM10pT1tDSDJdW0NASF0oW09IXSlbQ0gyXW4ybmMoW0NIM10pYyhbQ0gzXSljKEMjTiljMj1P

> <s_epik_cmdline>
J2VwaWtfcHl0aG9uJywgJy1waCcsICc3LjAnLCAnLXRuJywgJzgnLCAnLW1hJywgJzIwMCcsICctbWV0YWxfYmluZGluZycsICctaW1hZScsICc8aW5maWxlLm1hZT4nLCAnLW9tYWUnLCAnPG91dGZpbGUubWFlPic=

> <r_lp_tautomer_probability>
1

> <r_epik_Ionization_Penalty>
1.17331e-07

> <r_epik_Ionization_Penalty_Charging>
1.57223e-10

> <r_epik_Ionization_Penalty_Neutral>
1.17174e-07

> <r_epik_State_Penalty>
-0

> <r_epik_Charging_Adjusted_Penalty>
1.57223e-10

> <i_epik_Tot_Q>
0

> <i_epik_Tot_abs_Q>
0

> <r_epik_Metal_State_Penalty>
-0

> <b_epik_Metal_Only>
0

> <s_lp_Force_Field>
OPLS_2005

> <r_lp_Energy>
37.4128

> <b_lp_Chiralities_Consistent>
1

> <s_lp_Variant>
AV-unprocessed.smi:1611-2

> <Gold.Version>
5.8.1

> <Gold.Id.Protein>
6NUR|6NUR_protein|mol2

> <Gold.PLP.Fitness>
52.7041

> <Gold.PLP.PLP>
-47.2055

> <Gold.PLP.part.hbond>
-2.2590

> <Gold.PLP.part.metal>
0.0000

> <Gold.PLP.part.buried>
-6.1059

> <Gold.PLP.part.nonpolar>
-38.3483

> <Gold.PLP.part.repulsive>
0.0000

> <Gold.PLP.ligand.clash>
0.0000

> <Gold.PLP.ligand.torsion>
0.2900

> <Gold.PLP.Chemscore.Hbond>
1.9913

> <Gold.PLP.Chemscore.CHOScore>
0.0000

> <Gold.PLP.Chemscore.Metal>
0.0000

> <Gold.Chemscore.Hbonds>
donor molecule, donor type, donor heavy atom, donor atom, acceptor molecule, acceptor atom, score
      P1  H  6896  6909       L1    14  0.50
      P1  H  7997  8010       L1    11  0.83

> <Gold.PLP.Chemscore.Internal.Correction>
0.1049

> <Gold.Rescore>
     Score         DG    S(hbond)    S(metal)    S(lipo)     H(rot)  DE(clash)    DE(int)     intcor
     17.66     -19.48       1.44        0.00     128.21       2.27       0.00       1.82       ----

> <Gold.Chemscore.Fitness>
17.6632

> <Gold.Chemscore.DG>
-19.4844

> <Gold.Chemscore.ZeroCoef>
-5.4800

> <Gold.Chemscore.Hbond>
1.4420

> <Gold.Chemscore.Metal>
0.0000

> <Gold.Chemscore.Lipo>
128.2128

> <Gold.Chemscore.Internal_Hbond>
0.0000

> <Gold.Chemscore.DEClash>
0.0021

> <Gold.Chemscore.DEInternal>
1.8191

> <Gold.Chemscore.Rot>
2.2706

> <Gold.Chemscore.Internal.Correction>
   9.000000E+99

> <Gold.Chemscore.Hbonds>
donor molecule, donor type, donor heavy atom, donor atom, acceptor molecule, acceptor atom, score
      P1  H  6896  6909       L1    14  0.32
      P1  H  7997  8010       L1    11  0.78

> <Gold.Chemscore.Hbond.Weighted>
-4.8162

> <Gold.Chemscore.Metal.Weighted>
-0.0000

> <Gold.Chemscore.Lipo.Weighted>
-15.0009

> <Gold.Chemscore.Internal_Hbond.Weighted>
0.0000

> <Gold.Chemscore.DEClash.Weighted>
0.0021

> <Gold.Chemscore.DEInternal.Weighted>
1.8191

> <Gold.Chemscore.Rot.Weighted>
5.8127

> <Gold.Chemscore.Internal.Correction.Weighted>
   9.000000E+99

> <Gold.Protein.RotatedTorsions>
[ 6907 6896 6895 6894 ] final   82.87 input  -60.11 | X-H torsion
[ 7974 7965 7964 7962 ] final  133.08 input  175.53 | X-H torsion
[ 8008 7997 7996 7995 ] final    3.01 input   59.86 | X-H torsion
[ 10167 10162 10161 10158 ] final  -81.29 input  -65.29 | X-H torsion
[ 10718 10713 10712 10709 ] final -141.83 input   66.30 | X-H torsion
[ 10763 10752 10751 10750 ] final  -11.65 input  -60.55 | X-H torsion
[ 11005 11000 10999 10996 ] final -130.37 input  -57.11 | X-H torsion

> <Gold.Protein.ActiveResidues>
 VAL166  LYS551  ARG553  GLY616  TRP617  ASP618  TYR619  PRO620  LYS621  CYS622 
 ASP623  PHE694  ASN695  SER759  ASP760  ASP761  ALA762  ILE779  LEU786  VAL792 
 PHE793  MET794  SER795  GLU796  ALA797  LYS798  CYS799  TRP800  GLU811  SER814 

> <Gold.Protein.RotatedAtoms>
  152.5311  134.2983  159.9068 H   0  0  0  0  0  0  0  0  0  0  0  0  # atno 6907 bound_to 6896
  151.2934  133.4148  159.2642 H   0  0  0  0  0  0  0  0  0  0  0  0  # atno 6908 bound_to 6896
  151.0181  134.9464  159.8101 H   0  0  0  0  0  0  0  0  0  0  0  0  # atno 6909 bound_to 6896
  144.9902  139.4414  143.5343 H   0  0  0  0  0  0  0  0  0  0  0  0  # atno 7974 bound_to 7965
  154.6985  140.2668  155.6742 H   0  0  0  0  0  0  0  0  0  0  0  0  # atno 8008 bound_to 7997
  156.2757  140.2777  156.1511 H   0  0  0  0  0  0  0  0  0  0  0  0  # atno 8009 bound_to 7997
  155.0797  140.0372  157.2625 H   0  0  0  0  0  0  0  0  0  0  0  0  # atno 8010 bound_to 7997
  140.4425  143.2510  151.8605 H   0  0  0  0  0  0  0  0  0  0  0  0  # atno 10167 bound_to 10162
  156.3386  130.7625  151.1757 H   0  0  0  0  0  0  0  0  0  0  0  0  # atno 10718 bound_to 10713
  153.4869  135.7017  153.5906 H   0  0  0  0  0  0  0  0  0  0  0  0  # atno 10763 bound_to 10752
  153.4096  135.3852  155.2041 H   0  0  0  0  0  0  0  0  0  0  0  0  # atno 10764 bound_to 10752
  154.8719  135.3901  154.4324 H   0  0  0  0  0  0  0  0  0  0  0  0  # atno 10765 bound_to 10752
  140.9351  134.1267  157.4200 H   0  0  0  0  0  0  0  0  0  0  0  0  # atno 11005 bound_to 11000
  146.3429  139.9229  142.8764 LP  0  0  0  0  0  0  0  0  0  0  0  0  # atno 17320 bound_to 7965
  145.2296  140.9968  143.3998 LP  0  0  0  0  0  0  0  0  0  0  0  0  # atno 17321 bound_to 7965
  139.4790  144.5213  151.8798 LP  0  0  0  0  0  0  0  0  0  0  0  0  # atno 17342 bound_to 10162
  140.4302  144.2126  150.5888 LP  0  0  0  0  0  0  0  0  0  0  0  0  # atno 17343 bound_to 10162
  157.7443  131.0461  150.4875 LP  0  0  0  0  0  0  0  0  0  0  0  0  # atno 17370 bound_to 10713
  156.5052  130.4126  149.6331 LP  0  0  0  0  0  0  0  0  0  0  0  0  # atno 17371 bound_to 10713
  139.8806  135.0018  156.6090 LP  0  0  0  0  0  0  0  0  0  0  0  0  # atno 17394 bound_to 11000
  140.7810  133.8660  155.8567 LP  0  0  0  0  0  0  0  0  0  0  0  0  # atno 17395 bound_to 11000

$$$$
