AV-unprocessed.smi:176|AV-procd|sdf|1433|dock8
  -GOLD-   2262019213D 1   1.00000     0.00000
 Structure written by MMmdl.
 57 61  0  0  0  0  0  0  0  0  1 V2000
  148.4178  132.5169  152.5535 O   0  0  0  0  0  0  0  0  0  0  0  0
  147.8505  133.0769  153.7198 C   0  0  0  0  0  0  0  0  0  0  0  0
  148.8813  133.2040  154.8551 C   0  0  0  0  0  0  0  0  0  0  0  0
  149.4205  131.8024  155.2126 C   0  0  0  0  0  0  0  0  0  0  0  0
  148.3928  130.9186  155.6114 O   0  0  0  0  0  0  0  0  0  0  0  0
  149.9882  134.2527  154.6015 C   0  0  0  0  0  0  0  0  0  0  0  0
  149.9032  134.6844  156.0673 C   0  0  0  0  0  0  0  0  0  0  0  0
  150.1623  136.0412  156.4495 N   0  0  0  0  0  0  0  0  0  0  0  0
  149.9192  136.6207  157.6750 C   0  0  0  0  0  0  0  0  0  0  0  0
  150.2851  137.8688  157.7823 N   0  0  0  0  0  0  0  0  0  0  0  0
  150.8506  138.1646  156.5475 C   0  0  0  0  0  0  0  0  0  0  0  0
  151.4607  139.3230  155.9889 C   0  0  0  0  0  0  0  0  0  0  0  0
  151.5701  140.4923  156.6688 N   0  0  0  0  0  0  0  0  0  0  0  0
  150.7982  141.6372  156.1824 C   0  0  0  0  0  0  0  0  0  0  0  0
  151.2965  142.9520  156.8129 C   0  0  0  0  0  0  0  0  0  0  0  0
  151.3373  142.8744  158.3540 C   0  0  2  0  0  0  0  0  0  0  0  0
  149.9989  142.7657  158.8113 O   0  0  0  0  0  0  0  0  0  0  0  0
  151.9401  144.1538  158.9760 C   0  0  0  0  0  0  0  0  0  0  0  0
  152.0851  144.0480  160.5066 C   0  0  0  0  0  0  0  0  0  0  0  0
  152.8785  142.7968  160.9168 C   0  0  0  0  0  0  0  0  0  0  0  0
  152.2712  141.5190  160.3141 C   0  0  0  0  0  0  0  0  0  0  0  0
  152.1601  141.6305  158.7812 C   0  0  1  0  0  0  0  0  0  0  0  0
  151.6221  140.3457  158.1232 C   0  0  0  0  0  0  0  0  0  0  0  0
  151.9450  139.2251  154.7216 N   0  0  0  0  0  0  0  0  0  0  0  0
  151.8328  138.0796  154.0427 C   0  0  0  0  0  0  0  0  0  0  0  0
  151.2812  136.9288  154.4324 N   0  0  0  0  0  0  0  0  0  0  0  0
  150.7979  137.0187  155.7046 C   0  0  0  0  0  0  0  0  0  0  0  0
  148.4833  134.1148  156.0396 C   0  0  0  0  0  0  0  0  0  0  0  0
  149.1358  133.0642  152.2749 H   0  0  0  0  0  0  0  0  0  0  0  0
  147.4106  134.0433  153.4715 H   0  0  0  0  0  0  0  0  0  0  0  0
  147.0230  132.4328  154.0186 H   0  0  0  0  0  0  0  0  0  0  0  0
  149.9529  131.3596  154.3704 H   0  0  0  0  0  0  0  0  0  0  0  0
  150.1410  131.8543  156.0289 H   0  0  0  0  0  0  0  0  0  0  0  0
  148.0253  130.5166  154.8393 H   0  0  0  0  0  0  0  0  0  0  0  0
  150.9549  133.8417  154.3081 H   0  0  0  0  0  0  0  0  0  0  0  0
  149.6825  135.0479  153.9188 H   0  0  0  0  0  0  0  0  0  0  0  0
  150.5525  134.0676  156.6910 H   0  0  0  0  0  0  0  0  0  0  0  0
  149.4548  136.0892  158.4929 H   0  0  0  0  0  0  0  0  0  0  0  0
  150.8785  141.7063  155.0967 H   0  0  0  0  0  0  0  0  0  0  0  0
  149.7434  141.4859  156.4162 H   0  0  0  0  0  0  0  0  0  0  0  0
  152.2976  143.1641  156.4345 H   0  0  0  0  0  0  0  0  0  0  0  0
  150.6667  143.7810  156.4878 H   0  0  0  0  0  0  0  0  0  0  0  0
  149.4932  142.3184  158.1501 H   0  0  0  0  0  0  0  0  0  0  0  0
  152.9244  144.3371  158.5430 H   0  0  0  0  0  0  0  0  0  0  0  0
  151.3317  145.0229  158.7214 H   0  0  0  0  0  0  0  0  0  0  0  0
  152.5784  144.9405  160.8924 H   0  0  0  0  0  0  0  0  0  0  0  0
  151.0983  144.0218  160.9701 H   0  0  0  0  0  0  0  0  0  0  0  0
  153.9126  142.8981  160.5849 H   0  0  0  0  0  0  0  0  0  0  0  0
  152.9105  142.7169  162.0037 H   0  0  0  0  0  0  0  0  0  0  0  0
  152.8907  140.6619  160.5801 H   0  0  0  0  0  0  0  0  0  0  0  0
  151.2892  141.3336  160.7509 H   0  0  0  0  0  0  0  0  0  0  0  0
  153.1759  141.7670  158.4050 H   0  0  0  0  0  0  0  0  0  0  0  0
  150.6200  140.1210  158.4909 H   0  0  0  0  0  0  0  0  0  0  0  0
  152.2519  139.5044  158.4103 H   0  0  0  0  0  0  0  0  0  0  0  0
  152.2436  138.0868  153.0440 H   0  0  0  0  0  0  0  0  0  0  0  0
  147.7358  134.8607  155.7624 H   0  0  0  0  0  0  0  0  0  0  0  0
  148.1906  133.5905  156.9498 H   0  0  0  0  0  0  0  0  0  0  0  0
  1  2  1  0  0  0  0
  1 29  1  0  0  0  0
  2  3  1  0  0  0  0
  2 30  1  0  0  0  0
  2 31  1  0  0  0  0
  3 28  1  0  0  0  0
  3  4  1  0  0  0  0
  3  6  1  0  0  0  0
  4  5  1  0  0  0  0
  4 32  1  0  0  0  0
  4 33  1  0  0  0  0
  5 34  1  0  0  0  0
  6  7  1  0  0  0  0
  6 35  1  0  0  0  0
  6 36  1  0  0  0  0
  7  8  1  0  0  0  0
  7 28  1  0  0  0  0
  7 37  1  0  0  0  0
  8 27  1  0  0  0  0
  8  9  1  0  0  0  0
  9 10  2  0  0  0  0
  9 38  1  0  0  0  0
 10 11  1  0  0  0  0
 11 27  2  0  0  0  0
 11 12  1  0  0  0  0
 12 13  1  0  0  0  0
 12 24  2  0  0  0  0
 13 23  1  0  0  0  0
 13 14  1  0  0  0  0
 14 15  1  0  0  0  0
 14 39  1  0  0  0  0
 14 40  1  0  0  0  0
 15 16  1  0  0  0  0
 15 41  1  0  0  0  0
 15 42  1  0  0  0  0
 16 22  1  0  0  0  0
 16 17  1  0  0  0  0
 16 18  1  0  0  0  0
 17 43  1  0  0  0  0
 18 19  1  0  0  0  0
 18 44  1  0  0  0  0
 18 45  1  0  0  0  0
 19 20  1  0  0  0  0
 19 46  1  0  0  0  0
 19 47  1  0  0  0  0
 20 21  1  0  0  0  0
 20 48  1  0  0  0  0
 20 49  1  0  0  0  0
 21 22  1  0  0  0  0
 21 50  1  0  0  0  0
 21 51  1  0  0  0  0
 22 23  1  0  0  0  0
 22 52  1  0  0  0  0
 23 53  1  0  0  0  0
 23 54  1  0  0  0  0
 24 25  1  0  0  0  0
 25 26  2  0  0  0  0
 25 55  1  0  0  0  0
 26 27  1  0  0  0  0
 28 56  1  0  0  0  0
 28 57  1  0  0  0  0
M  END
> <s_m_source_file>
AV-unprocessed.smi

> <i_m_source_file_index>
176

> <i_lp_mmshare_version>
43012

> <i_f3d_flags>
0

> <s_epik_input>
W09IXVtDSDJdQzEoW0NIMl1bT0hdKVtDSDJdW0NIXShbQ0gyXTEpbihbY0hdbjIpYyhjMjMpbltjSF1uYzNOKFtDSDJdW0NIMl00KVtDSDJdW0NAQEhdKFtDQF00NVtPSF0pW0NIMl1bQ0gyXVtDSDJdW0NIMl01

> <s_epik_cmdline>
J2VwaWtfcHl0aG9uJywgJy1waCcsICc3LjAnLCAnLXRuJywgJzgnLCAnLW1hJywgJzIwMCcsICctbWV0YWxfYmluZGluZycsICctaW1hZScsICc8aW5maWxlLm1hZT4nLCAnLW9tYWUnLCAnPG91dGZpbGUubWFlPic=

> <r_lp_tautomer_probability>
1

> <r_epik_Ionization_Penalty>
0.00642876

> <r_epik_Ionization_Penalty_Charging>
0

> <r_epik_Ionization_Penalty_Neutral>
0.00642876

> <r_epik_State_Penalty>
0.00467813

> <r_epik_Charging_Adjusted_Penalty>
0.00467813

> <i_epik_Tot_Q>
0

> <i_epik_Tot_abs_Q>
0

> <r_epik_Metal_State_Penalty>
-0

> <b_epik_Metal_Only>
0

> <s_lp_Force_Field>
OPLS_2005

> <r_lp_Energy>
51.6301

> <b_lp_Chiralities_Consistent>
1

> <s_lp_Variant>
AV-unprocessed.smi:176-1

> <Gold.Version>
5.8.1

> <Gold.Id.Protein>
6NUR|6NUR_protein|mol2

> <Gold.PLP.Fitness>
52.7890

> <Gold.PLP.PLP>
-46.6880

> <Gold.PLP.part.hbond>
-3.5700

> <Gold.PLP.part.metal>
0.0000

> <Gold.PLP.part.buried>
-7.6499

> <Gold.PLP.part.nonpolar>
-36.1216

> <Gold.PLP.part.repulsive>
0.4026

> <Gold.PLP.ligand.clash>
0.0000

> <Gold.PLP.ligand.torsion>
0.7375

> <Gold.PLP.Chemscore.Hbond>
1.9760

> <Gold.PLP.Chemscore.CHOScore>
0.2522

> <Gold.PLP.Chemscore.Metal>
0.0000

> <Gold.Chemscore.Hbonds>
donor molecule, donor type, donor heavy atom, donor atom, acceptor molecule, acceptor atom, score
      P1  H  7989  7998       L1    24  0.89
      P1  H 10752 10763       L1    26  0.86
      L1  C    25    55       P1  7949  0.19

> <Gold.PLP.Chemscore.Internal.Correction>
0.8913

> <Gold.Rescore>
     Score         DG    S(hbond)    S(metal)    S(lipo)     H(rot)  DE(clash)    DE(int)     intcor
     10.89     -14.57       1.32        0.00     121.26       3.71       0.49       3.19       ----

> <Gold.Chemscore.Fitness>
10.8890

> <Gold.Chemscore.DG>
-14.5691

> <Gold.Chemscore.ZeroCoef>
-5.4800

> <Gold.Chemscore.Hbond>
1.3180

> <Gold.Chemscore.Metal>
0.0000

> <Gold.Chemscore.Lipo>
121.2563

> <Gold.Chemscore.Internal_Hbond>
0.0000

> <Gold.Chemscore.DEClash>
0.4944

> <Gold.Chemscore.DEInternal>
3.1857

> <Gold.Chemscore.Rot>
3.7109

> <Gold.Chemscore.Internal.Correction>
   9.000000E+99

> <Gold.Chemscore.Hbonds>
donor molecule, donor type, donor heavy atom, donor atom, acceptor molecule, acceptor atom, score
      P1  H  7989  7998       L1    24  0.60
      P1  H 10752 10763       L1    26  0.21

> <Gold.Chemscore.Hbond.Weighted>
-4.4021

> <Gold.Chemscore.Metal.Weighted>
-0.0000

> <Gold.Chemscore.Lipo.Weighted>
-14.1870

> <Gold.Chemscore.Internal_Hbond.Weighted>
0.0000

> <Gold.Chemscore.DEClash.Weighted>
0.4944

> <Gold.Chemscore.DEInternal.Weighted>
3.1857

> <Gold.Chemscore.Rot.Weighted>
9.5000

> <Gold.Chemscore.Internal.Correction.Weighted>
   9.000000E+99

> <Gold.Protein.RotatedTorsions>
[ 6907 6896 6895 6894 ] final   16.47 input  -60.11 | X-H torsion
[ 7974 7965 7964 7962 ] final  -31.51 input  175.53 | X-H torsion
[ 8008 7997 7996 7995 ] final  -42.19 input   59.86 | X-H torsion
[ 10167 10162 10161 10158 ] final  -96.29 input  -65.29 | X-H torsion
[ 10718 10713 10712 10709 ] final -137.86 input   66.30 | X-H torsion
[ 10763 10752 10751 10750 ] final   43.53 input  -60.55 | X-H torsion
[ 11005 11000 10999 10996 ] final    1.75 input  -57.11 | X-H torsion

> <Gold.Protein.ActiveResidues>
 VAL166  LYS551  ARG553  GLY616  TRP617  ASP618  TYR619  PRO620  LYS621  CYS622 
 ASP623  PHE694  ASN695  SER759  ASP760  ASP761  ALA762  ILE779  LEU786  VAL792 
 PHE793  MET794  SER795  GLU796  ALA797  LYS798  CYS799  TRP800  GLU811  SER814 

> <Gold.Protein.RotatedAtoms>
  151.8345  135.0611  160.0440 H   0  0  0  0  0  0  0  0  0  0  0  0  # atno 6907 bound_to 6896
  152.2856  133.5507  159.5533 H   0  0  0  0  0  0  0  0  0  0  0  0  # atno 6908 bound_to 6896
  150.7208  134.0418  159.3810 H   0  0  0  0  0  0  0  0  0  0  0  0  # atno 6909 bound_to 6896
  146.1062  140.5676  142.8799 H   0  0  0  0  0  0  0  0  0  0  0  0  # atno 7974 bound_to 7965
  154.4000  140.1480  156.3315 H   0  0  0  0  0  0  0  0  0  0  0  0  # atno 8008 bound_to 7997
  155.8439  140.3461  155.5628 H   0  0  0  0  0  0  0  0  0  0  0  0  # atno 8009 bound_to 7997
  155.8057  140.0876  157.1923 H   0  0  0  0  0  0  0  0  0  0  0  0  # atno 8010 bound_to 7997
  140.2954  143.3195  152.0303 H   0  0  0  0  0  0  0  0  0  0  0  0  # atno 10167 bound_to 10162
  156.2929  130.7385  151.1415 H   0  0  0  0  0  0  0  0  0  0  0  0  # atno 10718 bound_to 10713
  152.9859  135.6099  154.3126 H   0  0  0  0  0  0  0  0  0  0  0  0  # atno 10763 bound_to 10752
  154.2840  135.2776  155.2686 H   0  0  0  0  0  0  0  0  0  0  0  0  # atno 10764 bound_to 10752
  154.5012  135.5866  153.6589 H   0  0  0  0  0  0  0  0  0  0  0  0  # atno 10765 bound_to 10752
  140.6119  133.9740  155.8181 H   0  0  0  0  0  0  0  0  0  0  0  0  # atno 11005 bound_to 11000
  144.7472  140.5099  143.6827 LP  0  0  0  0  0  0  0  0  0  0  0  0  # atno 17320 bound_to 7965
  145.5757  139.1486  143.3263 LP  0  0  0  0  0  0  0  0  0  0  0  0  # atno 17321 bound_to 7965
  139.4928  144.6495  151.6707 LP  0  0  0  0  0  0  0  0  0  0  0  0  # atno 17342 bound_to 10162
  140.5697  144.0130  150.6210 LP  0  0  0  0  0  0  0  0  0  0  0  0  # atno 17343 bound_to 10162
  157.7347  131.0579  150.5509 LP  0  0  0  0  0  0  0  0  0  0  0  0  # atno 17370 bound_to 10713
  156.5627  130.4259  149.6055 LP  0  0  0  0  0  0  0  0  0  0  0  0  # atno 17371 bound_to 10713
  141.0802  134.0074  157.3397 LP  0  0  0  0  0  0  0  0  0  0  0  0  # atno 17394 bound_to 11000
  139.9189  135.0199  156.7987 LP  0  0  0  0  0  0  0  0  0  0  0  0  # atno 17395 bound_to 11000

$$$$
