#       Name:                AV-unprocessed.smi:2137
#       Creating user name   scv26
#       Creation time:       Fri Mar 27 11:47:16 2020


#       File generated by GOLD software.
#

@<TRIPOS>MOLECULE
AV-unprocessed.smi:2137
    56    57     1
SMALL
NO_CHARGES


@<TRIPOS>ATOM
      1 ****        -5.1362   1.4902   1.4124 C.3            1 S1                 0.0000
      2 ****        -4.5298   1.8348   0.0449 C.3            1 S1                 0.0000
      3 ****        -5.1200   3.1381  -0.5193 C.3            1 S1                 0.0000
      4 ****        -4.4773   3.4708  -1.8715 C.3            1 S1                 0.0000
      5 ****        -2.9459   3.5267  -1.7538 C.3            1 S1                 0.0000
      6 ****        -2.4035   2.2543  -1.2107 N.4            1 S1                 1.0000
      7 ****        -0.9187   2.2300  -1.2121 C.3            1 S1                 0.0000
      8 ****        -0.3552   0.7986  -1.2407 C.3            1 S1                 0.0000
      9 ****         1.1781   0.7775  -1.2918 C.3            1 S1                 0.0000
     10 ****         1.6686  -0.5946  -1.3116 N.am           1 S1                 0.0000
     11 ****         2.8601  -0.9903  -0.8413 C.2            1 S1                 0.0000
     12 ****         3.6887  -0.2159  -0.3616 O.2            1 S1                 0.0000
     13 ****         3.1671  -2.4894  -0.9517 C.3            1 S1                 0.0000
     14 ****         3.9509  -2.9896   0.1848 N.am           1 S1                 0.0000
     15 ****         5.3165  -3.1650   0.0534 C.2            1 S1                 0.0000
     16 ****         6.1083  -3.6178   1.0499 C.2            1 S1                 0.0000
     17 ****         5.5517  -3.9518   2.3552 C.2            1 S1                 0.0000
     18 ****         6.2318  -4.3905   3.2837 O.2            1 S1                 0.0000
     19 ****         4.1562  -3.7453   2.4689 N.am           1 S1                 0.0000
     20 ****         3.5195  -4.0683   3.7293 C.3            1 S1                 0.0000
     21 ****         3.3302  -3.2885   1.4171 C.2            1 S1                 0.0000
     22 ****         2.1111  -3.1562   1.5523 O.2            1 S1                 0.0000
     23 ****        -2.9927   1.9333   0.1178 C.3            1 S1                 0.0000
     24 ****        -4.9210   2.2651   2.1491 H              1 S1                 0.0000
     25 ****        -4.7386   0.5490   1.7935 H              1 S1                 0.0000
     26 ****        -6.2196   1.3858   1.3459 H              1 S1                 0.0000
     27 ****        -4.7835   1.0239  -0.6399 H              1 S1                 0.0000
     28 ****        -6.2007   3.0464  -0.6346 H              1 S1                 0.0000
     29 ****        -4.9493   3.9588   0.1791 H              1 S1                 0.0000
     30 ****        -4.7625   2.7187  -2.6086 H              1 S1                 0.0000
     31 ****        -4.8581   4.4240  -2.2395 H              1 S1                 0.0000
     32 ****        -2.5211   3.7194  -2.7399 H              1 S1                 0.0000
     33 ****        -2.6464   4.3562  -1.1111 H              1 S1                 0.0000
     34 ****        -0.5511   2.7503  -2.0978 H              1 S1                 0.0000
     35 ****        -0.5374   2.7823  -0.3518 H              1 S1                 0.0000
     36 ****        -0.6817   0.2437  -0.3613 H              1 S1                 0.0000
     37 ****        -0.7547   0.2693  -2.1070 H              1 S1                 0.0000
     38 ****         1.5374   1.2921  -2.1839 H              1 S1                 0.0000
     39 ****         1.5771   1.3139  -0.4289 H              1 S1                 0.0000
     40 ****         1.0548  -1.2973  -1.6979 H              1 S1                 0.0000
     41 ****         2.2401  -3.0581  -1.0458 H              1 S1                 0.0000
     42 ****         3.7100  -2.6565  -1.8829 H              1 S1                 0.0000
     43 ****         5.7775  -2.9287  -0.8946 H              1 S1                 0.0000
     44 ****         7.1682  -3.7360   0.8786 H              1 S1                 0.0000
     45 ****         2.6956  -3.3746   3.9038 H              1 S1                 0.0000
     46 ****         4.2329  -3.9527   4.5462 H              1 S1                 0.0000
     47 ****         3.1665  -5.0975   3.6512 H              1 S1                 0.0000
     48 ****        -2.6973   2.6966   0.8398 H              1 S1                 0.0000
     49 ****        -2.5964   0.9869   0.4838 H              1 S1                 0.0000
     50 ****        -2.7015   1.5300  -1.8484 H              1 S1                 0.0000
     51 ****         3.4871   0.7621  -0.3087 LP             1 S1                 0.0000
     52 ****         4.5632  -0.5651  -0.0250 LP             1 S1                 0.0000
     53 ****         7.2140  -4.5327   3.1604 LP             1 S1                 0.0000
     54 ****         5.8019  -4.6045   4.1608 LP             1 S1                 0.0000
     55 ****         1.5550  -2.8352   0.7857 LP             1 S1                 0.0000
     56 ****         1.6791  -3.3701   2.4284 LP             1 S1                 0.0000
@<TRIPOS>BOND
    1    1    2 1     
    2    1   24 1     
    3    1   25 1     
    4    1   26 1     
    5    2   23 1     
    6    2    3 1     
    7    2   27 1     
    8    3    4 1     
    9    3   28 1     
   10    3   29 1     
   11    4    5 1     
   12    4   30 1     
   13    4   31 1     
   14    5    6 1     
   15    5   32 1     
   16    5   33 1     
   17    6    7 1     
   18    6   23 1     
   19    6   50 1     
   20    7    8 1     
   21    7   34 1     
   22    7   35 1     
   23    8    9 1     
   24    8   36 1     
   25    8   37 1     
   26    9   10 1     
   27    9   38 1     
   28    9   39 1     
   29   10   11 am    
   30   10   40 1     
   31   11   12 2     
   32   11   13 1     
   33   13   14 1     
   34   13   41 1     
   35   13   42 1     
   36   14   21 am    
   37   14   15 1     
   38   15   16 2     
   39   15   43 1     
   40   16   17 1     
   41   16   44 1     
   42   17   18 2     
   43   17   19 am    
   44   19   20 1     
   45   19   21 am    
   46   20   45 1     
   47   20   46 1     
   48   20   47 1     
   49   21   22 2     
   50   23   48 1     
   51   23   49 1     
   52   12   51 1     
   53   12   52 1     
   54   18   53 1     
   55   18   54 1     
   56   22   55 1     
   57   22   56 1     
@<TRIPOS>SUBSTRUCTURE
      1 S1             1
@<TRIPOS>SET
LONE_PAIRS      STATIC     ATOMS    <user>   **** ""
6 51 52 53 54 55 56
DONOR_HYDROGENS      STATIC     ATOMS    <user>   **** ""
2 50 40
ATOM$BLUE        STATIC     ATOMS    COLORGROUP SYSTEM
6 51 52 53 54 55 56
ATOM$RED        STATIC     ATOMS    COLORGROUP SYSTEM
2 50 40
