AV-unprocessed.smi:218|AV-procd|sdf|1676|dock4
  -GOLD-   2262020103D 1   1.00000     0.00000
 Structure written by MMmdl.
 54 57  0  0  0  0  0  0  0  0  1 V2000
  151.8747  140.0180  156.1672 C   0  0  0  0  0  0  0  0  0  0  0  0
  151.0032  139.0677  155.3371 C   0  0  0  0  0  0  0  0  0  0  0  0
  151.8405  137.9218  154.7427 C   0  0  0  0  0  0  0  0  0  0  0  0
  150.4179  139.8471  154.2919 O   0  0  0  0  0  0  0  0  0  0  0  0
  149.1559  140.3866  154.4518 C   0  0  0  0  0  0  0  0  0  0  0  0
  148.1152  139.5366  154.8789 C   0  0  0  0  0  0  0  0  0  0  0  0
  146.8232  140.0734  155.0505 C   0  0  0  0  0  0  0  0  0  0  0  0
  145.6778  139.1973  155.5159 C   0  0  0  0  0  0  0  0  0  0  0  0
  144.7299  138.8869  154.4544 N   0  0  0  0  0  0  0  0  0  0  0  0
  144.2613  137.6288  154.3121 C   0  0  0  0  0  0  0  0  0  0  0  0
  143.1852  137.1986  155.0210 N   0  0  0  0  0  0  0  0  0  0  0  0
  142.7392  135.9490  154.8630 C   0  0  0  0  0  0  0  0  0  0  0  0
  143.2129  134.9895  154.0655 N   0  0  0  0  0  0  0  0  0  0  0  0
  144.2932  135.4154  153.3490 C   0  0  0  0  0  0  0  0  0  0  0  0
  144.8745  136.7126  153.4188 C   0  0  0  0  0  0  0  0  0  0  0  0
  145.9602  136.7896  152.5569 N   0  0  0  0  0  0  0  0  0  0  0  0
  146.0130  135.6051  152.0100 C   0  0  0  0  0  0  0  0  0  0  0  0
  145.0496  134.7143  152.4289 N   0  0  0  0  0  0  0  0  0  0  0  0
  144.8723  133.2962  151.9727 C   0  0  2  0  0  0  0  0  0  0  0  0
  145.8553  132.9808  151.0299 O   0  0  0  0  0  0  0  0  0  0  0  0
  145.2592  132.6064  149.7875 C   0  0  1  0  0  0  0  0  0  0  0  0
  146.1385  131.5620  149.0825 C   0  0  0  0  0  0  0  0  0  0  0  0
  146.5559  130.5771  150.0032 O   0  0  0  0  0  0  0  0  0  0  0  0
  143.8937  132.0665  150.2163 C   0  0  2  0  0  0  0  0  0  0  0  0
  142.9489  132.0224  149.1642 O   0  0  0  0  0  0  0  0  0  0  0  0
  143.4995  133.0284  151.3273 C   0  0  2  0  0  0  0  0  0  0  0  0
  142.8634  134.1988  150.8351 O   0  0  0  0  0  0  0  0  0  0  0  0
  146.6197  141.4419  154.7791 C   0  0  0  0  0  0  0  0  0  0  0  0
  147.7192  142.2106  154.3519 C   0  0  0  0  0  0  0  0  0  0  0  0
  148.9595  141.7031  154.1904 N   0  0  0  0  0  0  0  0  0  0  0  0
  145.0414  132.6958  152.8674 H   0  0  0  0  0  0  0  0  0  0  0  0
  145.1207  133.4903  149.1626 H   0  0  0  0  0  0  0  0  0  0  0  0
  144.0108  131.0641  150.6312 H   0  0  0  0  0  0  0  0  0  0  0  0
  142.8376  132.5582  152.0552 H   0  0  0  0  0  0  0  0  0  0  0  0
  152.3469  139.4938  156.9984 H   0  0  0  0  0  0  0  0  0  0  0  0
  151.2779  140.8296  156.5842 H   0  0  0  0  0  0  0  0  0  0  0  0
  152.6637  140.4631  155.5605 H   0  0  0  0  0  0  0  0  0  0  0  0
  150.2391  138.6654  156.0040 H   0  0  0  0  0  0  0  0  0  0  0  0
  152.3277  137.3457  155.5296 H   0  0  0  0  0  0  0  0  0  0  0  0
  152.6176  138.3061  154.0816 H   0  0  0  0  0  0  0  0  0  0  0  0
  151.2285  137.2300  154.1646 H   0  0  0  0  0  0  0  0  0  0  0  0
  148.3109  138.4926  155.0754 H   0  0  0  0  0  0  0  0  0  0  0  0
  146.0950  138.2710  155.9130 H   0  0  0  0  0  0  0  0  0  0  0  0
  145.1528  139.6918  156.3345 H   0  0  0  0  0  0  0  0  0  0  0  0
  144.4338  139.6628  153.8798 H   0  0  0  0  0  0  0  0  0  0  0  0
  141.8803  135.6786  155.4594 H   0  0  0  0  0  0  0  0  0  0  0  0
  146.7653  135.3455  151.2792 H   0  0  0  0  0  0  0  0  0  0  0  0
  145.6143  131.1024  148.2442 H   0  0  0  0  0  0  0  0  0  0  0  0
  147.0361  132.0351  148.6832 H   0  0  0  0  0  0  0  0  0  0  0  0
  147.4864  130.4457  149.9026 H   0  0  0  0  0  0  0  0  0  0  0  0
  142.2975  132.6888  149.3253 H   0  0  0  0  0  0  0  0  0  0  0  0
  142.2653  133.9473  150.1480 H   0  0  0  0  0  0  0  0  0  0  0  0
  145.6450  141.8936  154.8930 H   0  0  0  0  0  0  0  0  0  0  0  0
  147.5998  143.2616  154.1344 H   0  0  0  0  0  0  0  0  0  0  0  0
  1  2  1  0  0  0  0
  1 35  1  0  0  0  0
  1 36  1  0  0  0  0
  1 37  1  0  0  0  0
  2  3  1  0  0  0  0
  2  4  1  0  0  0  0
  2 38  1  0  0  0  0
  3 39  1  0  0  0  0
  3 40  1  0  0  0  0
  3 41  1  0  0  0  0
  4  5  1  0  0  0  0
  5 30  1  0  0  0  0
  5  6  2  0  0  0  0
  6  7  1  0  0  0  0
  6 42  1  0  0  0  0
  7  8  1  0  0  0  0
  7 28  2  0  0  0  0
  8  9  1  0  0  0  0
  8 43  1  0  0  0  0
  8 44  1  0  0  0  0
  9 10  1  0  0  0  0
  9 45  1  0  0  0  0
 10 15  1  0  0  0  0
 10 11  2  0  0  0  0
 11 12  1  0  0  0  0
 12 13  2  0  0  0  0
 12 46  1  0  0  0  0
 13 14  1  0  0  0  0
 14 18  1  0  0  0  0
 14 15  2  0  0  0  0
 15 16  1  0  0  0  0
 16 17  2  0  0  0  0
 17 18  1  0  0  0  0
 17 47  1  0  0  0  0
 18 19  1  0  0  0  0
 19 31  1  0  0  0  0
 19 26  1  0  0  0  0
 19 20  1  0  0  0  0
 20 21  1  0  0  0  0
 21 32  1  0  0  0  0
 21 22  1  0  0  0  0
 21 24  1  0  0  0  0
 22 23  1  0  0  0  0
 22 48  1  0  0  0  0
 22 49  1  0  0  0  0
 23 50  1  0  0  0  0
 24 33  1  0  0  0  0
 24 25  1  0  0  0  0
 24 26  1  0  0  0  0
 25 51  1  0  0  0  0
 26 34  1  0  0  0  0
 26 27  1  0  0  0  0
 27 52  1  0  0  0  0
 28 29  1  0  0  0  0
 28 53  1  0  0  0  0
 29 30  2  0  0  0  0
 29 54  1  0  0  0  0
M  END
> <s_m_source_file>
AV-unprocessed.smi

> <i_m_source_file_index>
218

> <i_lp_mmshare_version>
43012

> <i_f3d_flags>
0

> <s_epik_input>
W0NIM11bQ0hdKFtDSDNdKU9jMVtjSF1jKFtjSF1bY0hdbjEpW0NIMl1bTkhdYyhuW2NIXW4yKWMoYzIzKW5bY0hdbjNbQ0BASF00T1tDQEhdKFtDSDJdW09IXSlbQ0BASF0oW09IXSlbQ0BIXTRbT0hd

> <s_epik_cmdline>
J2VwaWtfcHl0aG9uJywgJy1waCcsICc3LjAnLCAnLXRuJywgJzgnLCAnLW1hJywgJzIwMCcsICctbWV0YWxfYmluZGluZycsICctaW1hZScsICc8aW5maWxlLm1hZT4nLCAnLW9tYWUnLCAnPG91dGZpbGUubWFlPic=

> <r_lp_tautomer_probability>
1

> <r_epik_Ionization_Penalty>
0.00457014

> <r_epik_Ionization_Penalty_Charging>
0

> <r_epik_Ionization_Penalty_Neutral>
0.00457014

> <r_epik_State_Penalty>
-0

> <r_epik_Charging_Adjusted_Penalty>
0

> <i_epik_Tot_Q>
0

> <i_epik_Tot_abs_Q>
0

> <r_epik_Metal_State_Penalty>
-0

> <b_epik_Metal_Only>
0

> <s_epik_Chemistry_Notes>
This compound contains an acetal/aminal-like group ( X-CH(R)-Y where X, Y are N, S, or O) that may be acid/base labile, releasing an aldehyde.

> <s_lp_Force_Field>
OPLS_2005

> <r_lp_Energy>
48.139

> <b_lp_Chiralities_Consistent>
1

> <s_lp_Variant>
AV-unprocessed.smi:218-15

> <Gold.Version>
5.8.1

> <Gold.Id.Protein>
6NUR|6NUR_protein|mol2

> <Gold.PLP.Fitness>
58.4628

> <Gold.PLP.PLP>
-39.3774

> <Gold.PLP.part.hbond>
-6.6467

> <Gold.PLP.part.metal>
0.0000

> <Gold.PLP.part.buried>
-1.2452

> <Gold.PLP.part.nonpolar>
-33.3742

> <Gold.PLP.part.repulsive>
1.4068

> <Gold.PLP.ligand.clash>
0.0000

> <Gold.PLP.ligand.torsion>
1.6490

> <Gold.PLP.Chemscore.Hbond>
5.8550

> <Gold.PLP.Chemscore.CHOScore>
1.5511

> <Gold.PLP.Chemscore.Metal>
0.0000

> <Gold.Chemscore.Hbonds>
donor molecule, donor type, donor heavy atom, donor atom, acceptor molecule, acceptor atom, score
      L1  H     9    45       P1 10175  1.00
      L1  H    23    50       P1 10747  1.00
      L1  H    25    51       P1 10186  0.67
      L1  H    27    52       P1 10186  0.65
      P1  H  7989  7998       L1     4  1.00
      P1  H  8011  8017       L1    30  0.38
      P1  H 10785 10796       L1    25  0.85
      L1  C    12    46       P1 11000  0.41
      L1  C    17    47       P1  7948  0.67
      L1  C    29    54       P1  8028  0.69

> <Gold.PLP.Chemscore.Internal.Correction>
0.1650

> <Gold.Rescore>
     Score         DG    S(hbond)    S(metal)    S(lipo)     H(rot)  DE(clash)    DE(int)     intcor
     14.06     -19.03       4.79        0.00      86.31       4.90       3.14       1.84       ----

> <Gold.Chemscore.Fitness>
14.0580

> <Gold.Chemscore.DG>
-19.0343

> <Gold.Chemscore.ZeroCoef>
-5.4800

> <Gold.Chemscore.Hbond>
4.7927

> <Gold.Chemscore.Metal>
0.0000

> <Gold.Chemscore.Lipo>
86.3106

> <Gold.Chemscore.Internal_Hbond>
0.0000

> <Gold.Chemscore.DEClash>
3.1394

> <Gold.Chemscore.DEInternal>
1.8370

> <Gold.Chemscore.Rot>
4.9029

> <Gold.Chemscore.Internal.Correction>
   9.000000E+99

> <Gold.Chemscore.Hbonds>
donor molecule, donor type, donor heavy atom, donor atom, acceptor molecule, acceptor atom, score
      L1  H     9    45       P1 10175  0.99
      L1  H    23    50       P1 10747  0.92
      L1  H    25    51       P1 10186  0.67
      L1  H    27    52       P1 10186  0.61
      P1  H  7989  7998       L1     4  0.77
      P1  H  8011  8017       L1    30  0.24
      P1  H 10785 10796       L1    25  0.14

> <Gold.Chemscore.Hbond.Weighted>
-16.0075

> <Gold.Chemscore.Metal.Weighted>
-0.0000

> <Gold.Chemscore.Lipo.Weighted>
-10.0983

> <Gold.Chemscore.Internal_Hbond.Weighted>
0.0000

> <Gold.Chemscore.DEClash.Weighted>
3.1394

> <Gold.Chemscore.DEInternal.Weighted>
1.8370

> <Gold.Chemscore.Rot.Weighted>
12.5515

> <Gold.Chemscore.Internal.Correction.Weighted>
   9.000000E+99

> <Gold.Protein.RotatedTorsions>
[ 6907 6896 6895 6894 ] final   77.77 input  -60.11 | X-H torsion
[ 7974 7965 7964 7962 ] final -142.95 input  175.53 | X-H torsion
[ 8008 7997 7996 7995 ] final   35.15 input   59.86 | X-H torsion
[ 10167 10162 10161 10158 ] final   79.27 input  -65.29 | X-H torsion
[ 10718 10713 10712 10709 ] final  -44.60 input   66.30 | X-H torsion
[ 10763 10752 10751 10750 ] final   38.42 input  -60.55 | X-H torsion
[ 11005 11000 10999 10996 ] final -174.45 input  -57.11 | X-H torsion

> <Gold.Protein.ActiveResidues>
 VAL166  LYS551  ARG553  GLY616  TRP617  ASP618  TYR619  PRO620  LYS621  CYS622 
 ASP623  PHE694  ASN695  SER759  ASP760  ASP761  ALA762  ILE779  LEU786  VAL792 
 PHE793  MET794  SER795  GLU796  ALA797  LYS798  CYS799  TRP800  GLU811  SER814 

> <Gold.Protein.RotatedAtoms>
  152.5132  134.3765  159.9336 H   0  0  0  0  0  0  0  0  0  0  0  0  # atno 6907 bound_to 6896
  151.3721  133.3845  159.2708 H   0  0  0  0  0  0  0  0  0  0  0  0  # atno 6908 bound_to 6896
  150.9569  134.8982  159.7765 H   0  0  0  0  0  0  0  0  0  0  0  0  # atno 6909 bound_to 6896
  144.8405  140.5895  143.5455 H   0  0  0  0  0  0  0  0  0  0  0  0  # atno 7974 bound_to 7965
  155.1665  140.3288  155.4401 H   0  0  0  0  0  0  0  0  0  0  0  0  # atno 8008 bound_to 7997
  156.2525  140.1951  156.6720 H   0  0  0  0  0  0  0  0  0  0  0  0  # atno 8009 bound_to 7997
  154.6368  140.0575  156.9784 H   0  0  0  0  0  0  0  0  0  0  0  0  # atno 8010 bound_to 7997
  139.9621  144.5953  150.8062 H   0  0  0  0  0  0  0  0  0  0  0  0  # atno 10167 bound_to 10162
  156.2369  130.4177  149.8807 H   0  0  0  0  0  0  0  0  0  0  0  0  # atno 10718 bound_to 10713
  153.0002  135.6250  154.2301 H   0  0  0  0  0  0  0  0  0  0  0  0  # atno 10763 bound_to 10752
  154.2043  135.2802  155.2982 H   0  0  0  0  0  0  0  0  0  0  0  0  # atno 10764 bound_to 10752
  154.5658  135.5691  153.7108 H   0  0  0  0  0  0  0  0  0  0  0  0  # atno 10765 bound_to 10752
  140.4744  134.6135  157.4895 H   0  0  0  0  0  0  0  0  0  0  0  0  # atno 11005 bound_to 11000
  145.4703  139.1504  143.3817 LP  0  0  0  0  0  0  0  0  0  0  0  0  # atno 17320 bound_to 7965
  146.2698  140.4836  142.8819 LP  0  0  0  0  0  0  0  0  0  0  0  0  # atno 17321 bound_to 7965
  140.7550  143.3037  151.3016 LP  0  0  0  0  0  0  0  0  0  0  0  0  # atno 17342 bound_to 10162
  139.6546  144.0300  152.2650 LP  0  0  0  0  0  0  0  0  0  0  0  0  # atno 17343 bound_to 10162
  156.6402  130.8701  151.3512 LP  0  0  0  0  0  0  0  0  0  0  0  0  # atno 17370 bound_to 10713
  157.7158  130.9496  150.1251 LP  0  0  0  0  0  0  0  0  0  0  0  0  # atno 17371 bound_to 10713
  139.9865  134.7053  155.9764 LP  0  0  0  0  0  0  0  0  0  0  0  0  # atno 17394 bound_to 11000
  141.1562  133.6542  156.4168 LP  0  0  0  0  0  0  0  0  0  0  0  0  # atno 17395 bound_to 11000

$$$$
