AV-unprocessed.smi:295|AV-procd|sdf|2255|dock6
  -GOLD-   2262022143D 1   1.00000     0.00000
 Structure written by MMmdl.
 35 36  0  0  0  0  0  0  0  0  1 V2000
  152.2365  144.6191  158.0382 C   0  0  0  0  0  0  0  0  0  0  0  0
  152.7755  144.1026  159.3831 C   0  0  1  0  0  0  0  0  0  0  0  0
  151.7268  144.2419  160.5058 C   0  0  0  0  0  0  0  0  0  0  0  0
  152.2862  143.7838  161.8625 C   0  0  0  0  0  0  0  0  0  0  0  0
  152.8216  142.3458  161.7914 C   0  0  0  0  0  0  0  0  0  0  0  0
  153.8676  142.1953  160.6727 C   0  0  0  0  0  0  0  0  0  0  0  0
  153.3271  142.6562  159.3037 C   0  0  1  0  0  0  0  0  0  0  0  0
  152.3126  141.7109  158.8357 N   0  0  0  0  0  0  0  0  0  0  0  0
  152.4950  140.4035  158.5903 C   0  0  0  0  0  0  0  0  0  0  0  0
  153.5823  139.8358  158.6859 O   0  0  0  0  0  0  0  0  0  0  0  0
  151.2549  139.6144  158.1667 C   0  0  0  0  0  0  0  0  0  0  0  0
  150.9506  139.8288  156.7631 N   0  0  0  0  0  0  0  0  0  0  0  0
  151.6174  139.4615  155.6634 C   0  0  0  0  0  0  0  0  0  0  0  0
  151.0471  139.8525  154.5306 N   0  0  0  0  0  0  0  0  0  0  0  0
  149.9618  140.4958  155.0514 C   0  0  0  0  0  0  0  0  0  0  0  0
  148.9771  141.1373  154.1968 C   0  0  0  0  0  0  0  0  0  0  0  0
  148.1929  141.6480  153.5160 N   0  0  0  0  0  0  0  0  0  0  0  0
  149.8469  140.5149  156.3776 N   0  0  0  0  0  0  0  0  0  0  0  0
  151.3498  144.0703  157.7201 H   0  0  0  0  0  0  0  0  0  0  0  0
  152.9870  144.5248  157.2529 H   0  0  0  0  0  0  0  0  0  0  0  0
  151.9630  145.6723  158.1064 H   0  0  0  0  0  0  0  0  0  0  0  0
  153.6154  144.7471  159.6475 H   0  0  0  0  0  0  0  0  0  0  0  0
  151.4000  145.2795  160.5818 H   0  0  0  0  0  0  0  0  0  0  0  0
  150.8383  143.6586  160.2609 H   0  0  0  0  0  0  0  0  0  0  0  0
  153.0876  144.4561  162.1715 H   0  0  0  0  0  0  0  0  0  0  0  0
  151.5120  143.8551  162.6269 H   0  0  0  0  0  0  0  0  0  0  0  0
  153.2618  142.0669  162.7492 H   0  0  0  0  0  0  0  0  0  0  0  0
  151.9950  141.6548  161.6218 H   0  0  0  0  0  0  0  0  0  0  0  0
  154.7479  142.7870  160.9272 H   0  0  0  0  0  0  0  0  0  0  0  0
  154.2063  141.1600  160.6158 H   0  0  0  0  0  0  0  0  0  0  0  0
  154.1685  142.6524  158.6086 H   0  0  0  0  0  0  0  0  0  0  0  0
  151.3819  142.0825  158.7147 H   0  0  0  0  0  0  0  0  0  0  0  0
  151.4194  138.5495  158.3351 H   0  0  0  0  0  0  0  0  0  0  0  0
  150.3944  139.9078  158.7701 H   0  0  0  0  0  0  0  0  0  0  0  0
  152.5422  138.9040  155.6933 H   0  0  0  0  0  0  0  0  0  0  0  0
  1  2  1  0  0  0  0
  1 19  1  0  0  0  0
  1 20  1  0  0  0  0
  1 21  1  0  0  0  0
  2  7  1  0  0  0  0
  2  3  1  0  0  0  0
  2 22  1  0  0  0  0
  3  4  1  0  0  0  0
  3 23  1  0  0  0  0
  3 24  1  0  0  0  0
  4  5  1  0  0  0  0
  4 25  1  0  0  0  0
  4 26  1  0  0  0  0
  5  6  1  0  0  0  0
  5 27  1  0  0  0  0
  5 28  1  0  0  0  0
  6  7  1  0  0  0  0
  6 29  1  0  0  0  0
  6 30  1  0  0  0  0
  7  8  1  0  0  0  0
  7 31  1  0  0  0  0
  8  9  1  0  0  0  0
  8 32  1  0  0  0  0
  9 10  2  0  0  0  0
  9 11  1  0  0  0  0
 11 12  1  0  0  0  0
 11 33  1  0  0  0  0
 11 34  1  0  0  0  0
 12 18  1  0  0  0  0
 12 13  1  0  0  0  0
 13 14  2  0  0  0  0
 13 35  1  0  0  0  0
 14 15  1  0  0  0  0
 15 16  1  0  0  0  0
 15 18  2  0  0  0  0
 16 17  3  0  0  0  0
M  END
> <s_m_source_file>
AV-unprocessed.smi

> <i_m_source_file_index>
295

> <i_lp_mmshare_version>
43012

> <i_f3d_flags>
0

> <s_epik_input>
W0NIM11bQ0BASF0xW0NIMl1bQ0gyXVtDSDJdW0NIMl1bQ0BIXTFbTkhdQyg9TylbQ0gyXW4yW2NIXW5jKG4yKUMjTg==

> <s_epik_cmdline>
J2VwaWtfcHl0aG9uJywgJy1waCcsICc3LjAnLCAnLXRuJywgJzgnLCAnLW1hJywgJzIwMCcsICctbWV0YWxfYmluZGluZycsICctaW1hZScsICc8aW5maWxlLm1hZT4nLCAnLW9tYWUnLCAnPG91dGZpbGUubWFlPic=

> <r_lp_tautomer_probability>
1

> <r_epik_Ionization_Penalty>
5.31112e-08

> <r_epik_Ionization_Penalty_Charging>
0

> <r_epik_Ionization_Penalty_Neutral>
5.31112e-08

> <r_epik_State_Penalty>
-0

> <r_epik_Charging_Adjusted_Penalty>
0

> <i_epik_Tot_Q>
0

> <i_epik_Tot_abs_Q>
0

> <r_epik_Metal_State_Penalty>
-0

> <b_epik_Metal_Only>
0

> <s_lp_Force_Field>
OPLS_2005

> <r_lp_Energy>
13.099

> <b_lp_Chiralities_Consistent>
1

> <s_lp_Variant>
AV-unprocessed.smi:295-2

> <Gold.Version>
5.8.1

> <Gold.Id.Protein>
6NUR|6NUR_protein|mol2

> <Gold.PLP.Fitness>
48.7436

> <Gold.PLP.PLP>
-42.7961

> <Gold.PLP.part.hbond>
-3.0000

> <Gold.PLP.part.metal>
0.0000

> <Gold.PLP.part.buried>
-2.3673

> <Gold.PLP.part.nonpolar>
-36.8054

> <Gold.PLP.part.repulsive>
0.3914

> <Gold.PLP.ligand.clash>
0.0000

> <Gold.PLP.ligand.torsion>
0.3404

> <Gold.PLP.Chemscore.Hbond>
2.2064

> <Gold.PLP.Chemscore.CHOScore>
0.0000

> <Gold.PLP.Chemscore.Metal>
0.0000

> <Gold.Chemscore.Hbonds>
donor molecule, donor type, donor heavy atom, donor atom, acceptor molecule, acceptor atom, score
      P1  H  7989  7998       L1    14  1.00
      P1  H  7997  8010       L1    10  1.00
      P1  H  8011  8017       L1    17  0.23

> <Gold.PLP.Chemscore.Internal.Correction>
0.0091

> <Gold.Rescore>
     Score         DG    S(hbond)    S(metal)    S(lipo)     H(rot)  DE(clash)    DE(int)     intcor
     17.33     -17.60       1.91        0.00      91.74       1.95       0.00       0.26       ----

> <Gold.Chemscore.Fitness>
17.3296

> <Gold.Chemscore.DG>
-17.5955

> <Gold.Chemscore.ZeroCoef>
-5.4800

> <Gold.Chemscore.Hbond>
1.9063

> <Gold.Chemscore.Metal>
0.0000

> <Gold.Chemscore.Lipo>
91.7404

> <Gold.Chemscore.Internal_Hbond>
0.0000

> <Gold.Chemscore.DEClash>
0.0021

> <Gold.Chemscore.DEInternal>
0.2638

> <Gold.Chemscore.Rot>
1.9474

> <Gold.Chemscore.Internal.Correction>
   9.000000E+99

> <Gold.Chemscore.Hbonds>
donor molecule, donor type, donor heavy atom, donor atom, acceptor molecule, acceptor atom, score
      P1  H  7989  7998       L1    14  0.43
      P1  H  7997  8010       L1    10  0.91
      P1  H  8011  8017       L1    17  0.01

> <Gold.Chemscore.Hbond.Weighted>
-6.3671

> <Gold.Chemscore.Metal.Weighted>
-0.0000

> <Gold.Chemscore.Lipo.Weighted>
-10.7336

> <Gold.Chemscore.Internal_Hbond.Weighted>
0.0000

> <Gold.Chemscore.DEClash.Weighted>
0.0021

> <Gold.Chemscore.DEInternal.Weighted>
0.2638

> <Gold.Chemscore.Rot.Weighted>
4.9852

> <Gold.Chemscore.Internal.Correction.Weighted>
   9.000000E+99

> <Gold.Protein.RotatedTorsions>
[ 6907 6896 6895 6894 ] final  137.24 input  -60.11 | X-H torsion
[ 7974 7965 7964 7962 ] final  119.26 input  175.53 | X-H torsion
[ 8008 7997 7996 7995 ] final   20.97 input   59.86 | X-H torsion
[ 10167 10162 10161 10158 ] final -140.73 input  -65.29 | X-H torsion
[ 10718 10713 10712 10709 ] final -152.57 input   66.30 | X-H torsion
[ 10763 10752 10751 10750 ] final -150.23 input  -60.55 | X-H torsion
[ 11005 11000 10999 10996 ] final -156.62 input  -57.11 | X-H torsion

> <Gold.Protein.ActiveResidues>
 VAL166  LYS551  ARG553  GLY616  TRP617  ASP618  TYR619  PRO620  LYS621  CYS622 
 ASP623  PHE694  ASN695  SER759  ASP760  ASP761  ALA762  ILE779  LEU786  VAL792 
 PHE793  MET794  SER795  GLU796  ALA797  LYS798  CYS799  TRP800  GLU811  SER814 

> <Gold.Protein.RotatedAtoms>
  152.2803  133.5464  159.5493 H   0  0  0  0  0  0  0  0  0  0  0  0  # atno 6907 bound_to 6896
  150.7193  134.0573  159.3828 H   0  0  0  0  0  0  0  0  0  0  0  0  # atno 6908 bound_to 6896
  151.8484  135.0566  160.0507 H   0  0  0  0  0  0  0  0  0  0  0  0  # atno 6909 bound_to 6896
  145.1453  139.3243  143.4594 H   0  0  0  0  0  0  0  0  0  0  0  0  # atno 7974 bound_to 7965
  154.9436  140.3056  155.5108 H   0  0  0  0  0  0  0  0  0  0  0  0  # atno 8008 bound_to 7997
  156.2993  140.2331  156.4445 H   0  0  0  0  0  0  0  0  0  0  0  0  # atno 8009 bound_to 7997
  154.8121  140.0428  157.1339 H   0  0  0  0  0  0  0  0  0  0  0  0  # atno 8010 bound_to 7997
  139.8254  143.7518  152.2666 H   0  0  0  0  0  0  0  0  0  0  0  0  # atno 10167 bound_to 10162
  156.4742  130.8273  151.2501 H   0  0  0  0  0  0  0  0  0  0  0  0  # atno 10718 bound_to 10713
  154.8131  135.3289  154.7251 H   0  0  0  0  0  0  0  0  0  0  0  0  # atno 10763 bound_to 10752
  153.7897  135.6912  153.4878 H   0  0  0  0  0  0  0  0  0  0  0  0  # atno 10764 bound_to 10752
  153.1925  135.4545  155.0114 H   0  0  0  0  0  0  0  0  0  0  0  0  # atno 10765 bound_to 10752
  140.6736  134.4220  157.5230 H   0  0  0  0  0  0  0  0  0  0  0  0  # atno 11005 bound_to 11000
  146.3501  140.1506  142.8592 LP  0  0  0  0  0  0  0  0  0  0  0  0  # atno 17320 bound_to 7965
  145.0488  140.9002  143.5008 LP  0  0  0  0  0  0  0  0  0  0  0  0  # atno 17321 bound_to 7965
  139.7709  144.7477  151.0225 LP  0  0  0  0  0  0  0  0  0  0  0  0  # atno 17342 bound_to 10162
  140.7810  143.4646  151.0230 LP  0  0  0  0  0  0  0  0  0  0  0  0  # atno 17343 bound_to 10162
  157.7489  131.0066  150.3158 LP  0  0  0  0  0  0  0  0  0  0  0  0  # atno 17370 bound_to 10713
  156.3587  130.3843  149.7269 LP  0  0  0  0  0  0  0  0  0  0  0  0  # atno 17371 bound_to 10713
  139.8974  134.8638  156.2047 LP  0  0  0  0  0  0  0  0  0  0  0  0  # atno 17394 bound_to 11000
  141.0373  133.6957  156.1534 LP  0  0  0  0  0  0  0  0  0  0  0  0  # atno 17395 bound_to 11000

$$$$
