#       Name:                AV-unprocessed.smi:1644
#       Creating user name   scv26
#       Creation time:       Fri Mar 27 07:28:05 2020


#       File generated by GOLD software.
#

@<TRIPOS>MOLECULE
AV-unprocessed.smi:1644
    56    58     1
SMALL
NO_CHARGES


@<TRIPOS>ATOM
      1 ****        -4.7246   3.2122   0.3041 C.3            1 S1                 0.0000
      2 ****        -3.3927   2.5014   0.5654 C.3            1 S1                 0.0000
      3 ****        -3.0606   1.4580  -0.5207 C.3            1 S1                 0.0000
      4 ****        -1.7261   0.6998  -0.3383 C.3            1 S1                 0.0000
      5 ****        -0.5852   1.5778  -0.1824 N.am           1 S1                 0.0000
      6 ****         0.0783   1.3583   0.9599 C.2            1 S1                 0.0000
      7 ****         1.0740   1.9801   1.3268 O.2            1 S1                 0.0000
      8 ****        -0.5283   0.3533   1.6214 N.am           1 S1                 0.0000
      9 ****        -0.0869  -0.1765   2.9199 C.3            1 S1                 0.0000
     10 ****         1.2996  -0.8702   2.8882 C.3            1 S1                 0.0000
     11 ****         1.7829  -0.9247   4.2138 O.3            1 S1                 0.0000
     12 ****         1.3334  -2.3100   2.3252 C.3            1 S1                 0.0000
     13 ****         0.8601  -2.4319   0.9571 N.pl3          1 S1                 0.0000
     14 ****        -0.1610  -3.1980   0.5264 C.2            1 S1                 0.0000
     15 ****        -0.4449  -3.1631  -0.7720 N.2            1 S1                 0.0000
     16 ****         0.5186  -2.2896  -1.2436 C.ar           1 S1                 0.0000
     17 ****         0.7578  -1.8127  -2.5506 C.ar           1 S1                 0.0000
     18 ****         1.8110  -0.9077  -2.8103 C.ar           1 S1                 0.0000
     19 ****         2.0267  -0.4127  -4.2294 C.3            1 S1                 0.0000
     20 ****         2.6512  -0.4746  -1.7538 C.ar           1 S1                 0.0000
     21 ****         3.7891   0.4982  -2.0074 C.3            1 S1                 0.0000
     22 ****         2.4298  -0.9462  -0.4434 C.ar           1 S1                 0.0000
     23 ****         1.3661  -1.8312  -0.1925 C.ar           1 S1                 0.0000
     24 ****        -1.6159  -0.0722   0.9633 C.2            1 S1                 0.0000
     25 ****        -2.4126  -0.9418   1.3155 O.2            1 S1                 0.0000
     26 ****        -4.9272   3.9525   1.0782 H              1 S1                 0.0000
     27 ****        -5.5537   2.5043   0.2955 H              1 S1                 0.0000
     28 ****        -4.7137   3.7291  -0.6558 H              1 S1                 0.0000
     29 ****        -2.6001   3.2482   0.6193 H              1 S1                 0.0000
     30 ****        -3.4353   2.0249   1.5452 H              1 S1                 0.0000
     31 ****        -3.8729   0.7324  -0.5807 H              1 S1                 0.0000
     32 ****        -3.0415   1.9572  -1.4902 H              1 S1                 0.0000
     33 ****        -1.5515   0.0221  -1.1749 H              1 S1                 0.0000
     34 ****        -0.3331   2.2782  -0.8646 H              1 S1                 0.0000
     35 ****        -0.0499   0.6731   3.6042 H              1 S1                 0.0000
     36 ****        -0.8262  -0.8564   3.3464 H              1 S1                 0.0000
     37 ****         2.0121  -0.2526   2.3447 H              1 S1                 0.0000
     38 ****         1.8436  -0.0426   4.5477 H              1 S1                 0.0000
     39 ****         2.3521  -2.6987   2.3585 H              1 S1                 0.0000
     40 ****         0.7318  -2.9662   2.9562 H              1 S1                 0.0000
     41 ****        -0.7437  -3.8003   1.2081 H              1 S1                 0.0000
     42 ****         0.1197  -2.1468  -3.3553 H              1 S1                 0.0000
     43 ****         3.0242  -0.6787  -4.5795 H              1 S1                 0.0000
     44 ****         1.9203   0.6712  -4.2757 H              1 S1                 0.0000
     45 ****         1.3029  -0.8492  -4.9182 H              1 S1                 0.0000
     46 ****         4.3141   0.7453  -1.0845 H              1 S1                 0.0000
     47 ****         3.4103   1.4269  -2.4344 H              1 S1                 0.0000
     48 ****         4.5125   0.0672  -2.6995 H              1 S1                 0.0000
     49 ****         3.0639  -0.6195   0.3667 H              1 S1                 0.0000
     50 ****         1.4452   2.7120   0.7553 LP             1 S1                 0.0000
     51 ****         1.5124   1.7539   2.1966 LP             1 S1                 0.0000
     52 ****         2.6866  -1.3528   4.2260 LP             1 S1                 0.0000
     53 ****         1.1541  -1.4572   4.7804 LP             1 S1                 0.0000
     54 ****        -1.1646  -3.6417  -1.2748 LP             1 S1                 0.0000
     55 ****        -3.1888  -1.1754   0.7300 LP             1 S1                 0.0000
     56 ****        -2.2836  -1.4146   2.1871 LP             1 S1                 0.0000
@<TRIPOS>BOND
    1    1    2 1     
    2    1   26 1     
    3    1   27 1     
    4    1   28 1     
    5    2    3 1     
    6    2   29 1     
    7    2   30 1     
    8    3    4 1     
    9    3   31 1     
   10    3   32 1     
   11    4   24 1     
   12    4    5 1     
   13    4   33 1     
   14    5    6 am    
   15    5   34 1     
   16    6    7 2     
   17    6    8 am    
   18    8    9 1     
   19    8   24 am    
   20    9   10 1     
   21    9   35 1     
   22    9   36 1     
   23   10   11 1     
   24   10   12 1     
   25   10   37 1     
   26   11   38 1     
   27   12   13 1     
   28   12   39 1     
   29   12   40 1     
   30   13   23 1     
   31   13   14 1     
   32   14   15 2     
   33   14   41 1     
   34   15   16 1     
   35   16   23 ar    
   36   16   17 ar    
   37   17   18 ar    
   38   17   42 1     
   39   18   19 1     
   40   18   20 ar    
   41   19   43 1     
   42   19   44 1     
   43   19   45 1     
   44   20   21 1     
   45   20   22 ar    
   46   21   46 1     
   47   21   47 1     
   48   21   48 1     
   49   22   23 ar    
   50   22   49 1     
   51   24   25 2     
   52    7   50 1     
   53    7   51 1     
   54   11   52 1     
   55   11   53 1     
   56   15   54 1     
   57   25   55 1     
   58   25   56 1     
@<TRIPOS>SUBSTRUCTURE
      1 S1             1
@<TRIPOS>SET
LONE_PAIRS      STATIC     ATOMS    <user>   **** ""
7 50 51 52 53 54 55 56
DONOR_HYDROGENS      STATIC     ATOMS    <user>   **** ""
2 34 38
ATOM$BLUE        STATIC     ATOMS    COLORGROUP SYSTEM
7 50 51 52 53 54 55 56
ATOM$RED        STATIC     ATOMS    COLORGROUP SYSTEM
2 34 38
