AV-unprocessed.smi:2990|AV-procd|sdf|11393|dock5
  -GOLD-   2272016313D 1   1.00000     0.00000
 Structure written by MMmdl.
 39 41  0  0  0  0  0  0  0  0  1 V2000
  149.8855  139.3651  155.7007 C   0  0  0  0  0  0  0  0  0  0  0  0
  150.4487  140.3349  156.6906 C   0  0  0  0  0  0  0  0  0  0  0  0
  150.1437  141.6324  156.6670 N   0  0  0  0  0  0  0  0  0  0  0  0
  150.8778  142.1354  157.7237 C   0  0  0  0  0  0  0  0  0  0  0  0
  150.9870  143.4538  158.2211 C   0  0  0  0  0  0  0  0  0  0  0  0
  151.8133  143.7323  159.3295 C   0  0  0  0  0  0  0  0  0  0  0  0
  152.5397  142.6991  159.9561 C   0  0  0  0  0  0  0  0  0  0  0  0
  152.4438  141.3780  159.4777 C   0  0  0  0  0  0  0  0  0  0  0  0
  151.6189  141.1053  158.3700 C   0  0  0  0  0  0  0  0  0  0  0  0
  151.3064  139.9462  157.6659 N   0  0  0  0  0  0  0  0  0  0  0  0
  151.8107  138.6058  157.9333 C   0  0  0  0  0  0  0  0  0  0  0  0
  151.3722  138.0662  159.3100 C   0  0  2  0  0  0  0  0  0  0  0  0
  152.4173  137.3077  159.8855 O   0  0  0  0  0  0  0  0  0  0  0  0
  150.1234  137.1771  159.2206 C   0  0  0  0  0  0  0  0  0  0  0  0
  149.3997  137.2674  160.4410 O   0  0  0  0  0  0  0  0  0  0  0  0
  149.0941  136.0991  161.1057 C   0  0  0  0  0  0  0  0  0  0  0  0
  148.6729  136.2168  162.4468 C   0  0  0  0  0  0  0  0  0  0  0  0
  148.3416  135.0751  163.2018 C   0  0  0  0  0  0  0  0  0  0  0  0
  148.4294  133.7972  162.6196 C   0  0  0  0  0  0  0  0  0  0  0  0
  148.8485  133.6647  161.2829 C   0  0  0  0  0  0  0  0  0  0  0  0
  149.1793  134.8068  160.5276 C   0  0  0  0  0  0  0  0  0  0  0  0
  149.1955  139.8691  155.0232 H   0  0  0  0  0  0  0  0  0  0  0  0
  149.3433  138.5700  156.2117 H   0  0  0  0  0  0  0  0  0  0  0  0
  150.6864  138.9238  155.1072 H   0  0  0  0  0  0  0  0  0  0  0  0
  150.4347  144.2522  157.7482 H   0  0  0  0  0  0  0  0  0  0  0  0
  151.8903  144.7438  159.7006 H   0  0  0  0  0  0  0  0  0  0  0  0
  153.1707  142.9211  160.8042 H   0  0  0  0  0  0  0  0  0  0  0  0
  152.9967  140.5839  159.9572 H   0  0  0  0  0  0  0  0  0  0  0  0
  151.4734  137.9402  157.1385 H   0  0  0  0  0  0  0  0  0  0  0  0
  152.8991  138.6251  157.8655 H   0  0  0  0  0  0  0  0  0  0  0  0
  151.1651  138.8980  159.9838 H   0  0  0  0  0  0  0  0  0  0  0  0
  153.2420  137.6554  159.5816 H   0  0  0  0  0  0  0  0  0  0  0  0
  149.5019  137.4887  158.3791 H   0  0  0  0  0  0  0  0  0  0  0  0
  150.4237  136.1409  159.0547 H   0  0  0  0  0  0  0  0  0  0  0  0
  148.6027  137.1939  162.9017 H   0  0  0  0  0  0  0  0  0  0  0  0
  148.0207  135.1802  164.2277 H   0  0  0  0  0  0  0  0  0  0  0  0
  148.1764  132.9204  163.1971 H   0  0  0  0  0  0  0  0  0  0  0  0
  148.9175  132.6844  160.8349 H   0  0  0  0  0  0  0  0  0  0  0  0
  149.4973  134.6638  159.5062 H   0  0  0  0  0  0  0  0  0  0  0  0
  1  2  1  0  0  0  0
  1 22  1  0  0  0  0
  1 23  1  0  0  0  0
  1 24  1  0  0  0  0
  2 10  1  0  0  0  0
  2  3  2  0  0  0  0
  3  4  1  0  0  0  0
  4  9  2  0  0  0  0
  4  5  1  0  0  0  0
  5  6  2  0  0  0  0
  5 25  1  0  0  0  0
  6  7  1  0  0  0  0
  6 26  1  0  0  0  0
  7  8  2  0  0  0  0
  7 27  1  0  0  0  0
  8  9  1  0  0  0  0
  8 28  1  0  0  0  0
  9 10  1  0  0  0  0
 10 11  1  0  0  0  0
 11 12  1  0  0  0  0
 11 29  1  0  0  0  0
 11 30  1  0  0  0  0
 12 13  1  0  0  0  0
 12 14  1  0  0  0  0
 12 31  1  0  0  0  0
 13 32  1  0  0  0  0
 14 15  1  0  0  0  0
 14 33  1  0  0  0  0
 14 34  1  0  0  0  0
 15 16  1  0  0  0  0
 16 21  1  0  0  0  0
 16 17  2  0  0  0  0
 17 18  1  0  0  0  0
 17 35  1  0  0  0  0
 18 19  2  0  0  0  0
 18 36  1  0  0  0  0
 19 20  1  0  0  0  0
 19 37  1  0  0  0  0
 20 21  2  0  0  0  0
 20 38  1  0  0  0  0
 21 39  1  0  0  0  0
M  END
> <s_m_source_file>
AV-unprocessed.smi

> <i_m_source_file_index>
2990

> <i_lp_mmshare_version>
43012

> <i_f3d_flags>
0

> <s_epik_input>
W2NIXTFbY0hdW2NIXVtjSF1jKGMxMiluKGMobjIpW0NIM10pW0NIMl1bQ0BIXShbT0hdKVtDSDJdT2MzW2NIXVtjSF1bY0hdW2NIXVtjSF0z

> <s_epik_cmdline>
J2VwaWtfcHl0aG9uJywgJy1waCcsICc3LjAnLCAnLXRuJywgJzgnLCAnLW1hJywgJzIwMCcsICctbWV0YWxfYmluZGluZycsICctaW1hZScsICc8aW5maWxlLm1hZT4nLCAnLW9tYWUnLCAnPG91dGZpbGUubWFlPic=

> <r_lp_tautomer_probability>
1

> <r_epik_Ionization_Penalty>
0.119634

> <r_epik_Ionization_Penalty_Charging>
0

> <r_epik_Ionization_Penalty_Neutral>
0.119634

> <r_epik_State_Penalty>
0.10919

> <r_epik_Charging_Adjusted_Penalty>
0.10919

> <i_epik_Tot_Q>
0

> <i_epik_Tot_abs_Q>
0

> <r_epik_Metal_State_Penalty>
0.000119887

> <b_epik_Metal_Only>
0

> <s_lp_Force_Field>
OPLS_2005

> <r_lp_Energy>
14.3575

> <b_lp_Chiralities_Consistent>
1

> <s_lp_Variant>
AV-unprocessed.smi:2990-1

> <Gold.Version>
5.8.1

> <Gold.Id.Protein>
6NUR|6NUR_protein|mol2

> <Gold.PLP.Fitness>
47.4548

> <Gold.PLP.PLP>
-46.3464

> <Gold.PLP.part.hbond>
-2.8547

> <Gold.PLP.part.metal>
0.0000

> <Gold.PLP.part.buried>
-4.7341

> <Gold.PLP.part.nonpolar>
-39.0906

> <Gold.PLP.part.repulsive>
0.0753

> <Gold.PLP.ligand.clash>
0.0000

> <Gold.PLP.ligand.torsion>
1.4072

> <Gold.PLP.Chemscore.Hbond>
1.2688

> <Gold.PLP.Chemscore.CHOScore>
0.0000

> <Gold.PLP.Chemscore.Metal>
0.0000

> <Gold.Chemscore.Hbonds>
donor molecule, donor type, donor heavy atom, donor atom, acceptor molecule, acceptor atom, score
      P1  H  6896  6907       L1    13  0.23
      P1  H  6931  6943       L1    15  0.28

> <Gold.PLP.Chemscore.Internal.Correction>
0.1163

> <Gold.Rescore>
     Score         DG    S(hbond)    S(metal)    S(lipo)     H(rot)  DE(clash)    DE(int)     intcor
     16.96     -18.37       1.15        0.00     121.82       2.04       0.05       1.36       ----

> <Gold.Chemscore.Fitness>
16.9597

> <Gold.Chemscore.DG>
-18.3667

> <Gold.Chemscore.ZeroCoef>
-5.4800

> <Gold.Chemscore.Hbond>
1.1516

> <Gold.Chemscore.Metal>
0.0000

> <Gold.Chemscore.Lipo>
121.8193

> <Gold.Chemscore.Internal_Hbond>
0.0000

> <Gold.Chemscore.DEClash>
0.0477

> <Gold.Chemscore.DEInternal>
1.3593

> <Gold.Chemscore.Rot>
2.0361

> <Gold.Chemscore.Internal.Correction>
   9.000000E+99

> <Gold.Chemscore.Hbonds>
donor molecule, donor type, donor heavy atom, donor atom, acceptor molecule, acceptor atom, score
      P1  H  6896  6907       L1    13  0.08
      P1  H  6931  6943       L1    15  0.02

> <Gold.Chemscore.Hbond.Weighted>
-3.8463

> <Gold.Chemscore.Metal.Weighted>
-0.0000

> <Gold.Chemscore.Lipo.Weighted>
-14.2529

> <Gold.Chemscore.Internal_Hbond.Weighted>
0.0000

> <Gold.Chemscore.DEClash.Weighted>
0.0477

> <Gold.Chemscore.DEInternal.Weighted>
1.3593

> <Gold.Chemscore.Rot.Weighted>
5.2124

> <Gold.Chemscore.Internal.Correction.Weighted>
   9.000000E+99

> <Gold.Protein.RotatedTorsions>
[ 6907 6896 6895 6894 ] final   -7.65 input  -60.11 | X-H torsion
[ 7974 7965 7964 7962 ] final  108.26 input  175.53 | X-H torsion
[ 8008 7997 7996 7995 ] final -120.82 input   59.86 | X-H torsion
[ 10167 10162 10161 10158 ] final   87.91 input  -65.29 | X-H torsion
[ 10718 10713 10712 10709 ] final   13.91 input   66.30 | X-H torsion
[ 10763 10752 10751 10750 ] final  160.61 input  -60.55 | X-H torsion
[ 11005 11000 10999 10996 ] final -160.40 input  -57.11 | X-H torsion

> <Gold.Protein.ActiveResidues>
 VAL166  LYS551  ARG553  GLY616  TRP617  ASP618  TYR619  PRO620  LYS621  CYS622 
 ASP623  PHE694  ASN695  SER759  ASP760  ASP761  ALA762  ILE779  LEU786  VAL792 
 PHE793  MET794  SER795  GLU796  ALA797  LYS798  CYS799  TRP800  GLU811  SER814 

> <Gold.Protein.RotatedAtoms>
  151.4462  135.1025  159.9684 H   0  0  0  0  0  0  0  0  0  0  0  0  # atno 6907 bound_to 6896
  152.4905  133.8482  159.7198 H   0  0  0  0  0  0  0  0  0  0  0  0  # atno 6908 bound_to 6896
  150.9053  133.7006  159.2896 H   0  0  0  0  0  0  0  0  0  0  0  0  # atno 6909 bound_to 6896
  145.2829  139.2626  143.3906 H   0  0  0  0  0  0  0  0  0  0  0  0  # atno 7974 bound_to 7965
  155.1380  140.0401  157.2791 H   0  0  0  0  0  0  0  0  0  0  0  0  # atno 8008 bound_to 7997
  154.6493  140.2565  155.7205 H   0  0  0  0  0  0  0  0  0  0  0  0  # atno 8009 bound_to 7997
  156.2570  140.2839  156.0921 H   0  0  0  0  0  0  0  0  0  0  0  0  # atno 8010 bound_to 7997
  139.8725  144.6485  150.8933 H   0  0  0  0  0  0  0  0  0  0  0  0  # atno 10167 bound_to 10162
  157.0315  130.6194  149.5736 H   0  0  0  0  0  0  0  0  0  0  0  0  # atno 10718 bound_to 10713
  154.2501  135.2772  155.2820 H   0  0  0  0  0  0  0  0  0  0  0  0  # atno 10763 bound_to 10752
  154.5472  135.5685  153.6894 H   0  0  0  0  0  0  0  0  0  0  0  0  # atno 10764 bound_to 10752
  152.9982  135.6265  154.2648 H   0  0  0  0  0  0  0  0  0  0  0  0  # atno 10765 bound_to 10752
  140.6320  134.4642  157.5230 H   0  0  0  0  0  0  0  0  0  0  0  0  # atno 11005 bound_to 11000
  146.3210  140.3301  142.8640 LP  0  0  0  0  0  0  0  0  0  0  0  0  # atno 17320 bound_to 7965
  144.9237  140.7897  143.5732 LP  0  0  0  0  0  0  0  0  0  0  0  0  # atno 17321 bound_to 7965
  140.7758  143.3652  151.1753 LP  0  0  0  0  0  0  0  0  0  0  0  0  # atno 17342 bound_to 10162
  139.7270  143.9132  152.3006 LP  0  0  0  0  0  0  0  0  0  0  0  0  # atno 17343 bound_to 10162
  156.0068  130.5155  150.7857 LP  0  0  0  0  0  0  0  0  0  0  0  0  # atno 17370 bound_to 10713
  157.5174  131.0929  151.0122 LP  0  0  0  0  0  0  0  0  0  0  0  0  # atno 17371 bound_to 10713
  139.9112  134.8340  156.1520 LP  0  0  0  0  0  0  0  0  0  0  0  0  # atno 17394 bound_to 11000
  141.0669  133.6815  156.2062 LP  0  0  0  0  0  0  0  0  0  0  0  0  # atno 17395 bound_to 11000

$$$$
