AV-unprocessed.smi:2825|AV-procd|sdf|10891|dock1
  -GOLD-   2272015333D 1   1.00000     0.00000
 Structure written by MMmdl.
 49 50  0  0  0  0  0  0  0  0  2 V2000
  146.2860  133.4301  162.1799 C   0  0  0  0  0  0  0  0  0  0  0  0
  147.0052  134.7529  161.8963 C   0  0  0  0  0  0  0  0  0  0  0  0
  146.7039  135.2939  160.4913 C   0  0  0  0  0  0  0  0  0  0  0  0
  147.7967  136.7173  160.0580 S   0  0  0  0  0  0  0  0  0  0  0  0
  146.9615  137.8527  159.6380 O   0  0  0  0  0  0  0  0  0  0  0  0
  148.7816  136.8892  161.1374 O   0  0  0  0  0  0  0  0  0  0  0  0
  148.6359  136.1428  158.6508 N   0  0  0  0  0  0  0  0  0  0  0  0
  148.1174  134.9518  157.9694 C   0  0  0  0  0  0  0  0  0  0  0  0
  149.2878  137.1215  157.7677 C   0  0  0  0  0  0  0  0  0  0  0  0
  150.0889  138.1611  158.5840 C   0  0  1  0  0  0  0  0  0  0  0  0
  150.8296  137.4764  159.5729 O   0  0  0  0  0  0  0  0  0  0  0  0
  151.0940  138.9746  157.7441 C   0  0  0  0  0  0  0  0  0  0  0  0
  150.7149  140.3899  157.6266 N   0  0  0  0  0  0  0  0  0  0  0  0
  149.8764  140.9847  156.7351 C   0  0  0  0  0  0  0  0  0  0  0  0
  149.8558  142.3169  157.0142 N   0  3  0  0  0  0  0  0  0  0  0  0
  150.6890  142.5771  158.1037 C   0  0  0  0  0  0  0  0  0  0  0  0
  150.9944  143.7694  158.7491 C   0  0  0  0  0  0  0  0  0  0  0  0
  151.8924  143.7019  159.8379 C   0  0  0  0  0  0  0  0  0  0  0  0
  152.2494  144.9876  160.5644 C   0  0  0  0  0  0  0  0  0  0  0  0
  152.4523  142.4638  160.2465 C   0  0  0  0  0  0  0  0  0  0  0  0
  153.4203  142.4028  161.4157 C   0  0  0  0  0  0  0  0  0  0  0  0
  152.1266  141.2618  159.5786 C   0  0  0  0  0  0  0  0  0  0  0  0
  151.2408  141.3448  158.5061 C   0  0  0  0  0  0  0  0  0  0  0  0
  146.5173  133.0688  163.1822 H   0  0  0  0  0  0  0  0  0  0  0  0
  146.5877  132.6588  161.4707 H   0  0  0  0  0  0  0  0  0  0  0  0
  145.2042  133.5469  162.1102 H   0  0  0  0  0  0  0  0  0  0  0  0
  146.7135  135.4873  162.6473 H   0  0  0  0  0  0  0  0  0  0  0  0
  148.0796  134.6049  162.0074 H   0  0  0  0  0  0  0  0  0  0  0  0
  146.8138  134.5196  159.7330 H   0  0  0  0  0  0  0  0  0  0  0  0
  145.6740  135.6480  160.4441 H   0  0  0  0  0  0  0  0  0  0  0  0
  148.8880  134.5053  157.3401 H   0  0  0  0  0  0  0  0  0  0  0  0
  147.2633  135.2173  157.3456 H   0  0  0  0  0  0  0  0  0  0  0  0
  147.7957  134.2024  158.6914 H   0  0  0  0  0  0  0  0  0  0  0  0
  149.9311  136.6276  157.0373 H   0  0  0  0  0  0  0  0  0  0  0  0
  148.5018  137.5984  157.1852 H   0  0  0  0  0  0  0  0  0  0  0  0
  149.4204  138.8573  159.0906 H   0  0  0  0  0  0  0  0  0  0  0  0
  150.2406  136.9227  160.0622 H   0  0  0  0  0  0  0  0  0  0  0  0
  152.0750  138.9553  158.2212 H   0  0  0  0  0  0  0  0  0  0  0  0
  151.2296  138.5420  156.7534 H   0  0  0  0  0  0  0  0  0  0  0  0
  149.3357  140.4901  155.9410 H   0  0  0  0  0  0  0  0  0  0  0  0
  150.5656  144.7086  158.4309 H   0  0  0  0  0  0  0  0  0  0  0  0
  153.3193  145.1840  160.4912 H   0  0  0  0  0  0  0  0  0  0  0  0
  151.9799  144.9199  161.6187 H   0  0  0  0  0  0  0  0  0  0  0  0
  151.7236  145.8441  160.1412 H   0  0  0  0  0  0  0  0  0  0  0  0
  153.7743  141.3861  161.5888 H   0  0  0  0  0  0  0  0  0  0  0  0
  152.9376  142.7473  162.3303 H   0  0  0  0  0  0  0  0  0  0  0  0
  154.2917  143.0299  161.2255 H   0  0  0  0  0  0  0  0  0  0  0  0
  152.5594  140.3230  159.8900 H   0  0  0  0  0  0  0  0  0  0  0  0
  149.3157  142.9965  156.4944 H   0  0  0  0  0  0  0  0  0  0  0  0
  1  2  1  0  0  0  0
  1 24  1  0  0  0  0
  1 25  1  0  0  0  0
  1 26  1  0  0  0  0
  2  3  1  0  0  0  0
  2 27  1  0  0  0  0
  2 28  1  0  0  0  0
  3  4  1  0  0  0  0
  3 29  1  0  0  0  0
  3 30  1  0  0  0  0
  4  5  2  0  0  0  0
  4  6  2  0  0  0  0
  4  7  1  0  0  0  0
  7  8  1  0  0  0  0
  7  9  1  0  0  0  0
  8 31  1  0  0  0  0
  8 32  1  0  0  0  0
  8 33  1  0  0  0  0
  9 10  1  0  0  0  0
  9 34  1  0  0  0  0
  9 35  1  0  0  0  0
 10 11  1  0  0  0  0
 10 12  1  0  0  0  0
 10 36  1  0  0  0  0
 11 37  1  0  0  0  0
 12 13  1  0  0  0  0
 12 38  1  0  0  0  0
 12 39  1  0  0  0  0
 13 23  1  0  0  0  0
 13 14  1  0  0  0  0
 14 15  2  0  0  0  0
 14 40  1  0  0  0  0
 15 16  1  0  0  0  0
 15 49  1  0  0  0  0
 16 23  2  0  0  0  0
 16 17  1  0  0  0  0
 17 18  2  0  0  0  0
 17 41  1  0  0  0  0
 18 19  1  0  0  0  0
 18 20  1  0  0  0  0
 19 42  1  0  0  0  0
 19 43  1  0  0  0  0
 19 44  1  0  0  0  0
 20 21  1  0  0  0  0
 20 22  2  0  0  0  0
 21 45  1  0  0  0  0
 21 46  1  0  0  0  0
 21 47  1  0  0  0  0
 22 23  1  0  0  0  0
 22 48  1  0  0  0  0
M  CHG  1  15   1
M  END
> <s_m_source_file>
AV-unprocessed.smi

> <i_m_source_file_index>
2825

> <i_lp_mmshare_version>
43012

> <i_f3d_flags>
0

> <s_epik_input>
W0NIM11bQ0gyXVtDSDJdUyg9TykoPU8pTihbQ0gzXSlbQ0gyXVtDQEhdKFtPSF0pW0NIMl1uKFtjSF1uMSljKGMxMilbY0hdYyhbQ0gzXSljKFtjSF0yKVtDSDNd

> <s_epik_cmdline>
J2VwaWtfcHl0aG9uJywgJy1waCcsICc3LjAnLCAnLXRuJywgJzgnLCAnLW1hJywgJzIwMCcsICctbWV0YWxfYmluZGluZycsICctaW1hZScsICc8aW5maWxlLm1hZT4nLCAnLW9tYWUnLCAnPG91dGZpbGUubWFlPic=

> <r_epik_Ionization_Penalty>
1.0773

> <r_epik_Ionization_Penalty_Charging>
1.0773

> <r_epik_Ionization_Penalty_Neutral>
1.44651e-06

> <r_epik_State_Penalty>
1.13242

> <r_epik_Charging_Adjusted_Penalty>
2.20972

> <i_epik_Tot_Q>
1

> <i_epik_Tot_abs_Q>
1

> <r_epik_Metal_State_Penalty>
5.13045

> <b_epik_Metal_Only>
0

> <s_lp_Force_Field>
OPLS_2005

> <r_lp_Energy>
14.1853

> <b_lp_Chiralities_Consistent>
1

> <s_lp_Variant>
AV-unprocessed.smi:2825-4

> <Gold.Version>
5.8.1

> <Gold.Id.Protein>
6NUR|6NUR_protein|mol2

> <Gold.PLP.Fitness>
52.2536

> <Gold.PLP.PLP>
-43.3533

> <Gold.PLP.part.hbond>
-3.3195

> <Gold.PLP.part.metal>
0.0000

> <Gold.PLP.part.buried>
-7.3548

> <Gold.PLP.part.nonpolar>
-33.8904

> <Gold.PLP.part.repulsive>
0.0175

> <Gold.PLP.ligand.clash>
0.0000

> <Gold.PLP.ligand.torsion>
2.6327

> <Gold.PLP.Chemscore.Hbond>
3.8320

> <Gold.PLP.Chemscore.CHOScore>
0.0000

> <Gold.PLP.Chemscore.Metal>
0.0000

> <Gold.Chemscore.Hbonds>
donor molecule, donor type, donor heavy atom, donor atom, acceptor molecule, acceptor atom, score
      L1  H    15    49       P1  8028  2.00
      P1  H  6931  6943       L1     6  1.00
      P1  H  6934  6947       L1     5  0.82

> <Gold.PLP.Chemscore.Internal.Correction>
2.6697

> <Gold.Rescore>
     Score         DG    S(hbond)    S(metal)    S(lipo)     H(rot)  DE(clash)    DE(int)     intcor
     17.62     -20.29       2.63        0.00     106.32       2.51       0.01       2.67       ----

> <Gold.Chemscore.Fitness>
17.6168

> <Gold.Chemscore.DG>
-20.2927

> <Gold.Chemscore.ZeroCoef>
-5.4800

> <Gold.Chemscore.Hbond>
2.6349

> <Gold.Chemscore.Metal>
0.0000

> <Gold.Chemscore.Lipo>
106.3183

> <Gold.Chemscore.Internal_Hbond>
0.0000

> <Gold.Chemscore.DEClash>
0.0060

> <Gold.Chemscore.DEInternal>
2.6700

> <Gold.Chemscore.Rot>
2.5106

> <Gold.Chemscore.Internal.Correction>
   9.000000E+99

> <Gold.Chemscore.Hbonds>
donor molecule, donor type, donor heavy atom, donor atom, acceptor molecule, acceptor atom, score
      L1  H    15    49       P1  8028  0.98
      P1  H  6931  6943       L1     6  0.95
      P1  H  6934  6947       L1     5  0.41

> <Gold.Chemscore.Hbond.Weighted>
-8.8005

> <Gold.Chemscore.Metal.Weighted>
-0.0000

> <Gold.Chemscore.Lipo.Weighted>
-12.4392

> <Gold.Chemscore.Internal_Hbond.Weighted>
0.0000

> <Gold.Chemscore.DEClash.Weighted>
0.0060

> <Gold.Chemscore.DEInternal.Weighted>
2.6700

> <Gold.Chemscore.Rot.Weighted>
6.4271

> <Gold.Chemscore.Internal.Correction.Weighted>
   9.000000E+99

> <Gold.Protein.RotatedTorsions>
[ 6907 6896 6895 6894 ] final  -28.92 input  -60.11 | X-H torsion
[ 7974 7965 7964 7962 ] final -139.88 input  175.53 | X-H torsion
[ 8008 7997 7996 7995 ] final -115.56 input   59.86 | X-H torsion
[ 10167 10162 10161 10158 ] final  121.76 input  -65.29 | X-H torsion
[ 10718 10713 10712 10709 ] final   35.37 input   66.30 | X-H torsion
[ 10763 10752 10751 10750 ] final  124.02 input  -60.55 | X-H torsion
[ 11005 11000 10999 10996 ] final    3.75 input  -57.11 | X-H torsion

> <Gold.Protein.ActiveResidues>
 VAL166  LYS551  ARG553  GLY616  TRP617  ASP618  TYR619  PRO620  LYS621  CYS622 
 ASP623  PHE694  ASN695  SER759  ASP760  ASP761  ALA762  ILE779  LEU786  VAL792 
 PHE793  MET794  SER795  GLU796  ALA797  LYS798  CYS799  TRP800  GLU811  SER814 

> <Gold.Protein.RotatedAtoms>
  151.1264  135.0107  159.8561 H   0  0  0  0  0  0  0  0  0  0  0  0  # atno 6907 bound_to 6896
  152.5449  134.1662  159.8588 H   0  0  0  0  0  0  0  0  0  0  0  0  # atno 6908 bound_to 6896
  151.1725  133.4730  159.2627 H   0  0  0  0  0  0  0  0  0  0  0  0  # atno 6909 bound_to 6896
  144.8642  140.6267  143.5309 H   0  0  0  0  0  0  0  0  0  0  0  0  # atno 7974 bound_to 7965
  155.0540  140.0393  157.2553 H   0  0  0  0  0  0  0  0  0  0  0  0  # atno 8008 bound_to 7997
  154.7114  140.2693  155.6601 H   0  0  0  0  0  0  0  0  0  0  0  0  # atno 8009 bound_to 7997
  156.2790  140.2721  156.1757 H   0  0  0  0  0  0  0  0  0  0  0  0  # atno 8010 bound_to 7997
  139.5900  144.7021  151.3314 H   0  0  0  0  0  0  0  0  0  0  0  0  # atno 10167 bound_to 10162
  157.3218  130.7452  149.6790 H   0  0  0  0  0  0  0  0  0  0  0  0  # atno 10718 bound_to 10713
  153.6547  135.3356  155.3110 H   0  0  0  0  0  0  0  0  0  0  0  0  # atno 10763 bound_to 10752
  154.8529  135.4349  154.1867 H   0  0  0  0  0  0  0  0  0  0  0  0  # atno 10764 bound_to 10752
  153.2819  135.7009  153.7452 H   0  0  0  0  0  0  0  0  0  0  0  0  # atno 10765 bound_to 10752
  140.5896  133.9936  155.8083 H   0  0  0  0  0  0  0  0  0  0  0  0  # atno 11005 bound_to 11000
  145.4254  139.1557  143.4051 LP  0  0  0  0  0  0  0  0  0  0  0  0  # atno 17320 bound_to 7965
  146.2883  140.4367  142.8749 LP  0  0  0  0  0  0  0  0  0  0  0  0  # atno 17321 bound_to 7965
  140.7164  143.7253  150.7664 LP  0  0  0  0  0  0  0  0  0  0  0  0  # atno 17342 bound_to 10162
  140.0807  143.4972  152.2532 LP  0  0  0  0  0  0  0  0  0  0  0  0  # atno 17343 bound_to 10162
  155.9686  130.4221  150.4499 LP  0  0  0  0  0  0  0  0  0  0  0  0  # atno 17370 bound_to 10713
  157.2516  131.0547  151.2376 LP  0  0  0  0  0  0  0  0  0  0  0  0  # atno 17371 bound_to 10713
  141.0943  133.9867  157.3185 LP  0  0  0  0  0  0  0  0  0  0  0  0  # atno 17394 bound_to 11000
  139.9280  135.0201  156.8302 LP  0  0  0  0  0  0  0  0  0  0  0  0  # atno 17395 bound_to 11000

$$$$
