AV-unprocessed.smi:158|AV-procd|sdf|1336|dock3
  -GOLD-   2262019 33D 1   1.00000     0.00000
 Structure written by MMmdl.
 31 33  0  0  0  0  0  0  0  0  1 V2000
  153.8388  142.3105  160.1138 N   0  0  0  0  0  0  0  0  0  0  0  0
  153.1773  141.2859  159.5581 C   0  0  0  0  0  0  0  0  0  0  0  0
  153.4744  140.0304  159.9664 N   0  0  0  0  0  0  0  0  0  0  0  0
  152.8362  138.9792  159.4376 C   0  0  0  0  0  0  0  0  0  0  0  0
  153.2927  137.4261  160.0307 Cl  0  0  0  0  0  0  0  0  0  0  0  0
  151.8835  138.9973  158.4999 N   0  0  0  0  0  0  0  0  0  0  0  0
  151.5810  140.2619  158.0849 C   0  0  0  0  0  0  0  0  0  0  0  0
  152.1819  141.4558  158.5651 C   0  0  0  0  0  0  0  0  0  0  0  0
  151.6304  142.5562  157.9229 N   0  0  0  0  0  0  0  0  0  0  0  0
  150.7503  142.0356  157.1098 C   0  0  0  0  0  0  0  0  0  0  0  0
  150.6534  140.6616  157.1435 N   0  0  0  0  0  0  0  0  0  0  0  0
  149.7432  139.7917  156.3350 C   0  0  1  0  0  0  0  0  0  0  0  0
  148.7959  140.5888  155.6884 O   0  0  0  0  0  0  0  0  0  0  0  0
  148.7901  140.3155  154.2887 C   0  0  2  0  0  0  0  0  0  0  0  0
  147.3697  140.4401  153.7111 C   0  0  0  0  0  0  0  0  0  0  0  0
  147.3693  140.1257  152.3348 O   0  0  0  0  0  0  0  0  0  0  0  0
  149.4870  138.9540  154.1355 C   0  0  2  0  0  0  0  0  0  0  0  0
  148.5978  137.8634  154.2884 O   0  0  0  0  0  0  0  0  0  0  0  0
  150.4962  138.9858  155.2660 C   0  0  1  0  0  0  0  0  0  0  0  0
  151.5984  139.6264  154.8687 F   0  0  0  0  0  0  0  0  0  0  0  0
  149.2369  139.1571  157.0632 H   0  0  0  0  0  0  0  0  0  0  0  0
  149.4240  141.0742  153.8270 H   0  0  0  0  0  0  0  0  0  0  0  0
  149.9701  138.8577  153.1625 H   0  0  0  0  0  0  0  0  0  0  0  0
  150.7945  138.0051  155.6382 H   0  0  0  0  0  0  0  0  0  0  0  0
  153.6335  143.2565  159.8255 H   0  0  0  0  0  0  0  0  0  0  0  0
  154.5378  142.1359  160.8211 H   0  0  0  0  0  0  0  0  0  0  0  0
  150.1409  142.6452  156.4587 H   0  0  0  0  0  0  0  0  0  0  0  0
  146.6649  139.7957  154.2368 H   0  0  0  0  0  0  0  0  0  0  0  0
  147.0119  141.4631  153.8285 H   0  0  0  0  0  0  0  0  0  0  0  0
  148.2509  139.9021  152.0776 H   0  0  0  0  0  0  0  0  0  0  0  0
  148.5867  137.3740  153.4795 H   0  0  0  0  0  0  0  0  0  0  0  0
  1  2  1  0  0  0  0
  1 25  1  0  0  0  0
  1 26  1  0  0  0  0
  2  8  1  0  0  0  0
  2  3  2  0  0  0  0
  3  4  1  0  0  0  0
  4  5  1  0  0  0  0
  4  6  2  0  0  0  0
  6  7  1  0  0  0  0
  7 11  1  0  0  0  0
  7  8  2  0  0  0  0
  8  9  1  0  0  0  0
  9 10  2  0  0  0  0
 10 11  1  0  0  0  0
 10 27  1  0  0  0  0
 11 12  1  0  0  0  0
 12 21  1  0  0  0  0
 12 19  1  0  0  0  0
 12 13  1  0  0  0  0
 13 14  1  0  0  0  0
 14 22  1  0  0  0  0
 14 15  1  0  0  0  0
 14 17  1  0  0  0  0
 15 16  1  0  0  0  0
 15 28  1  0  0  0  0
 15 29  1  0  0  0  0
 16 30  1  0  0  0  0
 17 23  1  0  0  0  0
 17 18  1  0  0  0  0
 17 19  1  0  0  0  0
 18 31  1  0  0  0  0
 19 24  1  0  0  0  0
 19 20  1  0  0  0  0
M  END
> <s_m_source_file>
AV-unprocessed.smi

> <i_m_source_file_index>
158

> <i_lp_mmshare_version>
43012

> <i_f3d_flags>
0

> <s_epik_input>
Q2xjKG4xKW5jKFtOSDJdKWMoYzEyKW5bY0hdbjJbQ0BASF0zT1tDQEhdKFtDSDJdW09IXSlbQ0BASF0oW09IXSlbQ0BASF0zRg==

> <s_epik_cmdline>
J2VwaWtfcHl0aG9uJywgJy1waCcsICc3LjAnLCAnLXRuJywgJzgnLCAnLW1hJywgJzIwMCcsICctbWV0YWxfYmluZGluZycsICctaW1hZScsICc8aW5maWxlLm1hZT4nLCAnLW9tYWUnLCAnPG91dGZpbGUubWFlPic=

> <r_lp_tautomer_probability>
1

> <r_epik_Ionization_Penalty>
6.51543e-05

> <r_epik_Ionization_Penalty_Charging>
0

> <r_epik_Ionization_Penalty_Neutral>
6.51543e-05

> <r_epik_State_Penalty>
-0

> <r_epik_Charging_Adjusted_Penalty>
0

> <i_epik_Tot_Q>
0

> <i_epik_Tot_abs_Q>
0

> <r_epik_Metal_State_Penalty>
-0

> <b_epik_Metal_Only>
0

> <s_epik_Chemistry_Notes>
This compound contains an acetal/aminal-like group ( X-CH(R)-Y where X, Y are N, S, or O) that may be acid/base labile, releasing an aldehyde.

> <s_lp_Force_Field>
OPLS_2005

> <r_lp_Energy>
35.164

> <b_lp_Chiralities_Consistent>
1

> <s_lp_Variant>
AV-unprocessed.smi:158-14

> <Gold.Version>
5.8.1

> <Gold.Id.Protein>
6NUR|6NUR_protein|mol2

> <Gold.PLP.Fitness>
38.0684

> <Gold.PLP.PLP>
-29.5099

> <Gold.PLP.part.hbond>
-1.7690

> <Gold.PLP.part.metal>
0.0000

> <Gold.PLP.part.buried>
-2.7750

> <Gold.PLP.part.nonpolar>
-24.9588

> <Gold.PLP.part.repulsive>
0.1409

> <Gold.PLP.ligand.clash>
0.0000

> <Gold.PLP.ligand.torsion>
0.2209

> <Gold.PLP.Chemscore.Hbond>
2.0000

> <Gold.PLP.Chemscore.CHOScore>
1.0000

> <Gold.PLP.Chemscore.Metal>
0.0000

> <Gold.Chemscore.Hbonds>
donor molecule, donor type, donor heavy atom, donor atom, acceptor molecule, acceptor atom, score
      L1  H    16    30       P1  7957  1.00
      L1  H    18    31       P1  7948  1.00
      L1  C    10    27       P1  8028  0.95

> <Gold.PLP.Chemscore.Internal.Correction>
0.0003

> <Gold.Rescore>
     Score         DG    S(hbond)    S(metal)    S(lipo)     H(rot)  DE(clash)    DE(int)     intcor
      7.88      -8.67       2.00        0.00      38.61       3.12       0.76       0.02       ----

> <Gold.Chemscore.Fitness>
7.8839

> <Gold.Chemscore.DG>
-8.6673

> <Gold.Chemscore.ZeroCoef>
-5.4800

> <Gold.Chemscore.Hbond>
1.9953

> <Gold.Chemscore.Metal>
0.0000

> <Gold.Chemscore.Lipo>
38.6143

> <Gold.Chemscore.Internal_Hbond>
0.0000

> <Gold.Chemscore.DEClash>
0.7599

> <Gold.Chemscore.DEInternal>
0.0235

> <Gold.Chemscore.Rot>
3.1230

> <Gold.Chemscore.Internal.Correction>
   9.000000E+99

> <Gold.Chemscore.Hbonds>
donor molecule, donor type, donor heavy atom, donor atom, acceptor molecule, acceptor atom, score
      L1  H    16    30       P1  7957  0.96
      L1  H    18    31       P1  7948  0.96

> <Gold.Chemscore.Hbond.Weighted>
-6.6644

> <Gold.Chemscore.Metal.Weighted>
-0.0000

> <Gold.Chemscore.Lipo.Weighted>
-4.5179

> <Gold.Chemscore.Internal_Hbond.Weighted>
0.0000

> <Gold.Chemscore.DEClash.Weighted>
0.7599

> <Gold.Chemscore.DEInternal.Weighted>
0.0235

> <Gold.Chemscore.Rot.Weighted>
7.9950

> <Gold.Chemscore.Internal.Correction.Weighted>
   9.000000E+99

> <Gold.Protein.RotatedTorsions>
[ 6907 6896 6895 6894 ] final   25.67 input  -60.11 | X-H torsion
[ 7974 7965 7964 7962 ] final  -17.44 input  175.53 | X-H torsion
[ 8008 7997 7996 7995 ] final   80.99 input   59.86 | X-H torsion
[ 10167 10162 10161 10158 ] final  -90.25 input  -65.29 | X-H torsion
[ 10718 10713 10712 10709 ] final  -39.11 input   66.30 | X-H torsion
[ 10763 10752 10751 10750 ] final  120.02 input  -60.55 | X-H torsion
[ 11005 11000 10999 10996 ] final  101.86 input  -57.11 | X-H torsion

> <Gold.Protein.ActiveResidues>
 VAL166  LYS551  ARG553  GLY616  TRP617  ASP618  TYR619  PRO620  LYS621  CYS622 
 ASP623  PHE694  ASN695  SER759  ASP760  ASP761  ALA762  ILE779  LEU786  VAL792 
 PHE793  MET794  SER795  GLU796  ALA797  LYS798  CYS799  TRP800  GLU811  SER814 

> <Gold.Protein.RotatedAtoms>
  151.9760  135.0052  160.0554 H   0  0  0  0  0  0  0  0  0  0  0  0  # atno 6907 bound_to 6896
  152.1739  133.4657  159.4932 H   0  0  0  0  0  0  0  0  0  0  0  0  # atno 6908 bound_to 6896
  150.6906  134.1835  159.4301 H   0  0  0  0  0  0  0  0  0  0  0  0  # atno 6909 bound_to 6896
  146.1940  140.3780  142.8447 H   0  0  0  0  0  0  0  0  0  0  0  0  # atno 7974 bound_to 7965
  155.8910  140.3439  155.5956 H   0  0  0  0  0  0  0  0  0  0  0  0  # atno 8008 bound_to 7997
  155.7610  140.0832  157.2174 H   0  0  0  0  0  0  0  0  0  0  0  0  # atno 8009 bound_to 7997
  154.4033  140.1536  156.2820 H   0  0  0  0  0  0  0  0  0  0  0  0  # atno 8010 bound_to 7997
  140.3567  143.2863  151.9662 H   0  0  0  0  0  0  0  0  0  0  0  0  # atno 10167 bound_to 10162
  156.2962  130.4234  149.8189 H   0  0  0  0  0  0  0  0  0  0  0  0  # atno 10718 bound_to 10713
  153.5921  135.3464  155.2914 H   0  0  0  0  0  0  0  0  0  0  0  0  # atno 10763 bound_to 10752
  154.8651  135.4207  154.2505 H   0  0  0  0  0  0  0  0  0  0  0  0  # atno 10764 bound_to 10752
  153.3315  135.7044  153.7015 H   0  0  0  0  0  0  0  0  0  0  0  0  # atno 10765 bound_to 10752
  139.8775  134.9200  156.4971 H   0  0  0  0  0  0  0  0  0  0  0  0  # atno 11005 bound_to 11000
  144.8544  140.7048  143.6148 LP  0  0  0  0  0  0  0  0  0  0  0  0  # atno 17320 bound_to 7965
  145.3701  139.1660  143.4336 LP  0  0  0  0  0  0  0  0  0  0  0  0  # atno 17321 bound_to 7965
  139.4819  144.6029  151.7574 LP  0  0  0  0  0  0  0  0  0  0  0  0  # atno 17342 bound_to 10162
  140.5167  144.0943  150.6010 LP  0  0  0  0  0  0  0  0  0  0  0  0  # atno 17343 bound_to 10162
  156.5584  130.8372  151.3321 LP  0  0  0  0  0  0  0  0  0  0  0  0  # atno 17370 bound_to 10713
  157.7356  130.9764  150.2090 LP  0  0  0  0  0  0  0  0  0  0  0  0  # atno 17371 bound_to 10713
  140.8616  133.8055  155.9271 LP  0  0  0  0  0  0  0  0  0  0  0  0  # atno 17394 bound_to 11000
  140.9043  134.2339  157.5023 LP  0  0  0  0  0  0  0  0  0  0  0  0  # atno 17395 bound_to 11000

$$$$
