AV-unprocessed.smi:146|AV-procd|sdf|1200|dock1
  -GOLD-   2262018363D 1   1.00000     0.00000
 Structure written by MMmdl.
 55 59  0  0  0  0  0  0  0  0  1 V2000
  143.6772  146.2453  157.4877 C   0  0  0  0  0  0  0  0  0  0  0  0
  144.2803  144.9312  158.0087 C   0  0  0  0  0  0  0  0  0  0  0  0
  143.1325  143.9974  158.4443 C   0  0  0  0  0  0  0  0  0  0  0  0
  145.1393  144.2854  156.9028 C   0  0  0  0  0  0  0  0  0  0  0  0
  145.9719  143.2255  157.4533 N   0  0  0  0  0  0  0  0  0  0  0  0
  146.4606  142.3455  156.5452 C   0  0  0  0  0  0  0  0  0  0  0  0
  146.4187  142.6410  155.2185 N   0  0  0  0  0  0  0  0  0  0  0  0
  146.8906  141.7724  154.3195 C   0  0  0  0  0  0  0  0  0  0  0  0
  147.4415  140.5750  154.5260 N   0  0  0  0  0  0  0  0  0  0  0  0
  147.4987  140.2774  155.8553 C   0  0  0  0  0  0  0  0  0  0  0  0
  147.0313  141.0971  156.9213 C   0  0  0  0  0  0  0  0  0  0  0  0
  147.2590  140.4660  158.1385 N   0  0  0  0  0  0  0  0  0  0  0  0
  147.8173  139.3334  157.8098 C   0  0  0  0  0  0  0  0  0  0  0  0
  148.0114  139.1426  156.4598 N   0  0  0  0  0  0  0  0  0  0  0  0
  148.6127  137.9791  155.8251 C   0  0  0  0  0  0  0  0  0  0  0  0
  150.0429  138.2149  155.2955 C   0  0  0  0  0  0  0  0  0  0  0  0
  150.8907  136.9363  155.4185 C   0  0  0  0  0  0  0  0  0  0  0  0
  151.0440  136.2934  154.1689 O   0  0  0  0  0  0  0  0  0  0  0  0
  150.1438  138.9252  153.9386 C   0  0  0  0  0  0  0  0  0  0  0  0
  151.0875  139.8895  154.4507 O   0  0  0  0  0  0  0  0  0  0  0  0
  150.7455  139.4867  155.7934 C   0  0  0  0  0  0  0  0  0  0  0  0
  146.8604  143.7079  158.5020 C   0  0  0  0  0  0  0  0  0  0  0  0
  146.0513  144.3734  159.6365 C   0  0  1  0  0  0  0  0  0  0  0  0
  145.4059  143.3612  160.5892 C   0  0  0  0  0  0  0  0  0  0  0  0
  146.3263  143.3066  161.8116 C   0  0  0  0  0  0  0  0  0  0  0  0
  147.4382  144.1245  161.4882 O   0  0  0  0  0  0  0  0  0  0  0  0
  146.9888  145.1220  160.5885 C   0  0  0  0  0  0  0  0  0  0  0  0
  145.1079  145.3211  159.1161 O   0  0  0  0  0  0  0  0  0  0  0  0
  143.0341  146.0738  156.6238 H   0  0  0  0  0  0  0  0  0  0  0  0
  144.4568  146.9453  157.1851 H   0  0  0  0  0  0  0  0  0  0  0  0
  143.0775  146.7359  158.2552 H   0  0  0  0  0  0  0  0  0  0  0  0
  142.4286  143.8397  157.6265 H   0  0  0  0  0  0  0  0  0  0  0  0
  142.5757  144.4202  159.2809 H   0  0  0  0  0  0  0  0  0  0  0  0
  143.4871  143.0116  158.7404 H   0  0  0  0  0  0  0  0  0  0  0  0
  144.4990  143.9233  156.0986 H   0  0  0  0  0  0  0  0  0  0  0  0
  145.7975  145.0333  156.4582 H   0  0  0  0  0  0  0  0  0  0  0  0
  146.8154  142.0810  153.2871 H   0  0  0  0  0  0  0  0  0  0  0  0
  148.1143  138.6040  158.5495 H   0  0  0  0  0  0  0  0  0  0  0  0
  148.6011  137.1574  156.5423 H   0  0  0  0  0  0  0  0  0  0  0  0
  147.9531  137.6648  155.0154 H   0  0  0  0  0  0  0  0  0  0  0  0
  151.8870  137.1734  155.7934 H   0  0  0  0  0  0  0  0  0  0  0  0
  150.4612  136.2347  156.1335 H   0  0  0  0  0  0  0  0  0  0  0  0
  150.1854  136.1116  153.8177 H   0  0  0  0  0  0  0  0  0  0  0  0
  150.5625  138.3097  153.1414 H   0  0  0  0  0  0  0  0  0  0  0  0
  149.2153  139.3998  153.6166 H   0  0  0  0  0  0  0  0  0  0  0  0
  150.0813  140.2108  156.2665 H   0  0  0  0  0  0  0  0  0  0  0  0
  151.6222  139.2985  156.4147 H   0  0  0  0  0  0  0  0  0  0  0  0
  147.4637  142.8916  158.9023 H   0  0  0  0  0  0  0  0  0  0  0  0
  147.5507  144.4295  158.0625 H   0  0  0  0  0  0  0  0  0  0  0  0
  144.4168  143.6922  160.9070 H   0  0  0  0  0  0  0  0  0  0  0  0
  145.2927  142.3789  160.1295 H   0  0  0  0  0  0  0  0  0  0  0  0
  145.8226  143.7122  162.6900 H   0  0  0  0  0  0  0  0  0  0  0  0
  146.6501  142.2917  162.0436 H   0  0  0  0  0  0  0  0  0  0  0  0
  147.8182  145.6157  160.0815 H   0  0  0  0  0  0  0  0  0  0  0  0
  146.4434  145.8807  161.1525 H   0  0  0  0  0  0  0  0  0  0  0  0
  1  2  1  0  0  0  0
  1 29  1  0  0  0  0
  1 30  1  0  0  0  0
  1 31  1  0  0  0  0
  2 28  1  0  0  0  0
  2  3  1  0  0  0  0
  2  4  1  0  0  0  0
  3 32  1  0  0  0  0
  3 33  1  0  0  0  0
  3 34  1  0  0  0  0
  4  5  1  0  0  0  0
  4 35  1  0  0  0  0
  4 36  1  0  0  0  0
  5  6  1  0  0  0  0
  5 22  1  0  0  0  0
  6 11  1  0  0  0  0
  6  7  2  0  0  0  0
  7  8  1  0  0  0  0
  8  9  2  0  0  0  0
  8 37  1  0  0  0  0
  9 10  1  0  0  0  0
 10 14  1  0  0  0  0
 10 11  2  0  0  0  0
 11 12  1  0  0  0  0
 12 13  2  0  0  0  0
 13 14  1  0  0  0  0
 13 38  1  0  0  0  0
 14 15  1  0  0  0  0
 15 16  1  0  0  0  0
 15 39  1  0  0  0  0
 15 40  1  0  0  0  0
 16 21  1  0  0  0  0
 16 17  1  0  0  0  0
 16 19  1  0  0  0  0
 17 18  1  0  0  0  0
 17 41  1  0  0  0  0
 17 42  1  0  0  0  0
 18 43  1  0  0  0  0
 19 20  1  0  0  0  0
 19 44  1  0  0  0  0
 19 45  1  0  0  0  0
 20 21  1  0  0  0  0
 21 46  1  0  0  0  0
 21 47  1  0  0  0  0
 22 23  1  0  0  0  0
 22 48  1  0  0  0  0
 22 49  1  0  0  0  0
 23 27  1  0  0  0  0
 23 24  1  0  0  0  0
 23 28  1  0  0  0  0
 24 25  1  0  0  0  0
 24 50  1  0  0  0  0
 24 51  1  0  0  0  0
 25 26  1  0  0  0  0
 25 52  1  0  0  0  0
 25 53  1  0  0  0  0
 26 27  1  0  0  0  0
 27 54  1  0  0  0  0
 27 55  1  0  0  0  0
M  END
> <s_m_source_file>
AV-unprocessed.smi

> <i_m_source_file_index>
146

> <i_lp_mmshare_version>
43012

> <i_f3d_flags>
0

> <s_epik_input>
W0NIMl0xT1tDSDJdW0NIMl1bQ0BAXTEyW0NIMl1OKFtDSDJdQyhPMikoW0NIM10pW0NIM10pYyhuW2NIXW4zKWMoYzM0KW5bY0hdbjRbQ0gyXUM1KFtDSDJdW09IXSlbQ0gyXU9bQ0gyXTU=

> <s_epik_cmdline>
J2VwaWtfcHl0aG9uJywgJy1waCcsICc3LjAnLCAnLXRuJywgJzgnLCAnLW1hJywgJzIwMCcsICctbWV0YWxfYmluZGluZycsICctaW1hZScsICc8aW5maWxlLm1hZT4nLCAnLW9tYWUnLCAnPG91dGZpbGUubWFlPic=

> <r_lp_tautomer_probability>
1

> <r_epik_Ionization_Penalty>
0.00353822

> <r_epik_Ionization_Penalty_Charging>
0

> <r_epik_Ionization_Penalty_Neutral>
0.00353822

> <r_epik_State_Penalty>
0.0023805

> <r_epik_Charging_Adjusted_Penalty>
0.0023805

> <i_epik_Tot_Q>
0

> <i_epik_Tot_abs_Q>
0

> <r_epik_Metal_State_Penalty>
-0

> <b_epik_Metal_Only>
0

> <s_lp_Force_Field>
OPLS_2005

> <r_lp_Energy>
57.4997

> <b_lp_Chiralities_Consistent>
1

> <s_lp_Variant>
AV-unprocessed.smi:146-2

> <Gold.Version>
5.8.1

> <Gold.Id.Protein>
6NUR|6NUR_protein|mol2

> <Gold.PLP.Fitness>
36.7913

> <Gold.PLP.PLP>
-29.8141

> <Gold.PLP.part.hbond>
-6.0000

> <Gold.PLP.part.metal>
0.0000

> <Gold.PLP.part.buried>
-4.5515

> <Gold.PLP.part.nonpolar>
-20.8287

> <Gold.PLP.part.repulsive>
0.7004

> <Gold.PLP.ligand.clash>
0.0000

> <Gold.PLP.ligand.torsion>
1.8791

> <Gold.PLP.Chemscore.Hbond>
3.3628

> <Gold.PLP.Chemscore.CHOScore>
0.0000

> <Gold.PLP.Chemscore.Metal>
0.0000

> <Gold.Chemscore.Hbonds>
donor molecule, donor type, donor heavy atom, donor atom, acceptor molecule, acceptor atom, score
      L1  H    18    43       P1  7948  0.20
      P1  H  6933  6944       L1    26  0.24
      P1  H  7989  7998       L1    20  0.84
      P1  H 10752 10763       L1    18  1.00

> <Gold.PLP.Chemscore.Internal.Correction>
0.6470

> <Gold.Rescore>
     Score         DG    S(hbond)    S(metal)    S(lipo)     H(rot)  DE(clash)    DE(int)     intcor
     12.57     -14.64       2.78        0.00      52.15       2.44       0.01       2.07       ----

> <Gold.Chemscore.Fitness>
12.5658

> <Gold.Chemscore.DG>
-14.6372

> <Gold.Chemscore.ZeroCoef>
-5.4800

> <Gold.Chemscore.Hbond>
2.7832

> <Gold.Chemscore.Metal>
0.0000

> <Gold.Chemscore.Lipo>
52.1499

> <Gold.Chemscore.Internal_Hbond>
0.0000

> <Gold.Chemscore.DEClash>
0.0053

> <Gold.Chemscore.DEInternal>
2.0662

> <Gold.Chemscore.Rot>
2.4376

> <Gold.Chemscore.Internal.Correction>
   9.000000E+99

> <Gold.Chemscore.Hbonds>
donor molecule, donor type, donor heavy atom, donor atom, acceptor molecule, acceptor atom, score
      L1  H    18    43       P1  7948  0.01
      P1  H  7989  7998       L1    20  0.78
      P1  H 10752 10763       L1    18  0.25

> <Gold.Chemscore.Hbond.Weighted>
-9.2959

> <Gold.Chemscore.Metal.Weighted>
-0.0000

> <Gold.Chemscore.Lipo.Weighted>
-6.1015

> <Gold.Chemscore.Internal_Hbond.Weighted>
0.0000

> <Gold.Chemscore.DEClash.Weighted>
0.0053

> <Gold.Chemscore.DEInternal.Weighted>
2.0662

> <Gold.Chemscore.Rot.Weighted>
6.2402

> <Gold.Chemscore.Internal.Correction.Weighted>
   9.000000E+99

> <Gold.Protein.RotatedTorsions>
[ 6907 6896 6895 6894 ] final  -46.41 input  -60.11 | X-H torsion
[ 7974 7965 7964 7962 ] final  160.75 input  175.53 | X-H torsion
[ 8008 7997 7996 7995 ] final -130.98 input   59.86 | X-H torsion
[ 10167 10162 10161 10158 ] final  167.98 input  -65.29 | X-H torsion
[ 10718 10713 10712 10709 ] final  -66.83 input   66.30 | X-H torsion
[ 10763 10752 10751 10750 ] final   46.22 input  -60.55 | X-H torsion
[ 11005 11000 10999 10996 ] final  100.71 input  -57.11 | X-H torsion

> <Gold.Protein.ActiveResidues>
 VAL166  LYS551  ARG553  GLY616  TRP617  ASP618  TYR619  PRO620  LYS621  CYS622 
 ASP623  PHE694  ASN695  SER759  ASP760  ASP761  ALA762  ILE779  LEU786  VAL792 
 PHE793  MET794  SER795  GLU796  ALA797  LYS798  CYS799  TRP800  GLU811  SER814 

> <Gold.Protein.RotatedAtoms>
  150.9115  134.8532  159.7428 H   0  0  0  0  0  0  0  0  0  0  0  0  # atno 6907 bound_to 6896
  152.4947  134.4351  159.9535 H   0  0  0  0  0  0  0  0  0  0  0  0  # atno 6908 bound_to 6896
  151.4393  133.3608  159.2815 H   0  0  0  0  0  0  0  0  0  0  0  0  # atno 6909 bound_to 6896
  144.7721  139.7801  143.6293 H   0  0  0  0  0  0  0  0  0  0  0  0  # atno 7974 bound_to 7965
  155.3048  140.0454  157.3031 H   0  0  0  0  0  0  0  0  0  0  0  0  # atno 8008 bound_to 7997
  154.5466  140.2304  155.8520 H   0  0  0  0  0  0  0  0  0  0  0  0  # atno 8009 bound_to 7997
  156.1929  140.3046  155.9376 H   0  0  0  0  0  0  0  0  0  0  0  0  # atno 8010 bound_to 7997
  139.4957  144.3863  151.9566 H   0  0  0  0  0  0  0  0  0  0  0  0  # atno 10167 bound_to 10162
  156.0590  130.4268  150.1766 H   0  0  0  0  0  0  0  0  0  0  0  0  # atno 10718 bound_to 10713
  152.9813  135.6015  154.3565 H   0  0  0  0  0  0  0  0  0  0  0  0  # atno 10763 bound_to 10752
  154.3250  135.2769  155.2502 H   0  0  0  0  0  0  0  0  0  0  0  0  # atno 10764 bound_to 10752
  154.4652  135.5956  153.6339 H   0  0  0  0  0  0  0  0  0  0  0  0  # atno 10765 bound_to 10752
  139.8771  134.9152  156.4797 H   0  0  0  0  0  0  0  0  0  0  0  0  # atno 11005 bound_to 11000
  146.1875  139.5097  142.9827 LP  0  0  0  0  0  0  0  0  0  0  0  0  # atno 17320 bound_to 7965
  145.6294  141.0307  143.1871 LP  0  0  0  0  0  0  0  0  0  0  0  0  # atno 17321 bound_to 7965
  140.3300  144.3327  150.5989 LP  0  0  0  0  0  0  0  0  0  0  0  0  # atno 17342 bound_to 10162
  140.5653  143.2187  151.7695 LP  0  0  0  0  0  0  0  0  0  0  0  0  # atno 17343 bound_to 10162
  156.9838  130.9872  151.3431 LP  0  0  0  0  0  0  0  0  0  0  0  0  # atno 17370 bound_to 10713
  157.5584  130.8229  149.8234 LP  0  0  0  0  0  0  0  0  0  0  0  0  # atno 17371 bound_to 10713
  140.8736  133.7970  155.9391 LP  0  0  0  0  0  0  0  0  0  0  0  0  # atno 17394 bound_to 11000
  140.8927  134.2476  157.5086 LP  0  0  0  0  0  0  0  0  0  0  0  0  # atno 17395 bound_to 11000

$$$$
