#       Name:                AV-unprocessed.smi:1464
#       Creating user name   scv26
#       Creation time:       Fri Mar 27 06:01:53 2020


#       File generated by GOLD software.
#

@<TRIPOS>MOLECULE
AV-unprocessed.smi:1464
    47    48     1
SMALL
NO_CHARGES


@<TRIPOS>ATOM
      1 ****        -3.7572  -1.1269  -1.3132 C.3            1 S1                 0.0000
      2 ****        -3.1104  -0.5154  -0.0591 C.3            1 S1                 0.0000
      3 ****        -3.6507  -1.1588   1.2342 C.3            1 S1                 0.0000
      4 ****        -3.0771  -0.4758   2.4857 C.3            1 S1                 0.0000
      5 ****        -1.5414  -0.4587   2.4648 C.3            1 S1                 0.0000
      6 ****        -1.0079   0.1910   1.1735 C.3            1 S1                 0.0000
      7 ****         0.4525   0.2238   1.2021 N.am           1 S1                 0.0000
      8 ****         1.2252   1.0531   0.4838 C.2            1 S1                 0.0000
      9 ****         0.7705   1.9177  -0.2667 O.2            1 S1                 0.0000
     10 ****         2.7419   0.8787   0.6564 C.3            1 S1                 0.0000
     11 ****         3.5090   1.1727  -0.5629 N.am           1 S1                 0.0000
     12 ****         4.2851   2.4078  -0.4916 N.pl3          1 S1                -1.0000
     13 ****         5.0097   2.7984  -1.5735 C.2            1 S1                 0.0000
     14 ****         5.6685   3.8356  -1.5953 O.2            1 S1                 0.0000
     15 ****         5.0027   1.9415  -2.7475 C.2            1 S1                 0.0000
     16 ****         4.3045   0.7891  -2.7731 C.2            1 S1                 0.0000
     17 ****         3.5089   0.3345  -1.6392 C.2            1 S1                 0.0000
     18 ****         2.8793  -0.7239  -1.6511 O.2            1 S1                 0.0000
     19 ****        -1.5585  -0.5183  -0.0955 C.3            1 S1                 0.0000
     20 ****        -0.9464  -1.9204  -0.3241 C.3            1 S1                 0.0000
     21 ****        -3.5947  -2.2031  -1.3699 H              1 S1                 0.0000
     22 ****        -3.3566  -0.6770  -2.2220 H              1 S1                 0.0000
     23 ****        -4.8349  -0.9622  -1.3133 H              1 S1                 0.0000
     24 ****        -3.4189   0.5313  -0.0435 H              1 S1                 0.0000
     25 ****        -4.7389  -1.0913   1.2552 H              1 S1                 0.0000
     26 ****        -3.4123  -2.2225   1.2533 H              1 S1                 0.0000
     27 ****        -3.4496   0.5477   2.5439 H              1 S1                 0.0000
     28 ****        -3.4319  -0.9841   3.3827 H              1 S1                 0.0000
     29 ****        -1.1744   0.0867   3.3351 H              1 S1                 0.0000
     30 ****        -1.1621  -1.4766   2.5614 H              1 S1                 0.0000
     31 ****        -1.3612   1.2243   1.1661 H              1 S1                 0.0000
     32 ****         0.9116  -0.4511   1.7962 H              1 S1                 0.0000
     33 ****         3.0612   1.5221   1.4781 H              1 S1                 0.0000
     34 ****         2.9615  -0.1408   0.9792 H              1 S1                 0.0000
     35 ****         5.5728   2.2332  -3.6171 H              1 S1                 0.0000
     36 ****         4.3306   0.1817  -3.6655 H              1 S1                 0.0000
     37 ****        -1.2624   0.0846  -0.9554 H              1 S1                 0.0000
     38 ****        -1.2027  -2.6153   0.4746 H              1 S1                 0.0000
     39 ****         0.1409  -1.8774  -0.3852 H              1 S1                 0.0000
     40 ****        -1.2859  -2.3567  -1.2627 H              1 S1                 0.0000
     41 ****        -0.2189   2.0267  -0.3624 LP             1 S1                 0.0000
     42 ****         1.3908   2.5106  -0.7801 LP             1 S1                 0.0000
     43 ****         4.2835   2.9593   0.3426 LP             1 S1                 0.0000
     44 ****         5.6868   4.4333  -0.7937 LP             1 S1                 0.0000
     45 ****         6.1863   4.0820  -2.4146 LP             1 S1                 0.0000
     46 ****         2.3429  -0.9956  -0.8520 LP             1 S1                 0.0000
     47 ****         2.9045  -1.3116  -2.4598 LP             1 S1                 0.0000
@<TRIPOS>BOND
    1    1    2 1     
    2    1   21 1     
    3    1   22 1     
    4    1   23 1     
    5    2   19 1     
    6    2    3 1     
    7    2   24 1     
    8    3    4 1     
    9    3   25 1     
   10    3   26 1     
   11    4    5 1     
   12    4   27 1     
   13    4   28 1     
   14    5    6 1     
   15    5   29 1     
   16    5   30 1     
   17    6    7 1     
   18    6   19 1     
   19    6   31 1     
   20    7    8 am    
   21    7   32 1     
   22    8    9 2     
   23    8   10 1     
   24   10   33 1     
   25   10   34 1     
   26   10   11 1     
   27   11   12 1     
   28   11   17 am    
   29   12   13 1     
   30   13   14 2     
   31   13   15 1     
   32   15   35 1     
   33   15   16 2     
   34   16   36 1     
   35   16   17 1     
   36   17   18 2     
   37   19   20 1     
   38   19   37 1     
   39   20   38 1     
   40   20   39 1     
   41   20   40 1     
   42    9   41 1     
   43    9   42 1     
   44   12   43 1     
   45   14   44 1     
   46   14   45 1     
   47   18   46 1     
   48   18   47 1     
@<TRIPOS>SUBSTRUCTURE
      1 S1             1
@<TRIPOS>SET
LONE_PAIRS      STATIC     ATOMS    <user>   **** ""
7 41 42 43 44 45 46 47
DONOR_HYDROGENS      STATIC     ATOMS    <user>   **** ""
1 32
ATOM$BLUE        STATIC     ATOMS    COLORGROUP SYSTEM
7 41 42 43 44 45 46 47
ATOM$RED        STATIC     ATOMS    COLORGROUP SYSTEM
1 32
