AV-unprocessed.smi:286|AV-procd|sdf|2175|dock5
  -GOLD-   2262021533D 1   1.00000     0.00000
 Structure written by MMmdl.
 46 48  0  0  0  0  0  0  0  0  1 V2000
  152.3609  138.3387  157.5127 O   0  0  0  0  0  0  0  0  0  0  0  0
  152.4707  139.4236  158.0866 C   0  0  0  0  0  0  0  0  0  0  0  0
  151.7568  140.6258  157.6723 C   0  0  0  0  0  0  0  0  0  0  0  0
  150.8970  140.5669  156.6412 F   0  0  0  0  0  0  0  0  0  0  0  0
  151.9432  141.8013  158.3104 C   0  0  0  0  0  0  0  0  0  0  0  0
  152.8150  141.9585  159.3728 N   0  0  0  0  0  0  0  0  0  0  0  0
  152.9247  143.3163  160.0323 C   0  0  2  0  0  0  0  0  0  0  0  0
  152.3028  143.3757  161.4357 C   0  0  0  0  0  0  0  0  0  0  0  0
  151.7512  144.7849  161.4533 C   0  0  0  0  0  0  0  0  0  0  0  0
  151.3165  144.9751  160.0040 C   0  0  0  0  0  0  0  0  0  0  0  0
  152.2849  144.2687  159.2329 O   0  0  0  0  0  0  0  0  0  0  0  0
  153.5187  140.8357  159.8698 C   0  0  0  0  0  0  0  0  0  0  0  0
  154.2778  140.9335  160.8351 O   0  0  0  0  0  0  0  0  0  0  0  0
  153.3188  139.6007  159.2075 N   0  0  0  0  0  0  0  0  0  0  0  0
  154.0673  138.4452  159.6757 C   0  0  0  0  0  0  0  0  0  0  0  0
  153.3388  137.6710  160.8043 C   0  0  1  0  0  0  0  0  0  0  0  0
  153.5677  136.2976  160.5491 O   0  0  0  0  0  0  0  0  0  0  0  0
  153.8516  138.0001  162.2335 C   0  0  0  0  0  0  0  0  0  0  0  0
  155.3999  138.0568  162.2966 C   0  0  0  0  0  0  0  0  0  0  0  0
  155.9172  138.3687  163.7103 C   0  0  0  0  0  0  0  0  0  0  0  0
  155.3968  137.3480  164.7295 C   0  0  0  0  0  0  0  0  0  0  0  0
  153.8647  137.2856  164.6968 C   0  0  0  0  0  0  0  0  0  0  0  0
  153.3482  136.9759  163.2823 C   0  0  0  0  0  0  0  0  0  0  0  0
  151.3847  142.6577  157.9617 H   0  0  0  0  0  0  0  0  0  0  0  0
  153.9884  143.5566  160.0526 H   0  0  0  0  0  0  0  0  0  0  0  0
  151.5010  142.6478  161.5522 H   0  0  0  0  0  0  0  0  0  0  0  0
  153.0545  143.1922  162.2038 H   0  0  0  0  0  0  0  0  0  0  0  0
  150.9357  144.9175  162.1647 H   0  0  0  0  0  0  0  0  0  0  0  0
  152.5422  145.4933  161.7026 H   0  0  0  0  0  0  0  0  0  0  0  0
  150.3314  144.5385  159.8387 H   0  0  0  0  0  0  0  0  0  0  0  0
  151.2701  146.0255  159.7160 H   0  0  0  0  0  0  0  0  0  0  0  0
  154.3079  137.8127  158.8189 H   0  0  0  0  0  0  0  0  0  0  0  0
  155.0424  138.8214  159.9804 H   0  0  0  0  0  0  0  0  0  0  0  0
  152.2637  137.8530  160.7650 H   0  0  0  0  0  0  0  0  0  0  0  0
  154.3788  136.2125  160.0710 H   0  0  0  0  0  0  0  0  0  0  0  0
  153.4702  138.9844  162.5103 H   0  0  0  0  0  0  0  0  0  0  0  0
  155.8154  137.1060  161.9601 H   0  0  0  0  0  0  0  0  0  0  0  0
  155.7872  138.8168  161.6179 H   0  0  0  0  0  0  0  0  0  0  0  0
  157.0076  138.3743  163.7145 H   0  0  0  0  0  0  0  0  0  0  0  0
  155.6020  139.3714  164.0018 H   0  0  0  0  0  0  0  0  0  0  0  0
  155.8094  136.3632  164.5067 H   0  0  0  0  0  0  0  0  0  0  0  0
  155.7397  137.6103  165.7308 H   0  0  0  0  0  0  0  0  0  0  0  0
  153.5099  136.5275  165.3955 H   0  0  0  0  0  0  0  0  0  0  0  0
  153.4519  138.2362  165.0365 H   0  0  0  0  0  0  0  0  0  0  0  0
  152.2611  136.9514  163.3215 H   0  0  0  0  0  0  0  0  0  0  0  0
  153.6631  135.9721  162.9937 H   0  0  0  0  0  0  0  0  0  0  0  0
  1  2  2  0  0  0  0
  2 14  1  0  0  0  0
  2  3  1  0  0  0  0
  3  4  1  0  0  0  0
  3  5  2  0  0  0  0
  5  6  1  0  0  0  0
  5 24  1  0  0  0  0
  6  7  1  0  0  0  0
  6 12  1  0  0  0  0
  7 11  1  0  0  0  0
  7  8  1  0  0  0  0
  7 25  1  0  0  0  0
  8  9  1  0  0  0  0
  8 26  1  0  0  0  0
  8 27  1  0  0  0  0
  9 10  1  0  0  0  0
  9 28  1  0  0  0  0
  9 29  1  0  0  0  0
 10 11  1  0  0  0  0
 10 30  1  0  0  0  0
 10 31  1  0  0  0  0
 12 13  2  0  0  0  0
 12 14  1  0  0  0  0
 14 15  1  0  0  0  0
 15 16  1  0  0  0  0
 15 32  1  0  0  0  0
 15 33  1  0  0  0  0
 16 17  1  0  0  0  0
 16 18  1  0  0  0  0
 16 34  1  0  0  0  0
 17 35  1  0  0  0  0
 18 23  1  0  0  0  0
 18 19  1  0  0  0  0
 18 36  1  0  0  0  0
 19 20  1  0  0  0  0
 19 37  1  0  0  0  0
 19 38  1  0  0  0  0
 20 21  1  0  0  0  0
 20 39  1  0  0  0  0
 20 40  1  0  0  0  0
 21 22  1  0  0  0  0
 21 41  1  0  0  0  0
 21 42  1  0  0  0  0
 22 23  1  0  0  0  0
 22 43  1  0  0  0  0
 22 44  1  0  0  0  0
 23 45  1  0  0  0  0
 23 46  1  0  0  0  0
M  END
> <s_m_source_file>
AV-unprocessed.smi

> <i_m_source_file_index>
286

> <i_lp_mmshare_version>
43012

> <i_f3d_flags>
0

> <s_epik_input>
TzFbQ0gyXVtDSDJdW0NIMl1bQ0BIXTFuKFtjSF1jKEYpYzI9TyljKD1PKW4yW0NIMl1bQ0BIXShbT0hdKVtDSF0zW0NIMl1bQ0gyXVtDSDJdW0NIMl1bQ0gyXTM=

> <s_epik_cmdline>
J2VwaWtfcHl0aG9uJywgJy1waCcsICc3LjAnLCAnLXRuJywgJzgnLCAnLW1hJywgJzIwMCcsICctbWV0YWxfYmluZGluZycsICctaW1hZScsICc8aW5maWxlLm1hZT4nLCAnLW9tYWUnLCAnPG91dGZpbGUubWFlPic=

> <r_lp_tautomer_probability>
1

> <r_epik_Ionization_Penalty>
3.15564e-07

> <r_epik_Ionization_Penalty_Charging>
2.06416e-08

> <r_epik_Ionization_Penalty_Neutral>
2.94923e-07

> <r_epik_State_Penalty>
-0

> <r_epik_Charging_Adjusted_Penalty>
2.06416e-08

> <i_epik_Tot_Q>
0

> <i_epik_Tot_abs_Q>
0

> <r_epik_Metal_State_Penalty>
-0

> <b_epik_Metal_Only>
0

> <s_epik_Chemistry_Notes>
This compound contains an acetal/aminal-like group ( X-CH(R)-Y where X, Y are N, S, or O) that may be acid/base labile, releasing an aldehyde.

> <s_lp_Force_Field>
OPLS_2005

> <r_lp_Energy>
37.1896

> <b_lp_Chiralities_Consistent>
1

> <s_lp_Variant>
AV-unprocessed.smi:286-3

> <Gold.Version>
5.8.1

> <Gold.Id.Protein>
6NUR|6NUR_protein|mol2

> <Gold.PLP.Fitness>
46.4006

> <Gold.PLP.PLP>
-45.9583

> <Gold.PLP.part.hbond>
-0.9889

> <Gold.PLP.part.metal>
0.0000

> <Gold.PLP.part.buried>
-4.6396

> <Gold.PLP.part.nonpolar>
-40.4947

> <Gold.PLP.part.repulsive>
0.0000

> <Gold.PLP.ligand.clash>
0.0000

> <Gold.PLP.ligand.torsion>
1.2963

> <Gold.PLP.Chemscore.Hbond>
1.0000

> <Gold.PLP.Chemscore.CHOScore>
0.0000

> <Gold.PLP.Chemscore.Metal>
0.0000

> <Gold.Chemscore.Hbonds>
donor molecule, donor type, donor heavy atom, donor atom, acceptor molecule, acceptor atom, score
      P1  H  6896  6908       L1    17  1.00

> <Gold.PLP.Chemscore.Internal.Correction>
0.0350

> <Gold.Rescore>
     Score         DG    S(hbond)    S(metal)    S(lipo)     H(rot)  DE(clash)    DE(int)     intcor
     13.37     -14.68       0.99        0.00     100.05       2.28       0.04       1.26       ----

> <Gold.Chemscore.Fitness>
13.3735

> <Gold.Chemscore.DG>
-14.6755

> <Gold.Chemscore.ZeroCoef>
-5.4800

> <Gold.Chemscore.Hbond>
0.9927

> <Gold.Chemscore.Metal>
0.0000

> <Gold.Chemscore.Lipo>
100.0460

> <Gold.Chemscore.Internal_Hbond>
0.0000

> <Gold.Chemscore.DEClash>
0.0417

> <Gold.Chemscore.DEInternal>
1.2602

> <Gold.Chemscore.Rot>
2.2756

> <Gold.Chemscore.Internal.Correction>
   9.000000E+99

> <Gold.Chemscore.Hbonds>
donor molecule, donor type, donor heavy atom, donor atom, acceptor molecule, acceptor atom, score
      P1  H  6896  6908       L1    17  0.80

> <Gold.Chemscore.Hbond.Weighted>
-3.3155

> <Gold.Chemscore.Metal.Weighted>
-0.0000

> <Gold.Chemscore.Lipo.Weighted>
-11.7054

> <Gold.Chemscore.Internal_Hbond.Weighted>
0.0000

> <Gold.Chemscore.DEClash.Weighted>
0.0417

> <Gold.Chemscore.DEInternal.Weighted>
1.2602

> <Gold.Chemscore.Rot.Weighted>
5.8254

> <Gold.Chemscore.Internal.Correction.Weighted>
   9.000000E+99

> <Gold.Protein.RotatedTorsions>
[ 6907 6896 6895 6894 ] final  -75.84 input  -60.11 | X-H torsion
[ 7974 7965 7964 7962 ] final  -91.01 input  175.53 | X-H torsion
[ 8008 7997 7996 7995 ] final  -80.21 input   59.86 | X-H torsion
[ 10167 10162 10161 10158 ] final   89.10 input  -65.29 | X-H torsion
[ 10718 10713 10712 10709 ] final -117.68 input   66.30 | X-H torsion
[ 10763 10752 10751 10750 ] final   -3.01 input  -60.55 | X-H torsion
[ 11005 11000 10999 10996 ] final -173.96 input  -57.11 | X-H torsion

> <Gold.Protein.ActiveResidues>
 VAL166  LYS551  ARG553  GLY616  TRP617  ASP618  TYR619  PRO620  LYS621  CYS622 
 ASP623  PHE694  ASN695  SER759  ASP760  ASP761  ALA762  ILE779  LEU786  VAL792 
 PHE793  MET794  SER795  GLU796  ALA797  LYS798  CYS799  TRP800  GLU811  SER814 

> <Gold.Protein.RotatedAtoms>
  150.7046  134.4660  159.5402 H   0  0  0  0  0  0  0  0  0  0  0  0  # atno 6907 bound_to 6896
  152.2326  134.8304  160.0480 H   0  0  0  0  0  0  0  0  0  0  0  0  # atno 6908 bound_to 6896
  151.9115  133.3527  159.3902 H   0  0  0  0  0  0  0  0  0  0  0  0  # atno 6909 bound_to 6896
  145.4188  140.9550  143.2192 H   0  0  0  0  0  0  0  0  0  0  0  0  # atno 7974 bound_to 7965
  154.5861  140.0666  156.9173 H   0  0  0  0  0  0  0  0  0  0  0  0  # atno 8008 bound_to 7997
  155.2377  140.3342  155.4277 H   0  0  0  0  0  0  0  0  0  0  0  0  # atno 8009 bound_to 7997
  156.2224  140.1804  156.7430 H   0  0  0  0  0  0  0  0  0  0  0  0  # atno 8010 bound_to 7997
  139.8606  144.6546  150.9062 H   0  0  0  0  0  0  0  0  0  0  0  0  # atno 10167 bound_to 10162
  156.1051  130.6204  150.9194 H   0  0  0  0  0  0  0  0  0  0  0  0  # atno 10718 bound_to 10713
  153.3657  135.6992  153.6677 H   0  0  0  0  0  0  0  0  0  0  0  0  # atno 10763 bound_to 10752
  153.5348  135.3585  155.2692 H   0  0  0  0  0  0  0  0  0  0  0  0  # atno 10764 bound_to 10752
  154.8674  135.4189  154.2924 H   0  0  0  0  0  0  0  0  0  0  0  0  # atno 10765 bound_to 10752
  140.4799  134.6085  157.4915 H   0  0  0  0  0  0  0  0  0  0  0  0  # atno 11005 bound_to 11000
  144.8259  139.5711  143.6966 LP  0  0  0  0  0  0  0  0  0  0  0  0  # atno 17320 bound_to 7965
  146.2667  139.6537  142.9324 LP  0  0  0  0  0  0  0  0  0  0  0  0  # atno 17321 bound_to 7965
  140.7775  143.3747  151.1584 LP  0  0  0  0  0  0  0  0  0  0  0  0  # atno 17342 bound_to 10162
  139.7377  143.8973  152.3040 LP  0  0  0  0  0  0  0  0  0  0  0  0  # atno 17343 bound_to 10162
  157.6227  131.0928  150.8593 LP  0  0  0  0  0  0  0  0  0  0  0  0  # atno 17370 bound_to 10713
  156.8713  130.5147  149.5296 LP  0  0  0  0  0  0  0  0  0  0  0  0  # atno 17371 bound_to 10713
  139.9833  134.7102  155.9820 LP  0  0  0  0  0  0  0  0  0  0  0  0  # atno 17394 bound_to 11000
  141.1536  133.6545  156.4091 LP  0  0  0  0  0  0  0  0  0  0  0  0  # atno 17395 bound_to 11000

$$$$
