AV-unprocessed.smi:1325|AV-procd|sdf|5472|dock2
  -GOLD-   22720 5 43D 1   1.00000     0.00000
 Structure written by MMmdl.
 35 36  0  0  0  0  0  0  0  0  1 V2000
  151.3975  145.0054  160.1020 C   0  0  0  0  0  0  0  0  0  0  0  0
  151.7561  143.6689  159.5104 C   0  0  0  0  0  0  0  0  0  0  0  0
  151.3707  143.4492  158.2966 N   0  0  0  0  0  0  0  0  0  0  0  0
  151.6442  142.2542  157.6593 N   0  0  0  0  0  0  0  0  0  0  0  0
  151.1139  142.1719  156.2924 C   0  0  0  0  0  0  0  0  0  0  0  0
  150.3213  140.8676  156.0548 C   0  0  2  0  0  0  0  0  0  0  0  0
  150.9711  140.1075  155.0551 O   0  0  0  0  0  0  0  0  0  0  0  0
  148.8819  141.1680  155.6648 C   0  0  0  0  0  0  0  0  0  0  0  0
  148.5937  141.7047  154.3915 C   0  0  0  0  0  0  0  0  0  0  0  0
  147.2626  141.9787  154.0206 C   0  0  0  0  0  0  0  0  0  0  0  0
  146.2117  141.7156  154.9200 C   0  0  0  0  0  0  0  0  0  0  0  0
  146.4923  141.1769  156.1903 C   0  0  0  0  0  0  0  0  0  0  0  0
  147.8230  140.9029  156.5615 C   0  0  0  0  0  0  0  0  0  0  0  0
  152.3266  141.2147  158.2188 C   0  0  0  0  0  0  0  0  0  0  0  0
  152.5487  140.1636  157.6162 O   0  0  0  0  0  0  0  0  0  0  0  0
  152.7615  141.4710  159.5938 C   0  0  0  0  0  0  0  0  0  0  0  0
  153.4789  140.4068  160.2184 C   0  0  0  0  0  0  0  0  0  0  0  0
  154.0735  139.5582  160.7345 N   0  0  0  0  0  0  0  0  0  0  0  0
  152.4988  142.6397  160.2304 C   0  0  0  0  0  0  0  0  0  0  0  0
  152.9271  142.9544  161.6572 C   0  0  0  0  0  0  0  0  0  0  0  0
  152.2940  145.5557  160.3887 H   0  0  0  0  0  0  0  0  0  0  0  0
  150.7769  144.8814  160.9897 H   0  0  0  0  0  0  0  0  0  0  0  0
  150.8414  145.6260  159.3976 H   0  0  0  0  0  0  0  0  0  0  0  0
  150.4420  143.0218  156.1567 H   0  0  0  0  0  0  0  0  0  0  0  0
  151.8872  142.3069  155.5337 H   0  0  0  0  0  0  0  0  0  0  0  0
  150.3105  140.2705  156.9677 H   0  0  0  0  0  0  0  0  0  0  0  0
  150.3439  139.5094  154.6786 H   0  0  0  0  0  0  0  0  0  0  0  0
  149.3920  141.9075  153.6927 H   0  0  0  0  0  0  0  0  0  0  0  0
  147.0480  142.3903  153.0454 H   0  0  0  0  0  0  0  0  0  0  0  0
  145.1913  141.9253  154.6353 H   0  0  0  0  0  0  0  0  0  0  0  0
  145.6866  140.9726  156.8800 H   0  0  0  0  0  0  0  0  0  0  0  0
  148.0285  140.4866  157.5369 H   0  0  0  0  0  0  0  0  0  0  0  0
  153.4780  142.1329  162.1139 H   0  0  0  0  0  0  0  0  0  0  0  0
  152.0563  143.1525  162.2830 H   0  0  0  0  0  0  0  0  0  0  0  0
  153.5730  143.8328  161.6784 H   0  0  0  0  0  0  0  0  0  0  0  0
  1  2  1  0  0  0  0
  1 21  1  0  0  0  0
  1 22  1  0  0  0  0
  1 23  1  0  0  0  0
  2 19  1  0  0  0  0
  2  3  2  0  0  0  0
  3  4  1  0  0  0  0
  4  5  1  0  0  0  0
  4 14  1  0  0  0  0
  5  6  1  0  0  0  0
  5 24  1  0  0  0  0
  5 25  1  0  0  0  0
  6  7  1  0  0  0  0
  6  8  1  0  0  0  0
  6 26  1  0  0  0  0
  7 27  1  0  0  0  0
  8 13  1  0  0  0  0
  8  9  2  0  0  0  0
  9 10  1  0  0  0  0
  9 28  1  0  0  0  0
 10 11  2  0  0  0  0
 10 29  1  0  0  0  0
 11 12  1  0  0  0  0
 11 30  1  0  0  0  0
 12 13  2  0  0  0  0
 12 31  1  0  0  0  0
 13 32  1  0  0  0  0
 14 15  2  0  0  0  0
 14 16  1  0  0  0  0
 16 17  1  0  0  0  0
 16 19  2  0  0  0  0
 17 18  3  0  0  0  0
 19 20  1  0  0  0  0
 20 33  1  0  0  0  0
 20 34  1  0  0  0  0
 20 35  1  0  0  0  0
M  END
> <s_m_source_file>
AV-unprocessed.smi

> <i_m_source_file_index>
1325

> <i_lp_mmshare_version>
43012

> <i_f3d_flags>
0

> <s_epik_input>
TiNDYyhjMVtDSDNdKWMoPU8pbihuYzFbQ0gzXSlbQ0gyXVtDQEhdKFtPSF0pYzJbY0hdW2NIXVtjSF1bY0hdW2NIXTI=

> <s_epik_cmdline>
J2VwaWtfcHl0aG9uJywgJy1waCcsICc3LjAnLCAnLXRuJywgJzgnLCAnLW1hJywgJzIwMCcsICctbWV0YWxfYmluZGluZycsICctaW1hZScsICc8aW5maWxlLm1hZT4nLCAnLW9tYWUnLCAnPG91dGZpbGUubWFlPic=

> <r_lp_tautomer_probability>
1

> <r_epik_Ionization_Penalty>
7.1854e-08

> <r_epik_Ionization_Penalty_Charging>
1.40848e-10

> <r_epik_Ionization_Penalty_Neutral>
7.17131e-08

> <r_epik_State_Penalty>
-0

> <r_epik_Charging_Adjusted_Penalty>
1.40848e-10

> <i_epik_Tot_Q>
0

> <i_epik_Tot_abs_Q>
0

> <r_epik_Metal_State_Penalty>
-0

> <b_epik_Metal_Only>
0

> <s_lp_Force_Field>
OPLS_2005

> <r_lp_Energy>
27.9871

> <b_lp_Chiralities_Consistent>
1

> <s_lp_Variant>
AV-unprocessed.smi:1325-1

> <Gold.Version>
5.8.1

> <Gold.Id.Protein>
6NUR|6NUR_protein|mol2

> <Gold.PLP.Fitness>
45.6377

> <Gold.PLP.PLP>
-42.0075

> <Gold.PLP.part.hbond>
-2.0000

> <Gold.PLP.part.metal>
0.0000

> <Gold.PLP.part.buried>
-7.1415

> <Gold.PLP.part.nonpolar>
-32.0591

> <Gold.PLP.part.repulsive>
0.0917

> <Gold.PLP.ligand.clash>
0.0000

> <Gold.PLP.ligand.torsion>
1.0529

> <Gold.PLP.Chemscore.Hbond>
1.9100

> <Gold.PLP.Chemscore.CHOScore>
0.0000

> <Gold.PLP.Chemscore.Metal>
0.0000

> <Gold.Chemscore.Hbonds>
donor molecule, donor type, donor heavy atom, donor atom, acceptor molecule, acceptor atom, score
      P1  H  7989  7998       L1     7  1.00
      P1  H  7997  8008       L1    15  0.94

> <Gold.PLP.Chemscore.Internal.Correction>
0.0060

> <Gold.Rescore>
     Score         DG    S(hbond)    S(metal)    S(lipo)     H(rot)  DE(clash)    DE(int)     intcor
     14.58     -16.93       1.56        0.00      95.03       1.90       0.23       2.12       ----

> <Gold.Chemscore.Fitness>
14.5822

> <Gold.Chemscore.DG>
-16.9337

> <Gold.Chemscore.ZeroCoef>
-5.4800

> <Gold.Chemscore.Hbond>
1.5604

> <Gold.Chemscore.Metal>
0.0000

> <Gold.Chemscore.Lipo>
95.0261

> <Gold.Chemscore.Internal_Hbond>
0.0000

> <Gold.Chemscore.DEClash>
0.2339

> <Gold.Chemscore.DEInternal>
2.1176

> <Gold.Chemscore.Rot>
1.9047

> <Gold.Chemscore.Internal.Correction>
   9.000000E+99

> <Gold.Chemscore.Hbonds>
donor molecule, donor type, donor heavy atom, donor atom, acceptor molecule, acceptor atom, score
      P1  H  7989  7998       L1     7  0.25
      P1  H  7997  8008       L1    15  0.74

> <Gold.Chemscore.Hbond.Weighted>
-5.2117

> <Gold.Chemscore.Metal.Weighted>
-0.0000

> <Gold.Chemscore.Lipo.Weighted>
-11.1181

> <Gold.Chemscore.Internal_Hbond.Weighted>
0.0000

> <Gold.Chemscore.DEClash.Weighted>
0.2339

> <Gold.Chemscore.DEInternal.Weighted>
2.1176

> <Gold.Chemscore.Rot.Weighted>
4.8760

> <Gold.Chemscore.Internal.Correction.Weighted>
   9.000000E+99

> <Gold.Protein.RotatedTorsions>
[ 6907 6896 6895 6894 ] final   50.27 input  -60.11 | X-H torsion
[ 7974 7965 7964 7962 ] final -159.98 input  175.53 | X-H torsion
[ 8008 7997 7996 7995 ] final  -69.02 input   59.86 | X-H torsion
[ 10167 10162 10161 10158 ] final  168.80 input  -65.29 | X-H torsion
[ 10718 10713 10712 10709 ] final   52.22 input   66.30 | X-H torsion
[ 10763 10752 10751 10750 ] final  179.35 input  -60.55 | X-H torsion
[ 11005 11000 10999 10996 ] final  140.53 input  -57.11 | X-H torsion

> <Gold.Protein.ActiveResidues>
 VAL166  LYS551  ARG553  GLY616  TRP617  ASP618  TYR619  PRO620  LYS621  CYS622 
 ASP623  PHE694  ASN695  SER759  ASP760  ASP761  ALA762  ILE779  LEU786  VAL792 
 PHE793  MET794  SER795  GLU796  ALA797  LYS798  CYS799  TRP800  GLU811  SER814 

> <Gold.Protein.RotatedAtoms>
  152.2999  134.7623  160.0359 H   0  0  0  0  0  0  0  0  0  0  0  0  # atno 6907 bound_to 6896
  151.8140  133.3380  159.3572 H   0  0  0  0  0  0  0  0  0  0  0  0  # atno 6908 bound_to 6896
  150.7269  134.5567  159.5866 H   0  0  0  0  0  0  0  0  0  0  0  0  # atno 6909 bound_to 6896
  144.7444  140.3607  143.6096 H   0  0  0  0  0  0  0  0  0  0  0  0  # atno 7974 bound_to 7965
  154.4909  140.0861  156.7592 H   0  0  0  0  0  0  0  0  0  0  0  0  # atno 8008 bound_to 7997
  155.4233  140.3446  155.4255 H   0  0  0  0  0  0  0  0  0  0  0  0  # atno 8009 bound_to 7997
  156.1328  140.1506  156.9028 H   0  0  0  0  0  0  0  0  0  0  0  0  # atno 8010 bound_to 7997
  139.4976  144.3775  151.9658 H   0  0  0  0  0  0  0  0  0  0  0  0  # atno 10167 bound_to 10162
  157.5055  130.8466  149.8369 H   0  0  0  0  0  0  0  0  0  0  0  0  # atno 10718 bound_to 10713
  154.5195  135.2793  155.1275 H   0  0  0  0  0  0  0  0  0  0  0  0  # atno 10763 bound_to 10752
  154.2838  135.6280  153.5361 H   0  0  0  0  0  0  0  0  0  0  0  0  # atno 10764 bound_to 10752
  152.9934  135.5657  154.5680 H   0  0  0  0  0  0  0  0  0  0  0  0  # atno 10765 bound_to 10752
  140.0334  134.9341  157.0706 H   0  0  0  0  0  0  0  0  0  0  0  0  # atno 11005 bound_to 11000
  145.7180  139.1702  143.2501 LP  0  0  0  0  0  0  0  0  0  0  0  0  # atno 17320 bound_to 7965
  146.1298  140.7200  142.9417 LP  0  0  0  0  0  0  0  0  0  0  0  0  # atno 17321 bound_to 7965
  140.3212  144.3426  150.6009 LP  0  0  0  0  0  0  0  0  0  0  0  0  # atno 17342 bound_to 10162
  140.5721  143.2180  151.7580 LP  0  0  0  0  0  0  0  0  0  0  0  0  # atno 17343 bound_to 10162
  156.0255  130.3781  150.1835 LP  0  0  0  0  0  0  0  0  0  0  0  0  # atno 17370 bound_to 10713
  157.0025  130.9926  151.3387 LP  0  0  0  0  0  0  0  0  0  0  0  0  # atno 17371 bound_to 10713
  140.4187  134.1903  155.7164 LP  0  0  0  0  0  0  0  0  0  0  0  0  # atno 17394 bound_to 11000
  141.1844  133.8345  157.1142 LP  0  0  0  0  0  0  0  0  0  0  0  0  # atno 17395 bound_to 11000

$$$$
