AV-unprocessed.smi:1279|AV-procd|sdf|5356|dock4
  -GOLD-   22720 4493D 1   1.00000     0.00000
 Structure written by MMmdl.
 46 47  0  0  0  0  0  0  0  0  2 V2000
  145.8916  129.2791  152.1740 C   0  0  0  0  0  0  0  0  0  0  0  0
  146.4833  130.6346  152.4249 C   0  0  0  0  0  0  0  0  0  0  0  0
  146.0329  131.8936  151.9313 C   0  0  0  0  0  0  0  0  0  0  0  0
  146.9346  132.7689  152.4719 C   0  0  0  0  0  0  0  0  0  0  0  0
  146.9948  134.1213  152.3457 N   0  0  0  0  0  0  0  0  0  0  0  0
  146.0018  135.0204  152.4608 C   0  0  0  0  0  0  0  0  0  0  0  0
  144.8246  134.7597  152.7098 O   0  0  0  0  0  0  0  0  0  0  0  0
  146.4507  136.2678  152.2600 N   0  0  0  0  0  0  0  0  0  0  0  0
  145.6267  137.4702  152.3118 C   0  0  0  0  0  0  0  0  0  0  0  0
  146.4599  138.7391  152.0450 C   0  0  0  0  0  0  0  0  0  0  0  0
  146.3937  139.7095  153.1669 N   0  3  2  0  0  0  0  0  0  0  0  0
  147.1308  140.9638  152.8643 C   0  0  0  0  0  0  0  0  0  0  0  0
  146.9449  142.0080  153.9800 C   0  0  0  0  0  0  0  0  0  0  0  0
  147.3520  141.4636  155.3608 C   0  0  2  0  0  0  0  0  0  0  0  0
  148.8775  141.3492  155.5292 C   0  0  0  0  0  0  0  0  0  0  0  0
  146.6213  140.1335  155.6192 C   0  0  0  0  0  0  0  0  0  0  0  0
  146.8148  139.1283  154.4696 C   0  0  0  0  0  0  0  0  0  0  0  0
  147.8429  132.0618  153.2281 N   0  0  0  0  0  0  0  0  0  0  0  0
  148.9760  132.5422  153.9948 C   0  0  0  0  0  0  0  0  0  0  0  0
  147.5598  130.7416  153.1958 N   0  0  0  0  0  0  0  0  0  0  0  0
  145.0162  129.3446  151.5279 H   0  0  0  0  0  0  0  0  0  0  0  0
  145.5803  128.8079  153.1067 H   0  0  0  0  0  0  0  0  0  0  0  0
  146.6121  128.6198  151.6896 H   0  0  0  0  0  0  0  0  0  0  0  0
  145.1872  132.0964  151.2918 H   0  0  0  0  0  0  0  0  0  0  0  0
  147.9079  134.4904  152.1245 H   0  0  0  0  0  0  0  0  0  0  0  0
  147.4328  136.3949  152.0628 H   0  0  0  0  0  0  0  0  0  0  0  0
  144.8087  137.3917  151.5935 H   0  0  0  0  0  0  0  0  0  0  0  0
  145.1699  137.5038  153.3000 H   0  0  0  0  0  0  0  0  0  0  0  0
  147.5003  138.4844  151.8363 H   0  0  0  0  0  0  0  0  0  0  0  0
  146.0754  139.2170  151.1430 H   0  0  0  0  0  0  0  0  0  0  0  0
  148.1888  140.7418  152.7181 H   0  0  0  0  0  0  0  0  0  0  0  0
  146.7674  141.3848  151.9258 H   0  0  0  0  0  0  0  0  0  0  0  0
  147.5115  142.9102  153.7470 H   0  0  0  0  0  0  0  0  0  0  0  0
  145.8970  142.3101  154.0101 H   0  0  0  0  0  0  0  0  0  0  0  0
  147.0117  142.1785  156.1111 H   0  0  0  0  0  0  0  0  0  0  0  0
  149.3203  140.6525  154.8182 H   0  0  0  0  0  0  0  0  0  0  0  0
  149.1350  141.0046  156.5311 H   0  0  0  0  0  0  0  0  0  0  0  0
  149.3591  142.3167  155.3843 H   0  0  0  0  0  0  0  0  0  0  0  0
  146.9556  139.6954  156.5604 H   0  0  0  0  0  0  0  0  0  0  0  0
  145.5550  140.3296  155.7401 H   0  0  0  0  0  0  0  0  0  0  0  0
  146.2328  138.2343  154.6900 H   0  0  0  0  0  0  0  0  0  0  0  0
  147.8573  138.8131  154.4110 H   0  0  0  0  0  0  0  0  0  0  0  0
  149.5929  133.1909  153.3725 H   0  0  0  0  0  0  0  0  0  0  0  0
  149.5852  131.7072  154.3442 H   0  0  0  0  0  0  0  0  0  0  0  0
  148.6200  133.1070  154.8568 H   0  0  0  0  0  0  0  0  0  0  0  0
  145.4229  139.9725  153.2604 H   0  0  0  0  0  0  0  0  0  0  0  0
  1  2  1  0  0  0  0
  1 21  1  0  0  0  0
  1 22  1  0  0  0  0
  1 23  1  0  0  0  0
  2 20  2  0  0  0  0
  2  3  1  0  0  0  0
  3  4  2  0  0  0  0
  3 24  1  0  0  0  0
  4  5  1  0  0  0  0
  4 18  1  0  0  0  0
  5  6  1  0  0  0  0
  5 25  1  0  0  0  0
  6  7  2  0  0  0  0
  6  8  1  0  0  0  0
  8  9  1  0  0  0  0
  8 26  1  0  0  0  0
  9 10  1  0  0  0  0
  9 27  1  0  0  0  0
  9 28  1  0  0  0  0
 10 11  1  0  0  0  0
 10 29  1  0  0  0  0
 10 30  1  0  0  0  0
 11 17  1  0  0  0  0
 11 12  1  0  0  0  0
 11 46  1  0  0  0  0
 12 13  1  0  0  0  0
 12 31  1  0  0  0  0
 12 32  1  0  0  0  0
 13 14  1  0  0  0  0
 13 33  1  0  0  0  0
 13 34  1  0  0  0  0
 14 15  1  0  0  0  0
 14 16  1  0  0  0  0
 14 35  1  0  0  0  0
 15 36  1  0  0  0  0
 15 37  1  0  0  0  0
 15 38  1  0  0  0  0
 16 17  1  0  0  0  0
 16 39  1  0  0  0  0
 16 40  1  0  0  0  0
 17 41  1  0  0  0  0
 17 42  1  0  0  0  0
 18 19  1  0  0  0  0
 18 20  1  0  0  0  0
 19 43  1  0  0  0  0
 19 44  1  0  0  0  0
 19 45  1  0  0  0  0
M  CHG  1  11   1
M  END
> <s_m_source_file>
AV-unprocessed.smi

> <i_m_source_file_index>
1279

> <i_lp_mmshare_version>
43012

> <i_f3d_flags>
0

> <s_epik_input>
W0NIM11jMVtjSF1jKG4objEpW0NIM10pW05IXUMoPU8pW05IXVtDSDJdW0NIMl1OMltDSDJdW0NIMl1bQ0hdKFtDSDNdKVtDSDJdW0NIMl0y

> <s_epik_cmdline>
J2VwaWtfcHl0aG9uJywgJy1waCcsICc3LjAnLCAnLXRuJywgJzgnLCAnLW1hJywgJzIwMCcsICctbWV0YWxfYmluZGluZycsICctaW1hZScsICc8aW5maWxlLm1hZT4nLCAnLW9tYWUnLCAnPG91dGZpbGUubWFlPic=

> <r_lp_tautomer_probability>
1

> <r_epik_Ionization_Penalty>
0.00166091

> <r_epik_Ionization_Penalty_Charging>
0.0015841

> <r_epik_Ionization_Penalty_Neutral>
7.68112e-05

> <r_epik_State_Penalty>
0.00106518

> <r_epik_Charging_Adjusted_Penalty>
0.00264928

> <i_epik_Tot_Q>
1

> <i_epik_Tot_abs_Q>
1

> <r_epik_Metal_State_Penalty>
-0

> <b_epik_Metal_Only>
0

> <s_lp_Force_Field>
OPLS_2005

> <r_lp_Energy>
19.8524

> <b_lp_Chiralities_Consistent>
1

> <s_lp_Variant>
AV-unprocessed.smi:1279-2

> <Gold.Version>
5.8.1

> <Gold.Id.Protein>
6NUR|6NUR_protein|mol2

> <Gold.PLP.Fitness>
44.1884

> <Gold.PLP.PLP>
-34.0557

> <Gold.PLP.part.hbond>
-2.9463

> <Gold.PLP.part.metal>
0.0000

> <Gold.PLP.part.buried>
-3.5900

> <Gold.PLP.part.nonpolar>
-27.8652

> <Gold.PLP.part.repulsive>
0.2401

> <Gold.PLP.ligand.clash>
0.0000

> <Gold.PLP.ligand.torsion>
0.7798

> <Gold.PLP.Chemscore.Hbond>
3.8873

> <Gold.PLP.Chemscore.CHOScore>
0.0000

> <Gold.PLP.Chemscore.Metal>
0.0000

> <Gold.Chemscore.Hbonds>
donor molecule, donor type, donor heavy atom, donor atom, acceptor molecule, acceptor atom, score
      L1  H     5    25       P1  7948  0.90
      L1  H     8    26       P1  7948  0.99
      L1  H    11    46       P1 10175  2.00

> <Gold.PLP.Chemscore.Internal.Correction>
0.0305

> <Gold.Rescore>
     Score         DG    S(hbond)    S(metal)    S(lipo)     H(rot)  DE(clash)    DE(int)     intcor
     15.97     -17.85       2.13        0.00      77.34       1.48       1.11       0.77       ----

> <Gold.Chemscore.Fitness>
15.9663

> <Gold.Chemscore.DG>
-17.8492

> <Gold.Chemscore.ZeroCoef>
-5.4800

> <Gold.Chemscore.Hbond>
2.1314

> <Gold.Chemscore.Metal>
0.0000

> <Gold.Chemscore.Lipo>
77.3385

> <Gold.Chemscore.Internal_Hbond>
0.0000

> <Gold.Chemscore.DEClash>
1.1120

> <Gold.Chemscore.DEInternal>
0.7709

> <Gold.Chemscore.Rot>
1.4838

> <Gold.Chemscore.Internal.Correction>
   9.000000E+99

> <Gold.Chemscore.Hbonds>
donor molecule, donor type, donor heavy atom, donor atom, acceptor molecule, acceptor atom, score
      L1  H     5    25       P1  7948  0.26
      L1  H     8    26       P1  7948  0.92
      L1  H    11    46       P1 10175  0.93

> <Gold.Chemscore.Hbond.Weighted>
-7.1190

> <Gold.Chemscore.Metal.Weighted>
-0.0000

> <Gold.Chemscore.Lipo.Weighted>
-9.0486

> <Gold.Chemscore.Internal_Hbond.Weighted>
0.0000

> <Gold.Chemscore.DEClash.Weighted>
1.1120

> <Gold.Chemscore.DEInternal.Weighted>
0.7709

> <Gold.Chemscore.Rot.Weighted>
3.7985

> <Gold.Chemscore.Internal.Correction.Weighted>
   9.000000E+99

> <Gold.Protein.RotatedTorsions>
[ 6907 6896 6895 6894 ] final   -4.54 input  -60.11 | X-H torsion
[ 7974 7965 7964 7962 ] final  -75.09 input  175.53 | X-H torsion
[ 8008 7997 7996 7995 ] final  -56.58 input   59.86 | X-H torsion
[ 10167 10162 10161 10158 ] final  -85.58 input  -65.29 | X-H torsion
[ 10718 10713 10712 10709 ] final  -67.60 input   66.30 | X-H torsion
[ 10763 10752 10751 10750 ] final  125.46 input  -60.55 | X-H torsion
[ 11005 11000 10999 10996 ] final  108.51 input  -57.11 | X-H torsion

> <Gold.Protein.ActiveResidues>
 VAL166  LYS551  ARG553  GLY616  TRP617  ASP618  TYR619  PRO620  LYS621  CYS622 
 ASP623  PHE694  ASN695  SER759  ASP760  ASP761  ALA762  ILE779  LEU786  VAL792 
 PHE793  MET794  SER795  GLU796  ALA797  LYS798  CYS799  TRP800  GLU811  SER814 

> <Gold.Protein.RotatedAtoms>
  151.4960  135.1059  159.9815 H   0  0  0  0  0  0  0  0  0  0  0  0  # atno 6907 bound_to 6896
  152.4721  133.8050  159.6984 H   0  0  0  0  0  0  0  0  0  0  0  0  # atno 6908 bound_to 6896
  150.8737  133.7406  159.2979 H   0  0  0  0  0  0  0  0  0  0  0  0  # atno 6909 bound_to 6896
  145.6305  140.9339  143.1089 H   0  0  0  0  0  0  0  0  0  0  0  0  # atno 7974 bound_to 7965
  154.4235  140.1126  156.5659 H   0  0  0  0  0  0  0  0  0  0  0  0  # atno 8008 bound_to 7997
  155.6262  140.3495  155.4649 H   0  0  0  0  0  0  0  0  0  0  0  0  # atno 8009 bound_to 7997
  155.9984  140.1194  157.0560 H   0  0  0  0  0  0  0  0  0  0  0  0  # atno 8010 bound_to 7997
  140.4024  143.2657  151.9125 H   0  0  0  0  0  0  0  0  0  0  0  0  # atno 10167 bound_to 10162
  156.0549  130.4280  150.1878 H   0  0  0  0  0  0  0  0  0  0  0  0  # atno 10718 bound_to 10713
  153.6777  135.3319  155.3170 H   0  0  0  0  0  0  0  0  0  0  0  0  # atno 10763 bound_to 10752
  154.8474  135.4401  154.1638 H   0  0  0  0  0  0  0  0  0  0  0  0  # atno 10764 bound_to 10752
  153.2647  135.6994  153.7619 H   0  0  0  0  0  0  0  0  0  0  0  0  # atno 10765 bound_to 10752
  139.8845  134.9432  156.5984 H   0  0  0  0  0  0  0  0  0  0  0  0  # atno 11005 bound_to 11000
  144.7195  139.8078  143.7387 LP  0  0  0  0  0  0  0  0  0  0  0  0  # atno 17320 bound_to 7965
  146.1360  139.4406  143.0139 LP  0  0  0  0  0  0  0  0  0  0  0  0  # atno 17321 bound_to 7965
  139.4784  144.5620  151.8224 LP  0  0  0  0  0  0  0  0  0  0  0  0  # atno 17342 bound_to 10162
  140.4726  144.1565  150.5920 LP  0  0  0  0  0  0  0  0  0  0  0  0  # atno 17343 bound_to 10162
  156.9956  130.9906  151.3404 LP  0  0  0  0  0  0  0  0  0  0  0  0  # atno 17370 bound_to 10713
  157.5510  130.8182  149.8145 LP  0  0  0  0  0  0  0  0  0  0  0  0  # atno 17371 bound_to 10713
  140.7902  133.8588  155.8640 LP  0  0  0  0  0  0  0  0  0  0  0  0  # atno 17394 bound_to 11000
  140.9684  134.1564  157.4597 LP  0  0  0  0  0  0  0  0  0  0  0  0  # atno 17395 bound_to 11000

$$$$
