AV-unprocessed.smi:2456|AV-procd|sdf|9703|dock1
  -GOLD-   2272013343D 1   1.00000     0.00000
 Structure written by MMmdl.
 33 34  0  0  0  0  0  0  0  0  2 V2000
  151.2290  140.8728  155.4556 C   0  0  0  0  0  0  0  0  0  0  0  0
  151.0477  142.1445  156.3012 C   0  0  1  0  0  0  0  0  0  0  0  0
  149.6122  142.4006  156.4252 N   0  0  0  0  0  0  0  0  0  0  0  0
  148.6900  141.5226  156.8491 C   0  0  0  0  0  0  0  0  0  0  0  0
  149.0315  140.3841  157.1787 O   0  0  0  0  0  0  0  0  0  0  0  0
  147.4315  142.0177  156.8633 N   0  5  0  0  0  0  0  0  0  0  0  0
  146.8111  142.3070  155.7080 C   0  0  0  0  0  0  0  0  0  0  0  0
  147.3952  142.1705  154.5120 N   0  0  0  0  0  0  0  0  0  0  0  0
  146.5658  142.5217  153.4455 C   0  0  0  0  0  0  0  0  0  0  0  0
  145.3177  142.9262  153.8380 C   0  0  0  0  0  0  0  0  0  0  0  0
  145.1460  142.8782  155.5693 S   0  0  0  0  0  0  0  0  0  0  0  0
  151.6810  141.8915  157.6878 C   0  0  0  0  0  0  0  0  0  0  0  0
  152.1248  140.7723  157.9528 O   0  0  0  0  0  0  0  0  0  0  0  0
  151.7535  142.9100  158.5720 N   0  0  0  0  0  0  0  0  0  0  0  0
  151.2938  144.2812  158.3529 C   0  0  0  0  0  0  0  0  0  0  0  0
  151.8148  145.0901  159.5411 C   0  0  0  0  0  0  0  0  0  0  0  0
  151.9734  144.0606  160.6505 C   0  0  0  0  0  0  0  0  0  0  0  0
  152.3219  142.7685  159.9116 C   0  0  0  0  0  0  0  0  0  0  0  0
  152.2842  140.6349  155.3168 H   0  0  0  0  0  0  0  0  0  0  0  0
  150.7933  141.0007  154.4641 H   0  0  0  0  0  0  0  0  0  0  0  0
  150.7499  140.0072  155.9160 H   0  0  0  0  0  0  0  0  0  0  0  0
  151.5076  142.9897  155.7889 H   0  0  0  0  0  0  0  0  0  0  0  0
  149.2884  143.3183  156.1575 H   0  0  0  0  0  0  0  0  0  0  0  0
  146.9466  142.4515  152.4376 H   0  0  0  0  0  0  0  0  0  0  0  0
  144.4932  143.2462  153.2191 H   0  0  0  0  0  0  0  0  0  0  0  0
  151.6564  144.6940  157.4107 H   0  0  0  0  0  0  0  0  0  0  0  0
  150.2028  144.2916  158.3359 H   0  0  0  0  0  0  0  0  0  0  0  0
  152.7895  145.5140  159.2956 H   0  0  0  0  0  0  0  0  0  0  0  0
  151.1525  145.9113  159.8169 H   0  0  0  0  0  0  0  0  0  0  0  0
  152.7258  144.3434  161.3873 H   0  0  0  0  0  0  0  0  0  0  0  0
  151.0231  143.9381  161.1720 H   0  0  0  0  0  0  0  0  0  0  0  0
  151.9284  141.8955  160.4347 H   0  0  0  0  0  0  0  0  0  0  0  0
  153.4038  142.6548  159.8274 H   0  0  0  0  0  0  0  0  0  0  0  0
  1  2  1  0  0  0  0
  1 19  1  0  0  0  0
  1 20  1  0  0  0  0
  1 21  1  0  0  0  0
  2  3  1  0  0  0  0
  2 12  1  0  0  0  0
  2 22  1  0  0  0  0
  3  4  1  0  0  0  0
  3 23  1  0  0  0  0
  4  5  2  0  0  0  0
  4  6  1  0  0  0  0
  6  7  1  0  0  0  0
  7 11  1  0  0  0  0
  7  8  2  0  0  0  0
  8  9  1  0  0  0  0
  9 10  2  0  0  0  0
  9 24  1  0  0  0  0
 10 11  1  0  0  0  0
 10 25  1  0  0  0  0
 12 13  2  0  0  0  0
 12 14  1  0  0  0  0
 14 18  1  0  0  0  0
 14 15  1  0  0  0  0
 15 16  1  0  0  0  0
 15 26  1  0  0  0  0
 15 27  1  0  0  0  0
 16 17  1  0  0  0  0
 16 28  1  0  0  0  0
 16 29  1  0  0  0  0
 17 18  1  0  0  0  0
 17 30  1  0  0  0  0
 17 31  1  0  0  0  0
 18 32  1  0  0  0  0
 18 33  1  0  0  0  0
M  CHG  1   6  -1
M  END
> <s_m_source_file>
AV-unprocessed.smi

> <i_m_source_file_index>
2456

> <i_lp_mmshare_version>
43012

> <i_f3d_flags>
0

> <s_epik_input>
W0NIMl0xW0NIMl1bQ0gyXVtDSDJdTjFDKD1PKVtDQEhdKFtDSDNdKVtOSF1DKD1PKVtOSF1jMm5bY0hdW2NIXXMy

> <s_epik_cmdline>
J2VwaWtfcHl0aG9uJywgJy1waCcsICc3LjAnLCAnLXRuJywgJzgnLCAnLW1hJywgJzIwMCcsICctbWV0YWxfYmluZGluZycsICctaW1hZScsICc8aW5maWxlLm1hZT4nLCAnLW9tYWUnLCAnPG91dGZpbGUubWFlPic=

> <r_lp_tautomer_probability>
1

> <r_epik_Ionization_Penalty>
5.99337

> <r_epik_Ionization_Penalty_Charging>
5.23786

> <r_epik_Ionization_Penalty_Neutral>
0.755512

> <r_epik_State_Penalty>
5.23778

> <r_epik_Charging_Adjusted_Penalty>
10.4756

> <i_epik_Tot_Q>
-1

> <i_epik_Tot_abs_Q>
1

> <r_epik_Metal_State_Penalty>
1.29566

> <b_epik_Metal_Only>
1

> <s_lp_Force_Field>
OPLS_2005

> <r_lp_Energy>
24.1286

> <b_lp_Chiralities_Consistent>
1

> <s_lp_Variant>
AV-unprocessed.smi:2456-4

> <Gold.Version>
5.8.1

> <Gold.Id.Protein>
6NUR|6NUR_protein|mol2

> <Gold.PLP.Fitness>
41.8974

> <Gold.PLP.PLP>
-37.3915

> <Gold.PLP.part.hbond>
-1.0000

> <Gold.PLP.part.metal>
0.0000

> <Gold.PLP.part.buried>
-5.1160

> <Gold.PLP.part.nonpolar>
-31.8510

> <Gold.PLP.part.repulsive>
0.5205

> <Gold.PLP.ligand.clash>
0.0000

> <Gold.PLP.ligand.torsion>
0.7726

> <Gold.PLP.Chemscore.Hbond>
1.0000

> <Gold.PLP.Chemscore.CHOScore>
1.0000

> <Gold.PLP.Chemscore.Metal>
0.0000

> <Gold.Chemscore.Hbonds>
donor molecule, donor type, donor heavy atom, donor atom, acceptor molecule, acceptor atom, score
      L1  H     3    23       P1  8028  1.00
      L1  C    10    25       P1 10174  0.43

> <Gold.PLP.Chemscore.Internal.Correction>
0.0511

> <Gold.Rescore>
     Score         DG    S(hbond)    S(metal)    S(lipo)     H(rot)  DE(clash)    DE(int)     intcor
     12.65     -15.03       1.00        0.00      82.19       1.33       0.07       2.30       ----

> <Gold.Chemscore.Fitness>
12.6526

> <Gold.Chemscore.DG>
-15.0263

> <Gold.Chemscore.ZeroCoef>
-5.4800

> <Gold.Chemscore.Hbond>
0.9975

> <Gold.Chemscore.Metal>
0.0000

> <Gold.Chemscore.Lipo>
82.1898

> <Gold.Chemscore.Internal_Hbond>
0.0000

> <Gold.Chemscore.DEClash>
0.0688

> <Gold.Chemscore.DEInternal>
2.3050

> <Gold.Chemscore.Rot>
1.3288

> <Gold.Chemscore.Internal.Correction>
   9.000000E+99

> <Gold.Chemscore.Hbonds>
donor molecule, donor type, donor heavy atom, donor atom, acceptor molecule, acceptor atom, score
      L1  H     3    23       P1  8028  0.94

> <Gold.Chemscore.Hbond.Weighted>
-3.3318

> <Gold.Chemscore.Metal.Weighted>
-0.0000

> <Gold.Chemscore.Lipo.Weighted>
-9.6162

> <Gold.Chemscore.Internal_Hbond.Weighted>
0.0000

> <Gold.Chemscore.DEClash.Weighted>
0.0688

> <Gold.Chemscore.DEInternal.Weighted>
2.3050

> <Gold.Chemscore.Rot.Weighted>
3.4017

> <Gold.Chemscore.Internal.Correction.Weighted>
   9.000000E+99

> <Gold.Protein.RotatedTorsions>
[ 6907 6896 6895 6894 ] final  -13.27 input  -60.11 | X-H torsion
[ 7974 7965 7964 7962 ] final  169.61 input  175.53 | X-H torsion
[ 8008 7997 7996 7995 ] final   31.06 input   59.86 | X-H torsion
[ 10167 10162 10161 10158 ] final  177.00 input  -65.29 | X-H torsion
[ 10718 10713 10712 10709 ] final -153.19 input   66.30 | X-H torsion
[ 10763 10752 10751 10750 ] final   99.84 input  -60.55 | X-H torsion
[ 11005 11000 10999 10996 ] final   72.03 input  -57.11 | X-H torsion

> <Gold.Protein.ActiveResidues>
 VAL166  LYS551  ARG553  GLY616  TRP617  ASP618  TYR619  PRO620  LYS621  CYS622 
 ASP623  PHE694  ASN695  SER759  ASP760  ASP761  ALA762  ILE779  LEU786  VAL792 
 PHE793  MET794  SER795  GLU796  ALA797  LYS798  CYS799  TRP800  GLU811  SER814 

> <Gold.Protein.RotatedAtoms>
  151.3575  135.0897  159.9423 H   0  0  0  0  0  0  0  0  0  0  0  0  # atno 6907 bound_to 6896
  152.5171  133.9291  159.7582 H   0  0  0  0  0  0  0  0  0  0  0  0  # atno 6908 bound_to 6896
  150.9679  133.6321  159.2772 H   0  0  0  0  0  0  0  0  0  0  0  0  # atno 6909 bound_to 6896
  144.7349  139.9080  143.6413 H   0  0  0  0  0  0  0  0  0  0  0  0  # atno 7974 bound_to 7965
  155.1003  140.3229  155.4549 H   0  0  0  0  0  0  0  0  0  0  0  0  # atno 8008 bound_to 7997
  156.2719  140.2062  156.6076 H   0  0  0  0  0  0  0  0  0  0  0  0  # atno 8009 bound_to 7997
  154.6834  140.0524  157.0277 H   0  0  0  0  0  0  0  0  0  0  0  0  # atno 8010 bound_to 7997
  139.5236  144.2849  152.0514 H   0  0  0  0  0  0  0  0  0  0  0  0  # atno 10167 bound_to 10162
  156.4826  130.8310  151.2536 H   0  0  0  0  0  0  0  0  0  0  0  0  # atno 10718 bound_to 10713
  153.3064  135.4099  155.1298 H   0  0  0  0  0  0  0  0  0  0  0  0  # atno 10763 bound_to 10752
  154.8564  135.3554  154.5782 H   0  0  0  0  0  0  0  0  0  0  0  0  # atno 10764 bound_to 10752
  153.6209  135.7064  153.5369 H   0  0  0  0  0  0  0  0  0  0  0  0  # atno 10765 bound_to 10752
  139.9512  134.7224  156.0859 H   0  0  0  0  0  0  0  0  0  0  0  0  # atno 11005 bound_to 11000
  146.1022  139.4019  143.0339 LP  0  0  0  0  0  0  0  0  0  0  0  0  # atno 17320 bound_to 7965
  145.7562  140.9953  143.1224 LP  0  0  0  0  0  0  0  0  0  0  0  0  # atno 17321 bound_to 7965
  140.2302  144.4376  150.6303 LP  0  0  0  0  0  0  0  0  0  0  0  0  # atno 17342 bound_to 10162
  140.6360  143.2195  151.6394 LP  0  0  0  0  0  0  0  0  0  0  0  0  # atno 17343 bound_to 10162
  157.7482  131.0040  150.3059 LP  0  0  0  0  0  0  0  0  0  0  0  0  # atno 17370 bound_to 10713
  156.3507  130.3830  149.7332 LP  0  0  0  0  0  0  0  0  0  0  0  0  # atno 17371 bound_to 10713
  141.1175  133.6623  156.3130 LP  0  0  0  0  0  0  0  0  0  0  0  0  # atno 17394 bound_to 11000
  140.5715  134.5835  157.5458 LP  0  0  0  0  0  0  0  0  0  0  0  0  # atno 17395 bound_to 11000

$$$$
