AV-unprocessed.smi:1845|AV-procd|sdf|7512|dock6
  -GOLD-   22720 9223D 1   1.00000     0.00000
 Structure written by MMmdl.
 45 46  0  0  0  0  0  0  0  0  1 V2000
  145.3164  134.9126  151.4903 C   0  0  0  0  0  0  0  0  0  0  0  0
  145.3815  135.9809  152.9876 S   0  0  0  0  0  0  0  0  0  0  0  0
  144.0816  135.8943  153.6696 O   0  0  0  0  0  0  0  0  0  0  0  0
  146.6253  135.6975  153.7198 O   0  0  0  0  0  0  0  0  0  0  0  0
  145.5093  137.5696  152.3287 N   0  0  0  0  0  0  0  0  0  0  0  0
  146.7827  138.2937  152.3843 C   0  0  0  0  0  0  0  0  0  0  0  0
  146.9881  139.0014  153.7386 C   0  0  0  0  0  0  0  0  0  0  0  0
  148.2811  138.5796  154.4431 C   0  0  0  0  0  0  0  0  0  0  0  0
  148.2383  138.0908  155.5722 O   0  0  0  0  0  0  0  0  0  0  0  0
  149.4230  138.7890  153.7694 N   0  0  0  0  0  0  0  0  0  0  0  0
  150.7686  138.5784  154.2937 C   0  0  0  0  0  0  0  0  0  0  0  0
  151.1468  139.6066  155.3469 C   0  0  0  0  0  0  0  0  0  0  0  0
  150.3337  140.7311  155.5890 C   0  0  0  0  0  0  0  0  0  0  0  0
  150.7117  141.6434  156.5931 C   0  0  0  0  0  0  0  0  0  0  0  0
  151.8963  141.4074  157.3309 C   0  0  0  0  0  0  0  0  0  0  0  0
  152.2867  142.2977  158.3541 N   0  0  0  0  0  0  0  0  0  0  0  0
  152.4819  141.7011  159.6729 C   0  0  0  0  0  0  0  0  0  0  0  0
  153.1927  142.6943  160.6088 C   0  0  0  0  0  0  0  0  0  0  0  0
  152.4680  143.9190  160.6546 O   0  0  0  0  0  0  0  0  0  0  0  0
  152.3925  144.5368  159.3745 C   0  0  0  0  0  0  0  0  0  0  0  0
  151.6466  143.6114  158.3992 C   0  0  0  0  0  0  0  0  0  0  0  0
  152.6786  140.3269  157.0896 N   0  0  0  0  0  0  0  0  0  0  0  0
  152.3151  139.4602  156.1225 C   0  0  0  0  0  0  0  0  0  0  0  0
  145.2219  133.8706  151.7954 H   0  0  0  0  0  0  0  0  0  0  0  0
  146.2259  135.0321  150.9030 H   0  0  0  0  0  0  0  0  0  0  0  0
  144.4529  135.1872  150.8856 H   0  0  0  0  0  0  0  0  0  0  0  0
  144.9823  137.6975  151.4643 H   0  0  0  0  0  0  0  0  0  0  0  0
  147.5938  137.5894  152.1994 H   0  0  0  0  0  0  0  0  0  0  0  0
  146.8171  139.0279  151.5791 H   0  0  0  0  0  0  0  0  0  0  0  0
  147.0077  140.0821  153.5923 H   0  0  0  0  0  0  0  0  0  0  0  0
  146.1358  138.7983  154.3887 H   0  0  0  0  0  0  0  0  0  0  0  0
  149.3563  139.1787  152.8400 H   0  0  0  0  0  0  0  0  0  0  0  0
  150.8741  137.5778  154.7162 H   0  0  0  0  0  0  0  0  0  0  0  0
  151.4691  138.6322  153.4599 H   0  0  0  0  0  0  0  0  0  0  0  0
  149.4268  140.8906  155.0244 H   0  0  0  0  0  0  0  0  0  0  0  0
  150.0819  142.4962  156.7985 H   0  0  0  0  0  0  0  0  0  0  0  0
  151.5083  141.4330  160.0848 H   0  0  0  0  0  0  0  0  0  0  0  0
  153.0664  140.7839  159.6186 H   0  0  0  0  0  0  0  0  0  0  0  0
  153.2554  142.2815  161.6158 H   0  0  0  0  0  0  0  0  0  0  0  0
  154.2156  142.8769  160.2760 H   0  0  0  0  0  0  0  0  0  0  0  0
  151.8661  145.4865  159.4682 H   0  0  0  0  0  0  0  0  0  0  0  0
  153.3949  144.7632  159.0074 H   0  0  0  0  0  0  0  0  0  0  0  0
  151.6398  144.0630  157.4064 H   0  0  0  0  0  0  0  0  0  0  0  0
  150.6084  143.4970  158.7134 H   0  0  0  0  0  0  0  0  0  0  0  0
  152.9772  138.6211  155.9721 H   0  0  0  0  0  0  0  0  0  0  0  0
  1  2  1  0  0  0  0
  1 24  1  0  0  0  0
  1 25  1  0  0  0  0
  1 26  1  0  0  0  0
  2  3  2  0  0  0  0
  2  4  2  0  0  0  0
  2  5  1  0  0  0  0
  5  6  1  0  0  0  0
  5 27  1  0  0  0  0
  6  7  1  0  0  0  0
  6 28  1  0  0  0  0
  6 29  1  0  0  0  0
  7  8  1  0  0  0  0
  7 30  1  0  0  0  0
  7 31  1  0  0  0  0
  8  9  2  0  0  0  0
  8 10  1  0  0  0  0
 10 11  1  0  0  0  0
 10 32  1  0  0  0  0
 11 12  1  0  0  0  0
 11 33  1  0  0  0  0
 11 34  1  0  0  0  0
 12 23  1  0  0  0  0
 12 13  2  0  0  0  0
 13 14  1  0  0  0  0
 13 35  1  0  0  0  0
 14 15  2  0  0  0  0
 14 36  1  0  0  0  0
 15 16  1  0  0  0  0
 15 22  1  0  0  0  0
 16 21  1  0  0  0  0
 16 17  1  0  0  0  0
 17 18  1  0  0  0  0
 17 37  1  0  0  0  0
 17 38  1  0  0  0  0
 18 19  1  0  0  0  0
 18 39  1  0  0  0  0
 18 40  1  0  0  0  0
 19 20  1  0  0  0  0
 20 21  1  0  0  0  0
 20 41  1  0  0  0  0
 20 42  1  0  0  0  0
 21 43  1  0  0  0  0
 21 44  1  0  0  0  0
 22 23  2  0  0  0  0
 23 45  1  0  0  0  0
M  END
> <s_m_source_file>
AV-unprocessed.smi

> <i_m_source_file_index>
1845

> <i_lp_mmshare_version>
43012

> <i_f3d_flags>
0

> <s_epik_input>
W0NIM11TKD1PKSg9TylbTkhdW0NIMl1bQ0gyXUMoPU8pW05IXVtDSDJdYzFbY0hdW2NIXWMobltjSF0xKU4yW0NIMl1bQ0gyXU9bQ0gyXVtDSDJdMg==

> <s_epik_cmdline>
J2VwaWtfcHl0aG9uJywgJy1waCcsICc3LjAnLCAnLXRuJywgJzgnLCAnLW1hJywgJzIwMCcsICctbWV0YWxfYmluZGluZycsICctaW1hZScsICc8aW5maWxlLm1hZT4nLCAnLW9tYWUnLCAnPG91dGZpbGUubWFlPic=

> <r_lp_tautomer_probability>
1

> <r_epik_Ionization_Penalty>
0.00479915

> <r_epik_Ionization_Penalty_Charging>
0

> <r_epik_Ionization_Penalty_Neutral>
0.00479915

> <r_epik_State_Penalty>
0.00346804

> <r_epik_Charging_Adjusted_Penalty>
0.00346804

> <i_epik_Tot_Q>
0

> <i_epik_Tot_abs_Q>
0

> <r_epik_Metal_State_Penalty>
0.0135183

> <b_epik_Metal_Only>
0

> <s_lp_Force_Field>
OPLS_2005

> <r_lp_Energy>
4.60417

> <b_lp_Chiralities_Consistent>
1

> <s_lp_Variant>
AV-unprocessed.smi:1845-1

> <Gold.Version>
5.8.1

> <Gold.Id.Protein>
6NUR|6NUR_protein|mol2

> <Gold.PLP.Fitness>
54.7157

> <Gold.PLP.PLP>
-47.4163

> <Gold.PLP.part.hbond>
-4.5457

> <Gold.PLP.part.metal>
0.0000

> <Gold.PLP.part.buried>
-4.6298

> <Gold.PLP.part.nonpolar>
-38.1439

> <Gold.PLP.part.repulsive>
0.9881

> <Gold.PLP.ligand.clash>
0.0000

> <Gold.PLP.ligand.torsion>
1.0977

> <Gold.PLP.Chemscore.Hbond>
3.0000

> <Gold.PLP.Chemscore.CHOScore>
0.0000

> <Gold.PLP.Chemscore.Metal>
0.0000

> <Gold.Chemscore.Hbonds>
donor molecule, donor type, donor heavy atom, donor atom, acceptor molecule, acceptor atom, score
      L1  H     5    27       P1 10171  0.62
      L1  H    10    32       P1  7957  1.00
      P1  H  7997  8008       L1    22  0.57

> <Gold.PLP.Chemscore.Internal.Correction>
0.4949

> <Gold.Rescore>
     Score         DG    S(hbond)    S(metal)    S(lipo)     H(rot)  DE(clash)    DE(int)     intcor
     16.79     -18.02       2.46        0.00     100.36       2.90       0.28       0.94       ----

> <Gold.Chemscore.Fitness>
16.7926

> <Gold.Chemscore.DG>
-18.0183

> <Gold.Chemscore.ZeroCoef>
-5.4800

> <Gold.Chemscore.Hbond>
2.4623

> <Gold.Chemscore.Metal>
0.0000

> <Gold.Chemscore.Lipo>
100.3612

> <Gold.Chemscore.Internal_Hbond>
0.0000

> <Gold.Chemscore.DEClash>
0.2816

> <Gold.Chemscore.DEInternal>
0.9442

> <Gold.Chemscore.Rot>
2.9015

> <Gold.Chemscore.Internal.Correction>
   9.000000E+99

> <Gold.Chemscore.Hbonds>
donor molecule, donor type, donor heavy atom, donor atom, acceptor molecule, acceptor atom, score
      L1  H     5    27       P1 10171  0.62
      L1  H    10    32       P1  7957  1.00
      P1  H  7997  8008       L1    22  0.05

> <Gold.Chemscore.Hbond.Weighted>
-8.2239

> <Gold.Chemscore.Metal.Weighted>
-0.0000

> <Gold.Chemscore.Lipo.Weighted>
-11.7423

> <Gold.Chemscore.Internal_Hbond.Weighted>
0.0000

> <Gold.Chemscore.DEClash.Weighted>
0.2816

> <Gold.Chemscore.DEInternal.Weighted>
0.9442

> <Gold.Chemscore.Rot.Weighted>
7.4278

> <Gold.Chemscore.Internal.Correction.Weighted>
   9.000000E+99

> <Gold.Protein.RotatedTorsions>
[ 6907 6896 6895 6894 ] final  -25.33 input  -60.11 | X-H torsion
[ 7974 7965 7964 7962 ] final -154.47 input  175.53 | X-H torsion
[ 8008 7997 7996 7995 ] final  -70.00 input   59.86 | X-H torsion
[ 10167 10162 10161 10158 ] final    6.19 input  -65.29 | X-H torsion
[ 10718 10713 10712 10709 ] final -172.94 input   66.30 | X-H torsion
[ 10763 10752 10751 10750 ] final  143.29 input  -60.55 | X-H torsion
[ 11005 11000 10999 10996 ] final -161.35 input  -57.11 | X-H torsion

> <Gold.Protein.ActiveResidues>
 VAL166  LYS551  ARG553  GLY616  TRP617  ASP618  TYR619  PRO620  LYS621  CYS622 
 ASP623  PHE694  ASN695  SER759  ASP760  ASP761  ALA762  ILE779  LEU786  VAL792 
 PHE793  MET794  SER795  GLU796  ALA797  LYS798  CYS799  TRP800  GLU811  SER814 

> <Gold.Protein.RotatedAtoms>
  151.1768  135.0343  159.8774 H   0  0  0  0  0  0  0  0  0  0  0  0  # atno 6907 bound_to 6896
  152.5446  134.1108  159.8368 H   0  0  0  0  0  0  0  0  0  0  0  0  # atno 6908 bound_to 6896
  151.1220  133.5050  159.2634 H   0  0  0  0  0  0  0  0  0  0  0  0  # atno 6909 bound_to 6896
  144.7688  140.4383  143.5922 H   0  0  0  0  0  0  0  0  0  0  0  0  # atno 7974 bound_to 7965
  154.4980  140.0842  156.7737 H   0  0  0  0  0  0  0  0  0  0  0  0  # atno 8008 bound_to 7997
  155.4071  140.3440  155.4243 H   0  0  0  0  0  0  0  0  0  0  0  0  # atno 8009 bound_to 7997
  156.1419  140.1532  156.8895 H   0  0  0  0  0  0  0  0  0  0  0  0  # atno 8010 bound_to 7997
  140.6441  143.7703  150.7472 H   0  0  0  0  0  0  0  0  0  0  0  0  # atno 10167 bound_to 10162
  156.7630  130.9420  151.3118 H   0  0  0  0  0  0  0  0  0  0  0  0  # atno 10718 bound_to 10713
  153.9700  135.2951  155.3428 H   0  0  0  0  0  0  0  0  0  0  0  0  # atno 10763 bound_to 10752
  154.7328  135.5060  153.8994 H   0  0  0  0  0  0  0  0  0  0  0  0  # atno 10764 bound_to 10752
  153.0905  135.6706  153.9976 H   0  0  0  0  0  0  0  0  0  0  0  0  # atno 10765 bound_to 10752
  140.6213  134.4747  157.5224 H   0  0  0  0  0  0  0  0  0  0  0  0  # atno 11005 bound_to 11000
  145.6388  139.1547  143.2927 LP  0  0  0  0  0  0  0  0  0  0  0  0  # atno 17320 bound_to 7965
  146.1817  140.6486  142.9186 LP  0  0  0  0  0  0  0  0  0  0  0  0  # atno 17321 bound_to 7965
  140.1341  143.4500  152.2236 LP  0  0  0  0  0  0  0  0  0  0  0  0  # atno 17342 bound_to 10162
  139.5651  144.7430  151.4045 LP  0  0  0  0  0  0  0  0  0  0  0  0  # atno 17343 bound_to 10162
  157.6726  130.9065  150.0075 LP  0  0  0  0  0  0  0  0  0  0  0  0  # atno 17370 bound_to 10713
  156.1327  130.3643  149.9706 LP  0  0  0  0  0  0  0  0  0  0  0  0  # atno 17371 bound_to 10713
  139.9152  134.8261  156.1390 LP  0  0  0  0  0  0  0  0  0  0  0  0  # atno 17394 bound_to 11000
  141.0740  133.6784  156.2198 LP  0  0  0  0  0  0  0  0  0  0  0  0  # atno 17395 bound_to 11000

$$$$
