AV-unprocessed.smi:788|AV-procd|sdf|3734|dock8
  -GOLD-   22720 1173D 1   1.00000     0.00000
 Structure written by MMmdl.
 35 36  0  0  0  0  0  0  0  0  1 V2000
  150.8102  140.3454  157.9970 C   0  0  0  0  0  0  0  0  0  0  0  0
  151.2156  140.9552  156.6383 C   0  0  1  0  0  0  0  0  0  0  0  0
  151.9068  139.9206  155.7283 C   0  0  0  0  0  0  0  0  0  0  0  0
  150.9140  138.9024  155.1466 C   0  0  0  0  0  0  0  0  0  0  0  0
  149.7730  139.6061  154.3983 C   0  0  0  0  0  0  0  0  0  0  0  0
  149.0424  140.6293  155.2900 C   0  0  2  0  0  0  0  0  0  0  0  0
  147.9049  141.3082  154.5052 C   0  0  0  0  0  0  0  0  0  0  0  0
  150.0497  141.6492  155.8819 C   0  0  1  0  0  0  0  0  0  0  0  0
  149.3593  142.6071  156.7436 N   0  0  0  0  0  0  0  0  0  0  0  0
  148.4895  142.3058  157.7214 C   0  0  0  0  0  0  0  0  0  0  0  0
  148.1795  141.1495  158.0020 O   0  0  0  0  0  0  0  0  0  0  0  0
  147.9610  143.3496  158.3956 N   0  0  0  0  0  0  0  0  0  0  0  0
  147.0267  143.4120  159.4712 C   0  0  0  0  0  0  0  0  0  0  0  0
  146.3048  142.3713  159.9189 N   0  0  0  0  0  0  0  0  0  0  0  0
  145.4804  142.7228  160.9792 N   0  0  0  0  0  0  0  0  0  0  0  0
  145.6131  144.0139  161.2947 C   0  0  0  0  0  0  0  0  0  0  0  0
  146.7572  144.9252  160.3254 S   0  0  0  0  0  0  0  0  0  0  0  0
  150.0344  139.5879  157.8913 H   0  0  0  0  0  0  0  0  0  0  0  0
  150.4365  141.1057  158.6830 H   0  0  0  0  0  0  0  0  0  0  0  0
  151.6655  139.8736  158.4810 H   0  0  0  0  0  0  0  0  0  0  0  0
  151.9605  141.7203  156.8620 H   0  0  0  0  0  0  0  0  0  0  0  0
  152.4007  140.4415  154.9071 H   0  0  0  0  0  0  0  0  0  0  0  0
  152.6962  139.4029  156.2744 H   0  0  0  0  0  0  0  0  0  0  0  0
  151.4352  138.2252  154.4697 H   0  0  0  0  0  0  0  0  0  0  0  0
  150.5045  138.2813  155.9436 H   0  0  0  0  0  0  0  0  0  0  0  0
  150.1750  140.1084  153.5174 H   0  0  0  0  0  0  0  0  0  0  0  0
  149.0673  138.8604  154.0310 H   0  0  0  0  0  0  0  0  0  0  0  0
  148.5802  140.0830  156.1132 H   0  0  0  0  0  0  0  0  0  0  0  0
  148.2954  141.9108  153.6847 H   0  0  0  0  0  0  0  0  0  0  0  0
  147.3066  141.9599  155.1424 H   0  0  0  0  0  0  0  0  0  0  0  0
  147.2279  140.5673  154.0791 H   0  0  0  0  0  0  0  0  0  0  0  0
  150.4779  142.1990  155.0411 H   0  0  0  0  0  0  0  0  0  0  0  0
  149.5572  143.5841  156.5793 H   0  0  0  0  0  0  0  0  0  0  0  0
  148.2982  144.2508  158.0900 H   0  0  0  0  0  0  0  0  0  0  0  0
  145.0333  144.4333  162.1035 H   0  0  0  0  0  0  0  0  0  0  0  0
  1  2  1  0  0  0  0
  1 18  1  0  0  0  0
  1 19  1  0  0  0  0
  1 20  1  0  0  0  0
  2  8  1  0  0  0  0
  2  3  1  0  0  0  0
  2 21  1  0  0  0  0
  3  4  1  0  0  0  0
  3 22  1  0  0  0  0
  3 23  1  0  0  0  0
  4  5  1  0  0  0  0
  4 24  1  0  0  0  0
  4 25  1  0  0  0  0
  5  6  1  0  0  0  0
  5 26  1  0  0  0  0
  5 27  1  0  0  0  0
  6  7  1  0  0  0  0
  6  8  1  0  0  0  0
  6 28  1  0  0  0  0
  7 29  1  0  0  0  0
  7 30  1  0  0  0  0
  7 31  1  0  0  0  0
  8  9  1  0  0  0  0
  8 32  1  0  0  0  0
  9 10  1  0  0  0  0
  9 33  1  0  0  0  0
 10 11  2  0  0  0  0
 10 12  1  0  0  0  0
 12 13  1  0  0  0  0
 12 34  1  0  0  0  0
 13 17  1  0  0  0  0
 13 14  2  0  0  0  0
 14 15  1  0  0  0  0
 15 16  2  0  0  0  0
 16 17  1  0  0  0  0
 16 35  1  0  0  0  0
M  END
> <s_m_source_file>
AV-unprocessed.smi

> <i_m_source_file_index>
788

> <i_lp_mmshare_version>
43012

> <i_f3d_flags>
0

> <s_epik_input>
W0NIM11bQ0BASF0xW0NIMl1bQ0gyXVtDSDJdW0NAQEhdKFtDSDNdKVtDQEhdMVtOSF1DKD1PKVtOSF1jMm5uW2NIXXMy

> <s_epik_cmdline>
J2VwaWtfcHl0aG9uJywgJy1waCcsICc3LjAnLCAnLXRuJywgJzgnLCAnLW1hJywgJzIwMCcsICctbWV0YWxfYmluZGluZycsICctaW1hZScsICc8aW5maWxlLm1hZT4nLCAnLW9tYWUnLCAnPG91dGZpbGUubWFlPic=

> <r_lp_tautomer_probability>
1

> <r_epik_Ionization_Penalty>
0.000304078

> <r_epik_Ionization_Penalty_Charging>
0

> <r_epik_Ionization_Penalty_Neutral>
0.000304078

> <r_epik_State_Penalty>
-0

> <r_epik_Charging_Adjusted_Penalty>
0

> <i_epik_Tot_Q>
0

> <i_epik_Tot_abs_Q>
0

> <r_epik_Metal_State_Penalty>
0.164801

> <b_epik_Metal_Only>
0

> <s_lp_Force_Field>
OPLS_2005

> <r_lp_Energy>
15.5702

> <b_lp_Chiralities_Consistent>
1

> <s_lp_Variant>
AV-unprocessed.smi:788-4

> <Gold.Version>
5.8.1

> <Gold.Id.Protein>
6NUR|6NUR_protein|mol2

> <Gold.PLP.Fitness>
37.9925

> <Gold.PLP.PLP>
-31.5025

> <Gold.PLP.part.hbond>
-4.4316

> <Gold.PLP.part.metal>
0.0000

> <Gold.PLP.part.buried>
-4.5171

> <Gold.PLP.part.nonpolar>
-23.2551

> <Gold.PLP.part.repulsive>
0.1642

> <Gold.PLP.ligand.clash>
0.0000

> <Gold.PLP.ligand.torsion>
0.1883

> <Gold.PLP.Chemscore.Hbond>
2.2840

> <Gold.PLP.Chemscore.CHOScore>
0.0000

> <Gold.PLP.Chemscore.Metal>
0.0000

> <Gold.Chemscore.Hbonds>
donor molecule, donor type, donor heavy atom, donor atom, acceptor molecule, acceptor atom, score
      L1  H     9    33       P1  8028  0.69
      L1  H    12    34       P1  8029  0.90
      P1  H  6934  6946       L1    14  0.70

> <Gold.PLP.Chemscore.Internal.Correction>
0.0145

> <Gold.Rescore>
     Score         DG    S(hbond)    S(metal)    S(lipo)     H(rot)  DE(clash)    DE(int)     intcor
     11.75     -15.85       2.01        0.00      53.04       1.00       0.02       4.09       ----

> <Gold.Chemscore.Fitness>
11.7462

> <Gold.Chemscore.DG>
-15.8490

> <Gold.Chemscore.ZeroCoef>
-5.4800

> <Gold.Chemscore.Hbond>
2.0131

> <Gold.Chemscore.Metal>
0.0000

> <Gold.Chemscore.Lipo>
53.0359

> <Gold.Chemscore.Internal_Hbond>
0.0000

> <Gold.Chemscore.DEClash>
0.0153

> <Gold.Chemscore.DEInternal>
4.0875

> <Gold.Chemscore.Rot>
1.0000

> <Gold.Chemscore.Internal.Correction>
   9.000000E+99

> <Gold.Chemscore.Hbonds>
donor molecule, donor type, donor heavy atom, donor atom, acceptor molecule, acceptor atom, score
      L1  H     9    33       P1  8028  0.69
      L1  H    12    34       P1  8029  0.20
      P1  H  6934  6946       L1    14  0.07

> <Gold.Chemscore.Hbond.Weighted>
-6.7238

> <Gold.Chemscore.Metal.Weighted>
-0.0000

> <Gold.Chemscore.Lipo.Weighted>
-6.2052

> <Gold.Chemscore.Internal_Hbond.Weighted>
0.0000

> <Gold.Chemscore.DEClash.Weighted>
0.0153

> <Gold.Chemscore.DEInternal.Weighted>
4.0875

> <Gold.Chemscore.Rot.Weighted>
2.5600

> <Gold.Chemscore.Internal.Correction.Weighted>
   9.000000E+99

> <Gold.Protein.RotatedTorsions>
[ 6907 6896 6895 6894 ] final  143.42 input  -60.11 | X-H torsion
[ 7974 7965 7964 7962 ] final   34.02 input  175.53 | X-H torsion
[ 8008 7997 7996 7995 ] final    9.50 input   59.86 | X-H torsion
[ 10167 10162 10161 10158 ] final  -77.98 input  -65.29 | X-H torsion
[ 10718 10713 10712 10709 ] final   77.87 input   66.30 | X-H torsion
[ 10763 10752 10751 10750 ] final -151.33 input  -60.55 | X-H torsion
[ 11005 11000 10999 10996 ] final   48.31 input  -57.11 | X-H torsion

> <Gold.Protein.ActiveResidues>
 VAL166  LYS551  ARG553  GLY616  TRP617  ASP618  TYR619  PRO620  LYS621  CYS622 
 ASP623  PHE694  ASN695  SER759  ASP760  ASP761  ALA762  ILE779  LEU786  VAL792 
 PHE793  MET794  SER795  GLU796  ALA797  LYS798  CYS799  TRP800  GLU811  SER814 

> <Gold.Protein.RotatedAtoms>
  152.2065  133.4879  159.5086 H   0  0  0  0  0  0  0  0  0  0  0  0  # atno 6907 bound_to 6896
  150.6981  134.1522  159.4154 H   0  0  0  0  0  0  0  0  0  0  0  0  # atno 6908 bound_to 6896
  151.9441  135.0199  160.0588 H   0  0  0  0  0  0  0  0  0  0  0  0  # atno 6909 bound_to 6896
  146.1381  139.6322  142.9181 H   0  0  0  0  0  0  0  0  0  0  0  0  # atno 7974 bound_to 7965
  154.7809  140.2818  155.6065 H   0  0  0  0  0  0  0  0  0  0  0  0  # atno 8008 bound_to 7997
  156.2949  140.2623  156.2562 H   0  0  0  0  0  0  0  0  0  0  0  0  # atno 8009 bound_to 7997
  154.9786  140.0375  157.2257 H   0  0  0  0  0  0  0  0  0  0  0  0  # atno 8010 bound_to 7997
  140.4723  143.2423  151.8186 H   0  0  0  0  0  0  0  0  0  0  0  0  # atno 10167 bound_to 10162
  157.6725  130.9842  150.1704 H   0  0  0  0  0  0  0  0  0  0  0  0  # atno 10718 bound_to 10713
  154.8064  135.3262  154.7420 H   0  0  0  0  0  0  0  0  0  0  0  0  # atno 10763 bound_to 10752
  153.8077  135.6898  153.4850 H   0  0  0  0  0  0  0  0  0  0  0  0  # atno 10764 bound_to 10752
  153.1812  135.4586  154.9976 H   0  0  0  0  0  0  0  0  0  0  0  0  # atno 10765 bound_to 10752
  140.1202  134.4839  155.8604 H   0  0  0  0  0  0  0  0  0  0  0  0  # atno 11005 bound_to 11000
  145.5109  141.0435  143.2488 LP  0  0  0  0  0  0  0  0  0  0  0  0  # atno 17320 bound_to 7965
  144.7762  139.6624  143.7174 LP  0  0  0  0  0  0  0  0  0  0  0  0  # atno 17321 bound_to 7965
  139.4820  144.4877  151.9226 LP  0  0  0  0  0  0  0  0  0  0  0  0  # atno 17342 bound_to 10162
  140.3962  144.2552  150.5896 LP  0  0  0  0  0  0  0  0  0  0  0  0  # atno 17343 bound_to 10162
  156.2459  130.3695  149.8285 LP  0  0  0  0  0  0  0  0  0  0  0  0  # atno 17370 bound_to 10713
  156.6072  130.8571  151.3446 LP  0  0  0  0  0  0  0  0  0  0  0  0  # atno 17371 bound_to 10713
  141.2150  133.6758  156.6874 LP  0  0  0  0  0  0  0  0  0  0  0  0  # atno 17394 bound_to 11000
  140.2975  134.8191  157.4069 LP  0  0  0  0  0  0  0  0  0  0  0  0  # atno 17395 bound_to 11000

$$$$
