AV-unprocessed.smi:2061|AV-procd|sdf|8388|dock5
  -GOLD-   2272011 73D 1   1.00000     0.00000
 Structure written by MMmdl.
 45 46  0  0  0  0  0  0  0  0  3 V2000
  153.6304  142.1804  160.6452 C   0  0  0  0  0  0  0  0  0  0  0  0
  152.9052  141.6306  159.4648 C   0  0  0  0  0  0  0  0  0  0  0  0
  151.7311  141.9701  158.8538 C   0  0  0  0  0  0  0  0  0  0  0  0
  151.6393  141.0331  157.7904 C   0  0  0  0  0  0  0  0  0  0  0  0
  150.5359  141.0572  156.8967 N   0  0  0  0  0  0  0  0  0  0  0  0
  150.4423  140.5341  155.6606 C   0  0  0  0  0  0  0  0  0  0  0  0
  151.3928  139.9114  155.1720 O   0  0  0  0  0  0  0  0  0  0  0  0
  149.2350  140.7852  155.0820 N   0  5  0  0  0  0  0  0  0  0  0  0
  148.7855  140.2201  153.8081 C   0  0  0  0  0  0  0  0  0  0  0  0
  147.3896  140.7753  153.4077 C   0  0  2  0  0  0  0  0  0  0  0  0
  147.0469  142.1474  154.0404 C   0  0  0  0  0  0  0  0  0  0  0  0
  146.3305  139.7441  153.6385 N   0  3  1  0  0  0  0  0  0  0  0  0
  146.4122  138.5067  152.8139 C   0  0  0  0  0  0  0  0  0  0  0  0
  145.1634  137.6363  153.0419 C   0  0  1  0  0  0  0  0  0  0  0  0
  145.2254  136.3192  152.2613 C   0  0  0  0  0  0  0  0  0  0  0  0
  145.0657  137.3257  154.4281 O   0  0  0  0  0  0  0  0  0  0  0  0
  144.9136  138.4847  155.2409 C   0  0  1  0  0  0  0  0  0  0  0  0
  144.7296  138.0311  156.6931 C   0  0  0  0  0  0  0  0  0  0  0  0
  146.1453  139.3938  155.0683 C   0  0  0  0  0  0  0  0  0  0  0  0
  152.6668  140.1972  157.7563 N   0  0  0  0  0  0  0  0  0  0  0  0
  153.4823  140.5751  158.8294 O   0  0  0  0  0  0  0  0  0  0  0  0
  153.2816  143.1857  160.8820 H   0  0  0  0  0  0  0  0  0  0  0  0
  154.7021  142.2317  160.4532 H   0  0  0  0  0  0  0  0  0  0  0  0
  153.4727  141.5514  161.5213 H   0  0  0  0  0  0  0  0  0  0  0  0
  151.0487  142.7617  159.1251 H   0  0  0  0  0  0  0  0  0  0  0  0
  149.7151  141.5402  157.2306 H   0  0  0  0  0  0  0  0  0  0  0  0
  149.4940  140.4364  153.0067 H   0  0  0  0  0  0  0  0  0  0  0  0
  148.7342  139.1319  153.8530 H   0  0  0  0  0  0  0  0  0  0  0  0
  147.4281  140.9347  152.3291 H   0  0  0  0  0  0  0  0  0  0  0  0
  147.7494  142.9230  153.7299 H   0  0  0  0  0  0  0  0  0  0  0  0
  147.0533  142.1235  155.1316 H   0  0  0  0  0  0  0  0  0  0  0  0
  146.0585  142.4827  153.7265 H   0  0  0  0  0  0  0  0  0  0  0  0
  146.4942  138.7582  151.7561 H   0  0  0  0  0  0  0  0  0  0  0  0
  147.3039  137.9370  153.0796 H   0  0  0  0  0  0  0  0  0  0  0  0
  144.2714  138.1826  152.7302 H   0  0  0  0  0  0  0  0  0  0  0  0
  145.2948  136.5020  151.1887 H   0  0  0  0  0  0  0  0  0  0  0  0
  144.3328  135.7186  152.4387 H   0  0  0  0  0  0  0  0  0  0  0  0
  146.0904  135.7248  152.5569 H   0  0  0  0  0  0  0  0  0  0  0  0
  144.0158  139.0224  154.9304 H   0  0  0  0  0  0  0  0  0  0  0  0
  144.5937  138.8857  157.3565 H   0  0  0  0  0  0  0  0  0  0  0  0
  145.5951  137.4685  157.0443 H   0  0  0  0  0  0  0  0  0  0  0  0
  143.8531  137.3907  156.7936 H   0  0  0  0  0  0  0  0  0  0  0  0
  147.0428  138.8991  155.4431 H   0  0  0  0  0  0  0  0  0  0  0  0
  146.0067  140.3001  155.6592 H   0  0  0  0  0  0  0  0  0  0  0  0
  145.4722  140.2034  153.3685 H   0  0  0  0  0  0  0  0  0  0  0  0
  1  2  1  0  0  0  0
  1 22  1  0  0  0  0
  1 23  1  0  0  0  0
  1 24  1  0  0  0  0
  2 21  1  0  0  0  0
  2  3  2  0  0  0  0
  3  4  1  0  0  0  0
  3 25  1  0  0  0  0
  4  5  1  0  0  0  0
  4 20  2  0  0  0  0
  5  6  1  0  0  0  0
  5 26  1  0  0  0  0
  6  7  2  0  0  0  0
  6  8  1  0  0  0  0
  8  9  1  0  0  0  0
  9 10  1  0  0  0  0
  9 27  1  0  0  0  0
  9 28  1  0  0  0  0
 10 11  1  0  0  0  0
 10 12  1  0  0  0  0
 10 29  1  0  0  0  0
 11 30  1  0  0  0  0
 11 31  1  0  0  0  0
 11 32  1  0  0  0  0
 12 19  1  0  0  0  0
 12 13  1  0  0  0  0
 12 45  1  0  0  0  0
 13 14  1  0  0  0  0
 13 33  1  0  0  0  0
 13 34  1  0  0  0  0
 14 15  1  0  0  0  0
 14 16  1  0  0  0  0
 14 35  1  0  0  0  0
 15 36  1  0  0  0  0
 15 37  1  0  0  0  0
 15 38  1  0  0  0  0
 16 17  1  0  0  0  0
 17 18  1  0  0  0  0
 17 19  1  0  0  0  0
 17 39  1  0  0  0  0
 18 40  1  0  0  0  0
 18 41  1  0  0  0  0
 18 42  1  0  0  0  0
 19 43  1  0  0  0  0
 19 44  1  0  0  0  0
 20 21  1  0  0  0  0
M  CHG  1   8  -1
M  CHG  1  12   1
M  END
> <s_m_source_file>
AV-unprocessed.smi

> <i_m_source_file_index>
2061

> <i_lp_mmshare_version>
43012

> <i_f3d_flags>
0

> <s_epik_input>
W0NIM11jMVtjSF1jKG5vMSlbTkhdQyg9TylbTkhdW0NIMl1bQ0BIXShbQ0gzXSlOMltDSDJdW0NAQEhdKFtDSDNdKU9bQ0BASF0oW0NIM10pW0NIMl0y

> <s_epik_cmdline>
J2VwaWtfcHl0aG9uJywgJy1waCcsICc3LjAnLCAnLXRuJywgJzgnLCAnLW1hJywgJzIwMCcsICctbWV0YWxfYmluZGluZycsICctaW1hZScsICc8aW5maWxlLm1hZT4nLCAnLW9tYWUnLCAnPG91dGZpbGUubWFlPic=

> <r_epik_Ionization_Penalty>
6.8073

> <r_epik_Ionization_Penalty_Charging>
6.80729

> <r_epik_Ionization_Penalty_Neutral>
5.65391e-06

> <r_epik_State_Penalty>
7.47323

> <r_epik_Charging_Adjusted_Penalty>
14.2805

> <i_epik_Tot_Q>
0

> <i_epik_Tot_abs_Q>
2

> <r_epik_Metal_State_Penalty>
3.40035

> <b_epik_Metal_Only>
1

> <s_lp_Force_Field>
OPLS_2005

> <r_lp_Energy>
16.5553

> <b_lp_Chiralities_Consistent>
1

> <s_lp_Variant>
AV-unprocessed.smi:2061-29

> <Gold.Version>
5.8.1

> <Gold.Id.Protein>
6NUR|6NUR_protein|mol2

> <Gold.PLP.Fitness>
41.6057

> <Gold.PLP.PLP>
-32.6012

> <Gold.PLP.part.hbond>
-4.0000

> <Gold.PLP.part.metal>
0.0000

> <Gold.PLP.part.buried>
-0.5771

> <Gold.PLP.part.nonpolar>
-28.8871

> <Gold.PLP.part.repulsive>
0.2949

> <Gold.PLP.ligand.clash>
0.0000

> <Gold.PLP.ligand.torsion>
0.7321

> <Gold.PLP.Chemscore.Hbond>
3.4449

> <Gold.PLP.Chemscore.CHOScore>
0.0000

> <Gold.PLP.Chemscore.Metal>
0.0000

> <Gold.Chemscore.Hbonds>
donor molecule, donor type, donor heavy atom, donor atom, acceptor molecule, acceptor atom, score
      L1  H    12    45       P1 10175  2.00
      P1  H  7989  7998       L1     7  1.00
      P1  H  7997  8008       L1    20  0.31

> <Gold.PLP.Chemscore.Internal.Correction>
0.1341

> <Gold.Rescore>
     Score         DG    S(hbond)    S(metal)    S(lipo)     H(rot)  DE(clash)    DE(int)     intcor
     13.80     -16.70       1.94        0.00      74.66       1.56       1.21       1.69       ----

> <Gold.Chemscore.Fitness>
13.8004

> <Gold.Chemscore.DG>
-16.7023

> <Gold.Chemscore.ZeroCoef>
-5.4800

> <Gold.Chemscore.Hbond>
1.9365

> <Gold.Chemscore.Metal>
0.0000

> <Gold.Chemscore.Lipo>
74.6594

> <Gold.Chemscore.Internal_Hbond>
0.0000

> <Gold.Chemscore.DEClash>
1.2117

> <Gold.Chemscore.DEInternal>
1.6902

> <Gold.Chemscore.Rot>
1.5550

> <Gold.Chemscore.Internal.Correction>
   9.000000E+99

> <Gold.Chemscore.Hbonds>
donor molecule, donor type, donor heavy atom, donor atom, acceptor molecule, acceptor atom, score
      L1  H    12    45       P1 10175  0.94
      P1  H  7989  7998       L1     7  0.29
      P1  H  7997  8008       L1    20  0.01

> <Gold.Chemscore.Hbond.Weighted>
-6.4681

> <Gold.Chemscore.Metal.Weighted>
-0.0000

> <Gold.Chemscore.Lipo.Weighted>
-8.7352

> <Gold.Chemscore.Internal_Hbond.Weighted>
0.0000

> <Gold.Chemscore.DEClash.Weighted>
1.2117

> <Gold.Chemscore.DEInternal.Weighted>
1.6902

> <Gold.Chemscore.Rot.Weighted>
3.9809

> <Gold.Chemscore.Internal.Correction.Weighted>
   9.000000E+99

> <Gold.Protein.RotatedTorsions>
[ 6907 6896 6895 6894 ] final  -29.48 input  -60.11 | X-H torsion
[ 7974 7965 7964 7962 ] final  -51.11 input  175.53 | X-H torsion
[ 8008 7997 7996 7995 ] final  -51.86 input   59.86 | X-H torsion
[ 10167 10162 10161 10158 ] final    6.43 input  -65.29 | X-H torsion
[ 10718 10713 10712 10709 ] final  -91.76 input   66.30 | X-H torsion
[ 10763 10752 10751 10750 ] final  -28.39 input  -60.55 | X-H torsion
[ 11005 11000 10999 10996 ] final  -48.85 input  -57.11 | X-H torsion

> <Gold.Protein.ActiveResidues>
 VAL166  LYS551  ARG553  GLY616  TRP617  ASP618  TYR619  PRO620  LYS621  CYS622 
 ASP623  PHE694  ASN695  SER759  ASP760  ASP761  ALA762  ILE779  LEU786  VAL792 
 PHE793  MET794  SER795  GLU796  ALA797  LYS798  CYS799  TRP800  GLU811  SER814 

> <Gold.Protein.RotatedAtoms>
  151.1186  135.0067  159.8527 H   0  0  0  0  0  0  0  0  0  0  0  0  # atno 6907 bound_to 6896
  152.5447  134.1749  159.8622 H   0  0  0  0  0  0  0  0  0  0  0  0  # atno 6908 bound_to 6896
  151.1806  133.4683  159.2627 H   0  0  0  0  0  0  0  0  0  0  0  0  # atno 6909 bound_to 6896
  145.9226  140.7820  142.9640 H   0  0  0  0  0  0  0  0  0  0  0  0  # atno 7974 bound_to 7965
  154.4093  140.1237  156.4898 H   0  0  0  0  0  0  0  0  0  0  0  0  # atno 8008 bound_to 7997
  155.7001  140.3495  155.4910 H   0  0  0  0  0  0  0  0  0  0  0  0  # atno 8009 bound_to 7997
  155.9392  140.1084  157.1059 H   0  0  0  0  0  0  0  0  0  0  0  0  # atno 8010 bound_to 7997
  140.6428  143.7734  150.7453 H   0  0  0  0  0  0  0  0  0  0  0  0  # atno 10167 bound_to 10162
  155.9996  130.4960  150.5523 H   0  0  0  0  0  0  0  0  0  0  0  0  # atno 10718 bound_to 10713
  153.7476  135.6928  153.4953 H   0  0  0  0  0  0  0  0  0  0  0  0  # atno 10763 bound_to 10752
  153.2025  135.4431  155.0283 H   0  0  0  0  0  0  0  0  0  0  0  0  # atno 10764 bound_to 10752
  154.8199  135.3416  154.6998 H   0  0  0  0  0  0  0  0  0  0  0  0  # atno 10765 bound_to 10752
  141.0725  133.6675  156.3501 H   0  0  0  0  0  0  0  0  0  0  0  0  # atno 11005 bound_to 11000
  144.6754  140.1999  143.7388 LP  0  0  0  0  0  0  0  0  0  0  0  0  # atno 17320 bound_to 7965
  145.8530  139.2185  143.1761 LP  0  0  0  0  0  0  0  0  0  0  0  0  # atno 17321 bound_to 7965
  140.1368  143.4476  152.2219 LP  0  0  0  0  0  0  0  0  0  0  0  0  # atno 17342 bound_to 10162
  139.5637  144.7422  151.4081 LP  0  0  0  0  0  0  0  0  0  0  0  0  # atno 17343 bound_to 10162
  157.3444  131.0722  151.1763 LP  0  0  0  0  0  0  0  0  0  0  0  0  # atno 17370 bound_to 10713
  157.2600  130.6654  149.5970 LP  0  0  0  0  0  0  0  0  0  0  0  0  # atno 17371 bound_to 10713
  140.5643  134.5903  157.5442 LP  0  0  0  0  0  0  0  0  0  0  0  0  # atno 17394 bound_to 11000
  139.9538  134.7571  156.0388 LP  0  0  0  0  0  0  0  0  0  0  0  0  # atno 17395 bound_to 11000

$$$$
