AV-unprocessed.smi:77|AV-procd|sdf|772|dock2
  -GOLD-   2262017123D 1   1.00000     0.00000
 Structure written by MMmdl.
 57 61  0  0  0  0  0  0  0  0  1 V2000
  151.7278  141.2292  157.2815 O   0  0  0  0  0  0  0  0  0  0  0  0
  150.7285  141.9030  157.0291 C   0  0  0  0  0  0  0  0  0  0  0  0
  149.4993  141.2522  156.3838 C   0  0  0  0  0  0  0  0  0  0  0  0
  149.7314  140.8784  154.9846 N   0  0  0  0  0  0  0  0  0  0  0  0
  150.5247  139.7928  154.8386 C   0  0  0  0  0  0  0  0  0  0  0  0
  151.7837  139.9362  154.3471 N   0  0  0  0  0  0  0  0  0  0  0  0
  152.5519  138.8581  154.1615 C   0  0  0  0  0  0  0  0  0  0  0  0
  152.2589  137.5748  154.3855 N   0  0  0  0  0  0  0  0  0  0  0  0
  150.9967  137.4340  154.8834 C   0  0  0  0  0  0  0  0  0  0  0  0
  150.0762  138.4836  155.1517 C   0  0  0  0  0  0  0  0  0  0  0  0
  148.8960  137.9655  155.6687 N   0  0  0  0  0  0  0  0  0  0  0  0
  149.0980  136.6765  155.6849 C   0  0  0  0  0  0  0  0  0  0  0  0
  150.3209  136.2688  155.1996 N   0  0  0  0  0  0  0  0  0  0  0  0
  150.7940  134.9027  155.0772 C   0  0  0  0  0  0  0  0  0  0  0  0
  149.6820  133.8200  155.1756 C   0  0  1  0  0  0  0  0  0  0  0  0
  148.5680  134.1470  154.1514 C   0  0  0  0  0  0  0  0  0  0  0  0
  149.0903  134.2788  152.8454 O   0  0  0  0  0  0  0  0  0  0  0  0
  150.2178  132.3657  154.9977 C   0  0  2  0  0  0  0  0  0  0  0  0
  150.9804  132.1114  153.7050 C   0  0  0  0  0  0  0  0  0  0  0  0
  150.9440  130.5950  153.5963 C   0  0  0  0  0  0  0  0  0  0  0  0
  149.6391  130.2530  154.0297 O   0  0  0  0  0  0  0  0  0  0  0  0
  149.1476  131.2605  154.9081 C   0  0  0  0  0  0  0  0  0  0  0  0
  148.5641  140.8662  154.1133 C   0  0  0  0  0  0  0  0  0  0  0  0
  147.3818  141.7433  154.4565 C   0  0  0  0  0  0  0  0  0  0  0  0
  147.2906  140.2444  154.6321 C   0  0  0  0  0  0  0  0  0  0  0  0
  150.6438  143.2195  157.2698 N   0  0  0  0  0  0  0  0  0  0  0  0
  151.6627  144.0204  157.8672 C   0  0  0  0  0  0  0  0  0  0  0  0
  152.2532  143.5440  159.1764 C   0  0  0  0  0  0  0  0  0  0  0  0
  151.3291  144.7299  159.1618 C   0  0  0  0  0  0  0  0  0  0  0  0
  149.1781  140.3850  156.9646 H   0  0  0  0  0  0  0  0  0  0  0  0
  148.6810  141.9719  156.4341 H   0  0  0  0  0  0  0  0  0  0  0  0
  153.5392  139.0498  153.7677 H   0  0  0  0  0  0  0  0  0  0  0  0
  148.3462  135.9827  156.0313 H   0  0  0  0  0  0  0  0  0  0  0  0
  151.3143  134.8335  154.1214 H   0  0  0  0  0  0  0  0  0  0  0  0
  151.5474  134.7295  155.8468 H   0  0  0  0  0  0  0  0  0  0  0  0
  149.2281  133.8808  156.1655 H   0  0  0  0  0  0  0  0  0  0  0  0
  147.7978  133.3751  154.1564 H   0  0  0  0  0  0  0  0  0  0  0  0
  148.0770  135.0917  154.3808 H   0  0  0  0  0  0  0  0  0  0  0  0
  148.8984  135.1491  152.5311 H   0  0  0  0  0  0  0  0  0  0  0  0
  150.8883  132.1314  155.8263 H   0  0  0  0  0  0  0  0  0  0  0  0
  150.4580  132.5572  152.8571 H   0  0  0  0  0  0  0  0  0  0  0  0
  152.0007  132.4956  153.7230 H   0  0  0  0  0  0  0  0  0  0  0  0
  151.1383  130.2369  152.5851 H   0  0  0  0  0  0  0  0  0  0  0  0
  151.6749  130.1433  154.2685 H   0  0  0  0  0  0  0  0  0  0  0  0
  148.9293  130.8214  155.8807 H   0  0  0  0  0  0  0  0  0  0  0  0
  148.2141  131.6386  154.4905 H   0  0  0  0  0  0  0  0  0  0  0  0
  148.7644  140.7257  153.0522 H   0  0  0  0  0  0  0  0  0  0  0  0
  147.4412  142.3500  155.3582 H   0  0  0  0  0  0  0  0  0  0  0  0
  146.8311  142.1883  153.6303 H   0  0  0  0  0  0  0  0  0  0  0  0
  146.6773  139.6908  153.9238 H   0  0  0  0  0  0  0  0  0  0  0  0
  147.2942  139.8570  155.6493 H   0  0  0  0  0  0  0  0  0  0  0  0
  149.7863  143.6903  157.0188 H   0  0  0  0  0  0  0  0  0  0  0  0
  152.3465  144.5413  157.1983 H   0  0  0  0  0  0  0  0  0  0  0  0
  151.8742  142.6144  159.5972 H   0  0  0  0  0  0  0  0  0  0  0  0
  153.3110  143.7343  159.3472 H   0  0  0  0  0  0  0  0  0  0  0  0
  151.7699  145.7115  159.3237 H   0  0  0  0  0  0  0  0  0  0  0  0
  150.3319  144.5933  159.5762 H   0  0  0  0  0  0  0  0  0  0  0  0
  1  2  2  0  0  0  0
  2  3  1  0  0  0  0
  2 26  1  0  0  0  0
  3  4  1  0  0  0  0
  3 30  1  0  0  0  0
  3 31  1  0  0  0  0
  4  5  1  0  0  0  0
  4 23  1  0  0  0  0
  5 10  1  0  0  0  0
  5  6  2  0  0  0  0
  6  7  1  0  0  0  0
  7  8  2  0  0  0  0
  7 32  1  0  0  0  0
  8  9  1  0  0  0  0
  9 13  1  0  0  0  0
  9 10  2  0  0  0  0
 10 11  1  0  0  0  0
 11 12  2  0  0  0  0
 12 13  1  0  0  0  0
 12 33  1  0  0  0  0
 13 14  1  0  0  0  0
 14 15  1  0  0  0  0
 14 34  1  0  0  0  0
 14 35  1  0  0  0  0
 15 16  1  0  0  0  0
 15 18  1  0  0  0  0
 15 36  1  0  0  0  0
 16 17  1  0  0  0  0
 16 37  1  0  0  0  0
 16 38  1  0  0  0  0
 17 39  1  0  0  0  0
 18 22  1  0  0  0  0
 18 19  1  0  0  0  0
 18 40  1  0  0  0  0
 19 20  1  0  0  0  0
 19 41  1  0  0  0  0
 19 42  1  0  0  0  0
 20 21  1  0  0  0  0
 20 43  1  0  0  0  0
 20 44  1  0  0  0  0
 21 22  1  0  0  0  0
 22 45  1  0  0  0  0
 22 46  1  0  0  0  0
 23 25  1  0  0  0  0
 23 24  1  0  0  0  0
 23 47  1  0  0  0  0
 24 25  1  0  0  0  0
 24 48  1  0  0  0  0
 24 49  1  0  0  0  0
 25 50  1  0  0  0  0
 25 51  1  0  0  0  0
 26 27  1  0  0  0  0
 26 52  1  0  0  0  0
 27 29  1  0  0  0  0
 27 28  1  0  0  0  0
 27 53  1  0  0  0  0
 28 29  1  0  0  0  0
 28 54  1  0  0  0  0
 28 55  1  0  0  0  0
 29 56  1  0  0  0  0
 29 57  1  0  0  0  0
M  END
> <s_m_source_file>
AV-unprocessed.smi

> <i_m_source_file_index>
77

> <i_lp_mmshare_version>
43012

> <i_f3d_flags>
0

> <s_epik_input>
W0NIMl0xW0NIMl1bQ0hdMVtOSF1DKD1PKVtDSDJdTihbQ0hdMltDSDJdW0NIMl0yKWMobltjSF1uMyljKGMzNCluW2NIXW40W0NIMl1bQ0BIXShbQ0gyXVtPSF0pW0NAQEhdNVtDSDJdW0NIMl1PW0NIMl01

> <s_epik_cmdline>
J2VwaWtfcHl0aG9uJywgJy1waCcsICc3LjAnLCAnLXRuJywgJzgnLCAnLW1hJywgJzIwMCcsICctbWV0YWxfYmluZGluZycsICctaW1hZScsICc8aW5maWxlLm1hZT4nLCAnLW9tYWUnLCAnPG91dGZpbGUubWFlPic=

> <r_lp_tautomer_probability>
1

> <r_epik_Ionization_Penalty>
0.000703847

> <r_epik_Ionization_Penalty_Charging>
0

> <r_epik_Ionization_Penalty_Neutral>
0.000703847

> <r_epik_State_Penalty>
0.00034025

> <r_epik_Charging_Adjusted_Penalty>
0.00034025

> <i_epik_Tot_Q>
0

> <i_epik_Tot_abs_Q>
0

> <r_epik_Metal_State_Penalty>
-0

> <b_epik_Metal_Only>
0

> <s_lp_Force_Field>
OPLS_2005

> <r_lp_Energy>
54.5586

> <b_lp_Chiralities_Consistent>
1

> <s_lp_Variant>
AV-unprocessed.smi:77-2

> <Gold.Version>
5.8.1

> <Gold.Id.Protein>
6NUR|6NUR_protein|mol2

> <Gold.PLP.Fitness>
58.3141

> <Gold.PLP.PLP>
-47.4313

> <Gold.PLP.part.hbond>
-4.3519

> <Gold.PLP.part.metal>
0.0000

> <Gold.PLP.part.buried>
-6.8844

> <Gold.PLP.part.nonpolar>
-37.5641

> <Gold.PLP.part.repulsive>
0.3305

> <Gold.PLP.ligand.clash>
0.0000

> <Gold.PLP.ligand.torsion>
1.3862

> <Gold.PLP.Chemscore.Hbond>
3.9040

> <Gold.PLP.Chemscore.CHOScore>
0.0000

> <Gold.PLP.Chemscore.Metal>
0.0000

> <Gold.Chemscore.Hbonds>
donor molecule, donor type, donor heavy atom, donor atom, acceptor molecule, acceptor atom, score
      L1  H    17    39       P1  7948  0.15
      L1  H    26    52       P1  8028  0.91
      P1  H  7989  7998       L1     6  0.32
      P1  H 10752 10763       L1     8  0.55

> <Gold.PLP.Chemscore.Internal.Correction>
1.9432

> <Gold.Rescore>
     Score         DG    S(hbond)    S(metal)    S(lipo)     H(rot)  DE(clash)    DE(int)     intcor
     14.46     -17.48       3.30        0.00      90.94       3.77       0.07       2.95       ----

> <Gold.Chemscore.Fitness>
14.4586

> <Gold.Chemscore.DG>
-17.4774

> <Gold.Chemscore.ZeroCoef>
-5.4800

> <Gold.Chemscore.Hbond>
3.2970

> <Gold.Chemscore.Metal>
0.0000

> <Gold.Chemscore.Lipo>
90.9422

> <Gold.Chemscore.Internal_Hbond>
0.0000

> <Gold.Chemscore.DEClash>
0.0718

> <Gold.Chemscore.DEInternal>
2.9471

> <Gold.Chemscore.Rot>
3.7714

> <Gold.Chemscore.Internal.Correction>
   9.000000E+99

> <Gold.Chemscore.Hbonds>
donor molecule, donor type, donor heavy atom, donor atom, acceptor molecule, acceptor atom, score
      L1  H    17    39       P1  7948  0.01
      L1  H    26    52       P1  8028  0.84
      P1  H  7989  7998       L1     6  0.13
      P1  H 10752 10763       L1     8  0.16

> <Gold.Chemscore.Hbond.Weighted>
-11.0120

> <Gold.Chemscore.Metal.Weighted>
-0.0000

> <Gold.Chemscore.Lipo.Weighted>
-10.6402

> <Gold.Chemscore.Internal_Hbond.Weighted>
0.0000

> <Gold.Chemscore.DEClash.Weighted>
0.0718

> <Gold.Chemscore.DEInternal.Weighted>
2.9471

> <Gold.Chemscore.Rot.Weighted>
9.6548

> <Gold.Chemscore.Internal.Correction.Weighted>
   9.000000E+99

> <Gold.Protein.RotatedTorsions>
[ 6907 6896 6895 6894 ] final -169.67 input  -60.11 | X-H torsion
[ 7974 7965 7964 7962 ] final -158.88 input  175.53 | X-H torsion
[ 8008 7997 7996 7995 ] final  -51.71 input   59.86 | X-H torsion
[ 10167 10162 10161 10158 ] final   35.88 input  -65.29 | X-H torsion
[ 10718 10713 10712 10709 ] final  -63.34 input   66.30 | X-H torsion
[ 10763 10752 10751 10750 ] final   58.31 input  -60.55 | X-H torsion
[ 11005 11000 10999 10996 ] final  157.52 input  -57.11 | X-H torsion

> <Gold.Protein.ActiveResidues>
 VAL166  LYS551  ARG553  GLY616  TRP617  ASP618  TYR619  PRO620  LYS621  CYS622 
 ASP623  PHE694  ASN695  SER759  ASP760  ASP761  ALA762  ILE779  LEU786  VAL792 
 PHE793  MET794  SER795  GLU796  ALA797  LYS798  CYS799  TRP800  GLU811  SER814 

> <Gold.Protein.RotatedAtoms>
  151.4953  133.3516  159.2859 H   0  0  0  0  0  0  0  0  0  0  0  0  # atno 6907 bound_to 6896
  150.8808  134.8200  159.7234 H   0  0  0  0  0  0  0  0  0  0  0  0  # atno 6908 bound_to 6896
  152.4761  134.4851  159.9729 H   0  0  0  0  0  0  0  0  0  0  0  0  # atno 6909 bound_to 6896
  144.7488  140.3765  143.6064 H   0  0  0  0  0  0  0  0  0  0  0  0  # atno 7974 bound_to 7965
  154.4089  140.1241  156.4873 H   0  0  0  0  0  0  0  0  0  0  0  0  # atno 8008 bound_to 7997
  155.7025  140.3494  155.4920 H   0  0  0  0  0  0  0  0  0  0  0  0  # atno 8009 bound_to 7997
  155.9372  140.1080  157.1075 H   0  0  0  0  0  0  0  0  0  0  0  0  # atno 8010 bound_to 7997
  140.4180  144.1500  150.6145 H   0  0  0  0  0  0  0  0  0  0  0  0  # atno 10167 bound_to 10162
  156.0797  130.4219  150.1264 H   0  0  0  0  0  0  0  0  0  0  0  0  # atno 10718 bound_to 10713
  152.9868  135.5611  154.5532 H   0  0  0  0  0  0  0  0  0  0  0  0  # atno 10763 bound_to 10752
  154.4965  135.2795  155.1457 H   0  0  0  0  0  0  0  0  0  0  0  0  # atno 10764 bound_to 10752
  154.2905  135.6327  153.5436 H   0  0  0  0  0  0  0  0  0  0  0  0  # atno 10765 bound_to 10752
  140.1778  134.8497  157.2767 H   0  0  0  0  0  0  0  0  0  0  0  0  # atno 11005 bound_to 11000
  145.7022  139.1664  143.2586 LP  0  0  0  0  0  0  0  0  0  0  0  0  # atno 17320 bound_to 7965
  146.1407  140.7061  142.9368 LP  0  0  0  0  0  0  0  0  0  0  0  0  # atno 17321 bound_to 7965
  140.4565  143.2466  151.9277 LP  0  0  0  0  0  0  0  0  0  0  0  0  # atno 17342 bound_to 10162
  139.4782  144.5510  151.8385 LP  0  0  0  0  0  0  0  0  0  0  0  0  # atno 17343 bound_to 10162
  156.9298  130.9710  151.3535 LP  0  0  0  0  0  0  0  0  0  0  0  0  # atno 17370 bound_to 10713
  157.5908  130.8442  149.8657 LP  0  0  0  0  0  0  0  0  0  0  0  0  # atno 17371 bound_to 10713
  140.2303  134.3917  155.7525 LP  0  0  0  0  0  0  0  0  0  0  0  0  # atno 17394 bound_to 11000
  141.2221  133.7211  156.8630 LP  0  0  0  0  0  0  0  0  0  0  0  0  # atno 17395 bound_to 11000

$$$$
