AV-unprocessed.smi:1492|AV-procd|sdf|6046|dock2
  -GOLD-   22720 6163D 1   1.00000     0.00000
 Structure written by MMmdl.
 52 53  0  0  0  0  0  0  0  0  3 V2000
  149.7925  135.7658  156.2196 C   0  0  0  0  0  0  0  0  0  0  0  0
  148.6010  136.0258  155.2794 C   0  0  0  0  0  0  0  0  0  0  0  0
  147.8935  134.7783  154.6488 C   0  0  1  0  0  0  0  0  0  0  0  0
  148.9660  133.7132  154.3118 C   0  0  0  0  0  0  0  0  0  0  0  0
  146.9035  134.1680  155.6904 C   0  0  0  0  0  0  0  0  0  0  0  0
  147.5765  133.8479  156.9434 N   0  0  0  0  0  0  0  0  0  0  0  0
  147.0054  133.7269  158.1503 C   0  0  0  0  0  0  0  0  0  0  0  0
  145.7908  133.6521  158.3295 O   0  0  0  0  0  0  0  0  0  0  0  0
  147.9635  133.7719  159.3420 C   0  0  0  0  0  0  0  0  0  0  0  0
  147.6113  134.8456  160.3727 C   0  0  0  0  0  0  0  0  0  0  0  0
  146.8829  134.6046  161.5007 C   0  0  0  0  0  0  0  0  0  0  0  0
  146.2784  133.2499  161.8256 C   0  0  0  0  0  0  0  0  0  0  0  0
  146.6753  135.6115  162.4585 N   0  0  0  0  0  0  0  0  0  0  0  0
  147.2005  136.7641  162.2856 C   0  0  0  0  0  0  0  0  0  0  0  0
  146.9906  137.8367  163.3328 C   0  0  0  0  0  0  0  0  0  0  0  0
  147.9660  137.1027  161.1926 N   0  5  0  0  0  0  0  0  0  0  0  0
  148.1761  136.1947  160.1988 C   0  0  0  0  0  0  0  0  0  0  0  0
  148.8291  136.4655  159.1923 O   0  0  0  0  0  0  0  0  0  0  0  0
  147.1369  135.1936  153.4041 N   0  3  0  0  0  0  0  0  0  0  0  0
  146.3958  134.1125  152.6890 C   0  0  0  0  0  0  0  0  0  0  0  0
  145.7691  134.6310  151.3810 C   0  0  0  0  0  0  0  0  0  0  0  0
  144.9439  135.7571  151.6382 O   0  0  0  0  0  0  0  0  0  0  0  0
  145.6875  136.8253  152.2043 C   0  0  0  0  0  0  0  0  0  0  0  0
  146.2447  136.3781  153.5630 C   0  0  0  0  0  0  0  0  0  0  0  0
  150.2504  136.7105  156.5134 H   0  0  0  0  0  0  0  0  0  0  0  0
  150.5685  135.1658  155.7460 H   0  0  0  0  0  0  0  0  0  0  0  0
  149.4868  135.2672  157.1391 H   0  0  0  0  0  0  0  0  0  0  0  0
  147.8712  136.6226  155.8290 H   0  0  0  0  0  0  0  0  0  0  0  0
  148.9771  136.6706  154.4849 H   0  0  0  0  0  0  0  0  0  0  0  0
  149.5416  133.4321  155.1930 H   0  0  0  0  0  0  0  0  0  0  0  0
  149.6763  134.0709  153.5667 H   0  0  0  0  0  0  0  0  0  0  0  0
  148.5262  132.7895  153.9361 H   0  0  0  0  0  0  0  0  0  0  0  0
  146.0421  134.8121  155.8628 H   0  0  0  0  0  0  0  0  0  0  0  0
  146.4634  133.2481  155.3072 H   0  0  0  0  0  0  0  0  0  0  0  0
  148.5861  133.8705  156.9188 H   0  0  0  0  0  0  0  0  0  0  0  0
  147.9915  132.7941  159.8253 H   0  0  0  0  0  0  0  0  0  0  0  0
  148.9710  133.9289  158.9585 H   0  0  0  0  0  0  0  0  0  0  0  0
  145.5411  132.9721  161.0723 H   0  0  0  0  0  0  0  0  0  0  0  0
  145.7770  133.2637  162.7941 H   0  0  0  0  0  0  0  0  0  0  0  0
  147.0481  132.4791  161.8610 H   0  0  0  0  0  0  0  0  0  0  0  0
  146.7912  138.8006  162.8628 H   0  0  0  0  0  0  0  0  0  0  0  0
  147.8812  137.9321  163.9546 H   0  0  0  0  0  0  0  0  0  0  0  0
  146.1451  137.5932  163.9778 H   0  0  0  0  0  0  0  0  0  0  0  0
  147.0518  133.2894  152.4118 H   0  0  0  0  0  0  0  0  0  0  0  0
  145.6165  133.7065  153.3343 H   0  0  0  0  0  0  0  0  0  0  0  0
  146.5370  134.8926  150.6539 H   0  0  0  0  0  0  0  0  0  0  0  0
  145.1627  133.8489  150.9238 H   0  0  0  0  0  0  0  0  0  0  0  0
  146.4877  137.1398  151.5329 H   0  0  0  0  0  0  0  0  0  0  0  0
  145.0266  137.6824  152.3349 H   0  0  0  0  0  0  0  0  0  0  0  0
  145.4091  136.1375  154.2204 H   0  0  0  0  0  0  0  0  0  0  0  0
  146.7660  137.2221  154.0073 H   0  0  0  0  0  0  0  0  0  0  0  0
  147.8545  135.4845  152.7544 H   0  0  0  0  0  0  0  0  0  0  0  0
  1  2  1  0  0  0  0
  1 25  1  0  0  0  0
  1 26  1  0  0  0  0
  1 27  1  0  0  0  0
  2  3  1  0  0  0  0
  2 28  1  0  0  0  0
  2 29  1  0  0  0  0
  3  4  1  0  0  0  0
  3  5  1  0  0  0  0
  3 19  1  0  0  0  0
  4 30  1  0  0  0  0
  4 31  1  0  0  0  0
  4 32  1  0  0  0  0
  5  6  1  0  0  0  0
  5 33  1  0  0  0  0
  5 34  1  0  0  0  0
  6  7  1  0  0  0  0
  6 35  1  0  0  0  0
  7  8  2  0  0  0  0
  7  9  1  0  0  0  0
  9 10  1  0  0  0  0
  9 36  1  0  0  0  0
  9 37  1  0  0  0  0
 10 17  1  0  0  0  0
 10 11  2  0  0  0  0
 11 12  1  0  0  0  0
 11 13  1  0  0  0  0
 12 38  1  0  0  0  0
 12 39  1  0  0  0  0
 12 40  1  0  0  0  0
 13 14  2  0  0  0  0
 14 15  1  0  0  0  0
 14 16  1  0  0  0  0
 15 41  1  0  0  0  0
 15 42  1  0  0  0  0
 15 43  1  0  0  0  0
 16 17  1  0  0  0  0
 17 18  2  0  0  0  0
 19 24  1  0  0  0  0
 19 20  1  0  0  0  0
 19 52  1  0  0  0  0
 20 21  1  0  0  0  0
 20 44  1  0  0  0  0
 20 45  1  0  0  0  0
 21 22  1  0  0  0  0
 21 46  1  0  0  0  0
 21 47  1  0  0  0  0
 22 23  1  0  0  0  0
 23 24  1  0  0  0  0
 23 48  1  0  0  0  0
 23 49  1  0  0  0  0
 24 50  1  0  0  0  0
 24 51  1  0  0  0  0
M  CHG  1  16  -1
M  CHG  1  19   1
M  END
> <s_m_source_file>
AV-unprocessed.smi

> <i_m_source_file_index>
1492

> <i_lp_mmshare_version>
43012

> <i_f3d_flags>
0

> <s_epik_input>
W0NIMl0xW0NIMl1PW0NIMl1bQ0gyXU4xW0NAQF0oW0NIM10pKFtDSDJdW0NIM10pW0NIMl1bTkhdQyg9TylbQ0gyXWMyYyhbQ0gzXSluYyhbQ0gzXSlbbkhdYzI9Tw==

> <s_epik_cmdline>
J2VwaWtfcHl0aG9uJywgJy1waCcsICc3LjAnLCAnLXRuJywgJzgnLCAnLW1hJywgJzIwMCcsICctbWV0YWxfYmluZGluZycsICctaW1hZScsICc8aW5maWxlLm1hZT4nLCAnLW9tYWUnLCAnPG91dGZpbGUubWFlPic=

> <r_lp_tautomer_probability>
0.839158

> <r_epik_Ionization_Penalty>
6.90614

> <r_epik_Ionization_Penalty_Charging>
0.570079

> <r_epik_Ionization_Penalty_Neutral>
6.33607

> <r_epik_State_Penalty>
4.81716

> <r_epik_Charging_Adjusted_Penalty>
5.38724

> <i_epik_Tot_Q>
0

> <i_epik_Tot_abs_Q>
2

> <r_epik_Metal_State_Penalty>
1.25629

> <b_epik_Metal_Only>
1

> <s_lp_Force_Field>
OPLS_2005

> <r_lp_Energy>
28.2979

> <b_lp_Chiralities_Consistent>
1

> <s_lp_Variant>
AV-unprocessed.smi:1492-11

> <Gold.Version>
5.8.1

> <Gold.Id.Protein>
6NUR|6NUR_protein|mol2

> <Gold.PLP.Fitness>
45.5543

> <Gold.PLP.PLP>
-30.4398

> <Gold.PLP.part.hbond>
-3.0000

> <Gold.PLP.part.metal>
0.0000

> <Gold.PLP.part.buried>
-3.6318

> <Gold.PLP.part.nonpolar>
-23.4316

> <Gold.PLP.part.repulsive>
0.1695

> <Gold.PLP.ligand.clash>
0.0000

> <Gold.PLP.ligand.torsion>
0.9755

> <Gold.PLP.Chemscore.Hbond>
5.6320

> <Gold.PLP.Chemscore.CHOScore>
0.0000

> <Gold.PLP.Chemscore.Metal>
0.0000

> <Gold.Chemscore.Hbonds>
donor molecule, donor type, donor heavy atom, donor atom, acceptor molecule, acceptor atom, score
      L1  H    19    52       P1  7948  2.00
      P1  H  6931  6943       L1    16  2.00
      P1  H  6934  6947       L1    16  1.08

> <Gold.PLP.Chemscore.Internal.Correction>
0.1696

> <Gold.Rescore>
     Score         DG    S(hbond)    S(metal)    S(lipo)     H(rot)  DE(clash)    DE(int)     intcor
     14.21     -16.76       2.81        0.00      62.75       2.12       1.48       1.07       ----

> <Gold.Chemscore.Fitness>
14.2091

> <Gold.Chemscore.DG>
-16.7629

> <Gold.Chemscore.ZeroCoef>
-5.4800

> <Gold.Chemscore.Hbond>
2.8074

> <Gold.Chemscore.Metal>
0.0000

> <Gold.Chemscore.Lipo>
62.7545

> <Gold.Chemscore.Internal_Hbond>
0.0000

> <Gold.Chemscore.DEClash>
1.4806

> <Gold.Chemscore.DEInternal>
1.0732

> <Gold.Chemscore.Rot>
2.1235

> <Gold.Chemscore.Internal.Correction>
   9.000000E+99

> <Gold.Chemscore.Hbonds>
donor molecule, donor type, donor heavy atom, donor atom, acceptor molecule, acceptor atom, score
      L1  H    19    52       P1  7948  0.98
      P1  H  6931  6943       L1    16  0.29
      P1  H  6934  6947       L1    16  0.09

> <Gold.Chemscore.Hbond.Weighted>
-9.3766

> <Gold.Chemscore.Metal.Weighted>
-0.0000

> <Gold.Chemscore.Lipo.Weighted>
-7.3423

> <Gold.Chemscore.Internal_Hbond.Weighted>
0.0000

> <Gold.Chemscore.DEClash.Weighted>
1.4806

> <Gold.Chemscore.DEInternal.Weighted>
1.0732

> <Gold.Chemscore.Rot.Weighted>
5.4360

> <Gold.Chemscore.Internal.Correction.Weighted>
   9.000000E+99

> <Gold.Protein.RotatedTorsions>
[ 6907 6896 6895 6894 ] final  -65.13 input  -60.11 | X-H torsion
[ 7974 7965 7964 7962 ] final  -77.41 input  175.53 | X-H torsion
[ 8008 7997 7996 7995 ] final  102.10 input   59.86 | X-H torsion
[ 10167 10162 10161 10158 ] final   90.89 input  -65.29 | X-H torsion
[ 10718 10713 10712 10709 ] final -120.82 input   66.30 | X-H torsion
[ 10763 10752 10751 10750 ] final  118.80 input  -60.55 | X-H torsion
[ 11005 11000 10999 10996 ] final   80.51 input  -57.11 | X-H torsion

> <Gold.Protein.ActiveResidues>
 VAL166  LYS551  ARG553  GLY616  TRP617  ASP618  TYR619  PRO620  LYS621  CYS622 
 ASP623  PHE694  ASN695  SER759  ASP760  ASP761  ALA762  ILE779  LEU786  VAL792 
 PHE793  MET794  SER795  GLU796  ALA797  LYS798  CYS799  TRP800  GLU811  SER814 

> <Gold.Protein.RotatedAtoms>
  150.7543  134.6203  159.6132 H   0  0  0  0  0  0  0  0  0  0  0  0  # atno 6907 bound_to 6896
  152.3511  134.7001  160.0245 H   0  0  0  0  0  0  0  0  0  0  0  0  # atno 6908 bound_to 6896
  151.7421  133.3286  159.3405 H   0  0  0  0  0  0  0  0  0  0  0  0  # atno 6909 bound_to 6896
  145.6001  140.9410  143.1245 H   0  0  0  0  0  0  0  0  0  0  0  0  # atno 7974 bound_to 7965
  156.1362  140.3187  155.8424 H   0  0  0  0  0  0  0  0  0  0  0  0  # atno 8008 bound_to 7997
  155.4241  140.0514  157.3040 H   0  0  0  0  0  0  0  0  0  0  0  0  # atno 8009 bound_to 7997
  154.4938  140.2103  155.9503 H   0  0  0  0  0  0  0  0  0  0  0  0  # atno 8010 bound_to 7997
  139.8428  144.6632  150.9263 H   0  0  0  0  0  0  0  0  0  0  0  0  # atno 10167 bound_to 10162
  156.1288  130.6380  150.9587 H   0  0  0  0  0  0  0  0  0  0  0  0  # atno 10718 bound_to 10713
  153.5732  135.3498  155.2846 H   0  0  0  0  0  0  0  0  0  0  0  0  # atno 10763 bound_to 10752
  154.8679  135.4164  154.2702 H   0  0  0  0  0  0  0  0  0  0  0  0  # atno 10764 bound_to 10752
  153.3472  135.7053  153.6888 H   0  0  0  0  0  0  0  0  0  0  0  0  # atno 10765 bound_to 10752
  139.9132  134.7926  156.1919 H   0  0  0  0  0  0  0  0  0  0  0  0  # atno 11005 bound_to 11000
  144.7314  139.7716  143.7346 LP  0  0  0  0  0  0  0  0  0  0  0  0  # atno 17320 bound_to 7965
  146.1583  139.4688  143.0005 LP  0  0  0  0  0  0  0  0  0  0  0  0  # atno 17321 bound_to 7965
  140.7796  143.3897  151.1332 LP  0  0  0  0  0  0  0  0  0  0  0  0  # atno 17342 bound_to 10162
  139.7542  143.8733  152.3084 LP  0  0  0  0  0  0  0  0  0  0  0  0  # atno 17343 bound_to 10162
  157.6468  131.0903  150.8136 LP  0  0  0  0  0  0  0  0  0  0  0  0  # atno 17370 bound_to 10713
  156.8224  130.4988  149.5341 LP  0  0  0  0  0  0  0  0  0  0  0  0  # atno 17371 bound_to 10713
  141.0578  133.6856  156.1894 LP  0  0  0  0  0  0  0  0  0  0  0  0  # atno 17394 bound_to 11000
  140.6709  134.4869  157.5587 LP  0  0  0  0  0  0  0  0  0  0  0  0  # atno 17395 bound_to 11000

$$$$
