AV-unprocessed.smi:2558|AV-procd|sdf|10033|dock4
  -GOLD-   2272014 73D 1   1.00000     0.00000
 Structure written by MMmdl.
 42 43  0  0  0  0  0  0  0  0  2 V2000
  153.3636  137.8163  156.6360 C   0  0  0  0  0  0  0  0  0  0  0  0
  152.2780  138.4185  155.2768 S   0  0  0  0  0  0  0  0  0  0  0  0
  152.5090  139.8615  155.1016 O   0  0  0  0  0  0  0  0  0  0  0  0
  152.4439  137.5187  154.1241 O   0  0  0  0  0  0  0  0  0  0  0  0
  150.6731  138.1707  155.9338 N   0  0  0  0  0  0  0  0  0  0  0  0
  150.2983  137.0138  156.6593 C   0  0  0  0  0  0  0  0  0  0  0  0
  150.7585  135.9204  156.3234 O   0  0  0  0  0  0  0  0  0  0  0  0
  149.5378  137.2994  157.7507 N   0  5  0  0  0  0  0  0  0  0  0  0
  149.0240  136.3783  158.6041 C   0  0  0  0  0  0  0  0  0  0  0  0
  149.2115  135.1598  158.5827 O   0  0  0  0  0  0  0  0  0  0  0  0
  148.2167  136.9284  159.5286 N   0  0  0  0  0  0  0  0  0  0  0  0
  147.5493  136.2978  160.6123 C   0  0  0  0  0  0  0  0  0  0  0  0
  148.0466  135.0615  161.0722 C   0  0  0  0  0  0  0  0  0  0  0  0
  147.3823  134.4061  162.1263 C   0  0  0  0  0  0  0  0  0  0  0  0
  146.2340  135.0114  162.6725 C   0  0  0  0  0  0  0  0  0  0  0  0
  145.7337  136.1849  162.2322 N   0  0  0  0  0  0  0  0  0  0  0  0
  146.3781  136.8100  161.2226 C   0  0  0  0  0  0  0  0  0  0  0  0
  149.6651  139.2223  155.6262 C   0  0  0  0  0  0  0  0  0  0  0  0
  149.2907  139.2536  154.1295 C   0  0  0  0  0  0  0  0  0  0  0  0
  148.1788  140.2830  153.8677 C   0  0  0  0  0  0  0  0  0  0  0  0
  148.5711  141.6769  154.3875 C   0  0  0  0  0  0  0  0  0  0  0  0
  148.9353  141.6392  155.8819 C   0  0  0  0  0  0  0  0  0  0  0  0
  150.0551  140.6224  156.1564 C   0  0  0  0  0  0  0  0  0  0  0  0
  154.4058  137.8959  156.3285 H   0  0  0  0  0  0  0  0  0  0  0  0
  153.1279  136.7755  156.8566 H   0  0  0  0  0  0  0  0  0  0  0  0
  153.2020  138.4204  157.5283 H   0  0  0  0  0  0  0  0  0  0  0  0
  148.0158  137.9097  159.4046 H   0  0  0  0  0  0  0  0  0  0  0  0
  148.9281  134.6223  160.6282 H   0  0  0  0  0  0  0  0  0  0  0  0
  147.7434  133.4617  162.5057 H   0  0  0  0  0  0  0  0  0  0  0  0
  145.6984  134.5360  163.4809 H   0  0  0  0  0  0  0  0  0  0  0  0
  145.9197  137.7285  160.8891 H   0  0  0  0  0  0  0  0  0  0  0  0
  148.7529  138.9612  156.1627 H   0  0  0  0  0  0  0  0  0  0  0  0
  150.1561  139.5075  153.5184 H   0  0  0  0  0  0  0  0  0  0  0  0
  148.9622  138.2658  153.8049 H   0  0  0  0  0  0  0  0  0  0  0  0
  147.9626  140.3316  152.8003 H   0  0  0  0  0  0  0  0  0  0  0  0
  147.2586  139.9576  154.3546 H   0  0  0  0  0  0  0  0  0  0  0  0
  149.4200  142.0531  153.8150 H   0  0  0  0  0  0  0  0  0  0  0  0
  147.7524  142.3778  154.2226 H   0  0  0  0  0  0  0  0  0  0  0  0
  149.2446  142.6304  156.2146 H   0  0  0  0  0  0  0  0  0  0  0  0
  148.0525  141.3785  156.4672 H   0  0  0  0  0  0  0  0  0  0  0  0
  150.2578  140.5749  157.2269 H   0  0  0  0  0  0  0  0  0  0  0  0
  150.9694  140.9799  155.6822 H   0  0  0  0  0  0  0  0  0  0  0  0
  1  2  1  0  0  0  0
  1 24  1  0  0  0  0
  1 25  1  0  0  0  0
  1 26  1  0  0  0  0
  2  3  2  0  0  0  0
  2  4  2  0  0  0  0
  2  5  1  0  0  0  0
  5  6  1  0  0  0  0
  5 18  1  0  0  0  0
  6  7  2  0  0  0  0
  6  8  1  0  0  0  0
  8  9  1  0  0  0  0
  9 10  2  0  0  0  0
  9 11  1  0  0  0  0
 11 12  1  0  0  0  0
 11 27  1  0  0  0  0
 12 17  1  0  0  0  0
 12 13  2  0  0  0  0
 13 14  1  0  0  0  0
 13 28  1  0  0  0  0
 14 15  2  0  0  0  0
 14 29  1  0  0  0  0
 15 16  1  0  0  0  0
 15 30  1  0  0  0  0
 16 17  2  0  0  0  0
 17 31  1  0  0  0  0
 18 23  1  0  0  0  0
 18 19  1  0  0  0  0
 18 32  1  0  0  0  0
 19 20  1  0  0  0  0
 19 33  1  0  0  0  0
 19 34  1  0  0  0  0
 20 21  1  0  0  0  0
 20 35  1  0  0  0  0
 20 36  1  0  0  0  0
 21 22  1  0  0  0  0
 21 37  1  0  0  0  0
 21 38  1  0  0  0  0
 22 23  1  0  0  0  0
 22 39  1  0  0  0  0
 22 40  1  0  0  0  0
 23 41  1  0  0  0  0
 23 42  1  0  0  0  0
M  CHG  1   8  -1
M  END
> <s_m_source_file>
AV-unprocessed.smi

> <i_m_source_file_index>
2558

> <i_lp_mmshare_version>
43012

> <i_f3d_flags>
0

> <s_epik_input>
W0NIMl0xW0NIMl1bQ0gyXVtDSDJdW0NIMl1bQ0hdMU4oUyg9TykoPU8pW0NIM10pQyg9TylbTkhdQyg9TylbTkhdYzJbY0hdW2NIXVtjSF1uW2NIXTI=

> <s_epik_cmdline>
J2VwaWtfcHl0aG9uJywgJy1waCcsICc3LjAnLCAnLXRuJywgJzgnLCAnLW1hJywgJzIwMCcsICctbWV0YWxfYmluZGluZycsICctaW1hZScsICc8aW5maWxlLm1hZT4nLCAnLW9tYWUnLCAnPG91dGZpbGUubWFlPic=

> <r_epik_Ionization_Penalty>
6.14208

> <r_epik_Ionization_Penalty_Charging>
6.14039

> <r_epik_Ionization_Penalty_Neutral>
0.00168563

> <r_epik_State_Penalty>
6.14513

> <r_epik_Charging_Adjusted_Penalty>
12.2855

> <i_epik_Tot_Q>
-1

> <i_epik_Tot_abs_Q>
1

> <r_epik_Metal_State_Penalty>
2.09011

> <b_epik_Metal_Only>
1

> <s_lp_Force_Field>
OPLS_2005

> <r_lp_Energy>
23.9967

> <b_lp_Chiralities_Consistent>
1

> <s_lp_Variant>
AV-unprocessed.smi:2558-2

> <Gold.Version>
5.8.1

> <Gold.Id.Protein>
6NUR|6NUR_protein|mol2

> <Gold.PLP.Fitness>
40.6597

> <Gold.PLP.PLP>
-31.9754

> <Gold.PLP.part.hbond>
-3.6928

> <Gold.PLP.part.metal>
0.0000

> <Gold.PLP.part.buried>
-1.4852

> <Gold.PLP.part.nonpolar>
-26.1998

> <Gold.PLP.part.repulsive>
0.3566

> <Gold.PLP.ligand.clash>
0.0000

> <Gold.PLP.ligand.torsion>
2.0022

> <Gold.PLP.Chemscore.Hbond>
3.0780

> <Gold.PLP.Chemscore.CHOScore>
0.0000

> <Gold.PLP.Chemscore.Metal>
0.0000

> <Gold.Chemscore.Hbonds>
donor molecule, donor type, donor heavy atom, donor atom, acceptor molecule, acceptor atom, score
      P1  H  6896  6908       L1    10  1.00
      P1  H  7989  7998       L1     3  0.56
      P1  H  7997  8009       L1     3  0.80
      P1  H 10752 10764       L1     4  0.70

> <Gold.PLP.Chemscore.Internal.Correction>
3.4548

> <Gold.Rescore>
     Score         DG    S(hbond)    S(metal)    S(lipo)     H(rot)  DE(clash)    DE(int)     intcor
     15.28     -21.56       2.83        0.00      78.56       1.00       0.09       6.19       ----

> <Gold.Chemscore.Fitness>
15.2805

> <Gold.Chemscore.DG>
-21.5646

> <Gold.Chemscore.ZeroCoef>
-5.4800

> <Gold.Chemscore.Hbond>
2.8302

> <Gold.Chemscore.Metal>
0.0000

> <Gold.Chemscore.Lipo>
78.5616

> <Gold.Chemscore.Internal_Hbond>
0.0000

> <Gold.Chemscore.DEClash>
0.0945

> <Gold.Chemscore.DEInternal>
6.1896

> <Gold.Chemscore.Rot>
1.0000

> <Gold.Chemscore.Internal.Correction>
   9.000000E+99

> <Gold.Chemscore.Hbonds>
donor molecule, donor type, donor heavy atom, donor atom, acceptor molecule, acceptor atom, score
      P1  H  6896  6908       L1    10  0.98
      P1  H  7989  7998       L1     3  0.54
      P1  H  7997  8009       L1     3  0.35
      P1  H 10752 10764       L1     4  0.70

> <Gold.Chemscore.Hbond.Weighted>
-9.4529

> <Gold.Chemscore.Metal.Weighted>
-0.0000

> <Gold.Chemscore.Lipo.Weighted>
-9.1917

> <Gold.Chemscore.Internal_Hbond.Weighted>
0.0000

> <Gold.Chemscore.DEClash.Weighted>
0.0945

> <Gold.Chemscore.DEInternal.Weighted>
6.1896

> <Gold.Chemscore.Rot.Weighted>
2.5600

> <Gold.Chemscore.Internal.Correction.Weighted>
   9.000000E+99

> <Gold.Protein.RotatedTorsions>
[ 6907 6896 6895 6894 ] final  145.51 input  -60.11 | X-H torsion
[ 7974 7965 7964 7962 ] final  -12.47 input  175.53 | X-H torsion
[ 8008 7997 7996 7995 ] final -141.97 input   59.86 | X-H torsion
[ 10167 10162 10161 10158 ] final   85.21 input  -65.29 | X-H torsion
[ 10718 10713 10712 10709 ] final  -25.91 input   66.30 | X-H torsion
[ 10763 10752 10751 10750 ] final  -89.84 input  -60.55 | X-H torsion
[ 11005 11000 10999 10996 ] final   17.43 input  -57.11 | X-H torsion

> <Gold.Protein.ActiveResidues>
 VAL166  LYS551  ARG553  GLY616  TRP617  ASP618  TYR619  PRO620  LYS621  CYS622 
 ASP623  PHE694  ASN695  SER759  ASP760  ASP761  ALA762  ILE779  LEU786  VAL792 
 PHE793  MET794  SER795  GLU796  ALA797  LYS798  CYS799  TRP800  GLU811  SER814 

> <Gold.Protein.RotatedAtoms>
  152.1799  133.4700  159.4952 H   0  0  0  0  0  0  0  0  0  0  0  0  # atno 6907 bound_to 6896
  150.6933  134.1846  159.4271 H   0  0  0  0  0  0  0  0  0  0  0  0  # atno 6908 bound_to 6896
  151.9757  135.0054  160.0605 H   0  0  0  0  0  0  0  0  0  0  0  0  # atno 6909 bound_to 6896
  146.2150  140.3062  142.8379 H   0  0  0  0  0  0  0  0  0  0  0  0  # atno 7974 bound_to 7965
  155.4865  140.0564  157.2960 H   0  0  0  0  0  0  0  0  0  0  0  0  # atno 8008 bound_to 7997
  154.4640  140.2009  156.0120 H   0  0  0  0  0  0  0  0  0  0  0  0  # atno 8009 bound_to 7997
  156.0941  140.3229  155.7858 H   0  0  0  0  0  0  0  0  0  0  0  0  # atno 8010 bound_to 7997
  139.9001  144.6334  150.8646 H   0  0  0  0  0  0  0  0  0  0  0  0  # atno 10167 bound_to 10162
  156.4581  130.4498  149.6946 H   0  0  0  0  0  0  0  0  0  0  0  0  # atno 10718 bound_to 10713
  154.6595  135.5326  153.8000 H   0  0  0  0  0  0  0  0  0  0  0  0  # atno 10763 bound_to 10752
  153.0433  135.6502  154.0893 H   0  0  0  0  0  0  0  0  0  0  0  0  # atno 10764 bound_to 10752
  154.0803  135.2947  155.3271 H   0  0  0  0  0  0  0  0  0  0  0  0  # atno 10765 bound_to 10752
  140.4361  134.1370  155.7685 H   0  0  0  0  0  0  0  0  0  0  0  0  # atno 11005 bound_to 11000
  144.9021  140.7655  143.5860 LP  0  0  0  0  0  0  0  0  0  0  0  0  # atno 17320 bound_to 7965
  145.2989  139.1857  143.4700 LP  0  0  0  0  0  0  0  0  0  0  0  0  # atno 17321 bound_to 7965
  140.7708  143.3443  151.2143 LP  0  0  0  0  0  0  0  0  0  0  0  0  # atno 17342 bound_to 10162
  139.7033  143.9497  152.2915 LP  0  0  0  0  0  0  0  0  0  0  0  0  # atno 17343 bound_to 10162
  156.3745  130.7547  151.2534 LP  0  0  0  0  0  0  0  0  0  0  0  0  # atno 17370 bound_to 10713
  157.7499  131.0313  150.4177 LP  0  0  0  0  0  0  0  0  0  0  0  0  # atno 17371 bound_to 10713
  141.1725  133.8580  157.1525 LP  0  0  0  0  0  0  0  0  0  0  0  0  # atno 17394 bound_to 11000
  140.0101  134.9991  157.0377 LP  0  0  0  0  0  0  0  0  0  0  0  0  # atno 17395 bound_to 11000

$$$$
