AV-unprocessed.smi:3315|AV-procd|sdf|12752|dock10
  -GOLD-   2272019 93D 1   1.00000     0.00000
 Structure written by MMmdl.
 37 38  0  0  0  0  0  0  0  0  1 V2000
  144.1032  133.2921  149.9790 C   0  0  0  0  0  0  0  0  0  0  0  0
  144.6622  133.3895  151.2828 O   0  0  0  0  0  0  0  0  0  0  0  0
  144.3831  134.5909  152.0039 C   0  0  2  0  0  0  0  0  0  0  0  0
  142.8817  134.6755  152.3208 C   0  0  0  0  0  0  0  0  0  0  0  0
  145.0573  135.8209  151.3688 C   0  0  0  0  0  0  0  0  0  0  0  0
  145.4432  136.2327  152.7878 C   0  0  2  0  0  0  0  0  0  0  0  0
  146.7601  136.8574  152.8544 N   0  0  0  0  0  0  0  0  0  0  0  0
  147.0193  138.0117  153.4835 C   0  0  0  0  0  0  0  0  0  0  0  0
  146.1621  138.6724  154.0708 O   0  0  0  0  0  0  0  0  0  0  0  0
  148.3197  138.3379  153.3885 N   0  0  0  0  0  0  0  0  0  0  0  0
  148.9653  139.4824  153.9223 C   0  0  0  0  0  0  0  0  0  0  0  0
  148.2926  140.7314  153.9941 C   0  0  0  0  0  0  0  0  0  0  0  0
  149.2324  141.5500  154.5532 C   0  0  0  0  0  0  0  0  0  0  0  0
  150.3799  140.8646  154.8026 O   0  0  0  0  0  0  0  0  0  0  0  0
  150.2019  139.5370  154.3946 N   0  0  0  0  0  0  0  0  0  0  0  0
  145.4123  134.7315  153.1730 C   0  0  0  0  0  0  0  0  0  0  0  0
  144.9044  134.4164  154.5836 C   0  0  0  0  0  0  0  0  0  0  0  0
  146.7300  133.9460  153.0155 C   0  0  0  0  0  0  0  0  0  0  0  0
  144.4696  132.3831  149.5021 H   0  0  0  0  0  0  0  0  0  0  0  0
  144.3885  134.1334  149.3471 H   0  0  0  0  0  0  0  0  0  0  0  0
  143.0159  133.2262  150.0059 H   0  0  0  0  0  0  0  0  0  0  0  0
  142.6535  135.5063  152.9880 H   0  0  0  0  0  0  0  0  0  0  0  0
  142.5265  133.7637  152.8015 H   0  0  0  0  0  0  0  0  0  0  0  0
  142.2841  134.8317  151.4231 H   0  0  0  0  0  0  0  0  0  0  0  0
  145.9114  135.5749  150.7352 H   0  0  0  0  0  0  0  0  0  0  0  0
  144.3756  136.5093  150.8687 H   0  0  0  0  0  0  0  0  0  0  0  0
  144.6531  136.8141  153.2689 H   0  0  0  0  0  0  0  0  0  0  0  0
  147.5202  136.3761  152.3968 H   0  0  0  0  0  0  0  0  0  0  0  0
  148.9111  137.7000  152.8771 H   0  0  0  0  0  0  0  0  0  0  0  0
  147.2891  140.9875  153.6886 H   0  0  0  0  0  0  0  0  0  0  0  0
  149.2375  142.5954  154.8243 H   0  0  0  0  0  0  0  0  0  0  0  0
  145.6640  134.6239  155.3382 H   0  0  0  0  0  0  0  0  0  0  0  0
  144.6221  133.3677  154.6801 H   0  0  0  0  0  0  0  0  0  0  0  0
  144.0327  135.0143  154.8479 H   0  0  0  0  0  0  0  0  0  0  0  0
  147.4693  134.2454  153.7590 H   0  0  0  0  0  0  0  0  0  0  0  0
  147.1853  134.0927  152.0359 H   0  0  0  0  0  0  0  0  0  0  0  0
  146.5703  132.8739  153.1347 H   0  0  0  0  0  0  0  0  0  0  0  0
  1  2  1  0  0  0  0
  1 19  1  0  0  0  0
  1 20  1  0  0  0  0
  1 21  1  0  0  0  0
  2  3  1  0  0  0  0
  3 16  1  0  0  0  0
  3  4  1  0  0  0  0
  3  5  1  0  0  0  0
  4 22  1  0  0  0  0
  4 23  1  0  0  0  0
  4 24  1  0  0  0  0
  5  6  1  0  0  0  0
  5 25  1  0  0  0  0
  5 26  1  0  0  0  0
  6  7  1  0  0  0  0
  6 16  1  0  0  0  0
  6 27  1  0  0  0  0
  7  8  1  0  0  0  0
  7 28  1  0  0  0  0
  8  9  2  0  0  0  0
  8 10  1  0  0  0  0
 10 11  1  0  0  0  0
 10 29  1  0  0  0  0
 11 15  2  0  0  0  0
 11 12  1  0  0  0  0
 12 13  2  0  0  0  0
 12 30  1  0  0  0  0
 13 14  1  0  0  0  0
 13 31  1  0  0  0  0
 14 15  1  0  0  0  0
 16 17  1  0  0  0  0
 16 18  1  0  0  0  0
 17 32  1  0  0  0  0
 17 33  1  0  0  0  0
 17 34  1  0  0  0  0
 18 35  1  0  0  0  0
 18 36  1  0  0  0  0
 18 37  1  0  0  0  0
M  END
> <s_m_source_file>
AV-unprocessed.smi

> <i_m_source_file_index>
3315

> <i_lp_mmshare_version>
43012

> <i_f3d_flags>
0

> <s_epik_input>
W0NIM11PW0NAQF0xKFtDSDNdKVtDSDJdW0NASF0oQzEoW0NIM10pW0NIM10pW05IXUMoPU8pW05IXWMyW2NIXVtjSF1vbjI=

> <s_epik_cmdline>
J2VwaWtfcHl0aG9uJywgJy1waCcsICc3LjAnLCAnLXRuJywgJzgnLCAnLW1hJywgJzIwMCcsICctbWV0YWxfYmluZGluZycsICctaW1hZScsICc8aW5maWxlLm1hZT4nLCAnLW9tYWUnLCAnPG91dGZpbGUubWFlPic=

> <r_lp_tautomer_probability>
1

> <r_epik_Ionization_Penalty>
2.28875e-05

> <r_epik_Ionization_Penalty_Charging>
0

> <r_epik_Ionization_Penalty_Neutral>
2.28875e-05

> <r_epik_State_Penalty>
-0

> <r_epik_Charging_Adjusted_Penalty>
0

> <i_epik_Tot_Q>
0

> <i_epik_Tot_abs_Q>
0

> <r_epik_Metal_State_Penalty>
-0

> <b_epik_Metal_Only>
0

> <s_lp_Force_Field>
OPLS_2005

> <r_lp_Energy>
21.6117

> <b_lp_Chiralities_Consistent>
1

> <s_lp_Variant>
AV-unprocessed.smi:3315-4

> <Gold.Version>
5.8.1

> <Gold.Id.Protein>
6NUR|6NUR_protein|mol2

> <Gold.PLP.Fitness>
33.0194

> <Gold.PLP.PLP>
-24.2454

> <Gold.PLP.part.hbond>
-3.9530

> <Gold.PLP.part.metal>
0.0000

> <Gold.PLP.part.buried>
-2.4427

> <Gold.PLP.part.nonpolar>
-19.5532

> <Gold.PLP.part.repulsive>
0.5215

> <Gold.PLP.ligand.clash>
0.0000

> <Gold.PLP.ligand.torsion>
0.4451

> <Gold.PLP.Chemscore.Hbond>
2.0985

> <Gold.PLP.Chemscore.CHOScore>
1.0000

> <Gold.PLP.Chemscore.Metal>
0.0000

> <Gold.Chemscore.Hbonds>
donor molecule, donor type, donor heavy atom, donor atom, acceptor molecule, acceptor atom, score
      L1  H     7    28       P1  7948  0.99
      L1  H    10    29       P1  7948  0.93
      P1  H  7989  7998       L1    14  0.16
      L1  C    13    31       P1  8028  1.00

> <Gold.PLP.Chemscore.Internal.Correction>
0.3688

> <Gold.Rescore>
     Score         DG    S(hbond)    S(metal)    S(lipo)     H(rot)  DE(clash)    DE(int)     intcor
     13.04     -14.64       1.93        0.00      51.65       1.30       0.05       1.55       ----

> <Gold.Chemscore.Fitness>
13.0388

> <Gold.Chemscore.DG>
-14.6358

> <Gold.Chemscore.ZeroCoef>
-5.4800

> <Gold.Chemscore.Hbond>
1.9313

> <Gold.Chemscore.Metal>
0.0000

> <Gold.Chemscore.Lipo>
51.6507

> <Gold.Chemscore.Internal_Hbond>
0.0000

> <Gold.Chemscore.DEClash>
0.0457

> <Gold.Chemscore.DEInternal>
1.5513

> <Gold.Chemscore.Rot>
1.3038

> <Gold.Chemscore.Internal.Correction>
   9.000000E+99

> <Gold.Chemscore.Hbonds>
donor molecule, donor type, donor heavy atom, donor atom, acceptor molecule, acceptor atom, score
      L1  H     7    28       P1  7948  0.91
      L1  H    10    29       P1  7948  0.91

> <Gold.Chemscore.Hbond.Weighted>
-6.4504

> <Gold.Chemscore.Metal.Weighted>
-0.0000

> <Gold.Chemscore.Lipo.Weighted>
-6.0431

> <Gold.Chemscore.Internal_Hbond.Weighted>
0.0000

> <Gold.Chemscore.DEClash.Weighted>
0.0457

> <Gold.Chemscore.DEInternal.Weighted>
1.5513

> <Gold.Chemscore.Rot.Weighted>
3.3377

> <Gold.Chemscore.Internal.Correction.Weighted>
   9.000000E+99

> <Gold.Protein.RotatedTorsions>
[ 6907 6896 6895 6894 ] final  -52.48 input  -60.11 | X-H torsion
[ 7974 7965 7964 7962 ] final   81.06 input  175.53 | X-H torsion
[ 8008 7997 7996 7995 ] final   40.63 input   59.86 | X-H torsion
[ 10167 10162 10161 10158 ] final  -54.61 input  -65.29 | X-H torsion
[ 10718 10713 10712 10709 ] final   -9.90 input   66.30 | X-H torsion
[ 10763 10752 10751 10750 ] final   74.54 input  -60.55 | X-H torsion
[ 11005 11000 10999 10996 ] final  -38.62 input  -57.11 | X-H torsion

> <Gold.Protein.ActiveResidues>
 VAL166  LYS551  ARG553  GLY616  TRP617  ASP618  TYR619  PRO620  LYS621  CYS622 
 ASP623  PHE694  ASN695  SER759  ASP760  ASP761  ALA762  ILE779  LEU786  VAL792 
 PHE793  MET794  SER795  GLU796  ALA797  LYS798  CYS799  TRP800  GLU811  SER814 

> <Gold.Protein.RotatedAtoms>
  150.8514  134.7840  159.7011 H   0  0  0  0  0  0  0  0  0  0  0  0  # atno 6907 bound_to 6896
  152.4578  134.5250  159.9804 H   0  0  0  0  0  0  0  0  0  0  0  0  # atno 6908 bound_to 6896
  151.5370  133.3401  159.2964 H   0  0  0  0  0  0  0  0  0  0  0  0  # atno 6909 bound_to 6896
  145.6431  139.2430  143.2019 H   0  0  0  0  0  0  0  0  0  0  0  0  # atno 7974 bound_to 7965
  155.2564  140.3356  155.4277 H   0  0  0  0  0  0  0  0  0  0  0  0  # atno 8008 bound_to 7997
  156.2194  140.1802  156.7556 H   0  0  0  0  0  0  0  0  0  0  0  0  # atno 8009 bound_to 7997
  154.5802  140.0655  156.9077 H   0  0  0  0  0  0  0  0  0  0  0  0  # atno 8010 bound_to 7997
  140.6421  143.2514  151.4960 H   0  0  0  0  0  0  0  0  0  0  0  0  # atno 10167 bound_to 10162
  156.6814  130.5038  149.5970 H   0  0  0  0  0  0  0  0  0  0  0  0  # atno 10718 bound_to 10713
  153.0593  135.5022  154.8057 H   0  0  0  0  0  0  0  0  0  0  0  0  # atno 10763 bound_to 10752
  154.6858  135.2976  154.9552 H   0  0  0  0  0  0  0  0  0  0  0  0  # atno 10764 bound_to 10752
  154.0323  135.6728  153.4834 H   0  0  0  0  0  0  0  0  0  0  0  0  # atno 10765 bound_to 10752
  141.0041  133.6940  156.2077 H   0  0  0  0  0  0  0  0  0  0  0  0  # atno 11005 bound_to 11000
  146.1264  140.7242  142.9433 LP  0  0  0  0  0  0  0  0  0  0  0  0  # atno 17320 bound_to 7965
  144.7150  140.4176  143.7051 LP  0  0  0  0  0  0  0  0  0  0  0  0  # atno 17321 bound_to 7965
  139.5630  144.2109  152.1722 LP  0  0  0  0  0  0  0  0  0  0  0  0  # atno 17342 bound_to 10162
  140.1383  144.5226  150.6760 LP  0  0  0  0  0  0  0  0  0  0  0  0  # atno 17343 bound_to 10162
  156.1865  130.6532  151.1012 LP  0  0  0  0  0  0  0  0  0  0  0  0  # atno 17370 bound_to 10713
  157.7042  131.0763  150.6721 LP  0  0  0  0  0  0  0  0  0  0  0  0  # atno 17371 bound_to 10713
  140.6841  134.4735  157.5589 LP  0  0  0  0  0  0  0  0  0  0  0  0  # atno 17394 bound_to 11000
  139.9054  134.8461  156.1727 LP  0  0  0  0  0  0  0  0  0  0  0  0  # atno 17395 bound_to 11000

$$$$
