AV-unprocessed.smi:2290|AV-procd|sdf|9210|dock10
  -GOLD-   2272012433D 1   1.00000     0.00000
 Structure written by MMmdl.
 38 39  0  0  0  0  0  0  0  0  1 V2000
  147.0076  132.3396  160.7092 C   0  0  0  0  0  0  0  0  0  0  0  0
  147.4889  133.7423  160.3827 C   0  0  0  0  0  0  0  0  0  0  0  0
  148.1722  133.8795  159.1709 N   0  0  0  0  0  0  0  0  0  0  0  0
  148.6181  135.0380  158.8097 C   0  0  0  0  0  0  0  0  0  0  0  0
  148.4353  136.1799  159.6063 N   0  0  0  0  0  0  0  0  0  0  0  0
  148.9839  137.4390  159.0764 C   0  0  0  0  0  0  0  0  0  0  0  0
  150.3662  137.2414  158.4144 C   0  0  2  0  0  0  0  0  0  0  0  0
  151.3810  137.1659  159.3956 O   0  0  0  0  0  0  0  0  0  0  0  0
  150.7333  138.3760  157.4439 C   0  0  0  0  0  0  0  0  0  0  0  0
  150.9980  139.5721  158.1677 O   0  0  0  0  0  0  0  0  0  0  0  0
  150.7301  140.7620  157.4381 C   0  0  0  0  0  0  0  0  0  0  0  0
  151.3083  141.9271  158.1812 C   0  0  0  0  0  0  0  0  0  0  0  0
  151.0816  143.2585  157.9414 C   0  0  0  0  0  0  0  0  0  0  0  0
  151.7992  144.1195  158.8231 C   0  0  0  0  0  0  0  0  0  0  0  0
  152.5731  143.4343  159.7212 C   0  0  0  0  0  0  0  0  0  0  0  0
  152.4385  141.7118  159.4980 S   0  0  0  0  0  0  0  0  0  0  0  0
  147.7758  136.1357  160.8001 C   0  0  0  0  0  0  0  0  0  0  0  0
  147.6108  137.1470  161.4854 O   0  0  0  0  0  0  0  0  0  0  0  0
  147.2775  134.8099  161.2002 C   0  0  0  0  0  0  0  0  0  0  0  0
  146.5401  134.7209  162.5306 C   0  0  0  0  0  0  0  0  0  0  0  0
  147.4496  131.9906  161.6428 H   0  0  0  0  0  0  0  0  0  0  0  0
  147.2825  131.6330  159.9249 H   0  0  0  0  0  0  0  0  0  0  0  0
  145.9220  132.3221  160.8083 H   0  0  0  0  0  0  0  0  0  0  0  0
  149.1540  135.1995  157.8727 H   0  0  0  0  0  0  0  0  0  0  0  0
  148.2842  137.8318  158.3364 H   0  0  0  0  0  0  0  0  0  0  0  0
  149.0326  138.2201  159.8379 H   0  0  0  0  0  0  0  0  0  0  0  0
  150.3882  136.3065  157.8532 H   0  0  0  0  0  0  0  0  0  0  0  0
  151.9217  137.9380  159.3297 H   0  0  0  0  0  0  0  0  0  0  0  0
  151.5904  138.0998  156.8275 H   0  0  0  0  0  0  0  0  0  0  0  0
  149.8945  138.5382  156.7657 H   0  0  0  0  0  0  0  0  0  0  0  0
  151.2090  140.6829  156.4622 H   0  0  0  0  0  0  0  0  0  0  0  0
  149.6609  140.8884  157.2610 H   0  0  0  0  0  0  0  0  0  0  0  0
  150.4284  143.6416  157.1714 H   0  0  0  0  0  0  0  0  0  0  0  0
  151.7252  145.1954  158.7670 H   0  0  0  0  0  0  0  0  0  0  0  0
  153.2138  143.8337  160.4936 H   0  0  0  0  0  0  0  0  0  0  0  0
  145.6612  135.3663  162.5167 H   0  0  0  0  0  0  0  0  0  0  0  0
  147.1893  135.0506  163.3425 H   0  0  0  0  0  0  0  0  0  0  0  0
  146.2031  133.7135  162.7692 H   0  0  0  0  0  0  0  0  0  0  0  0
  1  2  1  0  0  0  0
  1 21  1  0  0  0  0
  1 22  1  0  0  0  0
  1 23  1  0  0  0  0
  2 19  2  0  0  0  0
  2  3  1  0  0  0  0
  3  4  2  0  0  0  0
  4  5  1  0  0  0  0
  4 24  1  0  0  0  0
  5  6  1  0  0  0  0
  5 17  1  0  0  0  0
  6  7  1  0  0  0  0
  6 25  1  0  0  0  0
  6 26  1  0  0  0  0
  7  8  1  0  0  0  0
  7  9  1  0  0  0  0
  7 27  1  0  0  0  0
  8 28  1  0  0  0  0
  9 10  1  0  0  0  0
  9 29  1  0  0  0  0
  9 30  1  0  0  0  0
 10 11  1  0  0  0  0
 11 12  1  0  0  0  0
 11 31  1  0  0  0  0
 11 32  1  0  0  0  0
 12 16  1  0  0  0  0
 12 13  2  0  0  0  0
 13 14  1  0  0  0  0
 13 33  1  0  0  0  0
 14 15  2  0  0  0  0
 14 34  1  0  0  0  0
 15 16  1  0  0  0  0
 15 35  1  0  0  0  0
 17 18  2  0  0  0  0
 17 19  1  0  0  0  0
 19 20  1  0  0  0  0
 20 36  1  0  0  0  0
 20 37  1  0  0  0  0
 20 38  1  0  0  0  0
M  END
> <s_m_source_file>
AV-unprocessed.smi

> <i_m_source_file_index>
2290

> <i_lp_mmshare_version>
43012

> <i_f3d_flags>
0

> <s_epik_input>
W0NIM11jMW5bY0hdbihjKD1PKWMxW0NIM10pW0NIMl1bQ0BIXShbT0hdKVtDSDJdT1tDSDJdYzJbY0hdW2NIXVtjSF1zMg==

> <s_epik_cmdline>
J2VwaWtfcHl0aG9uJywgJy1waCcsICc3LjAnLCAnLXRuJywgJzgnLCAnLW1hJywgJzIwMCcsICctbWV0YWxfYmluZGluZycsICctaW1hZScsICc8aW5maWxlLm1hZT4nLCAnLW9tYWUnLCAnPG91dGZpbGUubWFlPic=

> <r_lp_tautomer_probability>
1

> <r_epik_Ionization_Penalty>
4.77825e-05

> <r_epik_Ionization_Penalty_Charging>
1.20754e-07

> <r_epik_Ionization_Penalty_Neutral>
4.76618e-05

> <r_epik_State_Penalty>
-0

> <r_epik_Charging_Adjusted_Penalty>
1.20754e-07

> <i_epik_Tot_Q>
0

> <i_epik_Tot_abs_Q>
0

> <r_epik_Metal_State_Penalty>
-0

> <b_epik_Metal_Only>
0

> <s_lp_Force_Field>
OPLS_2005

> <r_lp_Energy>
18.6865

> <b_lp_Chiralities_Consistent>
1

> <s_lp_Variant>
AV-unprocessed.smi:2290-1

> <Gold.Version>
5.8.1

> <Gold.Id.Protein>
6NUR|6NUR_protein|mol2

> <Gold.PLP.Fitness>
45.2590

> <Gold.PLP.PLP>
-38.9606

> <Gold.PLP.part.hbond>
-2.9533

> <Gold.PLP.part.metal>
0.0000

> <Gold.PLP.part.buried>
-3.0705

> <Gold.PLP.part.nonpolar>
-32.6006

> <Gold.PLP.part.repulsive>
0.0000

> <Gold.PLP.ligand.clash>
0.0000

> <Gold.PLP.ligand.torsion>
0.8429

> <Gold.PLP.Chemscore.Hbond>
2.6503

> <Gold.PLP.Chemscore.CHOScore>
0.0000

> <Gold.PLP.Chemscore.Metal>
0.0000

> <Gold.Chemscore.Hbonds>
donor molecule, donor type, donor heavy atom, donor atom, acceptor molecule, acceptor atom, score
      P1  H  6896  6907       L1     8  0.89
      P1  H  6931  6943       L1    18  0.99
      P1  H  6934  6947       L1    18  0.82

> <Gold.PLP.Chemscore.Internal.Correction>
0.0335

> <Gold.Rescore>
     Score         DG    S(hbond)    S(metal)    S(lipo)     H(rot)  DE(clash)    DE(int)     intcor
     17.63     -18.49       2.66        0.00      91.14       2.55       0.00       0.85       ----

> <Gold.Chemscore.Fitness>
17.6345

> <Gold.Chemscore.DG>
-18.4867

> <Gold.Chemscore.ZeroCoef>
-5.4800

> <Gold.Chemscore.Hbond>
2.6566

> <Gold.Chemscore.Metal>
0.0000

> <Gold.Chemscore.Lipo>
91.1405

> <Gold.Chemscore.Internal_Hbond>
0.0000

> <Gold.Chemscore.DEClash>
0.0009

> <Gold.Chemscore.DEInternal>
0.8513

> <Gold.Chemscore.Rot>
2.5507

> <Gold.Chemscore.Internal.Correction>
   9.000000E+99

> <Gold.Chemscore.Hbonds>
donor molecule, donor type, donor heavy atom, donor atom, acceptor molecule, acceptor atom, score
      P1  H  6896  6907       L1     8  0.39
      P1  H  6931  6943       L1    18  0.93
      P1  H  6934  6947       L1    18  0.79

> <Gold.Chemscore.Hbond.Weighted>
-8.8731

> <Gold.Chemscore.Metal.Weighted>
-0.0000

> <Gold.Chemscore.Lipo.Weighted>
-10.6634

> <Gold.Chemscore.Internal_Hbond.Weighted>
0.0000

> <Gold.Chemscore.DEClash.Weighted>
0.0009

> <Gold.Chemscore.DEInternal.Weighted>
0.8513

> <Gold.Chemscore.Rot.Weighted>
6.5298

> <Gold.Chemscore.Internal.Correction.Weighted>
   9.000000E+99

> <Gold.Protein.RotatedTorsions>
[ 6907 6896 6895 6894 ] final  -10.06 input  -60.11 | X-H torsion
[ 7974 7965 7964 7962 ] final   84.27 input  175.53 | X-H torsion
[ 8008 7997 7996 7995 ] final  -63.02 input   59.86 | X-H torsion
[ 10167 10162 10161 10158 ] final  -38.45 input  -65.29 | X-H torsion
[ 10718 10713 10712 10709 ] final  -20.39 input   66.30 | X-H torsion
[ 10763 10752 10751 10750 ] final   16.71 input  -60.55 | X-H torsion
[ 11005 11000 10999 10996 ] final  106.46 input  -57.11 | X-H torsion

> <Gold.Protein.ActiveResidues>
 VAL166  LYS551  ARG553  GLY616  TRP617  ASP618  TYR619  PRO620  LYS621  CYS622 
 ASP623  PHE694  ASN695  SER759  ASP760  ASP761  ALA762  ILE779  LEU786  VAL792 
 PHE793  MET794  SER795  GLU796  ALA797  LYS798  CYS799  TRP800  GLU811  SER814 

> <Gold.Protein.RotatedAtoms>
  151.4079  135.0981  159.9575 H   0  0  0  0  0  0  0  0  0  0  0  0  # atno 6907 bound_to 6896
  152.5029  133.8825  159.7364 H   0  0  0  0  0  0  0  0  0  0  0  0  # atno 6908 bound_to 6896
  150.9314  133.6706  159.2838 H   0  0  0  0  0  0  0  0  0  0  0  0  # atno 6909 bound_to 6896
  145.6009  139.2352  143.2246 H   0  0  0  0  0  0  0  0  0  0  0  0  # atno 7974 bound_to 7965
  154.4531  140.0983  156.6678 H   0  0  0  0  0  0  0  0  0  0  0  0  # atno 8008 bound_to 7997
  155.5221  140.3479  155.4390 H   0  0  0  0  0  0  0  0  0  0  0  0  # atno 8009 bound_to 7997
  156.0723  140.1352  156.9803 H   0  0  0  0  0  0  0  0  0  0  0  0  # atno 8010 bound_to 7997
  140.7092  143.3276  151.2643 H   0  0  0  0  0  0  0  0  0  0  0  0  # atno 10167 bound_to 10162
  156.5325  130.4658  149.6539 H   0  0  0  0  0  0  0  0  0  0  0  0  # atno 10718 bound_to 10713
  153.1405  135.6759  153.9034 H   0  0  0  0  0  0  0  0  0  0  0  0  # atno 10763 bound_to 10752
  153.8492  135.3095  155.3432 H   0  0  0  0  0  0  0  0  0  0  0  0  # atno 10764 bound_to 10752
  154.7783  135.4902  153.9875 H   0  0  0  0  0  0  0  0  0  0  0  0  # atno 10765 bound_to 10752
  139.8814  134.9370  156.5669 H   0  0  0  0  0  0  0  0  0  0  0  0  # atno 11005 bound_to 11000
  146.1577  140.6834  142.9292 LP  0  0  0  0  0  0  0  0  0  0  0  0  # atno 17320 bound_to 7965
  144.7310  140.4672  143.6938 LP  0  0  0  0  0  0  0  0  0  0  0  0  # atno 17321 bound_to 7965
  139.6749  143.9955  152.2775 LP  0  0  0  0  0  0  0  0  0  0  0  0  # atno 17342 bound_to 10162
  139.9566  144.6586  150.8120 LP  0  0  0  0  0  0  0  0  0  0  0  0  # atno 17343 bound_to 10162
  156.3046  130.7195  151.2075 LP  0  0  0  0  0  0  0  0  0  0  0  0  # atno 17370 bound_to 10713
  157.7419  131.0497  150.5062 LP  0  0  0  0  0  0  0  0  0  0  0  0  # atno 17371 bound_to 10713
  140.8127  133.8416  155.8824 LP  0  0  0  0  0  0  0  0  0  0  0  0  # atno 17394 bound_to 11000
  140.9491  134.1802  157.4741 LP  0  0  0  0  0  0  0  0  0  0  0  0  # atno 17395 bound_to 11000

$$$$
