#       Name:                AV-unprocessed.smi:1856
#       Creating user name   scv26
#       Creation time:       Fri Mar 27 09:24:40 2020


#       File generated by GOLD software.
#

@<TRIPOS>MOLECULE
AV-unprocessed.smi:1856
    49    50     1
SMALL
NO_CHARGES


@<TRIPOS>ATOM
      1 ****        -0.4218   4.0295  -0.3661 C.3            1 S1                 0.0000
      2 ****        -1.8503   3.9731  -0.9310 C.3            1 S1                 0.0000
      3 ****        -2.7797   2.9947  -0.1862 C.3            1 S1                 0.0000
      4 ****        -2.3215   1.5381  -0.2936 C.2            1 S1                 0.0000
      5 ****        -2.1203   1.0336  -1.3983 O.2            1 S1                 0.0000
      6 ****        -2.1365   0.8836   0.8635 N.am           1 S1                 0.0000
      7 ****        -1.5725  -0.4575   0.9903 C.3            1 S1                 0.0000
      8 ****        -2.0075  -1.0951   2.3177 C.3            1 S1                 0.0000
      9 ****        -0.0721  -0.3381   0.8725 C.2            1 S1                 0.0000
     10 ****         0.6366   0.3828   1.7467 N.2            1 S1                 0.0000
     11 ****         1.9270   0.2624   1.2747 C.ar           1 S1                 0.0000
     12 ****         3.1389   0.7947   1.7697 C.ar           1 S1                 0.0000
     13 ****         4.3559   0.5344   1.1065 C.ar           1 S1                 0.0000
     14 ****         4.3778  -0.2598  -0.0581 C.ar           1 S1                 0.0000
     15 ****         3.1808  -0.7988  -0.5675 C.ar           1 S1                 0.0000
     16 ****         1.9683  -0.5357   0.0981 C.ar           1 S1                 0.0000
     17 ****         0.6459  -0.8994  -0.1381 N.pl3          1 S1                 0.0000
     18 ****         0.1888  -1.7102  -1.2607 C.3            1 S1                 0.0000
     19 ****         0.2598  -3.2210  -0.9704 C.3            1 S1                 0.0000
     20 ****        -0.1668  -4.0603  -2.1809 C.3            1 S1                 0.0000
     21 ****        -0.5722  -3.5552   0.1219 O.3            1 S1                 0.0000
     22 ****         0.1716   4.7784  -0.8906 H              1 S1                 0.0000
     23 ****         0.0921   3.0732  -0.4711 H              1 S1                 0.0000
     24 ****        -0.4273   4.2917   0.6921 H              1 S1                 0.0000
     25 ****        -2.2854   4.9717  -0.8833 H              1 S1                 0.0000
     26 ****        -1.8111   3.7167  -1.9906 H              1 S1                 0.0000
     27 ****        -2.8577   3.2871   0.8621 H              1 S1                 0.0000
     28 ****        -3.7864   3.0627  -0.5996 H              1 S1                 0.0000
     29 ****        -2.3266   1.3779   1.7230 H              1 S1                 0.0000
     30 ****        -1.9746  -1.0841   0.1967 H              1 S1                 0.0000
     31 ****        -1.5881  -2.0956   2.4263 H              1 S1                 0.0000
     32 ****        -3.0929  -1.1849   2.3708 H              1 S1                 0.0000
     33 ****        -1.6812  -0.5038   3.1739 H              1 S1                 0.0000
     34 ****         3.1317   1.4047   2.6607 H              1 S1                 0.0000
     35 ****         5.2767   0.9466   1.4926 H              1 S1                 0.0000
     36 ****         5.3139  -0.4539  -0.5610 H              1 S1                 0.0000
     37 ****         3.1947  -1.4067  -1.4598 H              1 S1                 0.0000
     38 ****        -0.8146  -1.4107  -1.5583 H              1 S1                 0.0000
     39 ****         0.8200  -1.4772  -2.1189 H              1 S1                 0.0000
     40 ****         1.2829  -3.4862  -0.7011 H              1 S1                 0.0000
     41 ****         0.4727  -3.8582  -3.0404 H              1 S1                 0.0000
     42 ****        -1.1949  -3.8420  -2.4728 H              1 S1                 0.0000
     43 ****        -0.1001  -5.1271  -1.9649 H              1 S1                 0.0000
     44 ****        -0.4725  -4.4772   0.3035 H              1 S1                 0.0000
     45 ****        -2.2562   1.5755  -2.2277 LP             1 S1                 0.0000
     46 ****        -1.8210   0.0819  -1.4663 LP             1 S1                 0.0000
     47 ****         0.3110   0.8863   2.5471 LP             1 S1                 0.0000
     48 ****        -1.5254  -3.3576  -0.1072 LP             1 S1                 0.0000
     49 ****        -0.3051  -3.0224   0.9249 LP             1 S1                 0.0000
@<TRIPOS>BOND
    1    1    2 1     
    2    1   22 1     
    3    1   23 1     
    4    1   24 1     
    5    2    3 1     
    6    2   25 1     
    7    2   26 1     
    8    3    4 1     
    9    3   27 1     
   10    3   28 1     
   11    4    5 2     
   12    4    6 am    
   13    6    7 1     
   14    6   29 1     
   15    7    8 1     
   16    7    9 1     
   17    7   30 1     
   18    8   31 1     
   19    8   32 1     
   20    8   33 1     
   21    9   17 1     
   22    9   10 2     
   23   10   11 1     
   24   11   16 ar    
   25   11   12 ar    
   26   12   13 ar    
   27   12   34 1     
   28   13   14 ar    
   29   13   35 1     
   30   14   15 ar    
   31   14   36 1     
   32   15   16 ar    
   33   15   37 1     
   34   16   17 1     
   35   17   18 1     
   36   18   19 1     
   37   18   38 1     
   38   18   39 1     
   39   19   20 1     
   40   19   21 1     
   41   19   40 1     
   42   20   41 1     
   43   20   42 1     
   44   20   43 1     
   45   21   44 1     
   46    5   45 1     
   47    5   46 1     
   48   10   47 1     
   49   21   48 1     
   50   21   49 1     
@<TRIPOS>SUBSTRUCTURE
      1 S1             1
@<TRIPOS>SET
LONE_PAIRS      STATIC     ATOMS    <user>   **** ""
5 45 46 47 48 49
DONOR_HYDROGENS      STATIC     ATOMS    <user>   **** ""
2 29 44
ATOM$BLUE        STATIC     ATOMS    COLORGROUP SYSTEM
5 45 46 47 48 49
ATOM$RED        STATIC     ATOMS    COLORGROUP SYSTEM
2 29 44
