AV-unprocessed.smi:285|AV-procd|sdf|2168|dock1
  -GOLD-   2262021523D 1   1.00000     0.00000
 Structure written by MMmdl.
 31 33  0  0  0  0  0  0  0  0  1 V2000
  154.9848  137.8783  159.5669 N   0  0  0  0  0  0  0  0  0  0  0  0
  154.7339  139.0232  160.2170 C   0  0  0  0  0  0  0  0  0  0  0  0
  155.3064  139.2134  161.4287 N   0  0  0  0  0  0  0  0  0  0  0  0
  155.0719  140.3465  162.0989 C   0  0  0  0  0  0  0  0  0  0  0  0
  154.3149  141.3876  161.7419 N   0  0  0  0  0  0  0  0  0  0  0  0
  153.7387  141.1954  160.5182 C   0  0  0  0  0  0  0  0  0  0  0  0
  153.8976  140.0422  159.6952 C   0  0  0  0  0  0  0  0  0  0  0  0
  153.1653  140.1844  158.5228 N   0  0  0  0  0  0  0  0  0  0  0  0
  152.6167  141.3584  158.6674 C   0  0  0  0  0  0  0  0  0  0  0  0
  151.4671  142.0578  157.3197 Br  0  0  0  0  0  0  0  0  0  0  0  0
  152.8974  142.0447  159.8272 N   0  0  0  0  0  0  0  0  0  0  0  0
  152.4255  143.3925  160.2659 C   0  0  1  0  0  0  0  0  0  0  0  0
  152.6480  144.4418  159.1818 C   0  0  0  0  0  0  0  0  0  0  0  0
  151.4573  145.3734  159.3822 C   0  0  2  0  0  0  0  0  0  0  0  0
  151.8886  146.6419  159.8337 O   0  0  0  0  0  0  0  0  0  0  0  0
  150.5807  144.6803  160.4456 C   0  0  1  0  0  0  0  0  0  0  0  0
  149.0826  144.6906  160.1052 C   0  0  0  0  0  0  0  0  0  0  0  0
  148.3403  144.1184  161.1609 O   0  0  0  0  0  0  0  0  0  0  0  0
  151.0562  143.3407  160.4664 O   0  0  0  0  0  0  0  0  0  0  0  0
  154.5694  137.7118  158.6614 H   0  0  0  0  0  0  0  0  0  0  0  0
  155.5898  137.1848  159.9825 H   0  0  0  0  0  0  0  0  0  0  0  0
  155.5609  140.4317  163.0580 H   0  0  0  0  0  0  0  0  0  0  0  0
  152.9400  143.6153  161.2009 H   0  0  0  0  0  0  0  0  0  0  0  0
  153.6238  144.9148  159.3012 H   0  0  0  0  0  0  0  0  0  0  0  0
  152.6001  143.9800  158.1949 H   0  0  0  0  0  0  0  0  0  0  0  0
  150.9232  145.4908  158.4383 H   0  0  0  0  0  0  0  0  0  0  0  0
  151.8950  147.2377  159.1003 H   0  0  0  0  0  0  0  0  0  0  0  0
  150.7613  145.1277  161.4257 H   0  0  0  0  0  0  0  0  0  0  0  0
  148.7332  145.7161  159.9817 H   0  0  0  0  0  0  0  0  0  0  0  0
  148.8850  144.1648  159.1704 H   0  0  0  0  0  0  0  0  0  0  0  0
  147.9564  144.8152  161.6708 H   0  0  0  0  0  0  0  0  0  0  0  0
  1  2  1  0  0  0  0
  1 20  1  0  0  0  0
  1 21  1  0  0  0  0
  2  7  1  0  0  0  0
  2  3  2  0  0  0  0
  3  4  1  0  0  0  0
  4  5  2  0  0  0  0
  4 22  1  0  0  0  0
  5  6  1  0  0  0  0
  6 11  1  0  0  0  0
  6  7  2  0  0  0  0
  7  8  1  0  0  0  0
  8  9  2  0  0  0  0
  9 10  1  0  0  0  0
  9 11  1  0  0  0  0
 11 12  1  0  0  0  0
 12 19  1  0  0  0  0
 12 13  1  0  0  0  0
 12 23  1  0  0  0  0
 13 14  1  0  0  0  0
 13 24  1  0  0  0  0
 13 25  1  0  0  0  0
 14 15  1  0  0  0  0
 14 16  1  0  0  0  0
 14 26  1  0  0  0  0
 15 27  1  0  0  0  0
 16 17  1  0  0  0  0
 16 19  1  0  0  0  0
 16 28  1  0  0  0  0
 17 18  1  0  0  0  0
 17 29  1  0  0  0  0
 17 30  1  0  0  0  0
 18 31  1  0  0  0  0
M  END
> <s_m_source_file>
AV-unprocessed.smi

> <i_m_source_file_index>
285

> <i_lp_mmshare_version>
43012

> <i_f3d_flags>
0

> <s_epik_input>
bjFbY0hdbmMoW05IMl0pYyhjMTIpbmMoQnIpbjJbQ0BASF0zW0NIMl1bQ0BASF0oW09IXSlbQ0BIXShPMylbQ0gyXVtPSF0=

> <s_epik_cmdline>
J2VwaWtfcHl0aG9uJywgJy1waCcsICc3LjAnLCAnLXRuJywgJzgnLCAnLW1hJywgJzIwMCcsICctbWV0YWxfYmluZGluZycsICctaW1hZScsICc8aW5maWxlLm1hZT4nLCAnLW9tYWUnLCAnPG91dGZpbGUubWFlPic=

> <r_lp_tautomer_probability>
1

> <r_epik_Ionization_Penalty>
0.000103242

> <r_epik_Ionization_Penalty_Charging>
0

> <r_epik_Ionization_Penalty_Neutral>
0.000103242

> <r_epik_State_Penalty>
-0

> <r_epik_Charging_Adjusted_Penalty>
0

> <i_epik_Tot_Q>
0

> <i_epik_Tot_abs_Q>
0

> <r_epik_Metal_State_Penalty>
-0

> <b_epik_Metal_Only>
0

> <s_epik_Chemistry_Notes>
This compound contains an acetal/aminal-like group ( X-CH(R)-Y where X, Y are N, S, or O) that may be acid/base labile, releasing an aldehyde.

> <s_lp_Force_Field>
OPLS_2005

> <r_lp_Energy>
33.2332

> <b_lp_Chiralities_Consistent>
1

> <s_lp_Variant>
AV-unprocessed.smi:285-4

> <Gold.Version>
5.8.1

> <Gold.Id.Protein>
6NUR|6NUR_protein|mol2

> <Gold.PLP.Fitness>
43.8693

> <Gold.PLP.PLP>
-38.7938

> <Gold.PLP.part.hbond>
-6.4364

> <Gold.PLP.part.metal>
0.0000

> <Gold.PLP.part.buried>
-3.5376

> <Gold.PLP.part.nonpolar>
-27.7244

> <Gold.PLP.part.repulsive>
0.1335

> <Gold.PLP.ligand.clash>
0.0000

> <Gold.PLP.ligand.torsion>
0.1330

> <Gold.PLP.Chemscore.Hbond>
1.7743

> <Gold.PLP.Chemscore.CHOScore>
0.0000

> <Gold.PLP.Chemscore.Metal>
0.0000

> <Gold.Chemscore.Hbonds>
donor molecule, donor type, donor heavy atom, donor atom, acceptor molecule, acceptor atom, score
      P1  H  6933  6944       L1    18  0.99
      P1  H  7997  8010       L1     8  0.77

> <Gold.PLP.Chemscore.Internal.Correction>
0.0185

> <Gold.Rescore>
     Score         DG    S(hbond)    S(metal)    S(lipo)     H(rot)  DE(clash)    DE(int)     intcor
      6.53      -9.18       1.51        0.00      55.51       3.06       2.49       0.16       ----

> <Gold.Chemscore.Fitness>
6.5309

> <Gold.Chemscore.DG>
-9.1788

> <Gold.Chemscore.ZeroCoef>
-5.4800

> <Gold.Chemscore.Hbond>
1.5090

> <Gold.Chemscore.Metal>
0.0000

> <Gold.Chemscore.Lipo>
55.5059

> <Gold.Chemscore.Internal_Hbond>
0.0000

> <Gold.Chemscore.DEClash>
2.4892

> <Gold.Chemscore.DEInternal>
0.1587

> <Gold.Chemscore.Rot>
3.0607

> <Gold.Chemscore.Internal.Correction>
   9.000000E+99

> <Gold.Chemscore.Hbonds>
donor molecule, donor type, donor heavy atom, donor atom, acceptor molecule, acceptor atom, score
      P1  H  6933  6944       L1    18  0.90
      P1  H  7997  8010       L1     8  0.16

> <Gold.Chemscore.Hbond.Weighted>
-5.0400

> <Gold.Chemscore.Metal.Weighted>
-0.0000

> <Gold.Chemscore.Lipo.Weighted>
-6.4942

> <Gold.Chemscore.Internal_Hbond.Weighted>
0.0000

> <Gold.Chemscore.DEClash.Weighted>
2.4892

> <Gold.Chemscore.DEInternal.Weighted>
0.1587

> <Gold.Chemscore.Rot.Weighted>
7.8354

> <Gold.Chemscore.Internal.Correction.Weighted>
   9.000000E+99

> <Gold.Protein.RotatedTorsions>
[ 6907 6896 6895 6894 ] final -107.47 input  -60.11 | X-H torsion
[ 7974 7965 7964 7962 ] final  163.54 input  175.53 | X-H torsion
[ 8008 7997 7996 7995 ] final   23.02 input   59.86 | X-H torsion
[ 10167 10162 10161 10158 ] final  -93.98 input  -65.29 | X-H torsion
[ 10718 10713 10712 10709 ] final   99.03 input   66.30 | X-H torsion
[ 10763 10752 10751 10750 ] final   58.20 input  -60.55 | X-H torsion
[ 11005 11000 10999 10996 ] final  105.51 input  -57.11 | X-H torsion

> <Gold.Protein.ActiveResidues>
 VAL166  LYS551  ARG553  GLY616  TRP617  ASP618  TYR619  PRO620  LYS621  CYS622 
 ASP623  PHE694  ASN695  SER759  ASP760  ASP761  ALA762  ILE779  LEU786  VAL792 
 PHE793  MET794  SER795  GLU796  ALA797  LYS798  CYS799  TRP800  GLU811  SER814 

> <Gold.Protein.RotatedAtoms>
  150.7446  133.9822  159.3579 H   0  0  0  0  0  0  0  0  0  0  0  0  # atno 6907 bound_to 6896
  151.7764  135.0771  160.0377 H   0  0  0  0  0  0  0  0  0  0  0  0  # atno 6908 bound_to 6896
  152.3304  133.5915  159.5842 H   0  0  0  0  0  0  0  0  0  0  0  0  # atno 6909 bound_to 6896
  144.7585  139.8198  143.6341 H   0  0  0  0  0  0  0  0  0  0  0  0  # atno 7974 bound_to 7965
  154.9746  140.3094  155.4973 H   0  0  0  0  0  0  0  0  0  0  0  0  # atno 8008 bound_to 7997
  156.2961  140.2277  156.4780 H   0  0  0  0  0  0  0  0  0  0  0  0  # atno 8009 bound_to 7997
  154.7845  140.0444  157.1141 H   0  0  0  0  0  0  0  0  0  0  0  0  # atno 8010 bound_to 7997
  140.3191  143.3059  152.0066 H   0  0  0  0  0  0  0  0  0  0  0  0  # atno 10167 bound_to 10162
  157.6884  131.0658  150.4887 H   0  0  0  0  0  0  0  0  0  0  0  0  # atno 10718 bound_to 10713
  152.9865  135.5615  154.5514 H   0  0  0  0  0  0  0  0  0  0  0  0  # atno 10763 bound_to 10752
  154.4950  135.2794  155.1468 H   0  0  0  0  0  0  0  0  0  0  0  0  # atno 10764 bound_to 10752
  154.2922  135.6324  153.5443 H   0  0  0  0  0  0  0  0  0  0  0  0  # atno 10765 bound_to 10752
  139.8803  134.9338  156.5525 H   0  0  0  0  0  0  0  0  0  0  0  0  # atno 11005 bound_to 11000
  146.1622  139.4741  142.9981 LP  0  0  0  0  0  0  0  0  0  0  0  0  # atno 17320 bound_to 7965
  145.6698  141.0219  143.1663 LP  0  0  0  0  0  0  0  0  0  0  0  0  # atno 17321 bound_to 7965
  139.4878  144.6325  151.7041 LP  0  0  0  0  0  0  0  0  0  0  0  0  # atno 17342 bound_to 10162
  140.5500  144.0441  150.6123 LP  0  0  0  0  0  0  0  0  0  0  0  0  # atno 17343 bound_to 10162
  156.5214  130.4163  149.6248 LP  0  0  0  0  0  0  0  0  0  0  0  0  # atno 17370 bound_to 10713
  156.3150  130.7250  151.2150 LP  0  0  0  0  0  0  0  0  0  0  0  0  # atno 17371 bound_to 10713
  140.8230  133.8339  155.8913 LP  0  0  0  0  0  0  0  0  0  0  0  0  # atno 17394 bound_to 11000
  140.9401  134.1912  157.4804 LP  0  0  0  0  0  0  0  0  0  0  0  0  # atno 17395 bound_to 11000

$$$$
