#       Name:                AV-unprocessed.smi:1740
#       Creating user name   scv26
#       Creation time:       Fri Mar 27 08:22:26 2020


#       File generated by GOLD software.
#

@<TRIPOS>MOLECULE
AV-unprocessed.smi:1740
    58    60     1
SMALL
NO_CHARGES


@<TRIPOS>ATOM
      1 ****        -7.2632  -2.8308   1.4610 N.am           1 S1                 0.0000
      2 ****        -5.9909  -2.7340   1.0688 C.2            1 S1                 0.0000
      3 ****        -5.0835  -3.3450   1.6309 O.2            1 S1                 0.0000
      4 ****        -5.7079  -1.8334  -0.1384 C.3            1 S1                 0.0000
      5 ****        -4.2732  -1.4707  -0.2736 N.4            1 S1                 1.0000
      6 ****        -3.8437  -0.4170   0.6850 C.3            1 S1                 0.0000
      7 ****        -2.3278  -0.1736   0.6004 C.3            1 S1                 0.0000
      8 ****        -1.9063   0.1983  -0.8332 C.3            1 S1                 0.0000
      9 ****        -0.4567   0.3434  -0.9346 N.am           1 S1                 0.0000
     10 ****         0.2333   1.4380  -0.5830 C.2            1 S1                 0.0000
     11 ****        -0.2867   2.4457  -0.1044 O.2            1 S1                 0.0000
     12 ****         1.5496   1.2803  -0.8029 N.am           1 S1                 0.0000
     13 ****         2.5949   2.2095  -0.5350 C.ar           1 S1                 0.0000
     14 ****         2.3947   3.6036  -0.7073 C.ar           1 S1                 0.0000
     15 ****         3.4626   4.4980  -0.5070 C.ar           1 S1                 0.0000
     16 ****         4.7217   3.9848  -0.1529 C.ar           1 S1                 0.0000
     17 ****         4.8843   2.6534  -0.0090 N.pl3          1 S1                 1.0000
     18 ****         3.8925   1.7423  -0.1735 C.ar           1 S1                 0.0000
     19 ****         4.2117   0.3788   0.0218 N.3            1 S1                 0.0000
     20 ****         5.5968  -0.0357   0.2160 C.3            1 S1                 0.0000
     21 ****         5.5135  -1.4617   0.7540 C.3            1 S1                 0.0000
     22 ****         4.2503  -1.4157   1.6079 C.3            1 S1                 0.0000
     23 ****         3.3379  -0.4449   0.8515 C.3            1 S1                 0.0000
     24 ****        -2.3936  -0.8858  -1.8076 C.3            1 S1                 0.0000
     25 ****        -3.9079  -1.1185  -1.6696 C.3            1 S1                 0.0000
     26 ****        -7.5008  -3.4171   2.2488 H              1 S1                 0.0000
     27 ****        -7.9871  -2.3255   0.9703 H              1 S1                 0.0000
     28 ****        -6.0306  -2.3876  -1.0210 H              1 S1                 0.0000
     29 ****        -6.3200  -0.9309  -0.0941 H              1 S1                 0.0000
     30 ****        -4.3824   0.5085   0.4752 H              1 S1                 0.0000
     31 ****        -4.1021  -0.7060   1.7040 H              1 S1                 0.0000
     32 ****        -2.0473   0.6190   1.2951 H              1 S1                 0.0000
     33 ****        -1.7973  -1.0704   0.9244 H              1 S1                 0.0000
     34 ****        -2.3785   1.1434  -1.1100 H              1 S1                 0.0000
     35 ****         0.0537  -0.4401  -1.3157 H              1 S1                 0.0000
     36 ****         1.8467   0.3643  -1.1057 H              1 S1                 0.0000
     37 ****         1.4394   4.0018  -1.0145 H              1 S1                 0.0000
     38 ****         3.3197   5.5610  -0.6364 H              1 S1                 0.0000
     39 ****         5.5993   4.5925   0.0136 H              1 S1                 0.0000
     40 ****         6.1620   0.0131  -0.7150 H              1 S1                 0.0000
     41 ****         6.0872   0.6029   0.9517 H              1 S1                 0.0000
     42 ****         5.3811  -2.1654  -0.0690 H              1 S1                 0.0000
     43 ****         6.4001  -1.7574   1.3153 H              1 S1                 0.0000
     44 ****         3.7977  -2.3967   1.7540 H              1 S1                 0.0000
     45 ****         4.4884  -1.0056   2.5902 H              1 S1                 0.0000
     46 ****         2.7372   0.1518   1.5393 H              1 S1                 0.0000
     47 ****         2.6613  -1.0003   0.2019 H              1 S1                 0.0000
     48 ****        -2.1582  -0.6002  -2.8336 H              1 S1                 0.0000
     49 ****        -1.8654  -1.8216  -1.6179 H              1 S1                 0.0000
     50 ****        -4.2073  -1.9223  -2.3432 H              1 S1                 0.0000
     51 ****        -4.4565  -0.2263  -1.9760 H              1 S1                 0.0000
     52 ****        -3.7531  -2.3064  -0.0454 H              1 S1                 0.0000
     53 ****         5.8107   2.3119   0.2469 H              1 S1                 0.0000
     54 ****        -5.2877  -3.9385   2.4094 LP             1 S1                 0.0000
     55 ****        -4.1415  -3.2482   1.3095 LP             1 S1                 0.0000
     56 ****        -1.2756   2.4771   0.0410 LP             1 S1                 0.0000
     57 ****         0.2797   3.2330   0.1391 LP             1 S1                 0.0000
     58 ****         3.9992   0.1820  -0.9353 LP             1 S1                 0.0000
@<TRIPOS>BOND
    1    1    2 am    
    2    1   26 1     
    3    1   27 1     
    4    2    3 2     
    5    2    4 1     
    6    4    5 1     
    7    4   28 1     
    8    4   29 1     
    9    5   25 1     
   10    5    6 1     
   11    5   52 1     
   12    6    7 1     
   13    6   30 1     
   14    6   31 1     
   15    7    8 1     
   16    7   32 1     
   17    7   33 1     
   18    8    9 1     
   19    8   24 1     
   20    8   34 1     
   21    9   10 am    
   22    9   35 1     
   23   10   11 2     
   24   10   12 am    
   25   12   13 1     
   26   12   36 1     
   27   13   18 ar    
   28   13   14 ar    
   29   14   15 ar    
   30   14   37 1     
   31   15   16 ar    
   32   15   38 1     
   33   16   17 ar    
   34   16   39 1     
   35   17   18 ar    
   36   17   53 1     
   37   18   19 1     
   38   19   23 1     
   39   19   20 1     
   40   20   21 1     
   41   20   40 1     
   42   20   41 1     
   43   21   22 1     
   44   21   42 1     
   45   21   43 1     
   46   22   23 1     
   47   22   44 1     
   48   22   45 1     
   49   23   46 1     
   50   23   47 1     
   51   24   25 1     
   52   24   48 1     
   53   24   49 1     
   54   25   50 1     
   55   25   51 1     
   56    3   54 1     
   57    3   55 1     
   58   11   56 1     
   59   11   57 1     
   60   19   58 1     
@<TRIPOS>SUBSTRUCTURE
      1 S1             1
@<TRIPOS>SET
LONE_PAIRS      STATIC     ATOMS    <user>   **** ""
5 54 55 56 57 58
DONOR_HYDROGENS      STATIC     ATOMS    <user>   **** ""
6 26 27 52 35 36 53
ATOM$BLUE        STATIC     ATOMS    COLORGROUP SYSTEM
5 54 55 56 57 58
ATOM$RED        STATIC     ATOMS    COLORGROUP SYSTEM
6 26 27 52 35 36 53
