AV-unprocessed.smi:1047|AV-procd|sdf|4598|dock9
  -GOLD-   22720 3 83D 1   1.00000     0.00000
 Structure written by MMmdl.
 57 59  0  0  0  0  0  0  0  0  3 V2000
  143.6104  134.6117  152.3118 C   0  0  0  0  0  0  0  0  0  0  0  0
  144.7217  133.5527  152.2860 C   0  0  0  0  0  0  0  0  0  0  0  0
  145.1937  133.1873  153.6482 N   0  3  1  0  0  0  0  0  0  0  0  0
  146.1784  132.0780  153.6541 C   0  0  0  0  0  0  0  0  0  0  0  0
  147.5768  132.5735  153.2439 C   0  0  0  0  0  0  0  0  0  0  0  0
  147.9770  133.6295  154.1090 O   0  0  0  0  0  0  0  0  0  0  0  0
  147.1133  134.7587  154.0309 C   0  0  2  0  0  0  0  0  0  0  0  0
  147.6973  135.8528  154.9384 C   0  0  0  0  0  0  0  0  0  0  0  0
  149.0780  136.1645  154.5789 N   0  0  0  0  0  0  0  0  0  0  0  0
  149.7465  137.0329  155.5442 C   0  0  0  0  0  0  0  0  0  0  0  0
  150.7725  137.9485  154.8553 C   0  0  2  0  0  0  0  0  0  0  0  0
  151.6300  137.1400  154.0739 O   0  0  0  0  0  0  0  0  0  0  0  0
  151.6099  138.7386  155.8811 C   0  0  0  0  0  0  0  0  0  0  0  0
  151.1305  140.1149  156.0775 N   0  0  0  0  0  0  0  0  0  0  0  0
  150.2573  140.8445  155.3313 C   0  0  0  0  0  0  0  0  0  0  0  0
  150.1311  142.0647  155.9220 N   0  3  0  0  0  0  0  0  0  0  0  0
  150.9361  142.1166  157.0617 C   0  0  0  0  0  0  0  0  0  0  0  0
  151.1441  143.1364  157.9830 C   0  0  0  0  0  0  0  0  0  0  0  0
  152.0398  142.8746  159.0440 C   0  0  0  0  0  0  0  0  0  0  0  0
  152.2917  143.9690  160.0674 C   0  0  0  0  0  0  0  0  0  0  0  0
  152.6935  141.6201  159.1545 C   0  0  0  0  0  0  0  0  0  0  0  0
  153.6590  141.3510  160.2962 C   0  0  0  0  0  0  0  0  0  0  0  0
  152.4667  140.5951  158.2083 C   0  0  0  0  0  0  0  0  0  0  0  0
  151.5809  140.8688  157.1684 C   0  0  0  0  0  0  0  0  0  0  0  0
  145.6931  134.3250  154.4631 C   0  0  0  0  0  0  0  0  0  0  0  0
  143.2194  134.7785  151.3077 H   0  0  0  0  0  0  0  0  0  0  0  0
  143.9671  135.5729  152.6805 H   0  0  0  0  0  0  0  0  0  0  0  0
  142.7772  134.2954  152.9403 H   0  0  0  0  0  0  0  0  0  0  0  0
  144.3161  132.6627  151.8031 H   0  0  0  0  0  0  0  0  0  0  0  0
  145.5492  133.8872  151.6608 H   0  0  0  0  0  0  0  0  0  0  0  0
  146.2250  131.6662  154.6632 H   0  0  0  0  0  0  0  0  0  0  0  0
  145.8487  131.2643  153.0074 H   0  0  0  0  0  0  0  0  0  0  0  0
  148.2994  131.7614  153.3244 H   0  0  0  0  0  0  0  0  0  0  0  0
  147.5922  132.9075  152.2055 H   0  0  0  0  0  0  0  0  0  0  0  0
  147.1110  135.1246  153.0030 H   0  0  0  0  0  0  0  0  0  0  0  0
  147.0770  136.7486  154.8902 H   0  0  0  0  0  0  0  0  0  0  0  0
  147.6656  135.5100  155.9734 H   0  0  0  0  0  0  0  0  0  0  0  0
  149.1050  136.5941  153.6597 H   0  0  0  0  0  0  0  0  0  0  0  0
  148.9957  137.6510  156.0383 H   0  0  0  0  0  0  0  0  0  0  0  0
  150.2259  136.4455  156.3290 H   0  0  0  0  0  0  0  0  0  0  0  0
  150.2615  138.6547  154.1989 H   0  0  0  0  0  0  0  0  0  0  0  0
  151.2020  136.9602  153.2505 H   0  0  0  0  0  0  0  0  0  0  0  0
  151.5635  138.2455  156.8529 H   0  0  0  0  0  0  0  0  0  0  0  0
  152.6636  138.7605  155.6020 H   0  0  0  0  0  0  0  0  0  0  0  0
  149.7542  140.5146  154.4338 H   0  0  0  0  0  0  0  0  0  0  0  0
  150.6441  144.0897  157.8911 H   0  0  0  0  0  0  0  0  0  0  0  0
  153.3450  144.2503  160.0747 H   0  0  0  0  0  0  0  0  0  0  0  0
  152.0158  143.6311  161.0665 H   0  0  0  0  0  0  0  0  0  0  0  0
  151.7092  144.8641  159.8466 H   0  0  0  0  0  0  0  0  0  0  0  0
  154.0761  140.3450  160.2374 H   0  0  0  0  0  0  0  0  0  0  0  0
  153.1527  141.4457  161.2572 H   0  0  0  0  0  0  0  0  0  0  0  0
  154.4890  142.0573  160.2700 H   0  0  0  0  0  0  0  0  0  0  0  0
  152.9702  139.6431  158.2893 H   0  0  0  0  0  0  0  0  0  0  0  0
  145.0006  135.1646  154.4246 H   0  0  0  0  0  0  0  0  0  0  0  0
  145.7169  134.0048  155.5056 H   0  0  0  0  0  0  0  0  0  0  0  0
  144.3757  132.8307  154.1216 H   0  0  0  0  0  0  0  0  0  0  0  0
  149.5382  142.8059  155.5707 H   0  0  0  0  0  0  0  0  0  0  0  0
  1  2  1  0  0  0  0
  1 26  1  0  0  0  0
  1 27  1  0  0  0  0
  1 28  1  0  0  0  0
  2  3  1  0  0  0  0
  2 29  1  0  0  0  0
  2 30  1  0  0  0  0
  3 25  1  0  0  0  0
  3  4  1  0  0  0  0
  3 56  1  0  0  0  0
  4  5  1  0  0  0  0
  4 31  1  0  0  0  0
  4 32  1  0  0  0  0
  5  6  1  0  0  0  0
  5 33  1  0  0  0  0
  5 34  1  0  0  0  0
  6  7  1  0  0  0  0
  7  8  1  0  0  0  0
  7 25  1  0  0  0  0
  7 35  1  0  0  0  0
  8  9  1  0  0  0  0
  8 36  1  0  0  0  0
  8 37  1  0  0  0  0
  9 10  1  0  0  0  0
  9 38  1  0  0  0  0
 10 11  1  0  0  0  0
 10 39  1  0  0  0  0
 10 40  1  0  0  0  0
 11 12  1  0  0  0  0
 11 13  1  0  0  0  0
 11 41  1  0  0  0  0
 12 42  1  0  0  0  0
 13 14  1  0  0  0  0
 13 43  1  0  0  0  0
 13 44  1  0  0  0  0
 14 24  1  0  0  0  0
 14 15  1  0  0  0  0
 15 16  2  0  0  0  0
 15 45  1  0  0  0  0
 16 17  1  0  0  0  0
 16 57  1  0  0  0  0
 17 24  2  0  0  0  0
 17 18  1  0  0  0  0
 18 19  2  0  0  0  0
 18 46  1  0  0  0  0
 19 20  1  0  0  0  0
 19 21  1  0  0  0  0
 20 47  1  0  0  0  0
 20 48  1  0  0  0  0
 20 49  1  0  0  0  0
 21 22  1  0  0  0  0
 21 23  2  0  0  0  0
 22 50  1  0  0  0  0
 22 51  1  0  0  0  0
 22 52  1  0  0  0  0
 23 24  1  0  0  0  0
 23 53  1  0  0  0  0
 25 54  1  0  0  0  0
 25 55  1  0  0  0  0
M  CHG  1   3   1
M  CHG  1  16   1
M  END
> <s_m_source_file>
AV-unprocessed.smi

> <i_m_source_file_index>
1047

> <i_lp_mmshare_version>
43012

> <i_f3d_flags>
0

> <s_epik_input>
W0NIM11bQ0gyXU4xW0NIMl1bQ0gyXU9bQ0BIXShbQ0gyXTEpW0NIMl1bTkhdW0NIMl1bQ0BIXShbT0hdKVtDSDJdbihbY0hdbjIpYyhjMjMpW2NIXWMoW0NIM10pYyhbY0hdMylbQ0gzXQ==

> <s_epik_cmdline>
J2VwaWtfcHl0aG9uJywgJy1waCcsICc3LjAnLCAnLXRuJywgJzgnLCAnLW1hJywgJzIwMCcsICctbWV0YWxfYmluZGluZycsICctaW1hZScsICc8aW5maWxlLm1hZT4nLCAnLW9tYWUnLCAnPG91dGZpbGUubWFlPic=

> <r_epik_Ionization_Penalty>
2.03028

> <r_epik_Ionization_Penalty_Charging>
1.21256

> <r_epik_Ionization_Penalty_Neutral>
0.817715

> <r_epik_State_Penalty>
2.54959

> <r_epik_Charging_Adjusted_Penalty>
3.76215

> <i_epik_Tot_Q>
2

> <i_epik_Tot_abs_Q>
2

> <r_epik_Metal_State_Penalty>
6.52811

> <b_epik_Metal_Only>
0

> <s_lp_Force_Field>
OPLS_2005

> <r_lp_Energy>
38.5552

> <b_lp_Chiralities_Consistent>
1

> <s_lp_Variant>
AV-unprocessed.smi:1047-39

> <Gold.Version>
5.8.1

> <Gold.Id.Protein>
6NUR|6NUR_protein|mol2

> <Gold.PLP.Fitness>
63.1320

> <Gold.PLP.PLP>
-44.5332

> <Gold.PLP.part.hbond>
-5.0000

> <Gold.PLP.part.metal>
0.0000

> <Gold.PLP.part.buried>
-6.0751

> <Gold.PLP.part.nonpolar>
-34.8339

> <Gold.PLP.part.repulsive>
0.2114

> <Gold.PLP.ligand.clash>
0.0000

> <Gold.PLP.ligand.torsion>
0.9936

> <Gold.PLP.Chemscore.Hbond>
6.8385

> <Gold.PLP.Chemscore.CHOScore>
0.0000

> <Gold.PLP.Chemscore.Metal>
0.0000

> <Gold.Chemscore.Hbonds>
donor molecule, donor type, donor heavy atom, donor atom, acceptor molecule, acceptor atom, score
      L1  H     3    56       P1 10957  1.59
      L1  H     9    38       P1  7948  0.86
      L1  H    12    42       P1  7949  0.99
      L1  H    16    57       P1  8028  2.00
      P1  H 10752 10763       L1    12  1.00

> <Gold.PLP.Chemscore.Internal.Correction>
0.0704

> <Gold.Rescore>
     Score         DG    S(hbond)    S(metal)    S(lipo)     H(rot)  DE(clash)    DE(int)     intcor
     23.97     -24.98       3.98        0.00     112.36       2.71       0.01       0.99       ----

> <Gold.Chemscore.Fitness>
23.9745

> <Gold.Chemscore.DG>
-24.9781

> <Gold.Chemscore.ZeroCoef>
-5.4800

> <Gold.Chemscore.Hbond>
3.9780

> <Gold.Chemscore.Metal>
0.0000

> <Gold.Chemscore.Lipo>
112.3609

> <Gold.Chemscore.Internal_Hbond>
0.0000

> <Gold.Chemscore.DEClash>
0.0104

> <Gold.Chemscore.DEInternal>
0.9932

> <Gold.Chemscore.Rot>
2.7088

> <Gold.Chemscore.Internal.Correction>
   9.000000E+99

> <Gold.Chemscore.Hbonds>
donor molecule, donor type, donor heavy atom, donor atom, acceptor molecule, acceptor atom, score
      L1  H     3    56       P1 10957  0.71
      L1  H     9    38       P1  7948  0.84
      L1  H    12    42       P1  7949  0.49
      L1  H    16    57       P1  8028  0.89
      P1  H 10752 10763       L1    12  0.58

> <Gold.Chemscore.Hbond.Weighted>
-13.2865

> <Gold.Chemscore.Metal.Weighted>
-0.0000

> <Gold.Chemscore.Lipo.Weighted>
-13.1462

> <Gold.Chemscore.Internal_Hbond.Weighted>
0.0000

> <Gold.Chemscore.DEClash.Weighted>
0.0104

> <Gold.Chemscore.DEInternal.Weighted>
0.9932

> <Gold.Chemscore.Rot.Weighted>
6.9346

> <Gold.Chemscore.Internal.Correction.Weighted>
   9.000000E+99

> <Gold.Protein.RotatedTorsions>
[ 6907 6896 6895 6894 ] final    3.78 input  -60.11 | X-H torsion
[ 7974 7965 7964 7962 ] final   20.91 input  175.53 | X-H torsion
[ 8008 7997 7996 7995 ] final  -50.06 input   59.86 | X-H torsion
[ 10167 10162 10161 10158 ] final  -16.09 input  -65.29 | X-H torsion
[ 10718 10713 10712 10709 ] final   26.65 input   66.30 | X-H torsion
[ 10763 10752 10751 10750 ] final   52.30 input  -60.55 | X-H torsion
[ 11005 11000 10999 10996 ] final  -82.09 input  -57.11 | X-H torsion

> <Gold.Protein.ActiveResidues>
 VAL166  LYS551  ARG553  GLY616  TRP617  ASP618  TYR619  PRO620  LYS621  CYS622 
 ASP623  PHE694  ASN695  SER759  ASP760  ASP761  ALA762  ILE779  LEU786  VAL792 
 PHE793  MET794  SER795  GLU796  ALA797  LYS798  CYS799  TRP800  GLU811  SER814 

> <Gold.Protein.RotatedAtoms>
  151.6307  135.1023  160.0120 H   0  0  0  0  0  0  0  0  0  0  0  0  # atno 6907 bound_to 6896
  152.4108  133.6956  159.6404 H   0  0  0  0  0  0  0  0  0  0  0  0  # atno 6908 bound_to 6896
  150.7998  133.8545  159.3255 H   0  0  0  0  0  0  0  0  0  0  0  0  # atno 6909 bound_to 6896
  146.2092  139.8102  142.8702 H   0  0  0  0  0  0  0  0  0  0  0  0  # atno 7974 bound_to 7965
  154.4055  140.1281  156.4604 H   0  0  0  0  0  0  0  0  0  0  0  0  # atno 8008 bound_to 7997
  155.7279  140.3492  155.5026 H   0  0  0  0  0  0  0  0  0  0  0  0  # atno 8009 bound_to 7997
  155.9155  140.1043  157.1237 H   0  0  0  0  0  0  0  0  0  0  0  0  # atno 8010 bound_to 7997
  140.7228  143.5151  150.9701 H   0  0  0  0  0  0  0  0  0  0  0  0  # atno 10167 bound_to 10162
  157.2096  130.6928  149.6223 H   0  0  0  0  0  0  0  0  0  0  0  0  # atno 10718 bound_to 10713
  152.9788  135.5817  154.4556 H   0  0  0  0  0  0  0  0  0  0  0  0  # atno 10763 bound_to 10752
  154.4139  135.2770  155.2021 H   0  0  0  0  0  0  0  0  0  0  0  0  # atno 10764 bound_to 10752
  154.3799  135.6149  153.5839 H   0  0  0  0  0  0  0  0  0  0  0  0  # atno 10765 bound_to 10752
  141.1664  133.7228  156.8520 H   0  0  0  0  0  0  0  0  0  0  0  0  # atno 11005 bound_to 11000
  145.3204  141.0242  143.3503 LP  0  0  0  0  0  0  0  0  0  0  0  0  # atno 17320 bound_to 7965
  144.8871  139.4825  143.6695 LP  0  0  0  0  0  0  0  0  0  0  0  0  # atno 17321 bound_to 7965
  139.8867  143.7005  152.3150 LP  0  0  0  0  0  0  0  0  0  0  0  0  # atno 17342 bound_to 10162
  139.7306  144.7583  151.0808 LP  0  0  0  0  0  0  0  0  0  0  0  0  # atno 17343 bound_to 10162
  155.9692  130.4555  150.5891 LP  0  0  0  0  0  0  0  0  0  0  0  0  # atno 17370 bound_to 10713
  157.3685  131.0761  151.1577 LP  0  0  0  0  0  0  0  0  0  0  0  0  # atno 17371 bound_to 10713
  140.1909  134.8966  157.3059 LP  0  0  0  0  0  0  0  0  0  0  0  0  # atno 17394 bound_to 11000
  140.2291  134.3930  155.7530 LP  0  0  0  0  0  0  0  0  0  0  0  0  # atno 17395 bound_to 11000

$$$$
