#       Name:                AV-unprocessed.smi:819
#       Creating user name   scv26
#       Creation time:       Fri Mar 27 01:27:47 2020


#       File generated by GOLD software.
#

@<TRIPOS>MOLECULE
AV-unprocessed.smi:819
    45    46     1
SMALL
NO_CHARGES


@<TRIPOS>ATOM
      1 ****        -2.1688  -1.9169   2.4450 C.3            1 S1                 0.0000
      2 ****        -1.4224  -1.3206   1.2396 C.3            1 S1                 0.0000
      3 ****        -0.0224  -1.7346   1.3177 N.am           1 S1                 0.0000
      4 ****         0.8508  -1.6912   0.2998 C.2            1 S1                 0.0000
      5 ****         0.5502  -1.3182  -0.8342 O.2            1 S1                 0.0000
      6 ****         2.0762  -2.0793   0.6922 N.am           1 S1                 0.0000
      7 ****         3.2669  -2.1547  -0.0800 C.ar           1 S1                 0.0000
      8 ****         4.5000  -2.1478   0.6037 C.ar           1 S1                 0.0000
      9 ****         5.6951  -2.2364  -0.1352 C.ar           1 S1                 0.0000
     10 ****         5.6095  -2.3384  -1.5371 C.ar           1 S1                 0.0000
     11 ****         4.4382  -2.3624  -2.2069 N.ar           1 S1                 0.0000
     12 ****         3.2956  -2.2754  -1.4919 C.ar           1 S1                 0.0000
     13 ****        -1.5223   0.2113   1.3078 C.2            1 S1                 0.0000
     14 ****        -0.9691   0.8344   2.2155 O.2            1 S1                 0.0000
     15 ****        -2.2292   0.8026   0.3332 N.am           1 S1                 0.0000
     16 ****        -2.4154   2.2431   0.1858 C.3            1 S1                 0.0000
     17 ****        -3.5696   2.5483  -0.7885 C.3            1 S1                 0.0000
     18 ****        -3.0367   3.6032  -1.7596 C.3            1 S1                 0.0000
     19 ****        -1.5395   3.3231  -1.8359 C.3            1 S1                 0.0000
     20 ****        -1.1626   2.9179  -0.4109 C.3            1 S1                 0.0000
     21 ****        -3.2208  -1.6283   2.4407 H              1 S1                 0.0000
     22 ****        -1.7385  -1.5922   3.3938 H              1 S1                 0.0000
     23 ****        -2.1326  -3.0065   2.4239 H              1 S1                 0.0000
     24 ****        -1.8696  -1.6921   0.3153 H              1 S1                 0.0000
     25 ****         0.3099  -2.0447   2.2189 H              1 S1                 0.0000
     26 ****         2.1843  -2.2788   1.6759 H              1 S1                 0.0000
     27 ****         4.5331  -2.0706   1.6808 H              1 S1                 0.0000
     28 ****         6.6545  -2.2272   0.3605 H              1 S1                 0.0000
     29 ****         6.5055  -2.4087  -2.1360 H              1 S1                 0.0000
     30 ****         2.3932  -2.3257  -2.0807 H              1 S1                 0.0000
     31 ****        -2.6463   0.2137  -0.3730 H              1 S1                 0.0000
     32 ****        -2.6367   2.6819   1.1607 H              1 S1                 0.0000
     33 ****        -3.8426   1.6556  -1.3537 H              1 S1                 0.0000
     34 ****        -4.4675   2.8874  -0.2708 H              1 S1                 0.0000
     35 ****        -3.5228   3.5605  -2.7347 H              1 S1                 0.0000
     36 ****        -3.2018   4.5995  -1.3475 H              1 S1                 0.0000
     37 ****        -1.3552   2.4904  -2.5161 H              1 S1                 0.0000
     38 ****        -0.9678   4.1797  -2.1941 H              1 S1                 0.0000
     39 ****        -0.9286   3.8127   0.1670 H              1 S1                 0.0000
     40 ****        -0.2737   2.2857  -0.3914 H              1 S1                 0.0000
     41 ****        -0.3857  -1.0276  -1.0333 LP             1 S1                 0.0000
     42 ****         1.2419  -1.3058  -1.5563 LP             1 S1                 0.0000
     43 ****         4.4168  -2.4423  -3.2035 LP             1 S1                 0.0000
     44 ****        -0.4502   0.3432   2.9151 LP             1 S1                 0.0000
     45 ****        -1.0391   1.8313   2.2526 LP             1 S1                 0.0000
@<TRIPOS>BOND
    1    1    2 1     
    2    1   21 1     
    3    1   22 1     
    4    1   23 1     
    5    2    3 1     
    6    2   13 1     
    7    2   24 1     
    8    3    4 am    
    9    3   25 1     
   10    4    5 2     
   11    4    6 am    
   12    6    7 1     
   13    6   26 1     
   14    7   12 ar    
   15    7    8 ar    
   16    8    9 ar    
   17    8   27 1     
   18    9   10 ar    
   19    9   28 1     
   20   10   11 ar    
   21   10   29 1     
   22   11   12 ar    
   23   12   30 1     
   24   13   14 2     
   25   13   15 am    
   26   15   16 1     
   27   15   31 1     
   28   16   20 1     
   29   16   17 1     
   30   16   32 1     
   31   17   18 1     
   32   17   33 1     
   33   17   34 1     
   34   18   19 1     
   35   18   35 1     
   36   18   36 1     
   37   19   20 1     
   38   19   37 1     
   39   19   38 1     
   40   20   39 1     
   41   20   40 1     
   42    5   41 1     
   43    5   42 1     
   44   11   43 1     
   45   14   44 1     
   46   14   45 1     
@<TRIPOS>SUBSTRUCTURE
      1 S1             1
@<TRIPOS>SET
LONE_PAIRS      STATIC     ATOMS    <user>   **** ""
5 41 42 43 44 45
DONOR_HYDROGENS      STATIC     ATOMS    <user>   **** ""
3 25 26 31
ATOM$BLUE        STATIC     ATOMS    COLORGROUP SYSTEM
5 41 42 43 44 45
ATOM$RED        STATIC     ATOMS    COLORGROUP SYSTEM
3 25 26 31
