AV-unprocessed.smi:1911|AV-procd|sdf|7744|dock4
  -GOLD-   22720 9483D 1   1.00000     0.00000
 Structure written by MMmdl.
 51 53  0  0  0  0  0  0  0  0  3 V2000
  149.3836  127.6061  152.2028 N   0  5  0  0  0  0  0  0  0  0  0  0
  149.1507  128.1929  153.3942 C   0  0  0  0  0  0  0  0  0  0  0  0
  149.8297  128.1234  154.4161 O   0  0  0  0  0  0  0  0  0  0  0  0
  147.8668  129.0301  153.3919 C   0  0  0  0  0  0  0  0  0  0  0  0
  148.1819  130.4808  153.3411 N   0  3  2  0  0  0  0  0  0  0  0  0
  149.2650  130.8573  154.2840 C   0  0  0  0  0  0  0  0  0  0  0  0
  149.6699  132.3304  154.1073 C   0  0  0  0  0  0  0  0  0  0  0  0
  148.4591  133.2607  154.2788 C   0  0  1  0  0  0  0  0  0  0  0  0
  148.8552  134.6454  154.0366 N   0  0  0  0  0  0  0  0  0  0  0  0
  149.1895  135.5287  154.9886 C   0  0  0  0  0  0  0  0  0  0  0  0
  149.1718  135.2677  156.1914 O   0  0  0  0  0  0  0  0  0  0  0  0
  149.5179  136.7186  154.4565 N   0  0  0  0  0  0  0  0  0  0  0  0
  149.9907  137.8819  155.1222 C   0  0  0  0  0  0  0  0  0  0  0  0
  150.1249  137.8380  156.5235 C   0  0  0  0  0  0  0  0  0  0  0  0
  150.5700  138.9835  157.2101 C   0  0  0  0  0  0  0  0  0  0  0  0
  150.8645  140.1551  156.4731 C   0  0  0  0  0  0  0  0  0  0  0  0
  151.3052  141.3292  157.1153 N   0  0  0  0  0  0  0  0  0  0  0  0
  150.9728  142.6583  156.6297 C   0  0  0  0  0  0  0  0  0  0  0  0
  151.5575  143.6098  157.6734 C   0  0  0  0  0  0  0  0  0  0  0  0
  151.4583  142.8093  158.9721 C   0  0  0  0  0  0  0  0  0  0  0  0
  151.6619  141.3568  158.5280 C   0  0  0  0  0  0  0  0  0  0  0  0
  150.7184  140.2038  155.1280 N   0  0  0  0  0  0  0  0  0  0  0  0
  150.2934  139.1027  154.4735 C   0  0  0  0  0  0  0  0  0  0  0  0
  147.3414  132.8321  153.3117 C   0  0  0  0  0  0  0  0  0  0  0  0
  146.9838  131.3484  153.5017 C   0  0  0  0  0  0  0  0  0  0  0  0
  150.3551  127.4114  151.9320 H   0  0  0  0  0  0  0  0  0  0  0  0
  147.2247  128.7501  152.5551 H   0  0  0  0  0  0  0  0  0  0  0  0
  147.3127  128.7921  154.3016 H   0  0  0  0  0  0  0  0  0  0  0  0
  148.9360  130.6756  155.3084 H   0  0  0  0  0  0  0  0  0  0  0  0
  150.1370  130.2249  154.1130 H   0  0  0  0  0  0  0  0  0  0  0  0
  150.4457  132.5876  154.8293 H   0  0  0  0  0  0  0  0  0  0  0  0
  150.1090  132.4683  153.1180 H   0  0  0  0  0  0  0  0  0  0  0  0
  148.0986  133.1632  155.3048 H   0  0  0  0  0  0  0  0  0  0  0  0
  148.8876  134.9491  153.0742 H   0  0  0  0  0  0  0  0  0  0  0  0
  149.3869  136.8135  153.4601 H   0  0  0  0  0  0  0  0  0  0  0  0
  149.8926  136.9361  157.0711 H   0  0  0  0  0  0  0  0  0  0  0  0
  150.6752  138.9462  158.2838 H   0  0  0  0  0  0  0  0  0  0  0  0
  151.3917  142.8447  155.6404 H   0  0  0  0  0  0  0  0  0  0  0  0
  149.8884  142.7637  156.5751 H   0  0  0  0  0  0  0  0  0  0  0  0
  152.6054  143.8087  157.4453 H   0  0  0  0  0  0  0  0  0  0  0  0
  151.0341  144.5650  157.7176 H   0  0  0  0  0  0  0  0  0  0  0  0
  152.1794  143.1268  159.7256 H   0  0  0  0  0  0  0  0  0  0  0  0
  150.4595  142.9254  159.3948 H   0  0  0  0  0  0  0  0  0  0  0  0
  151.0543  140.6759  159.1254 H   0  0  0  0  0  0  0  0  0  0  0  0
  152.7070  141.0630  158.6314 H   0  0  0  0  0  0  0  0  0  0  0  0
  150.1776  139.2296  153.4087 H   0  0  0  0  0  0  0  0  0  0  0  0
  146.4526  133.4452  153.4664 H   0  0  0  0  0  0  0  0  0  0  0  0
  147.6566  132.9993  152.2805 H   0  0  0  0  0  0  0  0  0  0  0  0
  146.2185  131.0712  152.7762 H   0  0  0  0  0  0  0  0  0  0  0  0
  146.5507  131.1919  154.4908 H   0  0  0  0  0  0  0  0  0  0  0  0
  148.5423  130.6410  152.4105 H   0  0  0  0  0  0  0  0  0  0  0  0
  1  2  1  0  0  0  0
  1 26  1  0  0  0  0
  2  3  2  0  0  0  0
  2  4  1  0  0  0  0
  4  5  1  0  0  0  0
  4 27  1  0  0  0  0
  4 28  1  0  0  0  0
  5 25  1  0  0  0  0
  5  6  1  0  0  0  0
  5 51  1  0  0  0  0
  6  7  1  0  0  0  0
  6 29  1  0  0  0  0
  6 30  1  0  0  0  0
  7  8  1  0  0  0  0
  7 31  1  0  0  0  0
  7 32  1  0  0  0  0
  8  9  1  0  0  0  0
  8 24  1  0  0  0  0
  8 33  1  0  0  0  0
  9 10  1  0  0  0  0
  9 34  1  0  0  0  0
 10 11  2  0  0  0  0
 10 12  1  0  0  0  0
 12 13  1  0  0  0  0
 12 35  1  0  0  0  0
 13 23  1  0  0  0  0
 13 14  2  0  0  0  0
 14 15  1  0  0  0  0
 14 36  1  0  0  0  0
 15 16  2  0  0  0  0
 15 37  1  0  0  0  0
 16 17  1  0  0  0  0
 16 22  1  0  0  0  0
 17 21  1  0  0  0  0
 17 18  1  0  0  0  0
 18 19  1  0  0  0  0
 18 38  1  0  0  0  0
 18 39  1  0  0  0  0
 19 20  1  0  0  0  0
 19 40  1  0  0  0  0
 19 41  1  0  0  0  0
 20 21  1  0  0  0  0
 20 42  1  0  0  0  0
 20 43  1  0  0  0  0
 21 44  1  0  0  0  0
 21 45  1  0  0  0  0
 22 23  2  0  0  0  0
 23 46  1  0  0  0  0
 24 25  1  0  0  0  0
 24 47  1  0  0  0  0
 24 48  1  0  0  0  0
 25 49  1  0  0  0  0
 25 50  1  0  0  0  0
M  CHG  1   1  -1
M  CHG  1   5   1
M  END
> <s_m_source_file>
AV-unprocessed.smi

> <i_m_source_file_index>
1911

> <i_lp_mmshare_version>
43012

> <i_f3d_flags>
0

> <s_epik_input>
W05IMl1DKD1PKVtDSDJdTjFbQ0gyXVtDSDJdW0NIXShbQ0gyXVtDSDJdMSlbTkhdQyg9TylbTkhdYzJbY0hdW2NIXWMobltjSF0yKU4zW0NIMl1bQ0gyXVtDSDJdW0NIMl0z

> <s_epik_cmdline>
J2VwaWtfcHl0aG9uJywgJy1waCcsICc3LjAnLCAnLXRuJywgJzgnLCAnLW1hJywgJzIwMCcsICctbWV0YWxfYmluZGluZycsICctaW1hZScsICc8aW5maWxlLm1hZT4nLCAnLW9tYWUnLCAnPG91dGZpbGUubWFlPic=

> <r_lp_tautomer_probability>
1

> <r_epik_Ionization_Penalty>
5.80652

> <r_epik_Ionization_Penalty_Charging>
5.7288

> <r_epik_Ionization_Penalty_Neutral>
0.0777157

> <r_epik_State_Penalty>
6.60246

> <r_epik_Charging_Adjusted_Penalty>
12.3313

> <i_epik_Tot_Q>
0

> <i_epik_Tot_abs_Q>
2

> <r_epik_Metal_State_Penalty>
2.64988

> <b_epik_Metal_Only>
1

> <s_lp_Force_Field>
OPLS_2005

> <r_lp_Energy>
33.5559

> <b_lp_Chiralities_Consistent>
1

> <s_lp_Variant>
AV-unprocessed.smi:1911-7

> <Gold.Version>
5.8.1

> <Gold.Id.Protein>
6NUR|6NUR_protein|mol2

> <Gold.PLP.Fitness>
51.9019

> <Gold.PLP.PLP>
-36.5714

> <Gold.PLP.part.hbond>
-4.9852

> <Gold.PLP.part.metal>
0.0000

> <Gold.PLP.part.buried>
-4.6046

> <Gold.PLP.part.nonpolar>
-27.2985

> <Gold.PLP.part.repulsive>
0.1917

> <Gold.PLP.ligand.clash>
0.0000

> <Gold.PLP.ligand.torsion>
0.8162

> <Gold.PLP.Chemscore.Hbond>
4.6000

> <Gold.PLP.Chemscore.CHOScore>
1.0000

> <Gold.PLP.Chemscore.Metal>
0.0000

> <Gold.Chemscore.Hbonds>
donor molecule, donor type, donor heavy atom, donor atom, acceptor molecule, acceptor atom, score
      L1  H     1    26       P1 10737  1.00
      L1  H     5    51       P1 10747  0.67
      L1  H     9    34       P1  7948  0.95
      L1  H    12    35       P1  7948  1.00
      P1  H  7989  7998       L1    22  0.60
      L1  C    23    46       P1  7957  1.00

> <Gold.PLP.Chemscore.Internal.Correction>
0.1629

> <Gold.Rescore>
     Score         DG    S(hbond)    S(metal)    S(lipo)     H(rot)  DE(clash)    DE(int)     intcor
     18.38     -22.23       3.36        0.00      88.29       1.88       0.12       3.73       ----

> <Gold.Chemscore.Fitness>
18.3772

> <Gold.Chemscore.DG>
-22.2282

> <Gold.Chemscore.ZeroCoef>
-5.4800

> <Gold.Chemscore.Hbond>
3.3620

> <Gold.Chemscore.Metal>
0.0000

> <Gold.Chemscore.Lipo>
88.2897

> <Gold.Chemscore.Internal_Hbond>
0.0000

> <Gold.Chemscore.DEClash>
0.1194

> <Gold.Chemscore.DEInternal>
3.7316

> <Gold.Chemscore.Rot>
1.8793

> <Gold.Chemscore.Internal.Correction>
   9.000000E+99

> <Gold.Chemscore.Hbonds>
donor molecule, donor type, donor heavy atom, donor atom, acceptor molecule, acceptor atom, score
      L1  H     1    26       P1 10737  0.99
      L1  H     5    51       P1 10747  0.55
      L1  H     9    34       P1  7948  0.21
      L1  H    12    35       P1  7948  0.89
      P1  H  7989  7998       L1    22  0.04

> <Gold.Chemscore.Hbond.Weighted>
-11.2292

> <Gold.Chemscore.Metal.Weighted>
-0.0000

> <Gold.Chemscore.Lipo.Weighted>
-10.3299

> <Gold.Chemscore.Internal_Hbond.Weighted>
0.0000

> <Gold.Chemscore.DEClash.Weighted>
0.1194

> <Gold.Chemscore.DEInternal.Weighted>
3.7316

> <Gold.Chemscore.Rot.Weighted>
4.8109

> <Gold.Chemscore.Internal.Correction.Weighted>
   9.000000E+99

> <Gold.Protein.RotatedTorsions>
[ 6907 6896 6895 6894 ] final  -83.52 input  -60.11 | X-H torsion
[ 7974 7965 7964 7962 ] final  -25.33 input  175.53 | X-H torsion
[ 8008 7997 7996 7995 ] final  113.45 input   59.86 | X-H torsion
[ 10167 10162 10161 10158 ] final  -60.79 input  -65.29 | X-H torsion
[ 10718 10713 10712 10709 ] final  177.33 input   66.30 | X-H torsion
[ 10763 10752 10751 10750 ] final   -0.28 input  -60.55 | X-H torsion
[ 11005 11000 10999 10996 ] final  101.25 input  -57.11 | X-H torsion

> <Gold.Protein.ActiveResidues>
 VAL166  LYS551  ARG553  GLY616  TRP617  ASP618  TYR619  PRO620  LYS621  CYS622 
 ASP623  PHE694  ASN695  SER759  ASP760  ASP761  ALA762  ILE779  LEU786  VAL792 
 PHE793  MET794  SER795  GLU796  ALA797  LYS798  CYS799  TRP800  GLU811  SER814 

> <Gold.Protein.RotatedAtoms>
  150.6885  134.3499  159.4904 H   0  0  0  0  0  0  0  0  0  0  0  0  # atno 6907 bound_to 6896
  152.1341  134.9109  160.0566 H   0  0  0  0  0  0  0  0  0  0  0  0  # atno 6908 bound_to 6896
  152.0268  133.3886  159.4317 H   0  0  0  0  0  0  0  0  0  0  0  0  # atno 6909 bound_to 6896
  146.1498  140.4871  142.8616 H   0  0  0  0  0  0  0  0  0  0  0  0  # atno 7974 bound_to 7965
  156.2259  140.2979  156.0065 H   0  0  0  0  0  0  0  0  0  0  0  0  # atno 8008 bound_to 7997
  155.2359  140.0420  157.2985 H   0  0  0  0  0  0  0  0  0  0  0  0  # atno 8009 bound_to 7997
  154.5914  140.2402  155.7923 H   0  0  0  0  0  0  0  0  0  0  0  0  # atno 8010 bound_to 7997
  140.6048  143.2370  151.5845 H   0  0  0  0  0  0  0  0  0  0  0  0  # atno 10167 bound_to 10162
  156.9069  130.9897  151.3027 H   0  0  0  0  0  0  0  0  0  0  0  0  # atno 10718 bound_to 10713
  153.3299  135.6974  153.6957 H   0  0  0  0  0  0  0  0  0  0  0  0  # atno 10763 bound_to 10752
  153.5764  135.3506  155.2858 H   0  0  0  0  0  0  0  0  0  0  0  0  # atno 10764 bound_to 10752
  154.8616  135.4284  154.2485 H   0  0  0  0  0  0  0  0  0  0  0  0  # atno 10765 bound_to 10752
  139.8773  134.9175  156.4879 H   0  0  0  0  0  0  0  0  0  0  0  0  # atno 11005 bound_to 11000
  144.7890  140.5994  143.6554 LP  0  0  0  0  0  0  0  0  0  0  0  0  # atno 17320 bound_to 7965
  145.4850  139.1492  143.3741 LP  0  0  0  0  0  0  0  0  0  0  0  0  # atno 17321 bound_to 7965
  139.5317  144.2897  152.1162 LP  0  0  0  0  0  0  0  0  0  0  0  0  # atno 17342 bound_to 10162
  140.2084  144.4587  150.6397 LP  0  0  0  0  0  0  0  0  0  0  0  0  # atno 17343 bound_to 10162
  157.5992  130.8500  149.8775 LP  0  0  0  0  0  0  0  0  0  0  0  0  # atno 17370 bound_to 10713
  156.0555  130.3709  150.1102 LP  0  0  0  0  0  0  0  0  0  0  0  0  # atno 17371 bound_to 10713
  140.8680  133.8010  155.9334 LP  0  0  0  0  0  0  0  0  0  0  0  0  # atno 17394 bound_to 11000
  140.8982  134.2411  157.5057 LP  0  0  0  0  0  0  0  0  0  0  0  0  # atno 17395 bound_to 11000

$$$$
