AV-unprocessed.smi:2906|AV-procd|sdf|11164|dock8
  -GOLD-   2272016 53D 1   1.00000     0.00000
 Structure written by MMmdl.
 39 40  0  0  0  0  0  0  0  0  2 V2000
  153.9760  142.1725  160.2446 C   0  0  0  0  0  0  0  0  0  0  0  0
  152.8538  141.1551  159.9811 C   0  0  0  0  0  0  0  0  0  0  0  0
  152.9951  140.4094  158.6434 C   0  0  0  0  0  0  0  0  0  0  0  0
  153.9196  139.6108  158.4813 O   0  0  0  0  0  0  0  0  0  0  0  0
  152.0861  140.6560  157.6770 N   0  0  0  0  0  0  0  0  0  0  0  0
  152.0995  139.9967  156.3739 C   0  0  0  0  0  0  0  0  0  0  0  0
  150.7907  140.3892  155.6896 C   0  0  0  0  0  0  0  0  0  0  0  0
  150.3786  141.6985  156.3619 C   0  0  1  0  0  0  0  0  0  0  0  0
  148.9297  141.8749  156.4059 N   0  0  0  0  0  0  0  0  0  0  0  0
  148.0404  140.9397  156.7695 C   0  0  0  0  0  0  0  0  0  0  0  0
  148.4301  139.8163  157.0971 O   0  0  0  0  0  0  0  0  0  0  0  0
  146.7563  141.3641  156.7357 N   0  5  0  0  0  0  0  0  0  0  0  0
  146.2891  141.9984  155.6480 C   0  0  0  0  0  0  0  0  0  0  0  0
  145.2442  142.8328  155.6815 N   0  0  0  0  0  0  0  0  0  0  0  0
  144.9286  143.3850  154.4371 C   0  0  0  0  0  0  0  0  0  0  0  0
  143.7846  144.3447  154.3116 C   0  0  0  0  0  0  0  0  0  0  0  0
  143.6863  144.9525  152.9079 C   0  0  0  0  0  0  0  0  0  0  0  0
  145.7484  142.9450  153.4305 C   0  0  0  0  0  0  0  0  0  0  0  0
  146.9447  141.8261  154.0183 S   0  0  0  0  0  0  0  0  0  0  0  0
  150.9729  141.5996  157.7716 C   0  0  0  0  0  0  0  0  0  0  0  0
  153.8327  142.6616  161.2082 H   0  0  0  0  0  0  0  0  0  0  0  0
  153.9951  142.9515  159.4813 H   0  0  0  0  0  0  0  0  0  0  0  0
  154.9548  141.6918  160.2622 H   0  0  0  0  0  0  0  0  0  0  0  0
  152.8372  140.4261  160.7920 H   0  0  0  0  0  0  0  0  0  0  0  0
  151.8944  141.6729  159.9973 H   0  0  0  0  0  0  0  0  0  0  0  0
  152.9537  140.3606  155.8013 H   0  0  0  0  0  0  0  0  0  0  0  0
  152.1884  138.9131  156.4643 H   0  0  0  0  0  0  0  0  0  0  0  0
  150.8939  140.4862  154.6083 H   0  0  0  0  0  0  0  0  0  0  0  0
  150.0432  139.6176  155.8812 H   0  0  0  0  0  0  0  0  0  0  0  0
  150.8480  142.5359  155.8418 H   0  0  0  0  0  0  0  0  0  0  0  0
  148.5695  142.7807  156.1440 H   0  0  0  0  0  0  0  0  0  0  0  0
  142.8477  143.8402  154.5508 H   0  0  0  0  0  0  0  0  0  0  0  0
  143.8872  145.1465  155.0436 H   0  0  0  0  0  0  0  0  0  0  0  0
  142.8496  145.6481  152.8428 H   0  0  0  0  0  0  0  0  0  0  0  0
  143.5361  144.1796  152.1536 H   0  0  0  0  0  0  0  0  0  0  0  0
  144.5950  145.4982  152.6515 H   0  0  0  0  0  0  0  0  0  0  0  0
  145.7210  143.2071  152.3838 H   0  0  0  0  0  0  0  0  0  0  0  0
  150.2427  141.2052  158.4806 H   0  0  0  0  0  0  0  0  0  0  0  0
  151.2922  142.5807  158.1252 H   0  0  0  0  0  0  0  0  0  0  0  0
  1  2  1  0  0  0  0
  1 21  1  0  0  0  0
  1 22  1  0  0  0  0
  1 23  1  0  0  0  0
  2  3  1  0  0  0  0
  2 24  1  0  0  0  0
  2 25  1  0  0  0  0
  3  4  2  0  0  0  0
  3  5  1  0  0  0  0
  5 20  1  0  0  0  0
  5  6  1  0  0  0  0
  6  7  1  0  0  0  0
  6 26  1  0  0  0  0
  6 27  1  0  0  0  0
  7  8  1  0  0  0  0
  7 28  1  0  0  0  0
  7 29  1  0  0  0  0
  8  9  1  0  0  0  0
  8 20  1  0  0  0  0
  8 30  1  0  0  0  0
  9 10  1  0  0  0  0
  9 31  1  0  0  0  0
 10 11  2  0  0  0  0
 10 12  1  0  0  0  0
 12 13  1  0  0  0  0
 13 19  1  0  0  0  0
 13 14  2  0  0  0  0
 14 15  1  0  0  0  0
 15 16  1  0  0  0  0
 15 18  2  0  0  0  0
 16 17  1  0  0  0  0
 16 32  1  0  0  0  0
 16 33  1  0  0  0  0
 17 34  1  0  0  0  0
 17 35  1  0  0  0  0
 17 36  1  0  0  0  0
 18 19  1  0  0  0  0
 18 37  1  0  0  0  0
 20 38  1  0  0  0  0
 20 39  1  0  0  0  0
M  CHG  1  12  -1
M  END
> <s_m_source_file>
AV-unprocessed.smi

> <i_m_source_file_index>
2906

> <i_lp_mmshare_version>
43012

> <i_f3d_flags>
0

> <s_epik_input>
W0NIM11bQ0gyXUMoPU8pTjFbQ0gyXVtDSDJdW0NASF0oW0NIMl0xKVtOSF1DKD1PKVtOSF1jMm5jKFtjSF1zMilbQ0gyXVtDSDNd

> <s_epik_cmdline>
J2VwaWtfcHl0aG9uJywgJy1waCcsICc3LjAnLCAnLXRuJywgJzgnLCAnLW1hJywgJzIwMCcsICctbWV0YWxfYmluZGluZycsICctaW1hZScsICc8aW5maWxlLm1hZT4nLCAnLW9tYWUnLCAnPG91dGZpbGUubWFlPic=

> <r_lp_tautomer_probability>
1

> <r_epik_Ionization_Penalty>
7.20119

> <r_epik_Ionization_Penalty_Charging>
5.87168

> <r_epik_Ionization_Penalty_Neutral>
1.32951

> <r_epik_State_Penalty>
5.87165

> <r_epik_Charging_Adjusted_Penalty>
11.7433

> <i_epik_Tot_Q>
-1

> <i_epik_Tot_abs_Q>
1

> <r_epik_Metal_State_Penalty>
1.83511

> <b_epik_Metal_Only>
1

> <s_lp_Force_Field>
OPLS_2005

> <r_lp_Energy>
20.3379

> <b_lp_Chiralities_Consistent>
1

> <s_lp_Variant>
AV-unprocessed.smi:2906-3

> <Gold.Version>
5.8.1

> <Gold.Id.Protein>
6NUR|6NUR_protein|mol2

> <Gold.PLP.Fitness>
40.6534

> <Gold.PLP.PLP>
-36.2206

> <Gold.PLP.part.hbond>
-2.0000

> <Gold.PLP.part.metal>
0.0000

> <Gold.PLP.part.buried>
-1.9042

> <Gold.PLP.part.nonpolar>
-32.5640

> <Gold.PLP.part.repulsive>
0.2565

> <Gold.PLP.ligand.clash>
0.0000

> <Gold.PLP.ligand.torsion>
0.7942

> <Gold.PLP.Chemscore.Hbond>
2.0000

> <Gold.PLP.Chemscore.CHOScore>
0.0000

> <Gold.PLP.Chemscore.Metal>
0.0000

> <Gold.Chemscore.Hbonds>
donor molecule, donor type, donor heavy atom, donor atom, acceptor molecule, acceptor atom, score
      L1  H     9    31       P1  8028  1.00
      P1  H  7997  8010       L1     4  1.00

> <Gold.PLP.Chemscore.Internal.Correction>
0.0213

> <Gold.Rescore>
     Score         DG    S(hbond)    S(metal)    S(lipo)     H(rot)  DE(clash)    DE(int)     intcor
     13.41     -15.57       1.43        0.00      75.72       1.39       0.07       2.08       ----

> <Gold.Chemscore.Fitness>
13.4098

> <Gold.Chemscore.DG>
-15.5655

> <Gold.Chemscore.ZeroCoef>
-5.4800

> <Gold.Chemscore.Hbond>
1.4290

> <Gold.Chemscore.Metal>
0.0000

> <Gold.Chemscore.Lipo>
75.7243

> <Gold.Chemscore.Internal_Hbond>
0.0000

> <Gold.Chemscore.DEClash>
0.0724

> <Gold.Chemscore.DEInternal>
2.0834

> <Gold.Chemscore.Rot>
1.3856

> <Gold.Chemscore.Internal.Correction>
   9.000000E+99

> <Gold.Chemscore.Hbonds>
donor molecule, donor type, donor heavy atom, donor atom, acceptor molecule, acceptor atom, score
      L1  H     9    31       P1  8028  0.89
      P1  H  7997  8010       L1     4  0.77

> <Gold.Chemscore.Hbond.Weighted>
-4.7729

> <Gold.Chemscore.Metal.Weighted>
-0.0000

> <Gold.Chemscore.Lipo.Weighted>
-8.8597

> <Gold.Chemscore.Internal_Hbond.Weighted>
0.0000

> <Gold.Chemscore.DEClash.Weighted>
0.0724

> <Gold.Chemscore.DEInternal.Weighted>
2.0834

> <Gold.Chemscore.Rot.Weighted>
3.5471

> <Gold.Chemscore.Internal.Correction.Weighted>
   9.000000E+99

> <Gold.Protein.RotatedTorsions>
[ 6907 6896 6895 6894 ] final -164.04 input  -60.11 | X-H torsion
[ 7974 7965 7964 7962 ] final  -36.60 input  175.53 | X-H torsion
[ 8008 7997 7996 7995 ] final   18.79 input   59.86 | X-H torsion
[ 10167 10162 10161 10158 ] final -138.31 input  -65.29 | X-H torsion
[ 10718 10713 10712 10709 ] final  108.12 input   66.30 | X-H torsion
[ 10763 10752 10751 10750 ] final   94.75 input  -60.55 | X-H torsion
[ 11005 11000 10999 10996 ] final  153.76 input  -57.11 | X-H torsion

> <Gold.Protein.ActiveResidues>
 VAL166  LYS551  ARG553  GLY616  TRP617  ASP618  TYR619  PRO620  LYS621  CYS622 
 ASP623  PHE694  ASN695  SER759  ASP760  ASP761  ALA762  ILE779  LEU786  VAL792 
 PHE793  MET794  SER795  GLU796  ALA797  LYS798  CYS799  TRP800  GLU811  SER814 

> <Gold.Protein.RotatedAtoms>
  151.4055  133.3744  159.2737 H   0  0  0  0  0  0  0  0  0  0  0  0  # atno 6907 bound_to 6896
  150.9401  134.8812  159.7617 H   0  0  0  0  0  0  0  0  0  0  0  0  # atno 6908 bound_to 6896
  152.5067  134.4005  159.9467 H   0  0  0  0  0  0  0  0  0  0  0  0  # atno 6909 bound_to 6896
  146.0647  140.6297  142.8980 H   0  0  0  0  0  0  0  0  0  0  0  0  # atno 7974 bound_to 7965
  154.9111  140.3014  155.5265 H   0  0  0  0  0  0  0  0  0  0  0  0  # atno 8008 bound_to 7997
  156.3015  140.2389  156.4086 H   0  0  0  0  0  0  0  0  0  0  0  0  # atno 8009 bound_to 7997
  154.8424  140.0413  157.1539 H   0  0  0  0  0  0  0  0  0  0  0  0  # atno 8010 bound_to 7997
  139.8491  143.7222  152.2659 H   0  0  0  0  0  0  0  0  0  0  0  0  # atno 10167 bound_to 10162
  157.6600  131.0887  150.6257 H   0  0  0  0  0  0  0  0  0  0  0  0  # atno 10718 bound_to 10713
  153.2453  135.4278  155.0741 H   0  0  0  0  0  0  0  0  0  0  0  0  # atno 10763 bound_to 10752
  154.8358  135.3412  154.6591 H   0  0  0  0  0  0  0  0  0  0  0  0  # atno 10764 bound_to 10752
  153.7013  135.7028  153.5119 H   0  0  0  0  0  0  0  0  0  0  0  0  # atno 10765 bound_to 10752
  140.1427  134.8728  157.2352 H   0  0  0  0  0  0  0  0  0  0  0  0  # atno 11005 bound_to 11000
  144.7195  140.4327  143.7018 LP  0  0  0  0  0  0  0  0  0  0  0  0  # atno 17320 bound_to 7965
  145.6497  139.1563  143.2869 LP  0  0  0  0  0  0  0  0  0  0  0  0  # atno 17321 bound_to 7965
  139.7483  144.7541  151.0546 LP  0  0  0  0  0  0  0  0  0  0  0  0  # atno 17342 bound_to 10162
  140.7789  143.4890  150.9918 LP  0  0  0  0  0  0  0  0  0  0  0  0  # atno 17343 bound_to 10162
  156.6561  130.4499  149.5703 LP  0  0  0  0  0  0  0  0  0  0  0  0  # atno 17370 bound_to 10713
  156.2101  130.6674  151.1261 LP  0  0  0  0  0  0  0  0  0  0  0  0  # atno 17371 bound_to 10713
  140.2702  134.3469  155.7376 LP  0  0  0  0  0  0  0  0  0  0  0  0  # atno 17394 bound_to 11000
  141.2188  133.7419  156.9211 LP  0  0  0  0  0  0  0  0  0  0  0  0  # atno 17395 bound_to 11000

$$$$
