AV-unprocessed.smi:2489|AV-procd|sdf|9796|dock5
  -GOLD-   2272013433D 1   1.00000     0.00000
 Structure written by MMmdl.
 33 34  0  0  0  0  0  0  0  0  1 V2000
  153.4762  140.4582  160.0994 C   0  0  0  0  0  0  0  0  0  0  0  0
  153.3446  141.8412  160.3930 O   0  0  0  0  0  0  0  0  0  0  0  0
  152.6841  142.6343  159.4800 C   0  0  0  0  0  0  0  0  0  0  0  0
  152.7347  144.0280  159.6685 C   0  0  0  0  0  0  0  0  0  0  0  0
  152.0705  144.8610  158.7506 C   0  0  0  0  0  0  0  0  0  0  0  0
  151.3816  144.3903  157.6916 N   0  0  0  0  0  0  0  0  0  0  0  0
  151.3186  143.0515  157.4900 C   0  0  0  0  0  0  0  0  0  0  0  0
  150.6222  142.4506  156.4081 N   0  0  0  0  0  0  0  0  0  0  0  0
  150.8018  141.2294  155.8686 C   0  0  0  0  0  0  0  0  0  0  0  0
  151.6574  140.4257  156.2399 O   0  0  0  0  0  0  0  0  0  0  0  0
  149.8792  140.8561  154.6980 C   0  0  1  0  0  0  0  0  0  0  0  0
  148.9273  139.6807  154.9933 C   0  0  0  0  0  0  0  0  0  0  0  0
  147.5424  140.2805  154.8306 C   0  0  0  0  0  0  0  0  0  0  0  0
  147.7979  141.4507  153.8875 C   0  0  1  0  0  0  0  0  0  0  0  0
  146.7174  142.5365  153.9258 C   0  0  0  0  0  0  0  0  0  0  0  0
  149.0329  141.9576  154.3649 O   0  0  0  0  0  0  0  0  0  0  0  0
  151.9586  142.1447  158.3651 C   0  0  0  0  0  0  0  0  0  0  0  0
  154.0166  139.9681  160.9091 H   0  0  0  0  0  0  0  0  0  0  0  0
  154.0424  140.2981  159.1809 H   0  0  0  0  0  0  0  0  0  0  0  0
  152.5021  139.9747  160.0127 H   0  0  0  0  0  0  0  0  0  0  0  0
  153.2740  144.4522  160.5027 H   0  0  0  0  0  0  0  0  0  0  0  0
  152.0927  145.9342  158.8696 H   0  0  0  0  0  0  0  0  0  0  0  0
  149.8889  143.0095  155.9968 H   0  0  0  0  0  0  0  0  0  0  0  0
  150.4957  140.6188  153.8297 H   0  0  0  0  0  0  0  0  0  0  0  0
  149.0839  138.8868  154.2621 H   0  0  0  0  0  0  0  0  0  0  0  0
  149.0523  139.2416  155.9841 H   0  0  0  0  0  0  0  0  0  0  0  0
  146.8128  139.5700  154.4405 H   0  0  0  0  0  0  0  0  0  0  0  0
  147.1830  140.6433  155.7948 H   0  0  0  0  0  0  0  0  0  0  0  0
  147.9347  141.0875  152.8673 H   0  0  0  0  0  0  0  0  0  0  0  0
  145.7555  142.1424  153.5970 H   0  0  0  0  0  0  0  0  0  0  0  0
  146.9786  143.3683  153.2712 H   0  0  0  0  0  0  0  0  0  0  0  0
  146.5908  142.9331  154.9335 H   0  0  0  0  0  0  0  0  0  0  0  0
  151.8831  141.0860  158.1661 H   0  0  0  0  0  0  0  0  0  0  0  0
  1  2  1  0  0  0  0
  1 18  1  0  0  0  0
  1 19  1  0  0  0  0
  1 20  1  0  0  0  0
  2  3  1  0  0  0  0
  3 17  1  0  0  0  0
  3  4  2  0  0  0  0
  4  5  1  0  0  0  0
  4 21  1  0  0  0  0
  5  6  2  0  0  0  0
  5 22  1  0  0  0  0
  6  7  1  0  0  0  0
  7  8  1  0  0  0  0
  7 17  2  0  0  0  0
  8  9  1  0  0  0  0
  8 23  1  0  0  0  0
  9 10  2  0  0  0  0
  9 11  1  0  0  0  0
 11 16  1  0  0  0  0
 11 12  1  0  0  0  0
 11 24  1  0  0  0  0
 12 13  1  0  0  0  0
 12 25  1  0  0  0  0
 12 26  1  0  0  0  0
 13 14  1  0  0  0  0
 13 27  1  0  0  0  0
 13 28  1  0  0  0  0
 14 15  1  0  0  0  0
 14 16  1  0  0  0  0
 14 29  1  0  0  0  0
 15 30  1  0  0  0  0
 15 31  1  0  0  0  0
 15 32  1  0  0  0  0
 17 33  1  0  0  0  0
M  END
> <s_m_source_file>
AV-unprocessed.smi

> <i_m_source_file_index>
2489

> <i_lp_mmshare_version>
43012

> <i_f3d_flags>
0

> <s_epik_input>
W0NIM11PYzFbY0hdW2NIXW5jKFtjSF0xKVtOSF1DKD1PKVtDQEBIXTJbQ0gyXVtDSDJdW0NASF0oTzIpW0NIM10=

> <s_epik_cmdline>
J2VwaWtfcHl0aG9uJywgJy1waCcsICc3LjAnLCAnLXRuJywgJzgnLCAnLW1hJywgJzIwMCcsICctbWV0YWxfYmluZGluZycsICctaW1hZScsICc8aW5maWxlLm1hZT4nLCAnLW9tYWUnLCAnPG91dGZpbGUubWFlPic=

> <r_epik_Ionization_Penalty>
0.0871917

> <r_epik_Ionization_Penalty_Charging>
0

> <r_epik_Ionization_Penalty_Neutral>
0.0871917

> <r_epik_State_Penalty>
0.146479

> <r_epik_Charging_Adjusted_Penalty>
0.146479

> <i_epik_Tot_Q>
0

> <i_epik_Tot_abs_Q>
0

> <r_epik_Metal_State_Penalty>
0.067489

> <b_epik_Metal_Only>
0

> <s_lp_Force_Field>
OPLS_2005

> <r_lp_Energy>
22.1586

> <b_lp_Chiralities_Consistent>
1

> <s_lp_Variant>
AV-unprocessed.smi:2489-2

> <Gold.Version>
5.8.1

> <Gold.Id.Protein>
6NUR|6NUR_protein|mol2

> <Gold.PLP.Fitness>
40.8189

> <Gold.PLP.PLP>
-37.8959

> <Gold.PLP.part.hbond>
-2.0000

> <Gold.PLP.part.metal>
0.0000

> <Gold.PLP.part.buried>
-6.5482

> <Gold.PLP.part.nonpolar>
-30.0659

> <Gold.PLP.part.repulsive>
1.2776

> <Gold.PLP.ligand.clash>
0.0035

> <Gold.PLP.ligand.torsion>
0.2340

> <Gold.PLP.Chemscore.Hbond>
1.1301

> <Gold.PLP.Chemscore.CHOScore>
0.0000

> <Gold.PLP.Chemscore.Metal>
0.0000

> <Gold.Chemscore.Hbonds>
donor molecule, donor type, donor heavy atom, donor atom, acceptor molecule, acceptor atom, score
      L1  H     8    23       P1  8028  1.00
      P1  H  8011  8017       L1    16  0.15

> <Gold.PLP.Chemscore.Internal.Correction>
0.0042

> <Gold.Rescore>
     Score         DG    S(hbond)    S(metal)    S(lipo)     H(rot)  DE(clash)    DE(int)     intcor
     13.74     -15.47       0.95        0.00      85.19       1.23       0.07       1.65       ----

> <Gold.Chemscore.Fitness>
13.7443

> <Gold.Chemscore.DG>
-15.4680

> <Gold.Chemscore.ZeroCoef>
-5.4800

> <Gold.Chemscore.Hbond>
0.9462

> <Gold.Chemscore.Metal>
0.0000

> <Gold.Chemscore.Lipo>
85.1916

> <Gold.Chemscore.Internal_Hbond>
0.0000

> <Gold.Chemscore.DEClash>
0.0746

> <Gold.Chemscore.DEInternal>
1.6492

> <Gold.Chemscore.Rot>
1.2264

> <Gold.Chemscore.Internal.Correction>
   9.000000E+99

> <Gold.Chemscore.Hbonds>
donor molecule, donor type, donor heavy atom, donor atom, acceptor molecule, acceptor atom, score
      L1  H     8    23       P1  8028  0.93

> <Gold.Chemscore.Hbond.Weighted>
-3.1602

> <Gold.Chemscore.Metal.Weighted>
-0.0000

> <Gold.Chemscore.Lipo.Weighted>
-9.9674

> <Gold.Chemscore.Internal_Hbond.Weighted>
0.0000

> <Gold.Chemscore.DEClash.Weighted>
0.0746

> <Gold.Chemscore.DEInternal.Weighted>
1.6492

> <Gold.Chemscore.Rot.Weighted>
3.1396

> <Gold.Chemscore.Internal.Correction.Weighted>
   9.000000E+99

> <Gold.Protein.RotatedTorsions>
[ 6907 6896 6895 6894 ] final  -57.36 input  -60.11 | X-H torsion
[ 7974 7965 7964 7962 ] final  -44.10 input  175.53 | X-H torsion
[ 8008 7997 7996 7995 ] final  -64.96 input   59.86 | X-H torsion
[ 10167 10162 10161 10158 ] final -162.34 input  -65.29 | X-H torsion
[ 10718 10713 10712 10709 ] final  156.95 input   66.30 | X-H torsion
[ 10763 10752 10751 10750 ] final   13.21 input  -60.55 | X-H torsion
[ 11005 11000 10999 10996 ] final   14.19 input  -57.11 | X-H torsion

> <Gold.Protein.ActiveResidues>
 VAL166  LYS551  ARG553  GLY616  TRP617  ASP618  TYR619  PRO620  LYS621  CYS622 
 ASP623  PHE694  ASN695  SER759  ASP760  ASP761  ALA762  ILE779  LEU786  VAL792 
 PHE793  MET794  SER795  GLU796  ALA797  LYS798  CYS799  TRP800  GLU811  SER814 

> <Gold.Protein.RotatedAtoms>
  150.8092  134.7237  159.6672 H   0  0  0  0  0  0  0  0  0  0  0  0  # atno 6907 bound_to 6896
  152.4212  134.5948  159.9994 H   0  0  0  0  0  0  0  0  0  0  0  0  # atno 6908 bound_to 6896
  151.6163  133.3306  159.3114 H   0  0  0  0  0  0  0  0  0  0  0  0  # atno 6909 bound_to 6896
  145.9954  140.7134  142.9296 H   0  0  0  0  0  0  0  0  0  0  0  0  # atno 7974 bound_to 7965
  154.4642  140.0943  156.6977 H   0  0  0  0  0  0  0  0  0  0  0  0  # atno 8008 bound_to 7997
  155.4905  140.3470  155.4336 H   0  0  0  0  0  0  0  0  0  0  0  0  # atno 8009 bound_to 7997
  156.0927  140.1401  156.9560 H   0  0  0  0  0  0  0  0  0  0  0  0  # atno 8010 bound_to 7997
  139.6399  144.0278  152.2084 H   0  0  0  0  0  0  0  0  0  0  0  0  # atno 10167 bound_to 10162
  157.1981  131.0670  151.2041 H   0  0  0  0  0  0  0  0  0  0  0  0  # atno 10718 bound_to 10713
  153.1744  135.6817  153.8563 H   0  0  0  0  0  0  0  0  0  0  0  0  # atno 10763 bound_to 10752
  153.7916  135.3168  155.3380 H   0  0  0  0  0  0  0  0  0  0  0  0  # atno 10764 bound_to 10752
  154.8019  135.4772  154.0390 H   0  0  0  0  0  0  0  0  0  0  0  0  # atno 10765 bound_to 10752
  140.4723  134.1018  155.7735 H   0  0  0  0  0  0  0  0  0  0  0  0  # atno 11005 bound_to 11000
  144.6902  140.3141  143.7243 LP  0  0  0  0  0  0  0  0  0  0  0  0  # atno 17320 bound_to 7965
  145.7568  139.1811  143.2290 LP  0  0  0  0  0  0  0  0  0  0  0  0  # atno 17321 bound_to 7965
  139.9965  144.6324  150.7767 LP  0  0  0  0  0  0  0  0  0  0  0  0  # atno 17342 bound_to 10162
  140.7485  143.2924  151.3295 LP  0  0  0  0  0  0  0  0  0  0  0  0  # atno 17343 bound_to 10162
  157.3794  130.7223  149.6619 LP  0  0  0  0  0  0  0  0  0  0  0  0  # atno 17370 bound_to 10713
  155.9703  130.4176  150.4290 LP  0  0  0  0  0  0  0  0  0  0  0  0  # atno 17371 bound_to 10713
  141.1571  133.8863  157.1949 LP  0  0  0  0  0  0  0  0  0  0  0  0  # atno 17394 bound_to 11000
  139.9877  135.0076  156.9902 LP  0  0  0  0  0  0  0  0  0  0  0  0  # atno 17395 bound_to 11000

$$$$
