AV-unprocessed.smi:2784|AV-procd|sdf|10740|dock4
  -GOLD-   2272015173D 1   1.00000     0.00000
 Structure written by MMmdl.
 31 32  0  0  0  0  0  0  0  0  1 V2000
  151.1217  139.6988  158.7549 C   0  0  0  0  0  0  0  0  0  0  0  0
  150.8944  141.0411  158.3580 O   0  0  0  0  0  0  0  0  0  0  0  0
  152.0615  141.7040  157.8789 C   0  0  2  0  0  0  0  0  0  0  0  0
  152.7090  142.3799  159.0887 C   0  0  0  0  0  0  0  0  0  0  0  0
  151.9380  143.6871  159.2472 C   0  0  0  0  0  0  0  0  0  0  0  0
  151.6464  144.1399  157.8144 C   0  0  0  0  0  0  0  0  0  0  0  0
  151.6951  142.8740  156.9355 C   0  0  2  0  0  0  0  0  0  0  0  0
  150.4269  142.6714  156.2371 N   0  0  0  0  0  0  0  0  0  0  0  0
  150.1225  141.6201  155.4617 C   0  0  0  0  0  0  0  0  0  0  0  0
  150.9321  140.7083  155.2654 O   0  0  0  0  0  0  0  0  0  0  0  0
  148.8282  141.7475  154.9786 N   0  0  0  0  0  0  0  0  0  0  0  0
  148.2865  140.7684  154.3224 C   0  0  0  0  0  0  0  0  0  0  0  0
  147.0133  140.7186  153.7779 N   0  0  0  0  0  0  0  0  0  0  0  0
  146.8564  139.5029  153.1717 C   0  0  0  0  0  0  0  0  0  0  0  0
  147.9834  138.8145  153.3274 C   0  0  0  0  0  0  0  0  0  0  0  0
  148.8802  139.5621  154.0294 O   0  0  0  0  0  0  0  0  0  0  0  0
  150.1817  139.2467  159.0706 H   0  0  0  0  0  0  0  0  0  0  0  0
  151.8166  139.6526  159.5943 H   0  0  0  0  0  0  0  0  0  0  0  0
  151.5245  139.1026  157.9356 H   0  0  0  0  0  0  0  0  0  0  0  0
  152.7588  141.0091  157.4061 H   0  0  0  0  0  0  0  0  0  0  0  0
  152.6822  141.7608  159.9861 H   0  0  0  0  0  0  0  0  0  0  0  0
  153.7549  142.5990  158.8694 H   0  0  0  0  0  0  0  0  0  0  0  0
  150.9999  143.4956  159.7698 H   0  0  0  0  0  0  0  0  0  0  0  0
  152.4901  144.4335  159.8188 H   0  0  0  0  0  0  0  0  0  0  0  0
  150.6914  144.6644  157.7563 H   0  0  0  0  0  0  0  0  0  0  0  0
  152.4142  144.8408  157.4844 H   0  0  0  0  0  0  0  0  0  0  0  0
  152.4994  143.0086  156.2097 H   0  0  0  0  0  0  0  0  0  0  0  0
  149.7197  143.3802  156.3675 H   0  0  0  0  0  0  0  0  0  0  0  0
  146.2949  141.4278  153.8019 H   0  0  0  0  0  0  0  0  0  0  0  0
  145.9279  139.2536  152.6792 H   0  0  0  0  0  0  0  0  0  0  0  0
  148.2905  137.8280  153.0133 H   0  0  0  0  0  0  0  0  0  0  0  0
  1  2  1  0  0  0  0
  1 17  1  0  0  0  0
  1 18  1  0  0  0  0
  1 19  1  0  0  0  0
  2  3  1  0  0  0  0
  3  7  1  0  0  0  0
  3  4  1  0  0  0  0
  3 20  1  0  0  0  0
  4  5  1  0  0  0  0
  4 21  1  0  0  0  0
  4 22  1  0  0  0  0
  5  6  1  0  0  0  0
  5 23  1  0  0  0  0
  5 24  1  0  0  0  0
  6  7  1  0  0  0  0
  6 25  1  0  0  0  0
  6 26  1  0  0  0  0
  7  8  1  0  0  0  0
  7 27  1  0  0  0  0
  8 28  1  0  0  0  0
  8  9  1  0  0  0  0
  9 11  1  0  0  0  0
  9 10  2  0  0  0  0
 11 12  2  0  0  0  0
 12 16  1  0  0  0  0
 12 13  1  0  0  0  0
 13 29  1  0  0  0  0
 13 14  1  0  0  0  0
 14 30  1  0  0  0  0
 14 15  2  0  0  0  0
 15 31  1  0  0  0  0
 15 16  1  0  0  0  0
M  END
> <s_m_source_file>
AV-unprocessed.smi

> <i_m_source_file_index>
2784

> <i_lp_mmshare_version>
43012

> <i_f3d_flags>
0

> <s_epik_input>
W0NIM11PW0NAQEhdMVtDSDJdW0NIMl1bQ0gyXVtDQEhdMVtOSF1DKD1PKVtOSF1jMm5bY0hdW2NIXW8y

> <s_epik_cmdline>
J2VwaWtfcHl0aG9uJywgJy1waCcsICc3LjAnLCAnLXRuJywgJzgnLCAnLW1hJywgJzIwMCcsICctbWV0YWxfYmluZGluZycsICctaW1hZScsICc8aW5maWxlLm1hZT4nLCAnLW9tYWUnLCAnPG91dGZpbGUubWFlPic=

> <r_lp_tautomer_probability>
0.107061

> <r_epik_Ionization_Penalty>
1.29244

> <r_epik_Ionization_Penalty_Charging>
1.29208

> <r_epik_Ionization_Penalty_Neutral>
0.000359742

> <r_epik_State_Penalty>
2.59896

> <r_epik_Charging_Adjusted_Penalty>
3.89105

> <i_epik_Tot_Q>
0

> <i_epik_Tot_abs_Q>
0

> <r_epik_Metal_State_Penalty>
3.62496

> <b_epik_Metal_Only>
0

> <s_lp_Force_Field>
OPLS_2005

> <r_lp_Energy>
45.4205

> <b_lp_Chiralities_Consistent>
1

> <s_lp_Variant>
AV-unprocessed.smi:2784-15

> <Gold.Version>
5.8.1

> <Gold.Id.Protein>
6NUR|6NUR_protein|mol2

> <Gold.PLP.Fitness>
35.8447

> <Gold.PLP.PLP>
-24.7997

> <Gold.PLP.part.hbond>
-2.0000

> <Gold.PLP.part.metal>
0.0000

> <Gold.PLP.part.buried>
-4.2193

> <Gold.PLP.part.nonpolar>
-19.5572

> <Gold.PLP.part.repulsive>
0.9131

> <Gold.PLP.ligand.clash>
0.0000

> <Gold.PLP.ligand.torsion>
0.3522

> <Gold.PLP.Chemscore.Hbond>
1.9120

> <Gold.PLP.Chemscore.CHOScore>
2.0000

> <Gold.PLP.Chemscore.Metal>
0.0000

> <Gold.Chemscore.Hbonds>
donor molecule, donor type, donor heavy atom, donor atom, acceptor molecule, acceptor atom, score
      L1  H     8    28       P1  8028  0.93
      P1  H  7989  7998       L1    10  0.86
      L1  C    14    30       P1 10175  0.93
      L1  C    15    31       P1  7948  1.00

> <Gold.PLP.Chemscore.Internal.Correction>
0.0134

> <Gold.Rescore>
     Score         DG    S(hbond)    S(metal)    S(lipo)     H(rot)  DE(clash)    DE(int)     intcor
     11.92     -15.81       1.66        0.00      69.98       1.32       1.57       2.33       ----

> <Gold.Chemscore.Fitness>
11.9211

> <Gold.Chemscore.DG>
-15.8135

> <Gold.Chemscore.ZeroCoef>
-5.4800

> <Gold.Chemscore.Hbond>
1.6567

> <Gold.Chemscore.Metal>
0.0000

> <Gold.Chemscore.Lipo>
69.9847

> <Gold.Chemscore.Internal_Hbond>
0.0000

> <Gold.Chemscore.DEClash>
1.5655

> <Gold.Chemscore.DEInternal>
2.3268

> <Gold.Chemscore.Rot>
1.3235

> <Gold.Chemscore.Internal.Correction>
   9.000000E+99

> <Gold.Chemscore.Hbonds>
donor molecule, donor type, donor heavy atom, donor atom, acceptor molecule, acceptor atom, score
      L1  H     8    28       P1  8028  0.90
      P1  H  7989  7998       L1    10  0.55

> <Gold.Chemscore.Hbond.Weighted>
-5.5334

> <Gold.Chemscore.Metal.Weighted>
-0.0000

> <Gold.Chemscore.Lipo.Weighted>
-8.1882

> <Gold.Chemscore.Internal_Hbond.Weighted>
0.0000

> <Gold.Chemscore.DEClash.Weighted>
1.5655

> <Gold.Chemscore.DEInternal.Weighted>
2.3268

> <Gold.Chemscore.Rot.Weighted>
3.3882

> <Gold.Chemscore.Internal.Correction.Weighted>
   9.000000E+99

> <Gold.Protein.RotatedTorsions>
[ 6907 6896 6895 6894 ] final -149.59 input  -60.11 | X-H torsion
[ 7974 7965 7964 7962 ] final  113.28 input  175.53 | X-H torsion
[ 8008 7997 7996 7995 ] final -107.81 input   59.86 | X-H torsion
[ 10167 10162 10161 10158 ] final   73.23 input  -65.29 | X-H torsion
[ 10718 10713 10712 10709 ] final   67.82 input   66.30 | X-H torsion
[ 10763 10752 10751 10750 ] final  -63.73 input  -60.55 | X-H torsion
[ 11005 11000 10999 10996 ] final   29.47 input  -57.11 | X-H torsion

> <Gold.Protein.ActiveResidues>
 VAL166  LYS551  ARG553  GLY616  TRP617  ASP618  TYR619  PRO620  LYS621  CYS622 
 ASP623  PHE694  ASN695  SER759  ASP760  ASP761  ALA762  ILE779  LEU786  VAL792 
 PHE793  MET794  SER795  GLU796  ALA797  LYS798  CYS799  TRP800  GLU811  SER814 

> <Gold.Protein.RotatedAtoms>
  151.1863  133.4694  159.2594 H   0  0  0  0  0  0  0  0  0  0  0  0  # atno 6907 bound_to 6896
  151.1208  135.0078  159.8548 H   0  0  0  0  0  0  0  0  0  0  0  0  # atno 6908 bound_to 6896
  152.5456  134.1774  159.8674 H   0  0  0  0  0  0  0  0  0  0  0  0  # atno 6909 bound_to 6896
  145.2189  139.2871  143.4229 H   0  0  0  0  0  0  0  0  0  0  0  0  # atno 7974 bound_to 7965
  154.9349  140.0404  157.2067 H   0  0  0  0  0  0  0  0  0  0  0  0  # atno 8008 bound_to 7997
  154.8125  140.2870  155.5821 H   0  0  0  0  0  0  0  0  0  0  0  0  # atno 8009 bound_to 7997
  156.2973  140.2534  156.3016 H   0  0  0  0  0  0  0  0  0  0  0  0  # atno 8010 bound_to 7997
  140.0267  144.5498  150.7539 H   0  0  0  0  0  0  0  0  0  0  0  0  # atno 10167 bound_to 10162
  157.6253  130.9341  150.0294 H   0  0  0  0  0  0  0  0  0  0  0  0  # atno 10718 bound_to 10713
  154.3194  135.6199  153.5501 H   0  0  0  0  0  0  0  0  0  0  0  0  # atno 10763 bound_to 10752
  152.9821  135.5720  154.5086 H   0  0  0  0  0  0  0  0  0  0  0  0  # atno 10764 bound_to 10752
  154.4752  135.2861  155.1589 H   0  0  0  0  0  0  0  0  0  0  0  0  # atno 10765 bound_to 10752
  140.3046  134.2717  155.7746 H   0  0  0  0  0  0  0  0  0  0  0  0  # atno 11005 bound_to 11000
  146.3380  140.2489  142.8598 LP  0  0  0  0  0  0  0  0  0  0  0  0  # atno 17320 bound_to 7965
  144.9784  140.8436  143.5412 LP  0  0  0  0  0  0  0  0  0  0  0  0  # atno 17321 bound_to 7965
  140.7319  143.2700  151.3919 LP  0  0  0  0  0  0  0  0  0  0  0  0  # atno 17342 bound_to 10162
  139.6103  144.1112  152.2292 LP  0  0  0  0  0  0  0  0  0  0  0  0  # atno 17343 bound_to 10162
  156.1421  130.3642  149.9566 LP  0  0  0  0  0  0  0  0  0  0  0  0  # atno 17370 bound_to 10713
  156.7604  130.9149  151.3641 LP  0  0  0  0  0  0  0  0  0  0  0  0  # atno 17371 bound_to 10713
  141.2121  133.7669  156.9818 LP  0  0  0  0  0  0  0  0  0  0  0  0  # atno 17394 bound_to 11000
  140.1078  134.9495  157.2020 LP  0  0  0  0  0  0  0  0  0  0  0  0  # atno 17395 bound_to 11000

$$$$
