AV-unprocessed.smi:835|AV-procd|sdf|3887|dock9
  -GOLD-   22720 1343D 1   1.00000     0.00000
 Structure written by MMmdl.
 41 43  0  0  0  0  0  0  0  0  2 V2000
  153.4948  142.1855  162.0789 C   0  0  0  0  0  0  0  0  0  0  0  0
  152.7372  142.7138  160.8969 C   0  0  0  0  0  0  0  0  0  0  0  0
  152.2385  141.9861  159.7773 C   0  0  0  0  0  0  0  0  0  0  0  0
  151.6393  142.9610  159.0276 C   0  0  0  0  0  0  0  0  0  0  0  0
  150.9944  142.8478  157.8361 N   0  0  0  0  0  0  0  0  0  0  0  0
  150.9696  141.8022  156.9915 C   0  0  0  0  0  0  0  0  0  0  0  0
  151.5482  140.7292  157.1630 O   0  0  0  0  0  0  0  0  0  0  0  0
  150.2148  142.0653  155.9153 N   0  0  0  0  0  0  0  0  0  0  0  0
  149.9690  141.1261  154.8261 C   0  0  1  0  0  0  0  0  0  0  0  0
  149.8276  139.6688  155.2707 C   0  0  0  0  0  0  0  0  0  0  0  0
  148.9052  139.0350  154.2161 C   0  0  0  0  0  0  0  0  0  0  0  0
  148.3515  140.1452  153.4047 N   0  3  1  0  0  0  0  0  0  0  0  0
  146.9318  139.9750  153.0303 C   0  0  0  0  0  0  0  0  0  0  0  0
  146.4838  138.5335  152.9976 C   0  0  0  0  0  0  0  0  0  0  0  0
  146.7353  139.2791  151.7048 C   0  0  0  0  0  0  0  0  0  0  0  0
  148.6333  141.3917  154.1390 C   0  0  0  0  0  0  0  0  0  0  0  0
  151.7885  144.1706  159.6689 N   0  0  0  0  0  0  0  0  0  0  0  0
  151.3283  145.4869  159.2715 C   0  0  0  0  0  0  0  0  0  0  0  0
  152.4653  144.0123  160.8268 N   0  0  0  0  0  0  0  0  0  0  0  0
  153.7650  141.1388  161.9374 H   0  0  0  0  0  0  0  0  0  0  0  0
  152.8979  142.2539  162.9884 H   0  0  0  0  0  0  0  0  0  0  0  0
  154.4156  142.7465  162.2402 H   0  0  0  0  0  0  0  0  0  0  0  0
  152.3197  140.9281  159.5781 H   0  0  0  0  0  0  0  0  0  0  0  0
  150.4501  143.6536  157.5654 H   0  0  0  0  0  0  0  0  0  0  0  0
  149.7750  142.9718  155.8505 H   0  0  0  0  0  0  0  0  0  0  0  0
  150.7664  141.2033  154.0839 H   0  0  0  0  0  0  0  0  0  0  0  0
  150.7901  139.1613  155.3454 H   0  0  0  0  0  0  0  0  0  0  0  0
  149.3490  139.6161  156.2500 H   0  0  0  0  0  0  0  0  0  0  0  0
  149.4547  138.3572  153.5623 H   0  0  0  0  0  0  0  0  0  0  0  0
  148.1159  138.4590  154.7016 H   0  0  0  0  0  0  0  0  0  0  0  0
  146.2471  140.7584  153.3510 H   0  0  0  0  0  0  0  0  0  0  0  0
  147.1997  137.7643  153.2823 H   0  0  0  0  0  0  0  0  0  0  0  0
  145.4482  138.3238  153.2581 H   0  0  0  0  0  0  0  0  0  0  0  0
  145.8656  139.5600  151.1145 H   0  0  0  0  0  0  0  0  0  0  0  0
  147.6180  139.0043  151.1301 H   0  0  0  0  0  0  0  0  0  0  0  0
  147.8504  141.5685  154.8793 H   0  0  0  0  0  0  0  0  0  0  0  0
  148.6696  142.2512  153.4688 H   0  0  0  0  0  0  0  0  0  0  0  0
  150.2395  145.5204  159.3132 H   0  0  0  0  0  0  0  0  0  0  0  0
  151.6535  145.6978  158.2527 H   0  0  0  0  0  0  0  0  0  0  0  0
  151.7321  146.2522  159.9358 H   0  0  0  0  0  0  0  0  0  0  0  0
  148.8957  140.1811  152.5543 H   0  0  0  0  0  0  0  0  0  0  0  0
  1  2  1  0  0  0  0
  1 20  1  0  0  0  0
  1 21  1  0  0  0  0
  1 22  1  0  0  0  0
  2 19  2  0  0  0  0
  2  3  1  0  0  0  0
  3  4  2  0  0  0  0
  3 23  1  0  0  0  0
  4  5  1  0  0  0  0
  4 17  1  0  0  0  0
  5  6  1  0  0  0  0
  5 24  1  0  0  0  0
  6  7  2  0  0  0  0
  6  8  1  0  0  0  0
  8  9  1  0  0  0  0
  8 25  1  0  0  0  0
  9 16  1  0  0  0  0
  9 10  1  0  0  0  0
  9 26  1  0  0  0  0
 10 11  1  0  0  0  0
 10 27  1  0  0  0  0
 10 28  1  0  0  0  0
 11 12  1  0  0  0  0
 11 29  1  0  0  0  0
 11 30  1  0  0  0  0
 12 13  1  0  0  0  0
 12 16  1  0  0  0  0
 12 41  1  0  0  0  0
 13 15  1  0  0  0  0
 13 14  1  0  0  0  0
 13 31  1  0  0  0  0
 14 15  1  0  0  0  0
 14 32  1  0  0  0  0
 14 33  1  0  0  0  0
 15 34  1  0  0  0  0
 15 35  1  0  0  0  0
 16 36  1  0  0  0  0
 16 37  1  0  0  0  0
 17 18  1  0  0  0  0
 17 19  1  0  0  0  0
 18 38  1  0  0  0  0
 18 39  1  0  0  0  0
 18 40  1  0  0  0  0
M  CHG  1  12   1
M  END
> <s_m_source_file>
AV-unprocessed.smi

> <i_m_source_file_index>
835

> <i_lp_mmshare_version>
43012

> <i_f3d_flags>
0

> <s_epik_input>
W0NIM11jMVtjSF1jKG4objEpW0NIM10pW05IXUMoPU8pW05IXVtDQEBIXTJbQ0gyXVtDSDJdTihbQ0gyXTIpW0NIXTNbQ0gyXVtDSDJdMw==

> <s_epik_cmdline>
J2VwaWtfcHl0aG9uJywgJy1waCcsICc3LjAnLCAnLXRuJywgJzgnLCAnLW1hJywgJzIwMCcsICctbWV0YWxfYmluZGluZycsICctaW1hZScsICc8aW5maWxlLm1hZT4nLCAnLW9tYWUnLCAnPG91dGZpbGUubWFlPic=

> <r_lp_tautomer_probability>
1

> <r_epik_Ionization_Penalty>
0.000700689

> <r_epik_Ionization_Penalty_Charging>
0.000627528

> <r_epik_Ionization_Penalty_Neutral>
7.31611e-05

> <r_epik_State_Penalty>
0.00039643

> <r_epik_Charging_Adjusted_Penalty>
0.00102396

> <i_epik_Tot_Q>
1

> <i_epik_Tot_abs_Q>
1

> <r_epik_Metal_State_Penalty>
-0

> <b_epik_Metal_Only>
0

> <s_lp_Force_Field>
OPLS_2005

> <r_lp_Energy>
38.0069

> <b_lp_Chiralities_Consistent>
1

> <s_lp_Variant>
AV-unprocessed.smi:835-2

> <Gold.Version>
5.8.1

> <Gold.Id.Protein>
6NUR|6NUR_protein|mol2

> <Gold.PLP.Fitness>
46.8710

> <Gold.PLP.PLP>
-42.1235

> <Gold.PLP.part.hbond>
-2.0000

> <Gold.PLP.part.metal>
0.0000

> <Gold.PLP.part.buried>
-0.4114

> <Gold.PLP.part.nonpolar>
-39.6558

> <Gold.PLP.part.repulsive>
0.3666

> <Gold.PLP.ligand.clash>
0.0000

> <Gold.PLP.ligand.torsion>
1.2577

> <Gold.PLP.Chemscore.Hbond>
2.0000

> <Gold.PLP.Chemscore.CHOScore>
0.0000

> <Gold.PLP.Chemscore.Metal>
0.0000

> <Gold.Chemscore.Hbonds>
donor molecule, donor type, donor heavy atom, donor atom, acceptor molecule, acceptor atom, score
      L1  H     8    25       P1  8028  1.00
      L1  H    12    41       P1  7957  1.00

> <Gold.PLP.Chemscore.Internal.Correction>
1.2630

> <Gold.Rescore>
     Score         DG    S(hbond)    S(metal)    S(lipo)     H(rot)  DE(clash)    DE(int)     intcor
     16.04     -20.00       1.98        0.00      94.17       1.22       0.22       3.73       ----

> <Gold.Chemscore.Fitness>
16.0401

> <Gold.Chemscore.DG>
-19.9972

> <Gold.Chemscore.ZeroCoef>
-5.4800

> <Gold.Chemscore.Hbond>
1.9827

> <Gold.Chemscore.Metal>
0.0000

> <Gold.Chemscore.Lipo>
94.1658

> <Gold.Chemscore.Internal_Hbond>
0.0000

> <Gold.Chemscore.DEClash>
0.2240

> <Gold.Chemscore.DEInternal>
3.7331

> <Gold.Chemscore.Rot>
1.2196

> <Gold.Chemscore.Internal.Correction>
   9.000000E+99

> <Gold.Chemscore.Hbonds>
donor molecule, donor type, donor heavy atom, donor atom, acceptor molecule, acceptor atom, score
      L1  H     8    25       P1  8028  0.98
      L1  H    12    41       P1  7957  0.97

> <Gold.Chemscore.Hbond.Weighted>
-6.6221

> <Gold.Chemscore.Metal.Weighted>
-0.0000

> <Gold.Chemscore.Lipo.Weighted>
-11.0174

> <Gold.Chemscore.Internal_Hbond.Weighted>
0.0000

> <Gold.Chemscore.DEClash.Weighted>
0.2240

> <Gold.Chemscore.DEInternal.Weighted>
3.7331

> <Gold.Chemscore.Rot.Weighted>
3.1223

> <Gold.Chemscore.Internal.Correction.Weighted>
   9.000000E+99

> <Gold.Protein.RotatedTorsions>
[ 6907 6896 6895 6894 ] final   94.07 input  -60.11 | X-H torsion
[ 7974 7965 7964 7962 ] final   19.33 input  175.53 | X-H torsion
[ 8008 7997 7996 7995 ] final  -43.91 input   59.86 | X-H torsion
[ 10167 10162 10161 10158 ] final  -82.06 input  -65.29 | X-H torsion
[ 10718 10713 10712 10709 ] final  158.74 input   66.30 | X-H torsion
[ 10763 10752 10751 10750 ] final  111.17 input  -60.55 | X-H torsion
[ 11005 11000 10999 10996 ] final  -68.39 input  -57.11 | X-H torsion

> <Gold.Protein.ActiveResidues>
 VAL166  LYS551  ARG553  GLY616  TRP617  ASP618  TYR619  PRO620  LYS621  CYS622 
 ASP623  PHE694  ASN695  SER759  ASP760  ASP761  ALA762  ILE779  LEU786  VAL792 
 PHE793  MET794  SER795  GLU796  ALA797  LYS798  CYS799  TRP800  GLU811  SER814 

> <Gold.Protein.RotatedAtoms>
  152.5451  134.1250  159.8414 H   0  0  0  0  0  0  0  0  0  0  0  0  # atno 6907 bound_to 6896
  151.1302  133.5035  159.2607 H   0  0  0  0  0  0  0  0  0  0  0  0  # atno 6908 bound_to 6896
  151.1684  135.0316  159.8795 H   0  0  0  0  0  0  0  0  0  0  0  0  # atno 6909 bound_to 6896
  146.2153  139.8328  142.8656 H   0  0  0  0  0  0  0  0  0  0  0  0  # atno 7974 bound_to 7965
  154.3997  140.1435  156.3596 H   0  0  0  0  0  0  0  0  0  0  0  0  # atno 8008 bound_to 7997
  155.8193  140.3470  155.5483 H   0  0  0  0  0  0  0  0  0  0  0  0  # atno 8009 bound_to 7997
  155.8305  140.0911  157.1786 H   0  0  0  0  0  0  0  0  0  0  0  0  # atno 8010 bound_to 7997
  140.4355  143.2533  151.8700 H   0  0  0  0  0  0  0  0  0  0  0  0  # atno 10167 bound_to 10162
  157.1737  131.0616  151.2169 H   0  0  0  0  0  0  0  0  0  0  0  0  # atno 10718 bound_to 10713
  153.4595  135.3725  155.2330 H   0  0  0  0  0  0  0  0  0  0  0  0  # atno 10763 bound_to 10752
  154.8757  135.3905  154.3941 H   0  0  0  0  0  0  0  0  0  0  0  0  # atno 10764 bound_to 10752
  153.4513  135.7085  153.6171 H   0  0  0  0  0  0  0  0  0  0  0  0  # atno 10765 bound_to 10752
  141.1531  133.6740  156.6439 H   0  0  0  0  0  0  0  0  0  0  0  0  # atno 11005 bound_to 11000
  145.2979  141.0186  143.3625 LP  0  0  0  0  0  0  0  0  0  0  0  0  # atno 17320 bound_to 7965
  144.9028  139.4628  143.6624 LP  0  0  0  0  0  0  0  0  0  0  0  0  # atno 17321 bound_to 7965
  139.4787  144.5288  151.8697 LP  0  0  0  0  0  0  0  0  0  0  0  0  # atno 17342 bound_to 10162
  140.4379  144.2027  150.5890 LP  0  0  0  0  0  0  0  0  0  0  0  0  # atno 17343 bound_to 10162
  157.4019  130.7338  149.6773 LP  0  0  0  0  0  0  0  0  0  0  0  0  # atno 17370 bound_to 10713
  155.9734  130.4118  150.4002 LP  0  0  0  0  0  0  0  0  0  0  0  0  # atno 17371 bound_to 10713
  140.3372  134.7879  157.4370 LP  0  0  0  0  0  0  0  0  0  0  0  0  # atno 17394 bound_to 11000
  140.0968  134.5527  155.8391 LP  0  0  0  0  0  0  0  0  0  0  0  0  # atno 17395 bound_to 11000

$$$$
