AV-unprocessed.smi:1605|AV-procd|sdf|6452|dock5
  -GOLD-   22720 7103D 1   1.00000     0.00000
 Structure written by MMmdl.
 51 53  0  0  0  0  0  0  0  0  2 V2000
  142.8646  145.0521  155.8119 C   0  0  0  0  0  0  0  0  0  0  0  0
  143.7985  144.2539  156.5221 O   0  0  0  0  0  0  0  0  0  0  0  0
  144.4849  143.3004  155.7221 C   0  0  2  0  0  0  0  0  0  0  0  0
  145.6468  142.7458  156.5592 C   0  0  0  0  0  0  0  0  0  0  0  0
  146.5172  141.7812  155.7374 C   0  0  0  0  0  0  0  0  0  0  0  0
  147.0369  142.4421  154.5123 N   0  3  1  0  0  0  0  0  0  0  0  0
  147.9999  141.5823  153.7766 C   0  0  0  0  0  0  0  0  0  0  0  0
  149.0355  140.9031  154.7015 C   0  0  1  0  0  0  0  0  0  0  0  0
  149.6361  139.8278  154.0055 O   0  0  0  0  0  0  0  0  0  0  0  0
  150.1407  141.8659  155.1911 C   0  0  0  0  0  0  0  0  0  0  0  0
  150.9724  141.3170  156.2506 N   0  0  0  0  0  0  0  0  0  0  0  0
  151.6409  140.1474  156.2345 C   0  0  0  0  0  0  0  0  0  0  0  0
  152.3388  139.8285  157.3200 N   0  0  0  0  0  0  0  0  0  0  0  0
  152.1097  140.9267  158.1314 C   0  0  0  0  0  0  0  0  0  0  0  0
  152.5714  141.2165  159.4341 C   0  0  0  0  0  0  0  0  0  0  0  0
  152.2076  142.4188  160.0815 C   0  0  0  0  0  0  0  0  0  0  0  0
  152.7263  142.6896  161.4831 C   0  0  0  0  0  0  0  0  0  0  0  0
  151.3710  143.3551  159.4226 C   0  0  0  0  0  0  0  0  0  0  0  0
  150.9693  144.6555  160.0960 C   0  0  0  0  0  0  0  0  0  0  0  0
  150.8990  143.0801  158.1224 C   0  0  0  0  0  0  0  0  0  0  0  0
  151.2643  141.8787  157.4897 C   0  0  0  0  0  0  0  0  0  0  0  0
  145.9285  142.9530  153.6618 C   0  0  0  0  0  0  0  0  0  0  0  0
  145.0441  143.9428  154.4388 C   0  0  0  0  0  0  0  0  0  0  0  0
  142.3571  145.7196  156.5082 H   0  0  0  0  0  0  0  0  0  0  0  0
  142.1054  144.4365  155.3282 H   0  0  0  0  0  0  0  0  0  0  0  0
  143.3494  145.6703  155.0566 H   0  0  0  0  0  0  0  0  0  0  0  0
  143.8160  142.4760  155.4670 H   0  0  0  0  0  0  0  0  0  0  0  0
  146.2633  143.5682  156.9251 H   0  0  0  0  0  0  0  0  0  0  0  0
  145.2591  142.2349  157.4412 H   0  0  0  0  0  0  0  0  0  0  0  0
  147.3487  141.4407  156.3557 H   0  0  0  0  0  0  0  0  0  0  0  0
  145.9434  140.8952  155.4606 H   0  0  0  0  0  0  0  0  0  0  0  0
  147.4518  140.8070  153.2392 H   0  0  0  0  0  0  0  0  0  0  0  0
  148.5025  142.1806  153.0149 H   0  0  0  0  0  0  0  0  0  0  0  0
  148.5496  140.4915  155.5851 H   0  0  0  0  0  0  0  0  0  0  0  0
  149.7784  140.0820  153.1069 H   0  0  0  0  0  0  0  0  0  0  0  0
  150.7890  142.1349  154.3560 H   0  0  0  0  0  0  0  0  0  0  0  0
  149.7004  142.7989  155.5457 H   0  0  0  0  0  0  0  0  0  0  0  0
  151.6049  139.4875  155.3799 H   0  0  0  0  0  0  0  0  0  0  0  0
  153.2113  140.5047  159.9344 H   0  0  0  0  0  0  0  0  0  0  0  0
  153.3727  143.5674  161.4866 H   0  0  0  0  0  0  0  0  0  0  0  0
  153.3030  141.8465  161.8643 H   0  0  0  0  0  0  0  0  0  0  0  0
  151.8992  142.8646  162.1715 H   0  0  0  0  0  0  0  0  0  0  0  0
  150.3717  145.2797  159.4312 H   0  0  0  0  0  0  0  0  0  0  0  0
  151.8518  145.2265  160.3859 H   0  0  0  0  0  0  0  0  0  0  0  0
  150.3770  144.4547  160.9890 H   0  0  0  0  0  0  0  0  0  0  0  0
  150.2585  143.7833  157.6109 H   0  0  0  0  0  0  0  0  0  0  0  0
  146.3223  143.4547  152.7790 H   0  0  0  0  0  0  0  0  0  0  0  0
  145.3271  142.1159  153.3039 H   0  0  0  0  0  0  0  0  0  0  0  0
  144.2340  144.2812  153.7930 H   0  0  0  0  0  0  0  0  0  0  0  0
  145.6267  144.8289  154.6948 H   0  0  0  0  0  0  0  0  0  0  0  0
  147.5609  143.2443  154.8316 H   0  0  0  0  0  0  0  0  0  0  0  0
  1  2  1  0  0  0  0
  1 24  1  0  0  0  0
  1 25  1  0  0  0  0
  1 26  1  0  0  0  0
  2  3  1  0  0  0  0
  3 23  1  0  0  0  0
  3  4  1  0  0  0  0
  3 27  1  0  0  0  0
  4  5  1  0  0  0  0
  4 28  1  0  0  0  0
  4 29  1  0  0  0  0
  5  6  1  0  0  0  0
  5 30  1  0  0  0  0
  5 31  1  0  0  0  0
  6  7  1  0  0  0  0
  6 22  1  0  0  0  0
  6 51  1  0  0  0  0
  7  8  1  0  0  0  0
  7 32  1  0  0  0  0
  7 33  1  0  0  0  0
  8  9  1  0  0  0  0
  8 10  1  0  0  0  0
  8 34  1  0  0  0  0
  9 35  1  0  0  0  0
 10 11  1  0  0  0  0
 10 36  1  0  0  0  0
 10 37  1  0  0  0  0
 11 21  1  0  0  0  0
 11 12  1  0  0  0  0
 12 13  2  0  0  0  0
 12 38  1  0  0  0  0
 13 14  1  0  0  0  0
 14 21  2  0  0  0  0
 14 15  1  0  0  0  0
 15 16  2  0  0  0  0
 15 39  1  0  0  0  0
 16 17  1  0  0  0  0
 16 18  1  0  0  0  0
 17 40  1  0  0  0  0
 17 41  1  0  0  0  0
 17 42  1  0  0  0  0
 18 19  1  0  0  0  0
 18 20  2  0  0  0  0
 19 43  1  0  0  0  0
 19 44  1  0  0  0  0
 19 45  1  0  0  0  0
 20 21  1  0  0  0  0
 20 46  1  0  0  0  0
 22 23  1  0  0  0  0
 22 47  1  0  0  0  0
 22 48  1  0  0  0  0
 23 49  1  0  0  0  0
 23 50  1  0  0  0  0
M  CHG  1   6   1
M  END
> <s_m_source_file>
AV-unprocessed.smi

> <i_m_source_file_index>
1605

> <i_lp_mmshare_version>
43012

> <i_f3d_flags>
0

> <s_epik_input>
W0NIM11PW0NIXTFbQ0gyXVtDSDJdTihbQ0gyXVtDSDJdMSlbQ0gyXVtDQEhdKFtPSF0pW0NIMl1uKFtjSF1uMiljKGMyMylbY0hdYyhbQ0gzXSljKFtjSF0zKVtDSDNd

> <s_epik_cmdline>
J2VwaWtfcHl0aG9uJywgJy1waCcsICc3LjAnLCAnLXRuJywgJzgnLCAnLW1hJywgJzIwMCcsICctbWV0YWxfYmluZGluZycsICctaW1hZScsICc8aW5maWxlLm1hZT4nLCAnLW9tYWUnLCAnPG91dGZpbGUubWFlPic=

> <r_epik_Ionization_Penalty>
0.110943

> <r_epik_Ionization_Penalty_Charging>
0.0229283

> <r_epik_Ionization_Penalty_Neutral>
0.0880146

> <r_epik_State_Penalty>
0.0947554

> <r_epik_Charging_Adjusted_Penalty>
0.117684

> <i_epik_Tot_Q>
1

> <i_epik_Tot_abs_Q>
1

> <r_epik_Metal_State_Penalty>
0.0192456

> <b_epik_Metal_Only>
0

> <s_lp_Force_Field>
OPLS_2005

> <r_lp_Energy>
23.4204

> <b_lp_Chiralities_Consistent>
1

> <s_lp_Variant>
AV-unprocessed.smi:1605-2

> <Gold.Version>
5.8.1

> <Gold.Id.Protein>
6NUR|6NUR_protein|mol2

> <Gold.PLP.Fitness>
58.9253

> <Gold.PLP.PLP>
-47.6246

> <Gold.PLP.part.hbond>
-3.3625

> <Gold.PLP.part.metal>
0.0000

> <Gold.PLP.part.buried>
-5.5154

> <Gold.PLP.part.nonpolar>
-37.3205

> <Gold.PLP.part.repulsive>
0.1625

> <Gold.PLP.ligand.clash>
0.0000

> <Gold.PLP.ligand.torsion>
0.3686

> <Gold.PLP.Chemscore.Hbond>
4.0000

> <Gold.PLP.Chemscore.CHOScore>
0.0000

> <Gold.PLP.Chemscore.Metal>
0.0000

> <Gold.Chemscore.Hbonds>
donor molecule, donor type, donor heavy atom, donor atom, acceptor molecule, acceptor atom, score
      L1  H     6    51       P1  8028  1.62
      L1  H     9    35       P1  7957  1.00
      P1  H  7997  8009       L1    13  0.65

> <Gold.PLP.Chemscore.Internal.Correction>
0.0379

> <Gold.Rescore>
     Score         DG    S(hbond)    S(metal)    S(lipo)     H(rot)  DE(clash)    DE(int)     intcor
     17.44     -19.47       1.66        0.00     120.56       2.22       1.68       0.35       ----

> <Gold.Chemscore.Fitness>
17.4408

> <Gold.Chemscore.DG>
-19.4665

> <Gold.Chemscore.ZeroCoef>
-5.4800

> <Gold.Chemscore.Hbond>
1.6636

> <Gold.Chemscore.Metal>
0.0000

> <Gold.Chemscore.Lipo>
120.5590

> <Gold.Chemscore.Internal_Hbond>
0.0000

> <Gold.Chemscore.DEClash>
1.6755

> <Gold.Chemscore.DEInternal>
0.3503

> <Gold.Chemscore.Rot>
2.2169

> <Gold.Chemscore.Internal.Correction>
   9.000000E+99

> <Gold.Chemscore.Hbonds>
donor molecule, donor type, donor heavy atom, donor atom, acceptor molecule, acceptor atom, score
      L1  H     6    51       P1  8028  0.32
      L1  H     9    35       P1  7957  0.98
      P1  H  7997  8009       L1    13  0.08

> <Gold.Chemscore.Hbond.Weighted>
-5.5564

> <Gold.Chemscore.Metal.Weighted>
-0.0000

> <Gold.Chemscore.Lipo.Weighted>
-14.1054

> <Gold.Chemscore.Internal_Hbond.Weighted>
0.0000

> <Gold.Chemscore.DEClash.Weighted>
1.6755

> <Gold.Chemscore.DEInternal.Weighted>
0.3503

> <Gold.Chemscore.Rot.Weighted>
5.6753

> <Gold.Chemscore.Internal.Correction.Weighted>
   9.000000E+99

> <Gold.Protein.RotatedTorsions>
[ 6907 6896 6895 6894 ] final  118.37 input  -60.11 | X-H torsion
[ 7974 7965 7964 7962 ] final   61.66 input  175.53 | X-H torsion
[ 8008 7997 7996 7995 ] final -174.80 input   59.86 | X-H torsion
[ 10167 10162 10161 10158 ] final   67.71 input  -65.29 | X-H torsion
[ 10718 10713 10712 10709 ] final   97.92 input   66.30 | X-H torsion
[ 10763 10752 10751 10750 ] final  117.91 input  -60.55 | X-H torsion
[ 11005 11000 10999 10996 ] final  160.80 input  -57.11 | X-H torsion

> <Gold.Protein.ActiveResidues>
 VAL166  LYS551  ARG553  GLY616  TRP617  ASP618  TYR619  PRO620  LYS621  CYS622 
 ASP623  PHE694  ASN695  SER759  ASP760  ASP761  ALA762  ILE779  LEU786  VAL792 
 PHE793  MET794  SER795  GLU796  ALA797  LYS798  CYS799  TRP800  GLU811  SER814 

> <Gold.Protein.RotatedAtoms>
  152.4548  133.7700  159.6793 H   0  0  0  0  0  0  0  0  0  0  0  0  # atno 6907 bound_to 6896
  150.8470  133.7835  159.3045 H   0  0  0  0  0  0  0  0  0  0  0  0  # atno 6908 bound_to 6896
  151.5442  135.1071  159.9986 H   0  0  0  0  0  0  0  0  0  0  0  0  # atno 6909 bound_to 6896
  145.8823  139.3452  143.0699 H   0  0  0  0  0  0  0  0  0  0  0  0  # atno 7974 bound_to 7965
  155.9746  140.1170  157.0781 H   0  0  0  0  0  0  0  0  0  0  0  0  # atno 8008 bound_to 7997
  154.4166  140.1156  156.5421 H   0  0  0  0  0  0  0  0  0  0  0  0  # atno 8009 bound_to 7997
  155.6551  140.3473  155.4764 H   0  0  0  0  0  0  0  0  0  0  0  0  # atno 8010 bound_to 7997
  140.0865  144.5025  150.7127 H   0  0  0  0  0  0  0  0  0  0  0  0  # atno 10167 bound_to 10162
  157.6904  131.0624  150.4717 H   0  0  0  0  0  0  0  0  0  0  0  0  # atno 10718 bound_to 10713
  153.5595  135.3523  155.2793 H   0  0  0  0  0  0  0  0  0  0  0  0  # atno 10763 bound_to 10752
  154.8697  135.4133  154.2846 H   0  0  0  0  0  0  0  0  0  0  0  0  # atno 10764 bound_to 10752
  153.3589  135.7059  153.6797 H   0  0  0  0  0  0  0  0  0  0  0  0  # atno 10765 bound_to 10752
  140.2095  134.8278  157.3105 H   0  0  0  0  0  0  0  0  0  0  0  0  # atno 11005 bound_to 11000
  145.9009  140.9243  143.0503 LP  0  0  0  0  0  0  0  0  0  0  0  0  # atno 17320 bound_to 7965
  144.6727  140.1031  143.7459 LP  0  0  0  0  0  0  0  0  0  0  0  0  # atno 17321 bound_to 7965
  140.7051  143.2462  151.4751 LP  0  0  0  0  0  0  0  0  0  0  0  0  # atno 17342 bound_to 10162
  139.5749  144.1842  152.1889 LP  0  0  0  0  0  0  0  0  0  0  0  0  # atno 17343 bound_to 10162
  156.5054  130.4127  149.6330 LP  0  0  0  0  0  0  0  0  0  0  0  0  # atno 17370 bound_to 10713
  156.3289  130.7321  151.2247 LP  0  0  0  0  0  0  0  0  0  0  0  0  # atno 17371 bound_to 10713
  140.1966  134.4306  155.7686 LP  0  0  0  0  0  0  0  0  0  0  0  0  # atno 17394 bound_to 11000
  141.2226  133.7052  156.8115 LP  0  0  0  0  0  0  0  0  0  0  0  0  # atno 17395 bound_to 11000

$$$$
