AV-unprocessed.smi:480|AV-procd|sdf|2677|dock10
  -GOLD-   2262023103D 1   1.00000     0.00000
 Structure written by MMmdl.
 46 48  0  0  0  0  0  0  0  0  1 V2000
  152.2149  138.8622  155.0179 C   0  0  0  0  0  0  0  0  0  0  0  0
  151.0258  139.4919  155.7521 C   0  0  0  0  0  0  0  0  0  0  0  0
  151.4498  140.3617  156.8973 C   0  0  0  0  0  0  0  0  0  0  0  0
  151.2339  141.6777  156.8914 N   0  0  0  0  0  0  0  0  0  0  0  0
  151.7461  142.0765  158.1104 C   0  0  0  0  0  0  0  0  0  0  0  0
  151.8228  143.3587  158.7000 C   0  0  0  0  0  0  0  0  0  0  0  0
  152.3943  143.5232  159.9788 C   0  0  0  0  0  0  0  0  0  0  0  0
  152.8958  142.4107  160.6850 C   0  0  0  0  0  0  0  0  0  0  0  0
  152.8295  141.1245  160.1155 C   0  0  0  0  0  0  0  0  0  0  0  0
  152.2593  140.9661  158.8381 C   0  0  0  0  0  0  0  0  0  0  0  0
  152.0447  139.8667  158.0133 N   0  0  0  0  0  0  0  0  0  0  0  0
  152.3918  138.4870  158.3287 C   0  0  0  0  0  0  0  0  0  0  0  0
  151.2489  137.4956  158.0276 C   0  0  1  0  0  0  0  0  0  0  0  0
  151.8458  136.2479  157.7404 O   0  0  0  0  0  0  0  0  0  0  0  0
  150.2623  137.3027  159.1931 C   0  0  0  0  0  0  0  0  0  0  0  0
  149.5078  136.1214  158.9587 O   0  0  0  0  0  0  0  0  0  0  0  0
  148.5707  135.7483  159.8980 C   0  0  0  0  0  0  0  0  0  0  0  0
  147.9304  134.5071  159.7039 C   0  0  0  0  0  0  0  0  0  0  0  0
  146.9629  134.0437  160.6156 C   0  0  0  0  0  0  0  0  0  0  0  0
  146.6207  134.8221  161.7381 C   0  0  0  0  0  0  0  0  0  0  0  0
  145.5847  134.3210  162.7224 C   0  0  0  0  0  0  0  0  0  0  0  0
  144.3834  135.1694  162.7358 C   0  0  0  0  0  0  0  0  0  0  0  0
  143.4383  135.8367  162.7466 N   0  0  0  0  0  0  0  0  0  0  0  0
  147.2511  136.0654  161.9412 C   0  0  0  0  0  0  0  0  0  0  0  0
  148.2195  136.5281  161.0290 C   0  0  0  0  0  0  0  0  0  0  0  0
  151.8746  138.2288  154.1986 H   0  0  0  0  0  0  0  0  0  0  0  0
  152.8099  138.2448  155.6917 H   0  0  0  0  0  0  0  0  0  0  0  0
  152.8697  139.6261  154.5982 H   0  0  0  0  0  0  0  0  0  0  0  0
  150.4070  140.0609  155.0589 H   0  0  0  0  0  0  0  0  0  0  0  0
  150.3828  138.7006  156.1392 H   0  0  0  0  0  0  0  0  0  0  0  0
  151.4403  144.2172  158.1679 H   0  0  0  0  0  0  0  0  0  0  0  0
  152.4469  144.5076  160.4203 H   0  0  0  0  0  0  0  0  0  0  0  0
  153.3307  142.5447  161.6646 H   0  0  0  0  0  0  0  0  0  0  0  0
  153.2121  140.2702  160.6537 H   0  0  0  0  0  0  0  0  0  0  0  0
  153.2719  138.2246  157.7399 H   0  0  0  0  0  0  0  0  0  0  0  0
  152.7009  138.4123  159.3707 H   0  0  0  0  0  0  0  0  0  0  0  0
  150.7070  137.8350  157.1438 H   0  0  0  0  0  0  0  0  0  0  0  0
  152.3803  136.3446  156.9668 H   0  0  0  0  0  0  0  0  0  0  0  0
  150.7944  137.2612  160.1453 H   0  0  0  0  0  0  0  0  0  0  0  0
  149.5650  138.1396  159.2356 H   0  0  0  0  0  0  0  0  0  0  0  0
  148.1866  133.9013  158.8471 H   0  0  0  0  0  0  0  0  0  0  0  0
  146.4860  133.0883  160.4531 H   0  0  0  0  0  0  0  0  0  0  0  0
  145.2856  133.3028  162.4725 H   0  0  0  0  0  0  0  0  0  0  0  0
  146.0055  134.3020  163.7279 H   0  0  0  0  0  0  0  0  0  0  0  0
  146.9952  136.6683  162.8002 H   0  0  0  0  0  0  0  0  0  0  0  0
  148.6789  137.4859  161.2206 H   0  0  0  0  0  0  0  0  0  0  0  0
  1  2  1  0  0  0  0
  1 26  1  0  0  0  0
  1 27  1  0  0  0  0
  1 28  1  0  0  0  0
  2  3  1  0  0  0  0
  2 29  1  0  0  0  0
  2 30  1  0  0  0  0
  3 11  1  0  0  0  0
  3  4  2  0  0  0  0
  4  5  1  0  0  0  0
  5 10  2  0  0  0  0
  5  6  1  0  0  0  0
  6  7  2  0  0  0  0
  6 31  1  0  0  0  0
  7  8  1  0  0  0  0
  7 32  1  0  0  0  0
  8  9  2  0  0  0  0
  8 33  1  0  0  0  0
  9 10  1  0  0  0  0
  9 34  1  0  0  0  0
 10 11  1  0  0  0  0
 11 12  1  0  0  0  0
 12 13  1  0  0  0  0
 12 35  1  0  0  0  0
 12 36  1  0  0  0  0
 13 14  1  0  0  0  0
 13 15  1  0  0  0  0
 13 37  1  0  0  0  0
 14 38  1  0  0  0  0
 15 16  1  0  0  0  0
 15 39  1  0  0  0  0
 15 40  1  0  0  0  0
 16 17  1  0  0  0  0
 17 25  1  0  0  0  0
 17 18  2  0  0  0  0
 18 19  1  0  0  0  0
 18 41  1  0  0  0  0
 19 20  2  0  0  0  0
 19 42  1  0  0  0  0
 20 21  1  0  0  0  0
 20 24  1  0  0  0  0
 21 22  1  0  0  0  0
 21 43  1  0  0  0  0
 21 44  1  0  0  0  0
 22 23  3  0  0  0  0
 24 25  2  0  0  0  0
 24 45  1  0  0  0  0
 25 46  1  0  0  0  0
M  END
> <s_m_source_file>
AV-unprocessed.smi

> <i_m_source_file_index>
480

> <i_lp_mmshare_version>
43012

> <i_f3d_flags>
0

> <s_epik_input>
W2NIXTFbY0hdW2NIXVtjSF1jKGMxMiluKGMobjIpW0NIMl1bQ0gzXSlbQ0gyXVtDQEhdKFtPSF0pW0NIMl1PYzNbY0hdW2NIXWMoW0NIMl1DI04pW2NIXVtjSF0z

> <s_epik_cmdline>
J2VwaWtfcHl0aG9uJywgJy1waCcsICc3LjAnLCAnLXRuJywgJzgnLCAnLW1hJywgJzIwMCcsICctbWV0YWxfYmluZGluZycsICctaW1hZScsICc8aW5maWxlLm1hZT4nLCAnLW9tYWUnLCAnPG91dGZpbGUubWFlPic=

> <r_lp_tautomer_probability>
1

> <r_epik_Ionization_Penalty>
0.114213

> <r_epik_Ionization_Penalty_Charging>
0

> <r_epik_Ionization_Penalty_Neutral>
0.114213

> <r_epik_State_Penalty>
0.103875

> <r_epik_Charging_Adjusted_Penalty>
0.103875

> <i_epik_Tot_Q>
0

> <i_epik_Tot_abs_Q>
0

> <r_epik_Metal_State_Penalty>
0.000113526

> <b_epik_Metal_Only>
0

> <s_lp_Force_Field>
OPLS_2005

> <r_lp_Energy>
15.7981

> <b_lp_Chiralities_Consistent>
1

> <s_lp_Variant>
AV-unprocessed.smi:480-2

> <Gold.Version>
5.8.1

> <Gold.Id.Protein>
6NUR|6NUR_protein|mol2

> <Gold.PLP.Fitness>
50.0197

> <Gold.PLP.PLP>
-49.9607

> <Gold.PLP.part.hbond>
-1.9281

> <Gold.PLP.part.metal>
0.0000

> <Gold.PLP.part.buried>
-4.7785

> <Gold.PLP.part.nonpolar>
-44.2067

> <Gold.PLP.part.repulsive>
0.1173

> <Gold.PLP.ligand.clash>
0.0000

> <Gold.PLP.ligand.torsion>
0.7143

> <Gold.PLP.Chemscore.Hbond>
0.4500

> <Gold.PLP.Chemscore.CHOScore>
0.0000

> <Gold.PLP.Chemscore.Metal>
0.0000

> <Gold.Chemscore.Hbonds>
donor molecule, donor type, donor heavy atom, donor atom, acceptor molecule, acceptor atom, score
      P1  H  6896  6908       L1    16  0.44

> <Gold.PLP.Chemscore.Internal.Correction>
0.1377

> <Gold.Rescore>
     Score         DG    S(hbond)    S(metal)    S(lipo)     H(rot)  DE(clash)    DE(int)     intcor
     13.82     -14.48       0.00        0.00     133.27       2.58       0.15       0.51       ----

> <Gold.Chemscore.Fitness>
13.8249

> <Gold.Chemscore.DG>
-14.4796

> <Gold.Chemscore.ZeroCoef>
-5.4800

> <Gold.Chemscore.Hbond>
0.0005

> <Gold.Chemscore.Metal>
0.0000

> <Gold.Chemscore.Lipo>
133.2673

> <Gold.Chemscore.Internal_Hbond>
0.0000

> <Gold.Chemscore.DEClash>
0.1482

> <Gold.Chemscore.DEInternal>
0.5065

> <Gold.Chemscore.Rot>
2.5759

> <Gold.Chemscore.Internal.Correction>
   9.000000E+99

> <Gold.Chemscore.Hbonds>
donor molecule, donor type, donor heavy atom, donor atom, acceptor molecule, acceptor atom, score
      P1  H  6896  6908       L1    16  0.01

> <Gold.Chemscore.Hbond.Weighted>
-0.0017

> <Gold.Chemscore.Metal.Weighted>
-0.0000

> <Gold.Chemscore.Lipo.Weighted>
-15.5923

> <Gold.Chemscore.Internal_Hbond.Weighted>
0.0000

> <Gold.Chemscore.DEClash.Weighted>
0.1482

> <Gold.Chemscore.DEInternal.Weighted>
0.5065

> <Gold.Chemscore.Rot.Weighted>
6.5943

> <Gold.Chemscore.Internal.Correction.Weighted>
   9.000000E+99

> <Gold.Protein.RotatedTorsions>
[ 6907 6896 6895 6894 ] final  165.49 input  -60.11 | X-H torsion
[ 7974 7965 7964 7962 ] final  129.82 input  175.53 | X-H torsion
[ 8008 7997 7996 7995 ] final   76.91 input   59.86 | X-H torsion
[ 10167 10162 10161 10158 ] final -148.00 input  -65.29 | X-H torsion
[ 10718 10713 10712 10709 ] final  -81.53 input   66.30 | X-H torsion
[ 10763 10752 10751 10750 ] final  131.07 input  -60.55 | X-H torsion
[ 11005 11000 10999 10996 ] final -145.59 input  -57.11 | X-H torsion

> <Gold.Protein.ActiveResidues>
 VAL166  LYS551  ARG553  GLY616  TRP617  ASP618  TYR619  PRO620  LYS621  CYS622 
 ASP623  PHE694  ASN695  SER759  ASP760  ASP761  ALA762  ILE779  LEU786  VAL792 
 PHE793  MET794  SER795  GLU796  ALA797  LYS798  CYS799  TRP800  GLU811  SER814 

> <Gold.Protein.RotatedAtoms>
  151.8936  133.3521  159.3806 H   0  0  0  0  0  0  0  0  0  0  0  0  # atno 6907 bound_to 6896
  150.7097  134.4899  159.5520 H   0  0  0  0  0  0  0  0  0  0  0  0  # atno 6908 bound_to 6896
  152.2474  134.8168  160.0502 H   0  0  0  0  0  0  0  0  0  0  0  0  # atno 6909 bound_to 6896
  145.0246  139.4101  143.5180 H   0  0  0  0  0  0  0  0  0  0  0  0  # atno 7974 bound_to 7965
  155.8341  140.3465  155.5591 H   0  0  0  0  0  0  0  0  0  0  0  0  # atno 8008 bound_to 7997
  155.8210  140.0913  157.1868 H   0  0  0  0  0  0  0  0  0  0  0  0  # atno 8009 bound_to 7997
  154.4004  140.1430  156.3488 H   0  0  0  0  0  0  0  0  0  0  0  0  # atno 8010 bound_to 7997
  139.7571  143.8432  152.2599 H   0  0  0  0  0  0  0  0  0  0  0  0  # atno 10167 bound_to 10162
  156.0049  130.4606  150.3966 H   0  0  0  0  0  0  0  0  0  0  0  0  # atno 10718 bound_to 10713
  153.7683  135.3186  155.3348 H   0  0  0  0  0  0  0  0  0  0  0  0  # atno 10763 bound_to 10752
  154.8205  135.4606  154.0769 H   0  0  0  0  0  0  0  0  0  0  0  0  # atno 10764 bound_to 10752
  153.2021  135.6924  153.8302 H   0  0  0  0  0  0  0  0  0  0  0  0  # atno 10765 bound_to 10752
  140.7907  134.2972  157.5014 H   0  0  0  0  0  0  0  0  0  0  0  0  # atno 11005 bound_to 11000
  146.3490  139.9762  142.8700 LP  0  0  0  0  0  0  0  0  0  0  0  0  # atno 17320 bound_to 7965
  145.1851  140.9785  143.4244 LP  0  0  0  0  0  0  0  0  0  0  0  0  # atno 17321 bound_to 7965
  139.8427  144.7202  150.9311 LP  0  0  0  0  0  0  0  0  0  0  0  0  # atno 17342 bound_to 10162
  140.7804  143.3969  151.1215 LP  0  0  0  0  0  0  0  0  0  0  0  0  # atno 17343 bound_to 10162
  157.2038  131.0444  151.2636 LP  0  0  0  0  0  0  0  0  0  0  0  0  # atno 17370 bound_to 10713
  157.3952  130.7303  149.6726 LP  0  0  0  0  0  0  0  0  0  0  0  0  # atno 17371 bound_to 10713
  139.8731  134.9372  156.3682 LP  0  0  0  0  0  0  0  0  0  0  0  0  # atno 17394 bound_to 11000
  140.9393  133.7526  156.0125 LP  0  0  0  0  0  0  0  0  0  0  0  0  # atno 17395 bound_to 11000

$$$$
