AV-unprocessed.smi:1160|AV-procd|sdf|4916|dock5
  -GOLD-   22720 3493D 1   1.00000     0.00000
 Structure written by MMmdl.
 44 45  0  0  0  0  0  0  0  0  1 V2000
  146.1360  133.0817  151.5446 C   0  0  0  0  0  0  0  0  0  0  0  0
  146.7970  132.3578  152.7201 C   0  0  0  0  0  0  0  0  0  0  0  0
  147.8531  133.1710  153.2223 O   0  0  0  0  0  0  0  0  0  0  0  0
  148.6727  132.6600  154.2111 C   0  0  0  0  0  0  0  0  0  0  0  0
  148.5358  131.3538  154.5511 N   0  0  0  0  0  0  0  0  0  0  0  0
  149.3390  130.8521  155.5112 C   0  0  0  0  0  0  0  0  0  0  0  0
  150.3174  131.6157  156.1731 C   0  0  0  0  0  0  0  0  0  0  0  0
  150.4612  132.9710  155.8228 C   0  0  0  0  0  0  0  0  0  0  0  0
  149.6149  133.5171  154.8268 C   0  0  0  0  0  0  0  0  0  0  0  0
  149.6773  134.8679  154.3841 N   0  0  0  0  0  0  0  0  0  0  0  0
  150.3726  135.8961  154.8995 C   0  0  0  0  0  0  0  0  0  0  0  0
  151.1304  135.8313  155.8668 O   0  0  0  0  0  0  0  0  0  0  0  0
  150.1211  137.0285  154.2270 N   0  0  0  0  0  0  0  0  0  0  0  0
  150.6783  138.3445  154.5277 C   0  0  0  0  0  0  0  0  0  0  0  0
  152.1758  138.2053  154.8744 C   0  0  0  0  0  0  0  0  0  0  0  0
  152.7531  139.5330  155.3957 C   0  0  0  0  0  0  0  0  0  0  0  0
  151.9607  139.9732  156.5500 N   0  0  0  0  0  0  0  0  0  0  0  0
  152.4419  139.9573  157.8164 C   0  0  0  0  0  0  0  0  0  0  0  0
  151.5293  140.3793  158.9699 C   0  0  0  0  0  0  0  0  0  0  0  0
  153.5934  139.6156  158.0864 O   0  0  0  0  0  0  0  0  0  0  0  0
  150.5782  140.2891  156.1685 C   0  0  0  0  0  0  0  0  0  0  0  0
  149.8887  139.0018  155.6809 C   0  0  0  0  0  0  0  0  0  0  0  0
  145.3236  132.4861  151.1278 H   0  0  0  0  0  0  0  0  0  0  0  0
  146.8554  133.2704  150.7475 H   0  0  0  0  0  0  0  0  0  0  0  0
  145.7220  134.0408  151.8572 H   0  0  0  0  0  0  0  0  0  0  0  0
  146.0560  132.1730  153.4995 H   0  0  0  0  0  0  0  0  0  0  0  0
  147.1833  131.3940  152.3840 H   0  0  0  0  0  0  0  0  0  0  0  0
  149.2018  129.8089  155.7543 H   0  0  0  0  0  0  0  0  0  0  0  0
  150.9467  131.1713  156.9298 H   0  0  0  0  0  0  0  0  0  0  0  0
  151.2234  133.5538  156.3154 H   0  0  0  0  0  0  0  0  0  0  0  0
  149.0512  135.0961  153.6256 H   0  0  0  0  0  0  0  0  0  0  0  0
  149.4809  136.9801  153.4480 H   0  0  0  0  0  0  0  0  0  0  0  0
  150.6041  138.9989  153.6571 H   0  0  0  0  0  0  0  0  0  0  0  0
  152.3109  137.4353  155.6358 H   0  0  0  0  0  0  0  0  0  0  0  0
  152.7339  137.8741  153.9978 H   0  0  0  0  0  0  0  0  0  0  0  0
  153.8113  139.4109  155.6300 H   0  0  0  0  0  0  0  0  0  0  0  0
  152.7091  140.2940  154.6151 H   0  0  0  0  0  0  0  0  0  0  0  0
  150.6477  139.7399  159.0207 H   0  0  0  0  0  0  0  0  0  0  0  0
  151.2113  141.4154  158.8519 H   0  0  0  0  0  0  0  0  0  0  0  0
  152.0534  140.2993  159.9229 H   0  0  0  0  0  0  0  0  0  0  0  0
  149.9947  140.7396  156.9701 H   0  0  0  0  0  0  0  0  0  0  0  0
  150.5904  141.0298  155.3676 H   0  0  0  0  0  0  0  0  0  0  0  0
  148.8709  139.2243  155.3581 H   0  0  0  0  0  0  0  0  0  0  0  0
  149.8023  138.3055  156.5168 H   0  0  0  0  0  0  0  0  0  0  0  0
  1  2  1  0  0  0  0
  1 23  1  0  0  0  0
  1 24  1  0  0  0  0
  1 25  1  0  0  0  0
  2  3  1  0  0  0  0
  2 26  1  0  0  0  0
  2 27  1  0  0  0  0
  3  4  1  0  0  0  0
  4  9  1  0  0  0  0
  4  5  2  0  0  0  0
  5  6  1  0  0  0  0
  6  7  2  0  0  0  0
  6 28  1  0  0  0  0
  7  8  1  0  0  0  0
  7 29  1  0  0  0  0
  8  9  2  0  0  0  0
  8 30  1  0  0  0  0
  9 10  1  0  0  0  0
 10 11  1  0  0  0  0
 10 31  1  0  0  0  0
 11 12  2  0  0  0  0
 11 13  1  0  0  0  0
 13 14  1  0  0  0  0
 13 32  1  0  0  0  0
 14 22  1  0  0  0  0
 14 15  1  0  0  0  0
 14 33  1  0  0  0  0
 15 16  1  0  0  0  0
 15 34  1  0  0  0  0
 15 35  1  0  0  0  0
 16 17  1  0  0  0  0
 16 36  1  0  0  0  0
 16 37  1  0  0  0  0
 17 18  1  0  0  0  0
 17 21  1  0  0  0  0
 18 19  1  0  0  0  0
 18 20  2  0  0  0  0
 19 38  1  0  0  0  0
 19 39  1  0  0  0  0
 19 40  1  0  0  0  0
 21 22  1  0  0  0  0
 21 41  1  0  0  0  0
 21 42  1  0  0  0  0
 22 43  1  0  0  0  0
 22 44  1  0  0  0  0
M  END
> <s_m_source_file>
AV-unprocessed.smi

> <i_m_source_file_index>
1160

> <i_lp_mmshare_version>
43012

> <i_f3d_flags>
0

> <s_epik_input>
W0NIM11bQ0gyXU9jMW5bY0hdW2NIXVtjSF1jMVtOSF1DKD1PKVtOSF1bQ0hdMltDSDJdW0NIMl1OKEMoPU8pW0NIM10pW0NIMl1bQ0gyXTI=

> <s_epik_cmdline>
J2VwaWtfcHl0aG9uJywgJy1waCcsICc3LjAnLCAnLXRuJywgJzgnLCAnLW1hJywgJzIwMCcsICctbWV0YWxfYmluZGluZycsICctaW1hZScsICc8aW5maWxlLm1hZT4nLCAnLW9tYWUnLCAnPG91dGZpbGUubWFlPic=

> <r_lp_tautomer_probability>
1

> <r_epik_Ionization_Penalty>
0.00011666

> <r_epik_Ionization_Penalty_Charging>
0

> <r_epik_Ionization_Penalty_Neutral>
0.00011666

> <r_epik_State_Penalty>
-0

> <r_epik_Charging_Adjusted_Penalty>
0

> <i_epik_Tot_Q>
0

> <i_epik_Tot_abs_Q>
0

> <r_epik_Metal_State_Penalty>
-0

> <b_epik_Metal_Only>
0

> <s_lp_Force_Field>
OPLS_2005

> <r_lp_Energy>
24.4955

> <b_lp_Chiralities_Consistent>
1

> <s_lp_Variant>
AV-unprocessed.smi:1160-1

> <Gold.Version>
5.8.1

> <Gold.Id.Protein>
6NUR|6NUR_protein|mol2

> <Gold.PLP.Fitness>
46.2215

> <Gold.PLP.PLP>
-35.4585

> <Gold.PLP.part.hbond>
-5.4053

> <Gold.PLP.part.metal>
0.0000

> <Gold.PLP.part.buried>
1.6907

> <Gold.PLP.part.nonpolar>
-31.5845

> <Gold.PLP.part.repulsive>
0.4038

> <Gold.PLP.ligand.clash>
0.0000

> <Gold.PLP.ligand.torsion>
0.3601

> <Gold.PLP.Chemscore.Hbond>
3.8208

> <Gold.PLP.Chemscore.CHOScore>
0.0000

> <Gold.PLP.Chemscore.Metal>
0.0000

> <Gold.Chemscore.Hbonds>
donor molecule, donor type, donor heavy atom, donor atom, acceptor molecule, acceptor atom, score
      L1  H    10    31       P1  7948  0.74
      L1  H    13    32       P1  7948  0.99
      P1  H  7997  8010       L1    20  1.00
      P1  H 10752 10763       L1    12  0.65

> <Gold.PLP.Chemscore.Internal.Correction>
0.0207

> <Gold.Rescore>
     Score         DG    S(hbond)    S(metal)    S(lipo)     H(rot)  DE(clash)    DE(int)     intcor
     12.46     -17.48       2.09        0.00      74.08       1.43       2.16       2.86       ----

> <Gold.Chemscore.Fitness>
12.4643

> <Gold.Chemscore.DG>
-17.4781

> <Gold.Chemscore.ZeroCoef>
-5.4800

> <Gold.Chemscore.Hbond>
2.0931

> <Gold.Chemscore.Metal>
0.0000

> <Gold.Chemscore.Lipo>
74.0789

> <Gold.Chemscore.Internal_Hbond>
0.0000

> <Gold.Chemscore.DEClash>
2.1584

> <Gold.Chemscore.DEInternal>
2.8554

> <Gold.Chemscore.Rot>
1.4297

> <Gold.Chemscore.Internal.Correction>
   9.000000E+99

> <Gold.Chemscore.Hbonds>
donor molecule, donor type, donor heavy atom, donor atom, acceptor molecule, acceptor atom, score
      L1  H    10    31       P1  7948  0.28
      L1  H    13    32       P1  7948  0.82
      P1  H  7997  8010       L1    20  0.65
      P1  H 10752 10763       L1    12  0.14

> <Gold.Chemscore.Hbond.Weighted>
-6.9908

> <Gold.Chemscore.Metal.Weighted>
-0.0000

> <Gold.Chemscore.Lipo.Weighted>
-8.6672

> <Gold.Chemscore.Internal_Hbond.Weighted>
0.0000

> <Gold.Chemscore.DEClash.Weighted>
2.1584

> <Gold.Chemscore.DEInternal.Weighted>
2.8554

> <Gold.Chemscore.Rot.Weighted>
3.6600

> <Gold.Chemscore.Internal.Correction.Weighted>
   9.000000E+99

> <Gold.Protein.RotatedTorsions>
[ 6907 6896 6895 6894 ] final  -32.54 input  -60.11 | X-H torsion
[ 7974 7965 7964 7962 ] final   99.55 input  175.53 | X-H torsion
[ 8008 7997 7996 7995 ] final   41.32 input   59.86 | X-H torsion
[ 10167 10162 10161 10158 ] final  126.41 input  -65.29 | X-H torsion
[ 10718 10713 10712 10709 ] final   98.25 input   66.30 | X-H torsion
[ 10763 10752 10751 10750 ] final   72.56 input  -60.55 | X-H torsion
[ 11005 11000 10999 10996 ] final -154.59 input  -57.11 | X-H torsion

> <Gold.Protein.ActiveResidues>
 VAL166  LYS551  ARG553  GLY616  TRP617  ASP618  TYR619  PRO620  LYS621  CYS622 
 ASP623  PHE694  ASN695  SER759  ASP760  ASP761  ALA762  ILE779  LEU786  VAL792 
 PHE793  MET794  SER795  GLU796  ALA797  LYS798  CYS799  TRP800  GLU811  SER814 

> <Gold.Protein.RotatedAtoms>
  151.0774  134.9836  159.8338 H   0  0  0  0  0  0  0  0  0  0  0  0  # atno 6907 bound_to 6896
  152.5415  134.2224  159.8803 H   0  0  0  0  0  0  0  0  0  0  0  0  # atno 6908 bound_to 6896
  151.2252  133.4437  159.2635 H   0  0  0  0  0  0  0  0  0  0  0  0  # atno 6909 bound_to 6896
  145.3974  139.2353  143.3319 H   0  0  0  0  0  0  0  0  0  0  0  0  # atno 7974 bound_to 7965
  155.2677  140.3364  155.4268 H   0  0  0  0  0  0  0  0  0  0  0  0  # atno 8008 bound_to 7997
  156.2147  140.1784  156.7659 H   0  0  0  0  0  0  0  0  0  0  0  0  # atno 8009 bound_to 7997
  154.5736  140.0666  156.8985 H   0  0  0  0  0  0  0  0  0  0  0  0  # atno 8010 bound_to 7997
  139.5632  144.6895  151.3982 H   0  0  0  0  0  0  0  0  0  0  0  0  # atno 10167 bound_to 10162
  157.6899  131.0634  150.4767 H   0  0  0  0  0  0  0  0  0  0  0  0  # atno 10718 bound_to 10713
  153.0466  135.5095  154.7762 H   0  0  0  0  0  0  0  0  0  0  0  0  # atno 10763 bound_to 10752
  154.6657  135.2945  154.9811 H   0  0  0  0  0  0  0  0  0  0  0  0  # atno 10764 bound_to 10752
  154.0646  135.6686  153.4869 H   0  0  0  0  0  0  0  0  0  0  0  0  # atno 10765 bound_to 10752
  140.6957  134.3993  157.5215 H   0  0  0  0  0  0  0  0  0  0  0  0  # atno 11005 bound_to 11000
  146.2768  140.4666  142.8792 LP  0  0  0  0  0  0  0  0  0  0  0  0  # atno 17320 bound_to 7965
  144.8398  140.6839  143.6237 LP  0  0  0  0  0  0  0  0  0  0  0  0  # atno 17321 bound_to 7965
  140.6914  143.7852  150.7261 LP  0  0  0  0  0  0  0  0  0  0  0  0  # atno 17342 bound_to 10162
  140.1335  143.4504  152.2239 LP  0  0  0  0  0  0  0  0  0  0  0  0  # atno 17343 bound_to 10162
  156.5102  130.4137  149.6305 LP  0  0  0  0  0  0  0  0  0  0  0  0  # atno 17370 bound_to 10713
  156.3248  130.7300  151.2218 LP  0  0  0  0  0  0  0  0  0  0  0  0  # atno 17371 bound_to 10713
  139.8911  134.8789  156.2338 LP  0  0  0  0  0  0  0  0  0  0  0  0  # atno 17394 bound_to 11000
  141.0205  133.7044  156.1260 LP  0  0  0  0  0  0  0  0  0  0  0  0  # atno 17395 bound_to 11000

$$$$
