AV-unprocessed.smi:91|AV-procd|sdf|835|dock8
  -GOLD-   2262017263D 1   1.00000     0.00000
 Structure written by MMmdl.
 60 63  0  0  0  0  0  0  0  0  1 V2000
  152.8635  142.5394  162.2394 C   0  0  0  0  0  0  0  0  0  0  0  0
  153.8581  142.3608  161.2466 O   0  0  0  0  0  0  0  0  0  0  0  0
  153.5722  141.2750  160.3790 C   0  0  0  0  0  0  0  0  0  0  0  0
  152.3668  141.6128  159.4906 C   0  0  2  0  0  0  0  0  0  0  0  0
  152.1450  140.5860  158.3663 C   0  0  0  0  0  0  0  0  0  0  0  0
  151.0588  141.0231  157.4984 N   0  0  0  0  0  0  0  0  0  0  0  0
  150.5769  140.0665  156.6647 C   0  0  0  0  0  0  0  0  0  0  0  0
  150.6557  140.2349  155.3170 N   0  0  0  0  0  0  0  0  0  0  0  0
  150.1962  139.2919  154.4891 C   0  0  0  0  0  0  0  0  0  0  0  0
  149.6275  138.1231  154.7895 N   0  0  0  0  0  0  0  0  0  0  0  0
  149.5358  137.9524  156.1391 C   0  0  0  0  0  0  0  0  0  0  0  0
  149.9788  138.8643  157.1384 C   0  0  0  0  0  0  0  0  0  0  0  0
  149.7027  138.3508  158.4009 N   0  0  0  0  0  0  0  0  0  0  0  0
  149.1382  137.1986  158.1613 C   0  0  0  0  0  0  0  0  0  0  0  0
  149.0060  136.8778  156.8296 N   0  0  0  0  0  0  0  0  0  0  0  0
  148.4253  135.6676  156.2764 C   0  0  0  0  0  0  0  0  0  0  0  0
  149.4462  134.8083  155.4901 C   0  0  1  0  0  0  0  0  0  0  0  0
  150.6815  134.4234  156.3400 C   0  0  0  0  0  0  0  0  0  0  0  0
  150.3241  133.5924  157.4255 O   0  0  0  0  0  0  0  0  0  0  0  0
  148.7676  133.5770  154.8388 C   0  0  2  0  0  0  0  0  0  0  0  0
  149.6798  132.7215  153.9773 C   0  0  0  0  0  0  0  0  0  0  0  0
  148.6832  131.9320  153.1359 C   0  0  0  0  0  0  0  0  0  0  0  0
  147.5628  132.7914  152.9588 O   0  0  0  0  0  0  0  0  0  0  0  0
  147.6716  133.9177  153.8233 C   0  0  0  0  0  0  0  0  0  0  0  0
  151.2745  142.3620  156.9555 C   0  0  0  0  0  0  0  0  0  0  0  0
  151.5158  143.3908  158.0833 C   0  0  0  0  0  0  0  0  0  0  0  0
  152.0457  144.7015  157.4815 C   0  0  0  0  0  0  0  0  0  0  0  0
  150.2276  143.6846  158.8816 C   0  0  0  0  0  0  0  0  0  0  0  0
  152.5579  142.9184  158.9444 O   0  0  0  0  0  0  0  0  0  0  0  0
  153.1285  143.3835  162.8759 H   0  0  0  0  0  0  0  0  0  0  0  0
  152.7749  141.6555  162.8724 H   0  0  0  0  0  0  0  0  0  0  0  0
  151.8913  142.7482  161.7909 H   0  0  0  0  0  0  0  0  0  0  0  0
  154.4420  141.0698  159.7527 H   0  0  0  0  0  0  0  0  0  0  0  0
  153.3676  140.3721  160.9565 H   0  0  0  0  0  0  0  0  0  0  0  0
  151.4883  141.6265  160.1356 H   0  0  0  0  0  0  0  0  0  0  0  0
  153.0477  140.4815  157.7629 H   0  0  0  0  0  0  0  0  0  0  0  0
  151.9428  139.6085  158.8028 H   0  0  0  0  0  0  0  0  0  0  0  0
  150.3005  139.5040  153.4351 H   0  0  0  0  0  0  0  0  0  0  0  0
  148.8074  136.5429  158.9540 H   0  0  0  0  0  0  0  0  0  0  0  0
  147.9902  135.0885  157.0918 H   0  0  0  0  0  0  0  0  0  0  0  0
  147.5958  135.9643  155.6344 H   0  0  0  0  0  0  0  0  0  0  0  0
  149.8217  135.4315  154.6769 H   0  0  0  0  0  0  0  0  0  0  0  0
  151.4254  133.9067  155.7342 H   0  0  0  0  0  0  0  0  0  0  0  0
  151.1807  135.3111  156.7281 H   0  0  0  0  0  0  0  0  0  0  0  0
  149.4141  133.7428  157.6317 H   0  0  0  0  0  0  0  0  0  0  0  0
  148.3338  132.9447  155.6153 H   0  0  0  0  0  0  0  0  0  0  0  0
  150.2973  133.3498  153.3338 H   0  0  0  0  0  0  0  0  0  0  0  0
  150.3379  132.0728  154.5561 H   0  0  0  0  0  0  0  0  0  0  0  0
  149.1020  131.6175  152.1798 H   0  0  0  0  0  0  0  0  0  0  0  0
  148.3553  131.0406  153.6721 H   0  0  0  0  0  0  0  0  0  0  0  0
  146.7156  134.1388  154.2986 H   0  0  0  0  0  0  0  0  0  0  0  0
  147.9560  134.7824  153.2216 H   0  0  0  0  0  0  0  0  0  0  0  0
  152.1397  142.3309  156.2913 H   0  0  0  0  0  0  0  0  0  0  0  0
  150.4184  142.6690  156.3527 H   0  0  0  0  0  0  0  0  0  0  0  0
  151.3290  145.1368  156.7844 H   0  0  0  0  0  0  0  0  0  0  0  0
  152.9772  144.5379  156.9383 H   0  0  0  0  0  0  0  0  0  0  0  0
  152.2451  145.4408  158.2578 H   0  0  0  0  0  0  0  0  0  0  0  0
  149.4768  144.1582  158.2487 H   0  0  0  0  0  0  0  0  0  0  0  0
  150.4276  144.3588  159.7150 H   0  0  0  0  0  0  0  0  0  0  0  0
  149.7728  142.7819  159.2880 H   0  0  0  0  0  0  0  0  0  0  0  0
  1  2  1  0  0  0  0
  1 30  1  0  0  0  0
  1 31  1  0  0  0  0
  1 32  1  0  0  0  0
  2  3  1  0  0  0  0
  3  4  1  0  0  0  0
  3 33  1  0  0  0  0
  3 34  1  0  0  0  0
  4 29  1  0  0  0  0
  4  5  1  0  0  0  0
  4 35  1  0  0  0  0
  5  6  1  0  0  0  0
  5 36  1  0  0  0  0
  5 37  1  0  0  0  0
  6  7  1  0  0  0  0
  6 25  1  0  0  0  0
  7 12  1  0  0  0  0
  7  8  2  0  0  0  0
  8  9  1  0  0  0  0
  9 10  2  0  0  0  0
  9 38  1  0  0  0  0
 10 11  1  0  0  0  0
 11 15  1  0  0  0  0
 11 12  2  0  0  0  0
 12 13  1  0  0  0  0
 13 14  2  0  0  0  0
 14 15  1  0  0  0  0
 14 39  1  0  0  0  0
 15 16  1  0  0  0  0
 16 17  1  0  0  0  0
 16 40  1  0  0  0  0
 16 41  1  0  0  0  0
 17 18  1  0  0  0  0
 17 20  1  0  0  0  0
 17 42  1  0  0  0  0
 18 19  1  0  0  0  0
 18 43  1  0  0  0  0
 18 44  1  0  0  0  0
 19 45  1  0  0  0  0
 20 24  1  0  0  0  0
 20 21  1  0  0  0  0
 20 46  1  0  0  0  0
 21 22  1  0  0  0  0
 21 47  1  0  0  0  0
 21 48  1  0  0  0  0
 22 23  1  0  0  0  0
 22 49  1  0  0  0  0
 22 50  1  0  0  0  0
 23 24  1  0  0  0  0
 24 51  1  0  0  0  0
 24 52  1  0  0  0  0
 25 26  1  0  0  0  0
 25 53  1  0  0  0  0
 25 54  1  0  0  0  0
 26 27  1  0  0  0  0
 26 28  1  0  0  0  0
 26 29  1  0  0  0  0
 27 55  1  0  0  0  0
 27 56  1  0  0  0  0
 27 57  1  0  0  0  0
 28 58  1  0  0  0  0
 28 59  1  0  0  0  0
 28 60  1  0  0  0  0
M  END
> <s_m_source_file>
AV-unprocessed.smi

> <i_m_source_file_index>
91

> <i_lp_mmshare_version>
43012

> <i_f3d_flags>
0

> <s_epik_input>
W0NIM11PW0NIMl1bQ0BASF0oTzEpW0NIMl1OKFtDSDJdQzEoW0NIM10pW0NIM10pYyhuW2NIXW4yKWMoYzIzKW5bY0hdbjNbQ0gyXVtDQEhdKFtDSDJdW09IXSlbQ0BASF00W0NIMl1bQ0gyXU9bQ0gyXTQ=

> <s_epik_cmdline>
J2VwaWtfcHl0aG9uJywgJy1waCcsICc3LjAnLCAnLXRuJywgJzgnLCAnLW1hJywgJzIwMCcsICctbWV0YWxfYmluZGluZycsICctaW1hZScsICc8aW5maWxlLm1hZT4nLCAnLW9tYWUnLCAnPG91dGZpbGUubWFlPic=

> <r_lp_tautomer_probability>
1

> <r_epik_Ionization_Penalty>
8.63591e-05

> <r_epik_Ionization_Penalty_Charging>
0

> <r_epik_Ionization_Penalty_Neutral>
8.63591e-05

> <r_epik_State_Penalty>
-0

> <r_epik_Charging_Adjusted_Penalty>
0

> <i_epik_Tot_Q>
0

> <i_epik_Tot_abs_Q>
0

> <r_epik_Metal_State_Penalty>
-0

> <b_epik_Metal_Only>
0

> <s_lp_Force_Field>
OPLS_2005

> <r_lp_Energy>
46.4326

> <b_lp_Chiralities_Consistent>
1

> <s_lp_Variant>
AV-unprocessed.smi:91-3

> <Gold.Version>
5.8.1

> <Gold.Id.Protein>
6NUR|6NUR_protein|mol2

> <Gold.PLP.Fitness>
48.1881

> <Gold.PLP.PLP>
-42.2261

> <Gold.PLP.part.hbond>
-2.1933

> <Gold.PLP.part.metal>
0.0000

> <Gold.PLP.part.buried>
-6.0347

> <Gold.PLP.part.nonpolar>
-33.7867

> <Gold.PLP.part.repulsive>
0.3481

> <Gold.PLP.ligand.clash>
0.0000

> <Gold.PLP.ligand.torsion>
0.3951

> <Gold.PLP.Chemscore.Hbond>
1.0682

> <Gold.PLP.Chemscore.CHOScore>
1.0000

> <Gold.PLP.Chemscore.Metal>
0.0000

> <Gold.Chemscore.Hbonds>
donor molecule, donor type, donor heavy atom, donor atom, acceptor molecule, acceptor atom, score
      P1  H  6896  6909       L1    19  0.57
      P1  H  7989  7998       L1     8  0.03
      L1  C     9    38       P1  7957  1.00

> <Gold.PLP.Chemscore.Internal.Correction>
0.5474

> <Gold.Rescore>
     Score         DG    S(hbond)    S(metal)    S(lipo)     H(rot)  DE(clash)    DE(int)     intcor
     12.86     -13.51       0.94        0.00     108.18       3.03       0.21       0.44       ----

> <Gold.Chemscore.Fitness>
12.8573

> <Gold.Chemscore.DG>
-13.5082

> <Gold.Chemscore.ZeroCoef>
-5.4800

> <Gold.Chemscore.Hbond>
0.9353

> <Gold.Chemscore.Metal>
0.0000

> <Gold.Chemscore.Lipo>
108.1811

> <Gold.Chemscore.Internal_Hbond>
0.0000

> <Gold.Chemscore.DEClash>
0.2123

> <Gold.Chemscore.DEInternal>
0.4386

> <Gold.Chemscore.Rot>
3.0284

> <Gold.Chemscore.Internal.Correction>
   9.000000E+99

> <Gold.Chemscore.Hbonds>
donor molecule, donor type, donor heavy atom, donor atom, acceptor molecule, acceptor atom, score
      P1  H  6896  6909       L1    19  0.04

> <Gold.Chemscore.Hbond.Weighted>
-3.1239

> <Gold.Chemscore.Metal.Weighted>
-0.0000

> <Gold.Chemscore.Lipo.Weighted>
-12.6572

> <Gold.Chemscore.Internal_Hbond.Weighted>
0.0000

> <Gold.Chemscore.DEClash.Weighted>
0.2123

> <Gold.Chemscore.DEInternal.Weighted>
0.4386

> <Gold.Chemscore.Rot.Weighted>
7.7528

> <Gold.Chemscore.Internal.Correction.Weighted>
   9.000000E+99

> <Gold.Protein.RotatedTorsions>
[ 6907 6896 6895 6894 ] final   -2.94 input  -60.11 | X-H torsion
[ 7974 7965 7964 7962 ] final  -47.18 input  175.53 | X-H torsion
[ 8008 7997 7996 7995 ] final   24.98 input   59.86 | X-H torsion
[ 10167 10162 10161 10158 ] final   98.72 input  -65.29 | X-H torsion
[ 10718 10713 10712 10709 ] final -131.40 input   66.30 | X-H torsion
[ 10763 10752 10751 10750 ] final -135.04 input  -60.55 | X-H torsion
[ 11005 11000 10999 10996 ] final -130.41 input  -57.11 | X-H torsion

> <Gold.Protein.ActiveResidues>
 VAL166  LYS551  ARG553  GLY616  TRP617  ASP618  TYR619  PRO620  LYS621  CYS622 
 ASP623  PHE694  ASN695  SER759  ASP760  ASP761  ALA762  ILE779  LEU786  VAL792 
 PHE793  MET794  SER795  GLU796  ALA797  LYS798  CYS799  TRP800  GLU811  SER814 

> <Gold.Protein.RotatedAtoms>
  151.5217  135.1067  159.9879 H   0  0  0  0  0  0  0  0  0  0  0  0  # atno 6907 bound_to 6896
  152.4617  133.7833  159.6873 H   0  0  0  0  0  0  0  0  0  0  0  0  # atno 6908 bound_to 6896
  150.8583  133.7618  159.3026 H   0  0  0  0  0  0  0  0  0  0  0  0  # atno 6909 bound_to 6896
  145.9643  140.7448  142.9442 H   0  0  0  0  0  0  0  0  0  0  0  0  # atno 7974 bound_to 7965
  155.0047  140.3129  155.4853 H   0  0  0  0  0  0  0  0  0  0  0  0  # atno 8008 bound_to 7997
  156.2919  140.2225  156.5100 H   0  0  0  0  0  0  0  0  0  0  0  0  # atno 8009 bound_to 7997
  154.7587  140.0460  157.0943 H   0  0  0  0  0  0  0  0  0  0  0  0  # atno 8010 bound_to 7997
  139.7682  144.6931  151.0193 H   0  0  0  0  0  0  0  0  0  0  0  0  # atno 10167 bound_to 10162
  156.2241  130.6996  151.0788 H   0  0  0  0  0  0  0  0  0  0  0  0  # atno 10718 bound_to 10713
  154.8709  135.3716  154.4833 H   0  0  0  0  0  0  0  0  0  0  0  0  # atno 10763 bound_to 10752
  153.5485  135.7025  153.5607 H   0  0  0  0  0  0  0  0  0  0  0  0  # atno 10764 bound_to 10752
  153.3737  135.4014  155.1771 H   0  0  0  0  0  0  0  0  0  0  0  0  # atno 10765 bound_to 10752
  140.9348  134.1272  157.4203 H   0  0  0  0  0  0  0  0  0  0  0  0  # atno 11005 bound_to 11000
  144.6822  140.2643  143.7314 LP  0  0  0  0  0  0  0  0  0  0  0  0  # atno 17320 bound_to 7965
  145.7996  139.1959  143.2056 LP  0  0  0  0  0  0  0  0  0  0  0  0  # atno 17321 bound_to 7965
  140.7812  143.4618  151.0267 LP  0  0  0  0  0  0  0  0  0  0  0  0  # atno 17342 bound_to 10162
  139.8303  143.7700  152.3179 LP  0  0  0  0  0  0  0  0  0  0  0  0  # atno 17343 bound_to 10162
  157.7102  131.0738  150.6528 LP  0  0  0  0  0  0  0  0  0  0  0  0  # atno 17370 bound_to 10713
  156.6593  130.4507  149.5693 LP  0  0  0  0  0  0  0  0  0  0  0  0  # atno 17371 bound_to 10713
  139.8805  135.0017  156.6083 LP  0  0  0  0  0  0  0  0  0  0  0  0  # atno 17394 bound_to 11000
  140.7814  133.8657  155.8571 LP  0  0  0  0  0  0  0  0  0  0  0  0  # atno 17395 bound_to 11000

$$$$
