AV-unprocessed.smi:2315|AV-procd|sdf|9268|dock3
  -GOLD-   2272012493D 1   1.00000     0.00000
 Structure written by MMmdl.
 40 41  0  0  0  0  0  0  0  0  1 V2000
  144.5577  136.7063  152.6015 O   0  0  0  0  0  0  0  0  0  0  0  0
  145.7727  136.5708  152.4576 C   0  0  0  0  0  0  0  0  0  0  0  0
  146.6711  137.4656  152.8935 N   0  0  0  0  0  0  0  0  0  0  0  0
  146.3485  138.7143  153.5756 C   0  0  0  0  0  0  0  0  0  0  0  0
  147.0506  138.8105  154.9459 C   0  0  0  0  0  0  0  0  0  0  0  0
  148.5182  138.3474  154.9276 C   0  0  0  0  0  0  0  0  0  0  0  0
  148.7622  137.1397  154.9171 O   0  0  0  0  0  0  0  0  0  0  0  0
  149.5012  139.2813  154.9193 N   0  0  0  0  0  0  0  0  0  0  0  0
  150.9441  139.0037  154.9556 C   0  0  0  0  0  0  0  0  0  0  0  0
  151.4942  139.4170  156.3329 C   0  0  0  0  0  0  0  0  0  0  0  0
  151.1849  140.8976  156.6256 C   0  0  0  0  0  0  0  0  0  0  0  0
  149.6972  141.2241  156.3959 C   0  0  0  0  0  0  0  0  0  0  0  0
  149.2272  140.7214  155.0179 C   0  0  0  0  0  0  0  0  0  0  0  0
  146.3776  135.5225  151.8727 N   0  0  0  0  0  0  0  0  0  0  0  0
  145.7946  134.3709  151.2753 C   0  0  0  0  0  0  0  0  0  0  0  0
  144.5284  134.3548  150.6412 C   0  0  0  0  0  0  0  0  0  0  0  0
  144.0739  133.1484  150.0710 C   0  0  0  0  0  0  0  0  0  0  0  0
  144.7854  132.0016  150.0902 N   0  0  0  0  0  0  0  0  0  0  0  0
  145.9968  132.0232  150.6846 C   0  0  0  0  0  0  0  0  0  0  0  0
  146.5448  133.1755  151.2834 C   0  0  0  0  0  0  0  0  0  0  0  0
  147.7707  133.1289  151.8590 F   0  0  0  0  0  0  0  0  0  0  0  0
  147.6500  137.2730  152.7384 H   0  0  0  0  0  0  0  0  0  0  0  0
  146.6678  139.5334  152.9301 H   0  0  0  0  0  0  0  0  0  0  0  0
  145.2664  138.8074  153.6866 H   0  0  0  0  0  0  0  0  0  0  0  0
  147.0173  139.8440  155.2933 H   0  0  0  0  0  0  0  0  0  0  0  0
  146.5046  138.2055  155.6708 H   0  0  0  0  0  0  0  0  0  0  0  0
  151.1983  137.9651  154.7508 H   0  0  0  0  0  0  0  0  0  0  0  0
  151.4377  139.5797  154.1714 H   0  0  0  0  0  0  0  0  0  0  0  0
  151.0494  138.7892  157.1063 H   0  0  0  0  0  0  0  0  0  0  0  0
  152.5701  139.2458  156.3751 H   0  0  0  0  0  0  0  0  0  0  0  0
  151.4736  141.1493  157.6464 H   0  0  0  0  0  0  0  0  0  0  0  0
  151.7915  141.5240  155.9703 H   0  0  0  0  0  0  0  0  0  0  0  0
  149.0959  140.7566  157.1768 H   0  0  0  0  0  0  0  0  0  0  0  0
  149.5340  142.2988  156.4805 H   0  0  0  0  0  0  0  0  0  0  0  0
  149.7610  141.2461  154.2244 H   0  0  0  0  0  0  0  0  0  0  0  0
  148.1735  140.9643  154.8755 H   0  0  0  0  0  0  0  0  0  0  0  0
  147.3869  135.5236  151.9001 H   0  0  0  0  0  0  0  0  0  0  0  0
  143.9069  135.2334  150.5682 H   0  0  0  0  0  0  0  0  0  0  0  0
  143.1129  133.1060  149.5801 H   0  0  0  0  0  0  0  0  0  0  0  0
  146.5480  131.0946  150.6811 H   0  0  0  0  0  0  0  0  0  0  0  0
  1  2  2  0  0  0  0
  2  3  1  0  0  0  0
  2 14  1  0  0  0  0
  3  4  1  0  0  0  0
  3 22  1  0  0  0  0
  4  5  1  0  0  0  0
  4 23  1  0  0  0  0
  4 24  1  0  0  0  0
  5  6  1  0  0  0  0
  5 25  1  0  0  0  0
  5 26  1  0  0  0  0
  6  7  2  0  0  0  0
  6  8  1  0  0  0  0
  8 13  1  0  0  0  0
  8  9  1  0  0  0  0
  9 10  1  0  0  0  0
  9 27  1  0  0  0  0
  9 28  1  0  0  0  0
 10 11  1  0  0  0  0
 10 29  1  0  0  0  0
 10 30  1  0  0  0  0
 11 12  1  0  0  0  0
 11 31  1  0  0  0  0
 11 32  1  0  0  0  0
 12 13  1  0  0  0  0
 12 33  1  0  0  0  0
 12 34  1  0  0  0  0
 13 35  1  0  0  0  0
 13 36  1  0  0  0  0
 14 15  1  0  0  0  0
 14 37  1  0  0  0  0
 15 20  1  0  0  0  0
 15 16  2  0  0  0  0
 16 17  1  0  0  0  0
 16 38  1  0  0  0  0
 17 18  2  0  0  0  0
 17 39  1  0  0  0  0
 18 19  1  0  0  0  0
 19 20  2  0  0  0  0
 19 40  1  0  0  0  0
 20 21  1  0  0  0  0
M  END
> <s_m_source_file>
AV-unprocessed.smi

> <i_m_source_file_index>
2315

> <i_lp_mmshare_version>
43012

> <i_f3d_flags>
0

> <s_epik_input>
RmMxW2NIXW5bY0hdW2NIXWMxW05IXUMoPU8pW05IXVtDSDJdW0NIMl1DKD1PKU4yW0NIMl1bQ0gyXVtDSDJdW0NIMl1bQ0gyXTI=

> <s_epik_cmdline>
J2VwaWtfcHl0aG9uJywgJy1waCcsICc3LjAnLCAnLXRuJywgJzgnLCAnLW1hJywgJzIwMCcsICctbWV0YWxfYmluZGluZycsICctaW1hZScsICc8aW5maWxlLm1hZT4nLCAnLW9tYWUnLCAnPG91dGZpbGUubWFlPic=

> <r_epik_Ionization_Penalty>
0.00291221

> <r_epik_Ionization_Penalty_Charging>
0

> <r_epik_Ionization_Penalty_Neutral>
0.00291221

> <r_epik_State_Penalty>
0.0020173

> <r_epik_Charging_Adjusted_Penalty>
0.0020173

> <i_epik_Tot_Q>
0

> <i_epik_Tot_abs_Q>
0

> <r_epik_Metal_State_Penalty>
-0

> <b_epik_Metal_Only>
0

> <s_lp_Force_Field>
OPLS_2005

> <r_lp_Energy>
31.5376

> <b_lp_Chiralities_Consistent>
1

> <s_lp_Variant>
AV-unprocessed.smi:2315-1

> <Gold.Version>
5.8.1

> <Gold.Id.Protein>
6NUR|6NUR_protein|mol2

> <Gold.PLP.Fitness>
46.5554

> <Gold.PLP.PLP>
-36.9265

> <Gold.PLP.part.hbond>
-2.0000

> <Gold.PLP.part.metal>
0.0000

> <Gold.PLP.part.buried>
-3.5611

> <Gold.PLP.part.nonpolar>
-32.6100

> <Gold.PLP.part.repulsive>
1.3869

> <Gold.PLP.ligand.clash>
0.0000

> <Gold.PLP.ligand.torsion>
0.5004

> <Gold.PLP.Chemscore.Hbond>
1.9920

> <Gold.PLP.Chemscore.CHOScore>
1.5439

> <Gold.PLP.Chemscore.Metal>
0.0000

> <Gold.Chemscore.Hbonds>
donor molecule, donor type, donor heavy atom, donor atom, acceptor molecule, acceptor atom, score
      L1  H     3    22       P1  7948  0.96
      L1  H    14    37       P1  7948  1.00
      L1  C    17    39       P1 10186  1.00
      L1  C    19    40       P1 10747  0.92

> <Gold.PLP.Chemscore.Internal.Correction>
0.0219

> <Gold.Rescore>
     Score         DG    S(hbond)    S(metal)    S(lipo)     H(rot)  DE(clash)    DE(int)     intcor
     13.55     -16.19       1.87        0.00      72.54       1.57       0.00       2.64       ----

> <Gold.Chemscore.Fitness>
13.5471

> <Gold.Chemscore.DG>
-16.1889

> <Gold.Chemscore.ZeroCoef>
-5.4800

> <Gold.Chemscore.Hbond>
1.8709

> <Gold.Chemscore.Metal>
0.0000

> <Gold.Chemscore.Lipo>
72.5403

> <Gold.Chemscore.Internal_Hbond>
0.0000

> <Gold.Chemscore.DEClash>
0.0000

> <Gold.Chemscore.DEInternal>
2.6418

> <Gold.Chemscore.Rot>
1.5731

> <Gold.Chemscore.Internal.Correction>
   9.000000E+99

> <Gold.Chemscore.Hbonds>
donor molecule, donor type, donor heavy atom, donor atom, acceptor molecule, acceptor atom, score
      L1  H     3    22       P1  7948  0.92
      L1  H    14    37       P1  7948  0.98

> <Gold.Chemscore.Hbond.Weighted>
-6.2488

> <Gold.Chemscore.Metal.Weighted>
-0.0000

> <Gold.Chemscore.Lipo.Weighted>
-8.4872

> <Gold.Chemscore.Internal_Hbond.Weighted>
0.0000

> <Gold.Chemscore.DEClash.Weighted>
0.0000

> <Gold.Chemscore.DEInternal.Weighted>
2.6418

> <Gold.Chemscore.Rot.Weighted>
4.0271

> <Gold.Chemscore.Internal.Correction.Weighted>
   9.000000E+99

> <Gold.Protein.RotatedTorsions>
[ 6907 6896 6895 6894 ] final  -42.82 input  -60.11 | X-H torsion
[ 7974 7965 7964 7962 ] final  118.17 input  175.53 | X-H torsion
[ 8008 7997 7996 7995 ] final -153.06 input   59.86 | X-H torsion
[ 10167 10162 10161 10158 ] final  133.79 input  -65.29 | X-H torsion
[ 10718 10713 10712 10709 ] final   61.87 input   66.30 | X-H torsion
[ 10763 10752 10751 10750 ] final  122.57 input  -60.55 | X-H torsion
[ 11005 11000 10999 10996 ] final -111.81 input  -57.11 | X-H torsion

> <Gold.Protein.ActiveResidues>
 VAL166  LYS551  ARG553  GLY616  TRP617  ASP618  TYR619  PRO620  LYS621  CYS622 
 ASP623  PHE694  ASN695  SER759  ASP760  ASP761  ALA762  ILE779  LEU786  VAL792 
 PHE793  MET794  SER795  GLU796  ALA797  LYS798  CYS799  TRP800  GLU811  SER814 

> <Gold.Protein.RotatedAtoms>
  150.9509  134.8909  159.7671 H   0  0  0  0  0  0  0  0  0  0  0  0  # atno 6907 bound_to 6896
  152.5119  134.3807  159.9360 H   0  0  0  0  0  0  0  0  0  0  0  0  # atno 6908 bound_to 6896
  151.3823  133.3776  159.2746 H   0  0  0  0  0  0  0  0  0  0  0  0  # atno 6909 bound_to 6896
  145.1585  139.3169  143.4530 H   0  0  0  0  0  0  0  0  0  0  0  0  # atno 7974 bound_to 7965
  155.6649  140.0727  157.2541 H   0  0  0  0  0  0  0  0  0  0  0  0  # atno 8008 bound_to 7997
  154.4135  140.1709  156.1868 H   0  0  0  0  0  0  0  0  0  0  0  0  # atno 8009 bound_to 7997
  155.9665  140.3365  155.6540 H   0  0  0  0  0  0  0  0  0  0  0  0  # atno 8010 bound_to 7997
  139.5282  144.6599  151.5047 H   0  0  0  0  0  0  0  0  0  0  0  0  # atno 10167 bound_to 10162
  157.5859  130.9018  149.9515 H   0  0  0  0  0  0  0  0  0  0  0  0  # atno 10718 bound_to 10713
  153.6318  135.3395  155.3044 H   0  0  0  0  0  0  0  0  0  0  0  0  # atno 10763 bound_to 10752
  154.8578  135.4297  154.2097 H   0  0  0  0  0  0  0  0  0  0  0  0  # atno 10764 bound_to 10752
  153.2995  135.7023  153.7290 H   0  0  0  0  0  0  0  0  0  0  0  0  # atno 10765 bound_to 10752
  141.0712  133.9376  157.2481 H   0  0  0  0  0  0  0  0  0  0  0  0  # atno 11005 bound_to 11000
  146.3485  140.1686  142.8590 LP  0  0  0  0  0  0  0  0  0  0  0  0  # atno 17320 bound_to 7965
  145.0356  140.8905  143.5083 LP  0  0  0  0  0  0  0  0  0  0  0  0  # atno 17321 bound_to 7965
  140.6442  143.8829  150.6721 LP  0  0  0  0  0  0  0  0  0  0  0  0  # atno 17342 bound_to 10162
  140.2173  143.3837  152.1671 LP  0  0  0  0  0  0  0  0  0  0  0  0  # atno 17343 bound_to 10162
  156.0908  130.3663  150.0398 LP  0  0  0  0  0  0  0  0  0  0  0  0  # atno 17370 bound_to 10713
  156.8529  130.9465  151.3624 LP  0  0  0  0  0  0  0  0  0  0  0  0  # atno 17371 bound_to 10713
  139.9525  135.0172  156.9035 LP  0  0  0  0  0  0  0  0  0  0  0  0  # atno 17394 bound_to 11000
  140.5669  134.0480  155.7417 LP  0  0  0  0  0  0  0  0  0  0  0  0  # atno 17395 bound_to 11000

$$$$
