AV-unprocessed.smi:1401|AV-procd|sdf|5691|dock6
  -GOLD-   22720 5323D 1   1.00000     0.00000
 Structure written by MMmdl.
 48 50  0  0  0  0  0  0  0  0  1 V2000
  146.0439  137.3304  154.8549 C   0  0  0  0  0  0  0  0  0  0  0  0
  147.0264  136.6613  155.7778 C   0  0  0  0  0  0  0  0  0  0  0  0
  147.8852  135.8636  155.2328 N   0  0  0  0  0  0  0  0  0  0  0  0
  148.8271  135.1949  155.9907 N   0  0  0  0  0  0  0  0  0  0  0  0
  149.7091  134.3122  155.2136 C   0  0  0  0  0  0  0  0  0  0  0  0
  148.9380  133.2469  154.4222 C   0  0  0  0  0  0  0  0  0  0  0  0
  148.9856  132.0627  154.7574 O   0  0  0  0  0  0  0  0  0  0  0  0
  148.2189  133.6926  153.3811 N   0  0  0  0  0  0  0  0  0  0  0  0
  147.4380  132.8627  152.4653 C   0  0  1  0  0  0  0  0  0  0  0  0
  146.5285  131.9368  153.2919 C   0  0  0  0  0  0  0  0  0  0  0  0
  146.6494  133.7732  151.4918 C   0  0  1  0  0  0  0  0  0  0  0  0
  145.6254  133.0086  150.6137 C   0  0  0  0  0  0  0  0  0  0  0  0
  144.3104  133.7695  150.8556 C   0  0  2  0  0  0  0  0  0  0  0  0
  144.3945  135.1649  150.2109 C   0  0  0  0  0  0  0  0  0  0  0  0
  145.3675  135.9095  151.1439 C   0  0  0  0  0  0  0  0  0  0  0  0
  145.7440  134.8289  152.1761 C   0  0  1  0  0  0  0  0  0  0  0  0
  144.4168  134.0943  152.3391 C   0  0  0  0  0  0  0  0  0  0  0  0
  148.9586  135.3088  157.3441 C   0  0  0  0  0  0  0  0  0  0  0  0
  149.8211  134.6998  157.9796 O   0  0  0  0  0  0  0  0  0  0  0  0
  147.9824  136.2139  157.9542 C   0  0  0  0  0  0  0  0  0  0  0  0
  148.0809  136.3561  159.3711 C   0  0  0  0  0  0  0  0  0  0  0  0
  148.1402  136.4755  160.5211 N   0  0  0  0  0  0  0  0  0  0  0  0
  147.0479  136.8702  157.2222 C   0  0  0  0  0  0  0  0  0  0  0  0
  146.0118  137.8198  157.8075 C   0  0  0  0  0  0  0  0  0  0  0  0
  146.1308  138.4150  154.9178 H   0  0  0  0  0  0  0  0  0  0  0  0
  145.0216  137.0565  155.1155 H   0  0  0  0  0  0  0  0  0  0  0  0
  146.2047  137.0477  153.8136 H   0  0  0  0  0  0  0  0  0  0  0  0
  150.3033  134.8933  154.5059 H   0  0  0  0  0  0  0  0  0  0  0  0
  150.4314  133.8339  155.8783 H   0  0  0  0  0  0  0  0  0  0  0  0
  148.2355  134.6835  153.1885 H   0  0  0  0  0  0  0  0  0  0  0  0
  148.1143  132.2400  151.8773 H   0  0  0  0  0  0  0  0  0  0  0  0
  145.9823  131.2359  152.6620 H   0  0  0  0  0  0  0  0  0  0  0  0
  145.7984  132.5074  153.8666 H   0  0  0  0  0  0  0  0  0  0  0  0
  147.1121  131.3423  153.9958 H   0  0  0  0  0  0  0  0  0  0  0  0
  147.3713  134.2777  150.8473 H   0  0  0  0  0  0  0  0  0  0  0  0
  145.9105  132.9950  149.5613 H   0  0  0  0  0  0  0  0  0  0  0  0
  145.5122  131.9724  150.9362 H   0  0  0  0  0  0  0  0  0  0  0  0
  143.4215  133.2064  150.5695 H   0  0  0  0  0  0  0  0  0  0  0  0
  144.7537  135.1227  149.1820 H   0  0  0  0  0  0  0  0  0  0  0  0
  143.4188  135.6526  150.2063 H   0  0  0  0  0  0  0  0  0  0  0  0
  146.2354  136.3045  150.6146 H   0  0  0  0  0  0  0  0  0  0  0  0
  144.8647  136.7474  151.6286 H   0  0  0  0  0  0  0  0  0  0  0  0
  146.1460  135.2491  153.0971 H   0  0  0  0  0  0  0  0  0  0  0  0
  143.6094  134.7337  152.7005 H   0  0  0  0  0  0  0  0  0  0  0  0
  144.4809  133.2088  152.9735 H   0  0  0  0  0  0  0  0  0  0  0  0
  146.0988  137.9106  158.8899 H   0  0  0  0  0  0  0  0  0  0  0  0
  145.0032  137.4674  157.5892 H   0  0  0  0  0  0  0  0  0  0  0  0
  146.1266  138.8186  157.3853 H   0  0  0  0  0  0  0  0  0  0  0  0
  1  2  1  0  0  0  0
  1 25  1  0  0  0  0
  1 26  1  0  0  0  0
  1 27  1  0  0  0  0
  2 23  1  0  0  0  0
  2  3  2  0  0  0  0
  3  4  1  0  0  0  0
  4  5  1  0  0  0  0
  4 18  1  0  0  0  0
  5  6  1  0  0  0  0
  5 28  1  0  0  0  0
  5 29  1  0  0  0  0
  6  7  2  0  0  0  0
  6  8  1  0  0  0  0
  8  9  1  0  0  0  0
  8 30  1  0  0  0  0
  9 10  1  0  0  0  0
  9 11  1  0  0  0  0
  9 31  1  0  0  0  0
 10 32  1  0  0  0  0
 10 33  1  0  0  0  0
 10 34  1  0  0  0  0
 11 16  1  0  0  0  0
 11 12  1  0  0  0  0
 11 35  1  0  0  0  0
 12 13  1  0  0  0  0
 12 36  1  0  0  0  0
 12 37  1  0  0  0  0
 13 17  1  0  0  0  0
 13 14  1  0  0  0  0
 13 38  1  0  0  0  0
 14 15  1  0  0  0  0
 14 39  1  0  0  0  0
 14 40  1  0  0  0  0
 15 16  1  0  0  0  0
 15 41  1  0  0  0  0
 15 42  1  0  0  0  0
 16 17  1  0  0  0  0
 16 43  1  0  0  0  0
 17 44  1  0  0  0  0
 17 45  1  0  0  0  0
 18 19  2  0  0  0  0
 18 20  1  0  0  0  0
 20 21  1  0  0  0  0
 20 23  2  0  0  0  0
 21 22  3  0  0  0  0
 23 24  1  0  0  0  0
 24 46  1  0  0  0  0
 24 47  1  0  0  0  0
 24 48  1  0  0  0  0
M  END
> <s_m_source_file>
AV-unprocessed.smi

> <i_m_source_file_index>
1401

> <i_lp_mmshare_version>
43012

> <i_f3d_flags>
0

> <s_epik_input>
TiNDYyhjMVtDSDNdKWMoPU8pbihuYzFbQ0gzXSlbQ0gyXUMoPU8pW05IXVtDQEhdKFtDSDNdKVtDQEhdKFtDSDJdW0NASF0yMylbQ0BIXShbQ0gyXTMpW0NIMl1bQ0gyXTI=

> <s_epik_cmdline>
J2VwaWtfcHl0aG9uJywgJy1waCcsICc3LjAnLCAnLXRuJywgJzgnLCAnLW1hJywgJzIwMCcsICctbWV0YWxfYmluZGluZycsICctaW1hZScsICc8aW5maWxlLm1hZT4nLCAnLW9tYWUnLCAnPG91dGZpbGUubWFlPic=

> <r_lp_tautomer_probability>
1

> <r_epik_Ionization_Penalty>
2.16501e-08

> <r_epik_Ionization_Penalty_Charging>
2.29436e-11

> <r_epik_Ionization_Penalty_Neutral>
2.16271e-08

> <r_epik_State_Penalty>
-0

> <r_epik_Charging_Adjusted_Penalty>
2.29436e-11

> <i_epik_Tot_Q>
0

> <i_epik_Tot_abs_Q>
0

> <r_epik_Metal_State_Penalty>
-0

> <b_epik_Metal_Only>
0

> <s_lp_Force_Field>
OPLS_2005

> <r_lp_Energy>
65.5995

> <b_lp_Chiralities_Consistent>
1

> <s_lp_Variant>
AV-unprocessed.smi:1401-4

> <Gold.Version>
5.8.1

> <Gold.Id.Protein>
6NUR|6NUR_protein|mol2

> <Gold.PLP.Fitness>
38.9139

> <Gold.PLP.PLP>
-32.4755

> <Gold.PLP.part.hbond>
-3.2884

> <Gold.PLP.part.metal>
0.0000

> <Gold.PLP.part.buried>
-5.3683

> <Gold.PLP.part.nonpolar>
-24.1219

> <Gold.PLP.part.repulsive>
0.1291

> <Gold.PLP.ligand.clash>
0.0000

> <Gold.PLP.ligand.torsion>
0.2234

> <Gold.PLP.Chemscore.Hbond>
2.2876

> <Gold.PLP.Chemscore.CHOScore>
0.0000

> <Gold.PLP.Chemscore.Metal>
0.0000

> <Gold.Chemscore.Hbonds>
donor molecule, donor type, donor heavy atom, donor atom, acceptor molecule, acceptor atom, score
      L1  H     8    30       P1  7948  0.67
      P1  H  6896  6908       L1    19  1.00
      P1  H  6931  6943       L1    22  0.03

> <Gold.PLP.Chemscore.Internal.Correction>
0.0224

> <Gold.Rescore>
     Score         DG    S(hbond)    S(metal)    S(lipo)     H(rot)  DE(clash)    DE(int)     intcor
     11.94     -13.75       1.52        0.00      62.85       1.63       0.15       1.67       ----

> <Gold.Chemscore.Fitness>
11.9355

> <Gold.Chemscore.DG>
-13.7528

> <Gold.Chemscore.ZeroCoef>
-5.4800

> <Gold.Chemscore.Hbond>
1.5231

> <Gold.Chemscore.Metal>
0.0000

> <Gold.Chemscore.Lipo>
62.8506

> <Gold.Chemscore.Internal_Hbond>
0.0000

> <Gold.Chemscore.DEClash>
0.1459

> <Gold.Chemscore.DEInternal>
1.6714

> <Gold.Chemscore.Rot>
1.6281

> <Gold.Chemscore.Internal.Correction>
   9.000000E+99

> <Gold.Chemscore.Hbonds>
donor molecule, donor type, donor heavy atom, donor atom, acceptor molecule, acceptor atom, score
      L1  H     8    30       P1  7948  0.48
      P1  H  6896  6908       L1    19  0.94
      P1  H  6931  6943       L1    22  0.08

> <Gold.Chemscore.Hbond.Weighted>
-5.0871

> <Gold.Chemscore.Metal.Weighted>
-0.0000

> <Gold.Chemscore.Lipo.Weighted>
-7.3535

> <Gold.Chemscore.Internal_Hbond.Weighted>
0.0000

> <Gold.Chemscore.DEClash.Weighted>
0.1459

> <Gold.Chemscore.DEInternal.Weighted>
1.6714

> <Gold.Chemscore.Rot.Weighted>
4.1678

> <Gold.Chemscore.Internal.Correction.Weighted>
   9.000000E+99

> <Gold.Protein.RotatedTorsions>
[ 6907 6896 6895 6894 ] final  141.38 input  -60.11 | X-H torsion
[ 7974 7965 7964 7962 ] final -115.45 input  175.53 | X-H torsion
[ 8008 7997 7996 7995 ] final  -15.23 input   59.86 | X-H torsion
[ 10167 10162 10161 10158 ] final -123.21 input  -65.29 | X-H torsion
[ 10718 10713 10712 10709 ] final   53.07 input   66.30 | X-H torsion
[ 10763 10752 10751 10750 ] final  126.52 input  -60.55 | X-H torsion
[ 11005 11000 10999 10996 ] final   12.61 input  -57.11 | X-H torsion

> <Gold.Protein.ActiveResidues>
 VAL166  LYS551  ARG553  GLY616  TRP617  ASP618  TYR619  PRO620  LYS621  CYS622 
 ASP623  PHE694  ASN695  SER759  ASP760  ASP761  ALA762  ILE779  LEU786  VAL792 
 PHE793  MET794  SER795  GLU796  ALA797  LYS798  CYS799  TRP800  GLU811  SER814 

> <Gold.Protein.RotatedAtoms>
  152.2316  133.5063  159.5218 H   0  0  0  0  0  0  0  0  0  0  0  0  # atno 6907 bound_to 6896
  150.7039  134.1209  159.4043 H   0  0  0  0  0  0  0  0  0  0  0  0  # atno 6908 bound_to 6896
  151.9130  135.0331  160.0566 H   0  0  0  0  0  0  0  0  0  0  0  0  # atno 6909 bound_to 6896
  145.1083  140.8595  143.3885 H   0  0  0  0  0  0  0  0  0  0  0  0  # atno 7974 bound_to 7965
  154.5147  140.2202  155.9089 H   0  0  0  0  0  0  0  0  0  0  0  0  # atno 8008 bound_to 7997
  156.1593  140.3145  155.8746 H   0  0  0  0  0  0  0  0  0  0  0  0  # atno 8009 bound_to 7997
  155.3783  140.0471  157.3035 H   0  0  0  0  0  0  0  0  0  0  0  0  # atno 8010 bound_to 7997
  140.0060  143.5491  152.2283 H   0  0  0  0  0  0  0  0  0  0  0  0  # atno 10167 bound_to 10162
  157.5133  130.8516  149.8463 H   0  0  0  0  0  0  0  0  0  0  0  0  # atno 10718 bound_to 10713
  153.6947  135.3293  155.3210 H   0  0  0  0  0  0  0  0  0  0  0  0  # atno 10763 bound_to 10752
  154.8430  135.4440  154.1472 H   0  0  0  0  0  0  0  0  0  0  0  0  # atno 10764 bound_to 10752
  153.2524  135.6982  153.7743 H   0  0  0  0  0  0  0  0  0  0  0  0  # atno 10765 bound_to 10752
  140.4901  134.0849  155.7769 H   0  0  0  0  0  0  0  0  0  0  0  0  # atno 11005 bound_to 11000
  145.0876  139.2913  143.5751 LP  0  0  0  0  0  0  0  0  0  0  0  0  # atno 17320 bound_to 7965
  146.3527  140.0403  142.8643 LP  0  0  0  0  0  0  0  0  0  0  0  0  # atno 17321 bound_to 7965
  139.6238  144.7634  151.2682 LP  0  0  0  0  0  0  0  0  0  0  0  0  # atno 17342 bound_to 10162
  140.7400  143.6600  150.8172 LP  0  0  0  0  0  0  0  0  0  0  0  0  # atno 17343 bound_to 10162
  156.0304  130.3766  150.1705 LP  0  0  0  0  0  0  0  0  0  0  0  0  # atno 17370 bound_to 10713
  156.9894  130.9888  151.3418 LP  0  0  0  0  0  0  0  0  0  0  0  0  # atno 17371 bound_to 10713
  141.1488  133.9006  157.2149 LP  0  0  0  0  0  0  0  0  0  0  0  0  # atno 17394 bound_to 11000
  139.9774  135.0109  156.9666 LP  0  0  0  0  0  0  0  0  0  0  0  0  # atno 17395 bound_to 11000

$$$$
