AV-unprocessed.smi:2678|AV-procd|sdf|10369|dock5
  -GOLD-   2272014393D 1   1.00000     0.00000
 Structure written by MMmdl.
 46 47  0  0  0  0  0  0  0  0  1 V2000
  144.0147  143.4766  156.0577 C   0  0  0  0  0  0  0  0  0  0  0  0
  144.0178  141.9991  155.6440 C   0  0  0  0  0  0  0  0  0  0  0  0
  144.1413  141.0696  156.8619 C   0  0  0  0  0  0  0  0  0  0  0  0
  145.1101  141.7605  154.7050 N   0  0  0  0  0  0  0  0  0  0  0  0
  146.4158  141.9275  154.9698 C   0  0  0  0  0  0  0  0  0  0  0  0
  146.8301  142.3162  156.0619 O   0  0  0  0  0  0  0  0  0  0  0  0
  147.3912  141.6000  153.8233 C   0  0  1  0  0  0  0  0  0  0  0  0
  148.8741  141.7063  154.2496 C   0  0  0  0  0  0  0  0  0  0  0  0
  149.3663  140.5007  155.0709 C   0  0  0  0  0  0  0  0  0  0  0  0
  149.0918  139.1783  154.3393 C   0  0  0  0  0  0  0  0  0  0  0  0
  147.5972  139.0235  154.0089 C   0  0  2  0  0  0  0  0  0  0  0  0
  147.3828  137.7671  153.2875 N   0  0  0  0  0  0  0  0  0  0  0  0
  146.2237  137.1171  153.0743 C   0  0  0  0  0  0  0  0  0  0  0  0
  145.1625  137.5488  153.5188 O   0  0  0  0  0  0  0  0  0  0  0  0
  146.3544  135.9760  152.3694 N   0  0  0  0  0  0  0  0  0  0  0  0
  145.3540  135.0461  151.9797 C   0  0  0  0  0  0  0  0  0  0  0  0
  145.6003  133.8783  151.2180 C   0  0  0  0  0  0  0  0  0  0  0  0
  144.5207  133.0268  150.9131 C   0  0  0  0  0  0  0  0  0  0  0  0
  143.2388  133.3695  151.3855 C   0  0  0  0  0  0  0  0  0  0  0  0
  142.9923  134.4723  152.1234 N   0  0  0  0  0  0  0  0  0  0  0  0
  144.0322  135.2832  152.4130 C   0  0  0  0  0  0  0  0  0  0  0  0
  147.1001  140.2272  153.1729 C   0  0  0  0  0  0  0  0  0  0  0  0
  143.1887  143.6903  156.7368 H   0  0  0  0  0  0  0  0  0  0  0  0
  143.9041  144.1281  155.1901 H   0  0  0  0  0  0  0  0  0  0  0  0
  144.9408  143.7500  156.5647 H   0  0  0  0  0  0  0  0  0  0  0  0
  143.0697  141.7932  155.1436 H   0  0  0  0  0  0  0  0  0  0  0  0
  143.3268  141.2388  157.5666 H   0  0  0  0  0  0  0  0  0  0  0  0
  145.0797  141.2334  157.3927 H   0  0  0  0  0  0  0  0  0  0  0  0
  144.1046  140.0205  156.5668 H   0  0  0  0  0  0  0  0  0  0  0  0
  144.8533  141.4384  153.7831 H   0  0  0  0  0  0  0  0  0  0  0  0
  147.2284  142.3559  153.0528 H   0  0  0  0  0  0  0  0  0  0  0  0
  149.4894  141.7936  153.3533 H   0  0  0  0  0  0  0  0  0  0  0  0
  149.0407  142.6258  154.8130 H   0  0  0  0  0  0  0  0  0  0  0  0
  150.4349  140.5996  155.2631 H   0  0  0  0  0  0  0  0  0  0  0  0
  148.8850  140.4871  156.0489 H   0  0  0  0  0  0  0  0  0  0  0  0
  149.6814  139.1431  153.4219 H   0  0  0  0  0  0  0  0  0  0  0  0
  149.4276  138.3431  154.9551 H   0  0  0  0  0  0  0  0  0  0  0  0
  147.0576  138.9770  154.9551 H   0  0  0  0  0  0  0  0  0  0  0  0
  148.2147  137.3296  152.9185 H   0  0  0  0  0  0  0  0  0  0  0  0
  147.3008  135.7142  152.1338 H   0  0  0  0  0  0  0  0  0  0  0  0
  146.5875  133.6113  150.8756 H   0  0  0  0  0  0  0  0  0  0  0  0
  144.6734  132.1286  150.3332 H   0  0  0  0  0  0  0  0  0  0  0  0
  142.3901  132.7376  151.1694 H   0  0  0  0  0  0  0  0  0  0  0  0
  143.7989  136.1550  153.0074 H   0  0  0  0  0  0  0  0  0  0  0  0
  146.0309  140.1349  152.9770 H   0  0  0  0  0  0  0  0  0  0  0  0
  147.5803  140.2008  152.1937 H   0  0  0  0  0  0  0  0  0  0  0  0
  1  2  1  0  0  0  0
  1 23  1  0  0  0  0
  1 24  1  0  0  0  0
  1 25  1  0  0  0  0
  2  3  1  0  0  0  0
  2  4  1  0  0  0  0
  2 26  1  0  0  0  0
  3 27  1  0  0  0  0
  3 28  1  0  0  0  0
  3 29  1  0  0  0  0
  4  5  1  0  0  0  0
  4 30  1  0  0  0  0
  5  6  2  0  0  0  0
  5  7  1  0  0  0  0
  7 22  1  0  0  0  0
  7  8  1  0  0  0  0
  7 31  1  0  0  0  0
  8  9  1  0  0  0  0
  8 32  1  0  0  0  0
  8 33  1  0  0  0  0
  9 10  1  0  0  0  0
  9 34  1  0  0  0  0
  9 35  1  0  0  0  0
 10 11  1  0  0  0  0
 10 36  1  0  0  0  0
 10 37  1  0  0  0  0
 11 12  1  0  0  0  0
 11 22  1  0  0  0  0
 11 38  1  0  0  0  0
 12 13  1  0  0  0  0
 12 39  1  0  0  0  0
 13 14  2  0  0  0  0
 13 15  1  0  0  0  0
 15 16  1  0  0  0  0
 15 40  1  0  0  0  0
 16 21  1  0  0  0  0
 16 17  2  0  0  0  0
 17 18  1  0  0  0  0
 17 41  1  0  0  0  0
 18 19  2  0  0  0  0
 18 42  1  0  0  0  0
 19 20  1  0  0  0  0
 19 43  1  0  0  0  0
 20 21  2  0  0  0  0
 21 44  1  0  0  0  0
 22 45  1  0  0  0  0
 22 46  1  0  0  0  0
M  END
> <s_m_source_file>
AV-unprocessed.smi

> <i_m_source_file_index>
2678

> <i_lp_mmshare_version>
43012

> <i_f3d_flags>
0

> <s_epik_input>
W0NIM11bQ0hdKFtDSDNdKVtOSF1DKD1PKVtDQEBIXTFbQ0gyXVtDSDJdW0NIMl1bQ0BIXShbQ0gyXTEpW05IXUMoPU8pW05IXWMyW2NIXVtjSF1bY0hdbltjSF0y

> <s_epik_cmdline>
J2VwaWtfcHl0aG9uJywgJy1waCcsICc3LjAnLCAnLXRuJywgJzgnLCAnLW1hJywgJzIwMCcsICctbWV0YWxfYmluZGluZycsICctaW1hZScsICc8aW5maWxlLm1hZT4nLCAnLW9tYWUnLCAnPG91dGZpbGUubWFlPic=

> <r_epik_Ionization_Penalty>
0.00482944

> <r_epik_Ionization_Penalty_Charging>
0

> <r_epik_Ionization_Penalty_Neutral>
0.00482944

> <r_epik_State_Penalty>
0.00347168

> <r_epik_Charging_Adjusted_Penalty>
0.00347168

> <i_epik_Tot_Q>
0

> <i_epik_Tot_abs_Q>
0

> <r_epik_Metal_State_Penalty>
-0

> <b_epik_Metal_Only>
0

> <s_lp_Force_Field>
OPLS_2005

> <r_lp_Energy>
20.538

> <b_lp_Chiralities_Consistent>
1

> <s_lp_Variant>
AV-unprocessed.smi:2678-4

> <Gold.Version>
5.8.1

> <Gold.Id.Protein>
6NUR|6NUR_protein|mol2

> <Gold.PLP.Fitness>
39.9001

> <Gold.PLP.PLP>
-31.0137

> <Gold.PLP.part.hbond>
-3.0000

> <Gold.PLP.part.metal>
0.0000

> <Gold.PLP.part.buried>
-2.3039

> <Gold.PLP.part.nonpolar>
-26.2168

> <Gold.PLP.part.repulsive>
0.5813

> <Gold.PLP.ligand.clash>
0.0000

> <Gold.PLP.ligand.torsion>
0.3230

> <Gold.PLP.Chemscore.Hbond>
2.9760

> <Gold.PLP.Chemscore.CHOScore>
0.1825

> <Gold.PLP.Chemscore.Metal>
0.0000

> <Gold.Chemscore.Hbonds>
donor molecule, donor type, donor heavy atom, donor atom, acceptor molecule, acceptor atom, score
      L1  H     4    30       P1 10175  1.00
      L1  H    12    39       P1  7948  1.00
      L1  H    15    40       P1  7948  0.98
      L1  C    19    43       P1 10186  0.22

> <Gold.PLP.Chemscore.Internal.Correction>
0.0570

> <Gold.Rescore>
     Score         DG    S(hbond)    S(metal)    S(lipo)     H(rot)  DE(clash)    DE(int)     intcor
     14.87     -18.07       2.45        0.00      69.58       1.46       0.19       3.00       ----

> <Gold.Chemscore.Fitness>
14.8741

> <Gold.Chemscore.DG>
-18.0667

> <Gold.Chemscore.ZeroCoef>
-5.4800

> <Gold.Chemscore.Hbond>
2.4502

> <Gold.Chemscore.Metal>
0.0000

> <Gold.Chemscore.Lipo>
69.5840

> <Gold.Chemscore.Internal_Hbond>
0.0000

> <Gold.Chemscore.DEClash>
0.1922

> <Gold.Chemscore.DEInternal>
3.0003

> <Gold.Chemscore.Rot>
1.4603

> <Gold.Chemscore.Internal.Correction>
   9.000000E+99

> <Gold.Chemscore.Hbonds>
donor molecule, donor type, donor heavy atom, donor atom, acceptor molecule, acceptor atom, score
      L1  H     4    30       P1 10175  0.24
      L1  H    12    39       P1  7948  0.95
      L1  H    15    40       P1  7948  0.93

> <Gold.Chemscore.Hbond.Weighted>
-8.1837

> <Gold.Chemscore.Metal.Weighted>
-0.0000

> <Gold.Chemscore.Lipo.Weighted>
-8.1413

> <Gold.Chemscore.Internal_Hbond.Weighted>
0.0000

> <Gold.Chemscore.DEClash.Weighted>
0.1922

> <Gold.Chemscore.DEInternal.Weighted>
3.0003

> <Gold.Chemscore.Rot.Weighted>
3.7383

> <Gold.Chemscore.Internal.Correction.Weighted>
   9.000000E+99

> <Gold.Protein.RotatedTorsions>
[ 6907 6896 6895 6894 ] final   52.19 input  -60.11 | X-H torsion
[ 7974 7965 7964 7962 ] final   11.78 input  175.53 | X-H torsion
[ 8008 7997 7996 7995 ] final -114.71 input   59.86 | X-H torsion
[ 10167 10162 10161 10158 ] final -170.77 input  -65.29 | X-H torsion
[ 10718 10713 10712 10709 ] final  118.36 input   66.30 | X-H torsion
[ 10763 10752 10751 10750 ] final   23.90 input  -60.55 | X-H torsion
[ 11005 11000 10999 10996 ] final -165.07 input  -57.11 | X-H torsion

> <Gold.Protein.ActiveResidues>
 VAL166  LYS551  ARG553  GLY616  TRP617  ASP618  TYR619  PRO620  LYS621  CYS622 
 ASP623  PHE694  ASN695  SER759  ASP760  ASP761  ALA762  ILE779  LEU786  VAL792 
 PHE793  MET794  SER795  GLU796  ALA797  LYS798  CYS799  TRP800  GLU811  SER814 

> <Gold.Protein.RotatedAtoms>
  152.3206  134.7385  160.0314 H   0  0  0  0  0  0  0  0  0  0  0  0  # atno 6907 bound_to 6896
  151.7834  133.3346  159.3486 H   0  0  0  0  0  0  0  0  0  0  0  0  # atno 6908 bound_to 6896
  150.7368  134.5840  159.5998 H   0  0  0  0  0  0  0  0  0  0  0  0  # atno 6909 bound_to 6896
  146.2364  139.9434  142.8480 H   0  0  0  0  0  0  0  0  0  0  0  0  # atno 7974 bound_to 7965
  155.0406  140.0392  157.2508 H   0  0  0  0  0  0  0  0  0  0  0  0  # atno 8008 bound_to 7997
  154.7220  140.2713  155.6509 H   0  0  0  0  0  0  0  0  0  0  0  0  # atno 8009 bound_to 7997
  156.2819  140.2701  156.1894 H   0  0  0  0  0  0  0  0  0  0  0  0  # atno 8010 bound_to 7997
  139.5842  144.1356  152.1554 H   0  0  0  0  0  0  0  0  0  0  0  0  # atno 10167 bound_to 10162
  157.6035  131.1047  150.7745 H   0  0  0  0  0  0  0  0  0  0  0  0  # atno 10718 bound_to 10713
  153.0803  135.6617  154.0058 H   0  0  0  0  0  0  0  0  0  0  0  0  # atno 10763 bound_to 10752
  153.9681  135.2967  155.3430 H   0  0  0  0  0  0  0  0  0  0  0  0  # atno 10764 bound_to 10752
  154.7201  135.5168  153.8870 H   0  0  0  0  0  0  0  0  0  0  0  0  # atno 10765 bound_to 10752
  140.5798  134.5153  157.5176 H   0  0  0  0  0  0  0  0  0  0  0  0  # atno 11005 bound_to 11000
  145.1931  140.9820  143.4199 LP  0  0  0  0  0  0  0  0  0  0  0  0  # atno 17320 bound_to 7965
  144.9840  139.3755  143.6248 LP  0  0  0  0  0  0  0  0  0  0  0  0  # atno 17321 bound_to 7965
  140.0916  144.5616  150.7051 LP  0  0  0  0  0  0  0  0  0  0  0  0  # atno 17342 bound_to 10162
  140.7116  143.2510  151.4563 LP  0  0  0  0  0  0  0  0  0  0  0  0  # atno 17343 bound_to 10162
  156.8138  130.4961  149.5352 LP  0  0  0  0  0  0  0  0  0  0  0  0  # atno 17370 bound_to 10713
  156.1115  130.6044  151.0055 LP  0  0  0  0  0  0  0  0  0  0  0  0  # atno 17371 bound_to 10713
  139.9322  134.7941  156.0899 LP  0  0  0  0  0  0  0  0  0  0  0  0  # atno 17394 bound_to 11000
  141.1003  133.6680  156.2739 LP  0  0  0  0  0  0  0  0  0  0  0  0  # atno 17395 bound_to 11000

$$$$
