AV-unprocessed.smi:2509|AV-procd|sdf|9867|dock9
  -GOLD-   2272013493D 1   1.00000     0.00000
 Structure written by MMmdl.
 45 46  0  0  0  0  0  0  0  0  1 V2000
  152.0565  137.6001  160.1322 C   0  0  0  0  0  0  0  0  0  0  0  0
  152.3131  138.2809  158.7669 C   0  0  0  0  0  0  0  0  0  0  0  0
  151.8923  139.7591  158.9410 C   0  0  0  0  0  0  0  0  0  0  0  0
  153.8136  138.2072  158.4293 C   0  0  0  0  0  0  0  0  0  0  0  0
  151.5019  137.6043  157.6479 C   0  0  0  0  0  0  0  0  0  0  0  0
  150.9194  136.4337  157.9373 N   0  0  0  0  0  0  0  0  0  0  0  0
  150.3139  135.7699  156.9305 C   0  0  0  0  0  0  0  0  0  0  0  0
  150.3133  136.2543  155.6071 C   0  0  0  0  0  0  0  0  0  0  0  0
  149.6531  135.4916  154.6044 N   0  0  0  0  0  0  0  0  0  0  0  0
  149.2303  134.2166  154.6471 C   0  0  0  0  0  0  0  0  0  0  0  0
  149.3416  133.4564  155.6078 O   0  0  0  0  0  0  0  0  0  0  0  0
  148.6602  133.8591  153.4878 N   0  0  0  0  0  0  0  0  0  0  0  0
  148.1123  132.5384  153.1951 C   0  0  0  0  0  0  0  0  0  0  0  0
  146.7403  132.6212  152.4927 C   0  0  1  0  0  0  0  0  0  0  0  0
  146.7773  133.2767  151.1069 C   0  0  0  0  0  0  0  0  0  0  0  0
  145.5293  132.7663  150.3688 C   0  0  0  0  0  0  0  0  0  0  0  0
  144.9295  131.6506  151.2396 C   0  0  0  0  0  0  0  0  0  0  0  0
  146.0130  131.2875  152.2593 C   0  0  1  0  0  0  0  0  0  0  0  0
  146.8739  130.3185  151.6893 O   0  0  0  0  0  0  0  0  0  0  0  0
  150.9933  137.4798  155.4040 C   0  0  0  0  0  0  0  0  0  0  0  0
  151.5945  138.1335  156.4211 N   0  0  0  0  0  0  0  0  0  0  0  0
  152.5959  138.1048  160.9346 H   0  0  0  0  0  0  0  0  0  0  0  0
  152.3846  136.5603  160.1391 H   0  0  0  0  0  0  0  0  0  0  0  0
  150.9969  137.6144  160.3902 H   0  0  0  0  0  0  0  0  0  0  0  0
  150.8265  139.8460  159.1559 H   0  0  0  0  0  0  0  0  0  0  0  0
  152.0990  140.3513  158.0489 H   0  0  0  0  0  0  0  0  0  0  0  0
  152.4315  140.2313  159.7628 H   0  0  0  0  0  0  0  0  0  0  0  0
  154.4201  138.6741  159.2059 H   0  0  0  0  0  0  0  0  0  0  0  0
  154.0330  138.7161  157.4900 H   0  0  0  0  0  0  0  0  0  0  0  0
  154.1463  137.1736  158.3283 H   0  0  0  0  0  0  0  0  0  0  0  0
  149.8302  134.8384  157.1858 H   0  0  0  0  0  0  0  0  0  0  0  0
  149.4824  135.9812  153.7383 H   0  0  0  0  0  0  0  0  0  0  0  0
  148.6112  134.5443  152.7480 H   0  0  0  0  0  0  0  0  0  0  0  0
  148.8152  131.9747  152.5798 H   0  0  0  0  0  0  0  0  0  0  0  0
  148.0274  131.9914  154.1343 H   0  0  0  0  0  0  0  0  0  0  0  0
  146.0842  133.2354  153.1122 H   0  0  0  0  0  0  0  0  0  0  0  0
  146.8016  134.3650  151.1726 H   0  0  0  0  0  0  0  0  0  0  0  0
  147.6718  132.9636  150.5666 H   0  0  0  0  0  0  0  0  0  0  0  0
  144.8035  133.5657  150.2149 H   0  0  0  0  0  0  0  0  0  0  0  0
  145.8052  132.3843  149.3855 H   0  0  0  0  0  0  0  0  0  0  0  0
  144.0613  132.0439  151.7701 H   0  0  0  0  0  0  0  0  0  0  0  0
  144.5870  130.7956  150.6551 H   0  0  0  0  0  0  0  0  0  0  0  0
  145.5870  130.8854  153.1792 H   0  0  0  0  0  0  0  0  0  0  0  0
  147.6669  130.7501  151.4102 H   0  0  0  0  0  0  0  0  0  0  0  0
  151.0788  137.9574  154.4416 H   0  0  0  0  0  0  0  0  0  0  0  0
  1  2  1  0  0  0  0
  1 22  1  0  0  0  0
  1 23  1  0  0  0  0
  1 24  1  0  0  0  0
  2  3  1  0  0  0  0
  2  4  1  0  0  0  0
  2  5  1  0  0  0  0
  3 25  1  0  0  0  0
  3 26  1  0  0  0  0
  3 27  1  0  0  0  0
  4 28  1  0  0  0  0
  4 29  1  0  0  0  0
  4 30  1  0  0  0  0
  5 21  1  0  0  0  0
  5  6  2  0  0  0  0
  6  7  1  0  0  0  0
  7  8  2  0  0  0  0
  7 31  1  0  0  0  0
  8  9  1  0  0  0  0
  8 20  1  0  0  0  0
  9 10  1  0  0  0  0
  9 32  1  0  0  0  0
 10 11  2  0  0  0  0
 10 12  1  0  0  0  0
 12 13  1  0  0  0  0
 12 33  1  0  0  0  0
 13 14  1  0  0  0  0
 13 34  1  0  0  0  0
 13 35  1  0  0  0  0
 14 18  1  0  0  0  0
 14 15  1  0  0  0  0
 14 36  1  0  0  0  0
 15 16  1  0  0  0  0
 15 37  1  0  0  0  0
 15 38  1  0  0  0  0
 16 17  1  0  0  0  0
 16 39  1  0  0  0  0
 16 40  1  0  0  0  0
 17 18  1  0  0  0  0
 17 41  1  0  0  0  0
 17 42  1  0  0  0  0
 18 19  1  0  0  0  0
 18 43  1  0  0  0  0
 19 44  1  0  0  0  0
 20 21  2  0  0  0  0
 20 45  1  0  0  0  0
M  END
> <s_m_source_file>
AV-unprocessed.smi

> <i_m_source_file_index>
2509

> <i_lp_mmshare_version>
43012

> <i_f3d_flags>
0

> <s_epik_input>
W0NIM11DKFtDSDNdKShbQ0gzXSljMW5bY0hdYyhbY0hdbjEpW05IXUMoPU8pW05IXVtDSDJdW0NAQEhdMltDSDJdW0NIMl1bQ0gyXVtDQEhdMltPSF0=

> <s_epik_cmdline>
J2VwaWtfcHl0aG9uJywgJy1waCcsICc3LjAnLCAnLXRuJywgJzgnLCAnLW1hJywgJzIwMCcsICctbWV0YWxfYmluZGluZycsICctaW1hZScsICc8aW5maWxlLm1hZT4nLCAnLW9tYWUnLCAnPG91dGZpbGUubWFlPic=

> <r_lp_tautomer_probability>
1

> <r_epik_Ionization_Penalty>
2.77586e-05

> <r_epik_Ionization_Penalty_Charging>
0

> <r_epik_Ionization_Penalty_Neutral>
2.77586e-05

> <r_epik_State_Penalty>
-0

> <r_epik_Charging_Adjusted_Penalty>
0

> <i_epik_Tot_Q>
0

> <i_epik_Tot_abs_Q>
0

> <r_epik_Metal_State_Penalty>
-0

> <b_epik_Metal_Only>
0

> <s_lp_Force_Field>
OPLS_2005

> <r_lp_Energy>
25.7942

> <b_lp_Chiralities_Consistent>
1

> <s_lp_Variant>
AV-unprocessed.smi:2509-2

> <Gold.Version>
5.8.1

> <Gold.Id.Protein>
6NUR|6NUR_protein|mol2

> <Gold.PLP.Fitness>
39.7594

> <Gold.PLP.PLP>
-31.9958

> <Gold.PLP.part.hbond>
-3.9630

> <Gold.PLP.part.metal>
0.0000

> <Gold.PLP.part.buried>
-5.8170

> <Gold.PLP.part.nonpolar>
-22.6790

> <Gold.PLP.part.repulsive>
0.0617

> <Gold.PLP.ligand.clash>
0.0000

> <Gold.PLP.ligand.torsion>
0.3208

> <Gold.PLP.Chemscore.Hbond>
2.7545

> <Gold.PLP.Chemscore.CHOScore>
0.0000

> <Gold.PLP.Chemscore.Metal>
0.0000

> <Gold.Chemscore.Hbonds>
donor molecule, donor type, donor heavy atom, donor atom, acceptor molecule, acceptor atom, score
      L1  H     9    32       P1  7948  1.00
      L1  H    12    33       P1  7948  0.75
      L1  H    19    44       P1 10747  0.96

> <Gold.PLP.Chemscore.Internal.Correction>
0.1418

> <Gold.Rescore>
     Score         DG    S(hbond)    S(metal)    S(lipo)     H(rot)  DE(clash)    DE(int)     intcor
     15.45     -17.26       2.30        0.00      76.72       1.91       0.01       1.79       ----

> <Gold.Chemscore.Fitness>
15.4546

> <Gold.Chemscore.DG>
-17.2560

> <Gold.Chemscore.ZeroCoef>
-5.4800

> <Gold.Chemscore.Hbond>
2.3033

> <Gold.Chemscore.Metal>
0.0000

> <Gold.Chemscore.Lipo>
76.7220

> <Gold.Chemscore.Internal_Hbond>
0.0000

> <Gold.Chemscore.DEClash>
0.0088

> <Gold.Chemscore.DEInternal>
1.7927

> <Gold.Chemscore.Rot>
1.9116

> <Gold.Chemscore.Internal.Correction>
   9.000000E+99

> <Gold.Chemscore.Hbonds>
donor molecule, donor type, donor heavy atom, donor atom, acceptor molecule, acceptor atom, score
      L1  H     9    32       P1  7948  0.54
      L1  H    12    33       P1  7948  0.09
      L1  H    19    44       P1 10747  0.92
      P1  H  6896  6909       L1     6  0.02

> <Gold.Chemscore.Hbond.Weighted>
-7.6932

> <Gold.Chemscore.Metal.Weighted>
-0.0000

> <Gold.Chemscore.Lipo.Weighted>
-8.9765

> <Gold.Chemscore.Internal_Hbond.Weighted>
0.0000

> <Gold.Chemscore.DEClash.Weighted>
0.0088

> <Gold.Chemscore.DEInternal.Weighted>
1.7927

> <Gold.Chemscore.Rot.Weighted>
4.8936

> <Gold.Chemscore.Internal.Correction.Weighted>
   9.000000E+99

> <Gold.Protein.RotatedTorsions>
[ 6907 6896 6895 6894 ] final  115.80 input  -60.11 | X-H torsion
[ 7974 7965 7964 7962 ] final  155.14 input  175.53 | X-H torsion
[ 8008 7997 7996 7995 ] final -167.71 input   59.86 | X-H torsion
[ 10167 10162 10161 10158 ] final   34.22 input  -65.29 | X-H torsion
[ 10718 10713 10712 10709 ] final  128.63 input   66.30 | X-H torsion
[ 10763 10752 10751 10750 ] final  -31.94 input  -60.55 | X-H torsion
[ 11005 11000 10999 10996 ] final  138.41 input  -57.11 | X-H torsion

> <Gold.Protein.ActiveResidues>
 VAL166  LYS551  ARG553  GLY616  TRP617  ASP618  TYR619  PRO620  LYS621  CYS622 
 ASP623  PHE694  ASN695  SER759  ASP760  ASP761  ALA762  ILE779  LEU786  VAL792 
 PHE793  MET794  SER795  GLU796  ALA797  LYS798  CYS799  TRP800  GLU811  SER814 

> <Gold.Protein.RotatedAtoms>
  152.4719  133.8049  159.6972 H   0  0  0  0  0  0  0  0  0  0  0  0  # atno 6907 bound_to 6896
  150.8713  133.7492  159.2967 H   0  0  0  0  0  0  0  0  0  0  0  0  # atno 6908 bound_to 6896
  151.5026  135.1065  159.9885 H   0  0  0  0  0  0  0  0  0  0  0  0  # atno 6909 bound_to 6896
  144.8043  139.7028  143.6168 H   0  0  0  0  0  0  0  0  0  0  0  0  # atno 7974 bound_to 7965
  155.8814  140.1009  157.1482 H   0  0  0  0  0  0  0  0  0  0  0  0  # atno 8008 bound_to 7997
  154.4005  140.1328  156.4265 H   0  0  0  0  0  0  0  0  0  0  0  0  # atno 8009 bound_to 7997
  155.7638  140.3462  155.5214 H   0  0  0  0  0  0  0  0  0  0  0  0  # atno 8010 bound_to 7997
  140.4335  144.1290  150.6163 H   0  0  0  0  0  0  0  0  0  0  0  0  # atno 10167 bound_to 10162
  157.5227  131.1098  150.9129 H   0  0  0  0  0  0  0  0  0  0  0  0  # atno 10718 bound_to 10713
  153.8056  135.6886  153.4849 H   0  0  0  0  0  0  0  0  0  0  0  0  # atno 10763 bound_to 10752
  153.1660  135.4561  154.9837 H   0  0  0  0  0  0  0  0  0  0  0  0  # atno 10764 bound_to 10752
  154.7988  135.3329  154.7541 H   0  0  0  0  0  0  0  0  0  0  0  0  # atno 10765 bound_to 10752
  140.0182  134.9409  157.0419 H   0  0  0  0  0  0  0  0  0  0  0  0  # atno 11005 bound_to 11000
  146.2332  139.5853  142.9541 LP  0  0  0  0  0  0  0  0  0  0  0  0  # atno 17320 bound_to 7965
  145.5475  141.0416  143.2296 LP  0  0  0  0  0  0  0  0  0  0  0  0  # atno 17321 bound_to 7965
  140.4400  143.2531  151.9486 LP  0  0  0  0  0  0  0  0  0  0  0  0  # atno 17342 bound_to 10162
  139.4786  144.5664  151.8159 LP  0  0  0  0  0  0  0  0  0  0  0  0  # atno 17343 bound_to 10162
  156.9735  130.5500  149.5292 LP  0  0  0  0  0  0  0  0  0  0  0  0  # atno 17370 bound_to 10713
  156.0365  130.5452  150.8665 LP  0  0  0  0  0  0  0  0  0  0  0  0  # atno 17371 bound_to 10713
  140.4434  134.1658  155.7175 LP  0  0  0  0  0  0  0  0  0  0  0  0  # atno 17394 bound_to 11000
  141.1756  133.8520  157.1430 LP  0  0  0  0  0  0  0  0  0  0  0  0  # atno 17395 bound_to 11000

$$$$
