AV-unprocessed.smi:704|AV-procd|sdf|3445|dock8
  -GOLD-   22720 0433D 1   1.00000     0.00000
 Structure written by MMmdl.
 38 39  0  0  0  0  0  0  0  0  1 V2000
  151.7402  138.2844  154.4883 C   0  0  0  0  0  0  0  0  0  0  0  0
  150.3782  138.1951  154.0843 O   0  0  0  0  0  0  0  0  0  0  0  0
  149.5817  139.3193  154.1930 C   0  0  0  0  0  0  0  0  0  0  0  0
  150.1282  140.4499  154.7062 N   0  0  0  0  0  0  0  0  0  0  0  0
  149.3539  141.5496  154.8073 C   0  0  0  0  0  0  0  0  0  0  0  0
  148.0075  141.5833  154.4007 C   0  0  0  0  0  0  0  0  0  0  0  0
  147.4381  140.4119  153.8683 C   0  0  0  0  0  0  0  0  0  0  0  0
  148.2342  139.2447  153.7693 C   0  0  0  0  0  0  0  0  0  0  0  0
  147.7697  138.0123  153.2323 N   0  0  0  0  0  0  0  0  0  0  0  0
  146.5536  137.4514  153.3382 C   0  0  0  0  0  0  0  0  0  0  0  0
  145.5947  137.9327  153.9409 O   0  0  0  0  0  0  0  0  0  0  0  0
  146.5153  136.2665  152.7130 N   0  0  0  0  0  0  0  0  0  0  0  0
  145.3536  135.3821  152.6445 C   0  0  1  0  0  0  0  0  0  0  0  0
  144.2302  136.0305  151.8195 C   0  0  0  0  0  0  0  0  0  0  0  0
  144.2640  135.3329  150.4629 C   0  0  0  0  0  0  0  0  0  0  0  0
  144.6787  133.9020  150.7927 C   0  0  0  0  0  0  0  0  0  0  0  0
  145.6915  134.0368  151.9446 C   0  0  2  0  0  0  0  0  0  0  0  0
  145.6543  132.8418  152.9101 C   0  0  0  0  0  0  0  0  0  0  0  0
  145.3166  133.0943  154.1770 N   0  0  0  0  0  0  0  0  0  0  0  0
  145.9236  131.7071  152.5203 O   0  0  0  0  0  0  0  0  0  0  0  0
  152.2235  137.3191  154.3395 H   0  0  0  0  0  0  0  0  0  0  0  0
  151.8280  138.5387  155.5456 H   0  0  0  0  0  0  0  0  0  0  0  0
  152.2840  139.0212  153.8952 H   0  0  0  0  0  0  0  0  0  0  0  0
  149.8235  142.4307  155.2186 H   0  0  0  0  0  0  0  0  0  0  0  0
  147.4257  142.4886  154.4900 H   0  0  0  0  0  0  0  0  0  0  0  0
  146.4125  140.4385  153.5355 H   0  0  0  0  0  0  0  0  0  0  0  0
  148.4733  137.4563  152.7686 H   0  0  0  0  0  0  0  0  0  0  0  0
  147.3539  135.9472  152.2506 H   0  0  0  0  0  0  0  0  0  0  0  0
  144.9850  135.2324  153.6618 H   0  0  0  0  0  0  0  0  0  0  0  0
  143.2718  135.8275  152.2992 H   0  0  0  0  0  0  0  0  0  0  0  0
  144.3231  137.1139  151.7334 H   0  0  0  0  0  0  0  0  0  0  0  0
  143.3092  135.3840  149.9390 H   0  0  0  0  0  0  0  0  0  0  0  0
  145.0197  135.7989  149.8289 H   0  0  0  0  0  0  0  0  0  0  0  0
  143.7979  133.3345  151.0977 H   0  0  0  0  0  0  0  0  0  0  0  0
  145.1074  133.3972  149.9264 H   0  0  0  0  0  0  0  0  0  0  0  0
  146.6864  134.1008  151.4988 H   0  0  0  0  0  0  0  0  0  0  0  0
  145.2913  132.3444  154.8524 H   0  0  0  0  0  0  0  0  0  0  0  0
  145.1006  134.0395  154.4581 H   0  0  0  0  0  0  0  0  0  0  0  0
  1  2  1  0  0  0  0
  1 21  1  0  0  0  0
  1 22  1  0  0  0  0
  1 23  1  0  0  0  0
  2  3  1  0  0  0  0
  3  8  1  0  0  0  0
  3  4  2  0  0  0  0
  4  5  1  0  0  0  0
  5  6  2  0  0  0  0
  5 24  1  0  0  0  0
  6  7  1  0  0  0  0
  6 25  1  0  0  0  0
  7  8  2  0  0  0  0
  7 26  1  0  0  0  0
  8  9  1  0  0  0  0
  9 10  1  0  0  0  0
  9 27  1  0  0  0  0
 10 11  2  0  0  0  0
 10 12  1  0  0  0  0
 12 13  1  0  0  0  0
 12 28  1  0  0  0  0
 13 17  1  0  0  0  0
 13 14  1  0  0  0  0
 13 29  1  0  0  0  0
 14 15  1  0  0  0  0
 14 30  1  0  0  0  0
 14 31  1  0  0  0  0
 15 16  1  0  0  0  0
 15 32  1  0  0  0  0
 15 33  1  0  0  0  0
 16 17  1  0  0  0  0
 16 34  1  0  0  0  0
 16 35  1  0  0  0  0
 17 18  1  0  0  0  0
 17 36  1  0  0  0  0
 18 19  1  0  0  0  0
 18 20  2  0  0  0  0
 19 37  1  0  0  0  0
 19 38  1  0  0  0  0
M  END
> <s_m_source_file>
AV-unprocessed.smi

> <i_m_source_file_index>
704

> <i_lp_mmshare_version>
43012

> <i_f3d_flags>
0

> <s_epik_input>
W0NIM11PYzFuW2NIXVtjSF1bY0hdYzFbTkhdQyg9TylbTkhdW0NAQEhdMltDSDJdW0NIMl1bQ0gyXVtDQEhdMkMoPU8pW05IMl0=

> <s_epik_cmdline>
J2VwaWtfcHl0aG9uJywgJy1waCcsICc3LjAnLCAnLXRuJywgJzgnLCAnLW1hJywgJzIwMCcsICctbWV0YWxfYmluZGluZycsICctaW1hZScsICc8aW5maWxlLm1hZT4nLCAnLW9tYWUnLCAnPG91dGZpbGUubWFlPic=

> <r_lp_tautomer_probability>
1

> <r_epik_Ionization_Penalty>
9.09123e-05

> <r_epik_Ionization_Penalty_Charging>
0

> <r_epik_Ionization_Penalty_Neutral>
9.09123e-05

> <r_epik_State_Penalty>
-0

> <r_epik_Charging_Adjusted_Penalty>
0

> <i_epik_Tot_Q>
0

> <i_epik_Tot_abs_Q>
0

> <r_epik_Metal_State_Penalty>
-0

> <b_epik_Metal_Only>
0

> <s_lp_Force_Field>
OPLS_2005

> <r_lp_Energy>
17.389

> <b_lp_Chiralities_Consistent>
1

> <s_lp_Variant>
AV-unprocessed.smi:704-4

> <Gold.Version>
5.8.1

> <Gold.Id.Protein>
6NUR|6NUR_protein|mol2

> <Gold.PLP.Fitness>
41.9574

> <Gold.PLP.PLP>
-30.6759

> <Gold.PLP.part.hbond>
-3.9883

> <Gold.PLP.part.metal>
0.0000

> <Gold.PLP.part.buried>
-3.2750

> <Gold.PLP.part.nonpolar>
-25.0606

> <Gold.PLP.part.repulsive>
0.7024

> <Gold.PLP.ligand.clash>
0.0000

> <Gold.PLP.ligand.torsion>
0.2923

> <Gold.PLP.Chemscore.Hbond>
2.9520

> <Gold.PLP.Chemscore.CHOScore>
1.0000

> <Gold.PLP.Chemscore.Metal>
0.0000

> <Gold.Chemscore.Hbonds>
donor molecule, donor type, donor heavy atom, donor atom, acceptor molecule, acceptor atom, score
      L1  H     9    27       P1  7948  1.00
      L1  H    12    28       P1  7948  0.99
      P1  H  7989  7998       L1     4  0.96
      L1  C     5    24       P1  8028  1.00

> <Gold.PLP.Chemscore.Internal.Correction>
0.0101

> <Gold.Rescore>
     Score         DG    S(hbond)    S(metal)    S(lipo)     H(rot)  DE(clash)    DE(int)     intcor
     14.71     -15.24       2.24        0.00      60.24       1.86       0.20       0.33       ----

> <Gold.Chemscore.Fitness>
14.7139

> <Gold.Chemscore.DG>
-15.2441

> <Gold.Chemscore.ZeroCoef>
-5.4800

> <Gold.Chemscore.Hbond>
2.2427

> <Gold.Chemscore.Metal>
0.0000

> <Gold.Chemscore.Lipo>
60.2351

> <Gold.Chemscore.Internal_Hbond>
0.0000

> <Gold.Chemscore.DEClash>
0.1972

> <Gold.Chemscore.DEInternal>
0.3331

> <Gold.Chemscore.Rot>
1.8648

> <Gold.Chemscore.Internal.Correction>
   9.000000E+99

> <Gold.Chemscore.Hbonds>
donor molecule, donor type, donor heavy atom, donor atom, acceptor molecule, acceptor atom, score
      L1  H     9    27       P1  7948  0.95
      L1  H    12    28       P1  7948  0.93
      P1  H  7989  7998       L1     4  0.27

> <Gold.Chemscore.Hbond.Weighted>
-7.4905

> <Gold.Chemscore.Metal.Weighted>
-0.0000

> <Gold.Chemscore.Lipo.Weighted>
-7.0475

> <Gold.Chemscore.Internal_Hbond.Weighted>
0.0000

> <Gold.Chemscore.DEClash.Weighted>
0.1972

> <Gold.Chemscore.DEInternal.Weighted>
0.3331

> <Gold.Chemscore.Rot.Weighted>
4.7739

> <Gold.Chemscore.Internal.Correction.Weighted>
   9.000000E+99

> <Gold.Protein.RotatedTorsions>
[ 6907 6896 6895 6894 ] final  169.20 input  -60.11 | X-H torsion
[ 7974 7965 7964 7962 ] final    5.68 input  175.53 | X-H torsion
[ 8008 7997 7996 7995 ] final -121.80 input   59.86 | X-H torsion
[ 10167 10162 10161 10158 ] final  -20.02 input  -65.29 | X-H torsion
[ 10718 10713 10712 10709 ] final  162.80 input   66.30 | X-H torsion
[ 10763 10752 10751 10750 ] final  143.73 input  -60.55 | X-H torsion
[ 11005 11000 10999 10996 ] final  151.45 input  -57.11 | X-H torsion

> <Gold.Protein.ActiveResidues>
 VAL166  LYS551  ARG553  GLY616  TRP617  ASP618  TYR619  PRO620  LYS621  CYS622 
 ASP623  PHE694  ASN695  SER759  ASP760  ASP761  ALA762  ILE779  LEU786  VAL792 
 PHE793  MET794  SER795  GLU796  ALA797  LYS798  CYS799  TRP800  GLU811  SER814 

> <Gold.Protein.RotatedAtoms>
  151.8357  133.3415  159.3627 H   0  0  0  0  0  0  0  0  0  0  0  0  # atno 6907 bound_to 6896
  150.7250  134.5440  159.5771 H   0  0  0  0  0  0  0  0  0  0  0  0  # atno 6908 bound_to 6896
  152.2903  134.7730  160.0430 H   0  0  0  0  0  0  0  0  0  0  0  0  # atno 6909 bound_to 6896
  146.2439  140.0347  142.8387 H   0  0  0  0  0  0  0  0  0  0  0  0  # atno 7974 bound_to 7965
  155.1539  140.0404  157.2827 H   0  0  0  0  0  0  0  0  0  0  0  0  # atno 8008 bound_to 7997
  154.6384  140.2541  155.7324 H   0  0  0  0  0  0  0  0  0  0  0  0  # atno 8009 bound_to 7997
  156.2520  140.2861  156.0767 H   0  0  0  0  0  0  0  0  0  0  0  0  # atno 8010 bound_to 7997
  140.7273  143.4762  151.0179 H   0  0  0  0  0  0  0  0  0  0  0  0  # atno 10167 bound_to 10162
  157.1175  131.0484  151.2430 H   0  0  0  0  0  0  0  0  0  0  0  0  # atno 10718 bound_to 10713
  153.9772  135.2945  155.3423 H   0  0  0  0  0  0  0  0  0  0  0  0  # atno 10763 bound_to 10752
  154.7289  135.5076  153.8935 H   0  0  0  0  0  0  0  0  0  0  0  0  # atno 10764 bound_to 10752
  153.0872  135.6697  154.0039 H   0  0  0  0  0  0  0  0  0  0  0  0  # atno 10765 bound_to 10752
  140.1220  134.8858  157.2085 H   0  0  0  0  0  0  0  0  0  0  0  0  # atno 11005 bound_to 11000
  145.1123  140.9412  143.4649 LP  0  0  0  0  0  0  0  0  0  0  0  0  # atno 17320 bound_to 7965
  145.0564  139.3140  143.5902 LP  0  0  0  0  0  0  0  0  0  0  0  0  # atno 17321 bound_to 7965
  139.8458  143.7503  152.3179 LP  0  0  0  0  0  0  0  0  0  0  0  0  # atno 17342 bound_to 10162
  139.7668  144.7489  151.0282 LP  0  0  0  0  0  0  0  0  0  0  0  0  # atno 17343 bound_to 10162
  157.4506  130.7596  149.7147 LP  0  0  0  0  0  0  0  0  0  0  0  0  # atno 17370 bound_to 10713
  155.9836  130.3999  150.3354 LP  0  0  0  0  0  0  0  0  0  0  0  0  # atno 17371 bound_to 10713
  140.2953  134.3193  155.7304 LP  0  0  0  0  0  0  0  0  0  0  0  0  # atno 17394 bound_to 11000
  141.2153  133.7559  156.9563 LP  0  0  0  0  0  0  0  0  0  0  0  0  # atno 17395 bound_to 11000

$$$$
