#       Name:                AV-unprocessed.smi:2945
#       Creating user name   scv26
#       Creation time:       Fri Mar 27 16:16:59 2020


#       File generated by GOLD software.
#

@<TRIPOS>MOLECULE
AV-unprocessed.smi:2945
    41    42     1
SMALL
NO_CHARGES


@<TRIPOS>ATOM
      1 ****        -6.4781  -2.4456   0.3973 C.3            1 S1                 0.0000
      2 ****        -5.1897  -1.7164   0.2268 C.2            1 S1                 0.0000
      3 ****        -3.8834  -2.1165   0.2579 C.2            1 S1                 0.0000
      4 ****        -3.1737  -0.9097   0.0193 C.2            1 S1                 0.0000
      5 ****        -1.7563  -0.8970  -0.0260 N.am           1 S1                 0.0000
      6 ****        -0.9529   0.1536  -0.2644 C.2            1 S1                 0.0000
      7 ****        -1.3370   1.3008  -0.4934 O.2            1 S1                 0.0000
      8 ****         0.3388  -0.2061  -0.2218 N.am           1 S1                 0.0000
      9 ****         1.4847   0.6725  -0.4559 C.3            1 S1                 0.0000
     10 ****         2.3559   0.0584  -1.5696 C.3            1 S1                 0.0000
     11 ****         3.6209   0.8891  -1.8277 C.3            1 S1                 0.0000
     12 ****         4.4329   1.0643  -0.5379 C.3            1 S1                 0.0000
     13 ****         3.5764   1.6964   0.5691 C.3            1 S1                 0.0000
     14 ****         2.2981   0.8792   0.8482 C.3            1 S1                 0.0000
     15 ****         1.4719   1.5412   1.9654 C.3            1 S1                 0.0000
     16 ****        -3.9740   0.1331  -0.1415 N.2            1 S1                 0.0000
     17 ****        -5.2703  -0.3787  -0.0091 O.3            1 S1                 0.0000
     18 ****        -6.3112  -3.5206   0.4663 H              1 S1                 0.0000
     19 ****        -7.1422  -2.2603  -0.4472 H              1 S1                 0.0000
     20 ****        -6.9870  -2.1231   1.3057 H              1 S1                 0.0000
     21 ****        -3.5007  -3.1125   0.4239 H              1 S1                 0.0000
     22 ****        -1.3055  -1.7845   0.1402 H              1 S1                 0.0000
     23 ****         0.5505  -1.1722  -0.0201 H              1 S1                 0.0000
     24 ****         1.1443   1.6495  -0.8044 H              1 S1                 0.0000
     25 ****         2.6441  -0.9577  -1.2955 H              1 S1                 0.0000
     26 ****         1.7795  -0.0232  -2.4919 H              1 S1                 0.0000
     27 ****         4.2336   0.4074  -2.5902 H              1 S1                 0.0000
     28 ****         3.3437   1.8670  -2.2237 H              1 S1                 0.0000
     29 ****         4.8073   0.0954  -0.2050 H              1 S1                 0.0000
     30 ****         5.3084   1.6849  -0.7313 H              1 S1                 0.0000
     31 ****         4.1697   1.7832   1.4802 H              1 S1                 0.0000
     32 ****         3.3067   2.7134   0.2809 H              1 S1                 0.0000
     33 ****         2.6094  -0.1019   1.2106 H              1 S1                 0.0000
     34 ****         1.0955   2.5157   1.6527 H              1 S1                 0.0000
     35 ****         2.0737   1.6898   2.8622 H              1 S1                 0.0000
     36 ****         0.6158   0.9303   2.2511 H              1 S1                 0.0000
     37 ****        -2.3155   1.5062  -0.5118 LP             1 S1                 0.0000
     38 ****        -0.6704   2.0272  -0.6610 LP             1 S1                 0.0000
     39 ****        -3.7096   1.0810  -0.3191 LP             1 S1                 0.0000
     40 ****        -5.7329   0.0705   0.7553 LP             1 S1                 0.0000
     41 ****        -5.7839  -0.2160  -0.8516 LP             1 S1                 0.0000
@<TRIPOS>BOND
    1    1    2 1     
    2    1   18 1     
    3    1   19 1     
    4    1   20 1     
    5    2   17 1     
    6    2    3 2     
    7    3    4 1     
    8    3   21 1     
    9    4    5 1     
   10    4   16 2     
   11    5    6 am    
   12    5   22 1     
   13    6    7 2     
   14    6    8 am    
   15    8    9 1     
   16    8   23 1     
   17    9   14 1     
   18    9   10 1     
   19    9   24 1     
   20   10   11 1     
   21   10   25 1     
   22   10   26 1     
   23   11   12 1     
   24   11   27 1     
   25   11   28 1     
   26   12   13 1     
   27   12   29 1     
   28   12   30 1     
   29   13   14 1     
   30   13   31 1     
   31   13   32 1     
   32   14   15 1     
   33   14   33 1     
   34   15   34 1     
   35   15   35 1     
   36   15   36 1     
   37   16   17 1     
   38    7   37 1     
   39    7   38 1     
   40   16   39 1     
   41   17   40 1     
   42   17   41 1     
@<TRIPOS>SUBSTRUCTURE
      1 S1             1
@<TRIPOS>SET
LONE_PAIRS      STATIC     ATOMS    <user>   **** ""
5 37 38 39 40 41
DONOR_HYDROGENS      STATIC     ATOMS    <user>   **** ""
2 22 23
ATOM$BLUE        STATIC     ATOMS    COLORGROUP SYSTEM
5 37 38 39 40 41
ATOM$RED        STATIC     ATOMS    COLORGROUP SYSTEM
2 22 23
