#       Name:                AV-unprocessed.smi:1817
#       Creating user name   scv26
#       Creation time:       Fri Mar 27 09:04:04 2020


#       File generated by GOLD software.
#

@<TRIPOS>MOLECULE
AV-unprocessed.smi:1817
    48    49     1
SMALL
NO_CHARGES


@<TRIPOS>ATOM
      1 ****        -2.7193   0.5281  -4.7284 C.3            1 S1                 0.0000
      2 ****        -1.8792   1.0230  -3.5423 C.3            1 S1                 0.0000
      3 ****        -2.2407   0.3524  -2.2691 N.4            1 S1                 1.0000
      4 ****        -1.7811   1.1124  -1.0813 C.3            1 S1                 0.0000
      5 ****        -2.2226   0.4016   0.2143 C.3            1 S1                 0.0000
      6 ****        -1.6626  -0.9542   0.3058 N.3            1 S1                 0.0000
      7 ****        -0.1927  -1.0380   0.4642 C.3            1 S1                 0.0000
      8 ****         0.2375  -2.5108   0.6669 C.3            1 S1                 0.0000
      9 ****         0.3085  -0.1595   1.6392 C.3            1 S1                 0.0000
     10 ****         1.7578  -0.2269   1.7855 N.am           1 S1                 0.0000
     11 ****         2.4825   0.4943   2.6505 C.2            1 S1                 0.0000
     12 ****         1.9209   1.2850   3.4120 O.2            1 S1                 0.0000
     13 ****         3.8112   0.2557   2.5772 N.pl3          1 S1                -1.0000
     14 ****         4.6585   0.9244   3.3768 C.2            1 S1                 0.0000
     15 ****         5.3539   1.9916   2.9520 N.2            1 S1                 0.0000
     16 ****         6.1753   2.5335   3.9315 N.2            1 S1                 0.0000
     17 ****         6.0835   1.8528   5.0736 C.2            1 S1                 0.0000
     18 ****         4.9893   0.4859   5.0554 S.3            1 S1                 0.0000
     19 ****        -2.2040  -1.6936  -0.8441 C.3            1 S1                 0.0000
     20 ****        -1.7880  -1.0602  -2.1904 C.3            1 S1                 0.0000
     21 ****        -2.4909   1.1040  -5.6256 H              1 S1                 0.0000
     22 ****        -3.7857   0.6387  -4.5291 H              1 S1                 0.0000
     23 ****        -2.5251  -0.5190  -4.9594 H              1 S1                 0.0000
     24 ****        -0.8146   0.8954  -3.7441 H              1 S1                 0.0000
     25 ****        -2.0471   2.0958  -3.4385 H              1 S1                 0.0000
     26 ****        -0.6989   1.2462  -1.1111 H              1 S1                 0.0000
     27 ****        -2.2176   2.1115  -1.1044 H              1 S1                 0.0000
     28 ****        -1.9738   0.9972   1.0905 H              1 S1                 0.0000
     29 ****        -3.3112   0.3306   0.2312 H              1 S1                 0.0000
     30 ****         0.2928  -0.6711  -0.4390 H              1 S1                 0.0000
     31 ****         1.3030  -2.5997   0.8769 H              1 S1                 0.0000
     32 ****         0.0681  -3.1188  -0.2204 H              1 S1                 0.0000
     33 ****        -0.2969  -2.9685   1.5002 H              1 S1                 0.0000
     34 ****         0.0695   0.8906   1.4747 H              1 S1                 0.0000
     35 ****        -0.1657  -0.4625   2.5741 H              1 S1                 0.0000
     36 ****         2.2531  -0.8666   1.1819 H              1 S1                 0.0000
     37 ****         6.6667   2.1547   5.9305 H              1 S1                 0.0000
     38 ****        -1.9203  -2.7438  -0.8120 H              1 S1                 0.0000
     39 ****        -3.2926  -1.6970  -0.7722 H              1 S1                 0.0000
     40 ****        -2.2419  -1.6355  -2.9966 H              1 S1                 0.0000
     41 ****        -0.7095  -1.1219  -2.3391 H              1 S1                 0.0000
     42 ****        -3.2493   0.3408  -2.2193 H              1 S1                 0.0000
     43 ****        -1.9466  -1.3777   1.1660 LP             1 S1                 0.0000
     44 ****         0.9265   1.3866   3.3828 LP             1 S1                 0.0000
     45 ****         2.4598   1.8247   4.0588 LP             1 S1                 0.0000
     46 ****         4.1632  -0.4184   1.9279 LP             1 S1                 0.0000
     47 ****         5.2870   2.3589   2.0243 LP             1 S1                 0.0000
     48 ****         6.7611   3.3327   3.7972 LP             1 S1                 0.0000
@<TRIPOS>BOND
    1    1    2 1     
    2    1   21 1     
    3    1   22 1     
    4    1   23 1     
    5    2    3 1     
    6    2   24 1     
    7    2   25 1     
    8    3   20 1     
    9    3    4 1     
   10    3   42 1     
   11    4    5 1     
   12    4   26 1     
   13    4   27 1     
   14    5    6 1     
   15    5   28 1     
   16    5   29 1     
   17    6    7 1     
   18    6   19 1     
   19    7    8 1     
   20    7    9 1     
   21    7   30 1     
   22    8   31 1     
   23    8   32 1     
   24    8   33 1     
   25    9   10 1     
   26    9   34 1     
   27    9   35 1     
   28   10   11 am    
   29   10   36 1     
   30   11   12 2     
   31   11   13 1     
   32   13   14 1     
   33   14   18 1     
   34   14   15 2     
   35   15   16 1     
   36   16   17 2     
   37   17   18 1     
   38   17   37 1     
   39   19   20 1     
   40   19   38 1     
   41   19   39 1     
   42   20   40 1     
   43   20   41 1     
   44    6   43 1     
   45   12   44 1     
   46   12   45 1     
   47   13   46 1     
   48   15   47 1     
   49   16   48 1     
@<TRIPOS>SUBSTRUCTURE
      1 S1             1
@<TRIPOS>SET
LONE_PAIRS      STATIC     ATOMS    <user>   **** ""
6 43 44 45 46 47 48
DONOR_HYDROGENS      STATIC     ATOMS    <user>   **** ""
2 42 36
ATOM$BLUE        STATIC     ATOMS    COLORGROUP SYSTEM
6 43 44 45 46 47 48
ATOM$RED        STATIC     ATOMS    COLORGROUP SYSTEM
2 42 36
