AV-unprocessed.smi:2552|AV-procd|sdf|10016|dock6
  -GOLD-   2272014 63D 1   1.00000     0.00000
 Structure written by MMmdl.
 34 36  0  0  0  0  0  0  0  0  1 V2000
  145.6789  143.0270  156.1016 C   0  0  0  0  0  0  0  0  0  0  0  0
  146.7987  142.2022  155.6539 N   0  0  0  0  0  0  0  0  0  0  0  0
  146.8640  142.0035  154.2696 N   0  0  0  0  0  0  0  0  0  0  0  0
  147.8091  141.2959  153.7339 C   0  0  0  0  0  0  0  0  0  0  0  0
  148.8130  140.7053  154.6140 C   0  0  0  0  0  0  0  0  0  0  0  0
  149.9679  139.8961  154.4297 C   0  0  0  0  0  0  0  0  0  0  0  0
  150.5679  139.6120  155.5843 N   0  0  0  0  0  0  0  0  0  0  0  0
  149.8243  140.2186  156.5458 N   0  0  0  0  0  0  0  0  0  0  0  0
  150.2073  140.1015  157.9443 C   0  0  0  0  0  0  0  0  0  0  0  0
  151.6694  140.5198  158.2005 C   0  0  1  0  0  0  0  0  0  0  0  0
  152.4812  140.1379  157.1055 O   0  0  0  0  0  0  0  0  0  0  0  0
  151.7680  142.0088  158.5045 C   0  0  0  0  0  0  0  0  0  0  0  0
  151.1865  142.9564  157.6319 C   0  0  0  0  0  0  0  0  0  0  0  0
  151.2695  144.3329  157.9170 C   0  0  0  0  0  0  0  0  0  0  0  0
  151.9307  144.7725  159.0793 C   0  0  0  0  0  0  0  0  0  0  0  0
  152.5060  143.8342  159.9569 C   0  0  0  0  0  0  0  0  0  0  0  0
  152.4245  142.4566  159.6738 C   0  0  0  0  0  0  0  0  0  0  0  0
  152.9779  141.5683  160.5342 F   0  0  0  0  0  0  0  0  0  0  0  0
  148.7676  140.8821  155.9573 C   0  0  0  0  0  0  0  0  0  0  0  0
  147.6843  141.6922  156.5621 C   0  0  0  0  0  0  0  0  0  0  0  0
  147.6116  141.8757  157.7773 O   0  0  0  0  0  0  0  0  0  0  0  0
  146.0398  143.9100  156.6308 H   0  0  0  0  0  0  0  0  0  0  0  0
  145.0326  142.4642  156.7764 H   0  0  0  0  0  0  0  0  0  0  0  0
  145.0657  143.3716  155.2671 H   0  0  0  0  0  0  0  0  0  0  0  0
  147.8579  141.1423  152.6561 H   0  0  0  0  0  0  0  0  0  0  0  0
  150.3864  139.5109  153.5116 H   0  0  0  0  0  0  0  0  0  0  0  0
  149.5294  140.7067  158.5485 H   0  0  0  0  0  0  0  0  0  0  0  0
  150.0504  139.0676  158.2535 H   0  0  0  0  0  0  0  0  0  0  0  0
  152.0496  139.9672  159.0598 H   0  0  0  0  0  0  0  0  0  0  0  0
  151.9955  140.2822  156.3081 H   0  0  0  0  0  0  0  0  0  0  0  0
  150.6711  142.6311  156.7401 H   0  0  0  0  0  0  0  0  0  0  0  0
  150.8236  145.0510  157.2447 H   0  0  0  0  0  0  0  0  0  0  0  0
  151.9941  145.8281  159.2991 H   0  0  0  0  0  0  0  0  0  0  0  0
  153.0095  144.1709  160.8510 H   0  0  0  0  0  0  0  0  0  0  0  0
  1  2  1  0  0  0  0
  1 22  1  0  0  0  0
  1 23  1  0  0  0  0
  1 24  1  0  0  0  0
  2 20  1  0  0  0  0
  2  3  1  0  0  0  0
  3  4  2  0  0  0  0
  4  5  1  0  0  0  0
  4 25  1  0  0  0  0
  5 19  2  0  0  0  0
  5  6  1  0  0  0  0
  6  7  2  0  0  0  0
  6 26  1  0  0  0  0
  7  8  1  0  0  0  0
  8  9  1  0  0  0  0
  8 19  1  0  0  0  0
  9 10  1  0  0  0  0
  9 27  1  0  0  0  0
  9 28  1  0  0  0  0
 10 11  1  0  0  0  0
 10 12  1  0  0  0  0
 10 29  1  0  0  0  0
 11 30  1  0  0  0  0
 12 17  1  0  0  0  0
 12 13  2  0  0  0  0
 13 14  1  0  0  0  0
 13 31  1  0  0  0  0
 14 15  2  0  0  0  0
 14 32  1  0  0  0  0
 15 16  1  0  0  0  0
 15 33  1  0  0  0  0
 16 17  2  0  0  0  0
 16 34  1  0  0  0  0
 17 18  1  0  0  0  0
 19 20  1  0  0  0  0
 20 21  2  0  0  0  0
M  END
> <s_m_source_file>
AV-unprocessed.smi

> <i_m_source_file_index>
2552

> <i_lp_mmshare_version>
43012

> <i_f3d_flags>
0

> <s_epik_input>
W2NIXTFubihbQ0gzXSljKD1PKWMoYzEyKW4obltjSF0yKVtDSDJdW0NASF0oW09IXSljM1tjSF1bY0hdW2NIXVtjSF1jM0Y=

> <s_epik_cmdline>
J2VwaWtfcHl0aG9uJywgJy1waCcsICc3LjAnLCAnLXRuJywgJzgnLCAnLW1hJywgJzIwMCcsICctbWV0YWxfYmluZGluZycsICctaW1hZScsICc8aW5maWxlLm1hZT4nLCAnLW9tYWUnLCAnPG91dGZpbGUubWFlPic=

> <r_lp_tautomer_probability>
1

> <r_epik_Ionization_Penalty>
6.28011e-06

> <r_epik_Ionization_Penalty_Charging>
1.65421e-10

> <r_epik_Ionization_Penalty_Neutral>
6.27995e-06

> <r_epik_State_Penalty>
-0

> <r_epik_Charging_Adjusted_Penalty>
1.65421e-10

> <i_epik_Tot_Q>
0

> <i_epik_Tot_abs_Q>
0

> <r_epik_Metal_State_Penalty>
-0

> <b_epik_Metal_Only>
0

> <s_lp_Force_Field>
OPLS_2005

> <r_lp_Energy>
28.1215

> <b_lp_Chiralities_Consistent>
1

> <s_lp_Variant>
AV-unprocessed.smi:2552-2

> <Gold.Version>
5.8.1

> <Gold.Id.Protein>
6NUR|6NUR_protein|mol2

> <Gold.PLP.Fitness>
50.2902

> <Gold.PLP.PLP>
-42.5270

> <Gold.PLP.part.hbond>
-1.0000

> <Gold.PLP.part.metal>
0.0000

> <Gold.PLP.part.buried>
-4.1279

> <Gold.PLP.part.nonpolar>
-37.7942

> <Gold.PLP.part.repulsive>
0.3070

> <Gold.PLP.ligand.clash>
0.0000

> <Gold.PLP.ligand.torsion>
0.5153

> <Gold.PLP.Chemscore.Hbond>
1.0000

> <Gold.PLP.Chemscore.CHOScore>
1.9237

> <Gold.PLP.Chemscore.Metal>
0.0000

> <Gold.Chemscore.Hbonds>
donor molecule, donor type, donor heavy atom, donor atom, acceptor molecule, acceptor atom, score
      P1  H  7997  8008       L1    11  0.98
      L1  C     4    25       P1  7957  0.99
      L1  C     6    26       P1  7957  0.95

> <Gold.PLP.Chemscore.Internal.Correction>
0.0230

> <Gold.Rescore>
     Score         DG    S(hbond)    S(metal)    S(lipo)     H(rot)  DE(clash)    DE(int)     intcor
     15.41     -16.01       0.89        0.00     108.82       2.02       0.03       0.57       ----

> <Gold.Chemscore.Fitness>
15.4136

> <Gold.Chemscore.DG>
-16.0147

> <Gold.Chemscore.ZeroCoef>
-5.4800

> <Gold.Chemscore.Hbond>
0.8891

> <Gold.Chemscore.Metal>
0.0000

> <Gold.Chemscore.Lipo>
108.8169

> <Gold.Chemscore.Internal_Hbond>
0.0000

> <Gold.Chemscore.DEClash>
0.0323

> <Gold.Chemscore.DEInternal>
0.5688

> <Gold.Chemscore.Rot>
2.0181

> <Gold.Chemscore.Internal.Correction>
   9.000000E+99

> <Gold.Chemscore.Hbonds>
donor molecule, donor type, donor heavy atom, donor atom, acceptor molecule, acceptor atom, score
      P1  H  7997  8008       L1    11  0.75

> <Gold.Chemscore.Hbond.Weighted>
-2.9695

> <Gold.Chemscore.Metal.Weighted>
-0.0000

> <Gold.Chemscore.Lipo.Weighted>
-12.7316

> <Gold.Chemscore.Internal_Hbond.Weighted>
0.0000

> <Gold.Chemscore.DEClash.Weighted>
0.0323

> <Gold.Chemscore.DEInternal.Weighted>
0.5688

> <Gold.Chemscore.Rot.Weighted>
5.1663

> <Gold.Chemscore.Internal.Correction.Weighted>
   9.000000E+99

> <Gold.Protein.RotatedTorsions>
[ 6907 6896 6895 6894 ] final  -52.19 input  -60.11 | X-H torsion
[ 7974 7965 7964 7962 ] final   43.04 input  175.53 | X-H torsion
[ 8008 7997 7996 7995 ] final  -70.81 input   59.86 | X-H torsion
[ 10167 10162 10161 10158 ] final  -98.06 input  -65.29 | X-H torsion
[ 10718 10713 10712 10709 ] final   -3.43 input   66.30 | X-H torsion
[ 10763 10752 10751 10750 ] final -175.16 input  -60.55 | X-H torsion
[ 11005 11000 10999 10996 ] final   55.58 input  -57.11 | X-H torsion

> <Gold.Protein.ActiveResidues>
 VAL166  LYS551  ARG553  GLY616  TRP617  ASP618  TYR619  PRO620  LYS621  CYS622 
 ASP623  PHE694  ASN695  SER759  ASP760  ASP761  ALA762  ILE779  LEU786  VAL792 
 PHE793  MET794  SER795  GLU796  ALA797  LYS798  CYS799  TRP800  GLU811  SER814 

> <Gold.Protein.RotatedAtoms>
  150.8541  134.7875  159.7031 H   0  0  0  0  0  0  0  0  0  0  0  0  # atno 6907 bound_to 6896
  152.4598  134.5207  159.9791 H   0  0  0  0  0  0  0  0  0  0  0  0  # atno 6908 bound_to 6896
  151.5323  133.3409  159.2956 H   0  0  0  0  0  0  0  0  0  0  0  0  # atno 6909 bound_to 6896
  146.0689  139.5232  142.9610 H   0  0  0  0  0  0  0  0  0  0  0  0  # atno 7974 bound_to 7965
  154.5040  140.0827  156.7856 H   0  0  0  0  0  0  0  0  0  0  0  0  # atno 8008 bound_to 7997
  155.3937  140.3434  155.4234 H   0  0  0  0  0  0  0  0  0  0  0  0  # atno 8009 bound_to 7997
  156.1492  140.1553  156.8785 H   0  0  0  0  0  0  0  0  0  0  0  0  # atno 8010 bound_to 7997
  140.2770  143.3307  152.0479 H   0  0  0  0  0  0  0  0  0  0  0  0  # atno 10167 bound_to 10162
  156.7762  130.5316  149.5758 H   0  0  0  0  0  0  0  0  0  0  0  0  # atno 10718 bound_to 10713
  154.5877  135.2842  155.0667 H   0  0  0  0  0  0  0  0  0  0  0  0  # atno 10763 bound_to 10752
  154.1980  135.6429  153.5082 H   0  0  0  0  0  0  0  0  0  0  0  0  # atno 10764 bound_to 10752
  153.0110  135.5462  154.6552 H   0  0  0  0  0  0  0  0  0  0  0  0  # atno 10765 bound_to 10752
  140.0596  134.5621  155.9168 H   0  0  0  0  0  0  0  0  0  0  0  0  # atno 11005 bound_to 11000
  145.6426  141.0281  143.1803 LP  0  0  0  0  0  0  0  0  0  0  0  0  # atno 17320 bound_to 7965
  144.7219  139.8000  143.7378 LP  0  0  0  0  0  0  0  0  0  0  0  0  # atno 17321 bound_to 7965
  139.4973  144.6618  151.6447 LP  0  0  0  0  0  0  0  0  0  0  0  0  # atno 17342 bound_to 10162
  140.5843  143.9891  150.6286 LP  0  0  0  0  0  0  0  0  0  0  0  0  # atno 17343 bound_to 10162
  156.1246  130.6135  151.0245 LP  0  0  0  0  0  0  0  0  0  0  0  0  # atno 17370 bound_to 10713
  157.6668  131.0870  150.7710 LP  0  0  0  0  0  0  0  0  0  0  0  0  # atno 17371 bound_to 10713
  141.1967  133.6593  156.5705 LP  0  0  0  0  0  0  0  0  0  0  0  0  # atno 17394 bound_to 11000
  140.3791  134.7539  157.4649 LP  0  0  0  0  0  0  0  0  0  0  0  0  # atno 17395 bound_to 11000

$$$$
