AV-unprocessed.smi:2739|AV-procd|sdf|10552|dock3
  -GOLD-   2272015 03D 1   1.00000     0.00000
 Structure written by MMmdl.
 35 35  0  0  0  0  0  0  0  0  1 V2000
  153.2749  142.3542  162.0960 C   0  0  0  0  0  0  0  0  0  0  0  0
  152.8918  142.3730  160.6091 C   0  0  0  0  0  0  0  0  0  0  0  0
  152.7561  143.7892  160.0152 C   0  0  2  0  0  0  0  0  0  0  0  0
  151.7231  144.6269  160.7815 C   0  0  0  0  0  0  0  0  0  0  0  0
  152.3682  143.7264  158.6073 N   0  0  0  0  0  0  0  0  0  0  0  0
  151.3239  143.0482  158.1045 C   0  0  0  0  0  0  0  0  0  0  0  0
  150.5380  142.3948  158.7901 O   0  0  0  0  0  0  0  0  0  0  0  0
  151.1346  143.1215  156.5892 C   0  0  0  0  0  0  0  0  0  0  0  0
  150.7814  141.8232  156.0444 N   0  0  0  0  0  0  0  0  0  0  0  0
  151.4828  140.6395  156.1279 C   0  0  0  0  0  0  0  0  0  0  0  0
  150.7604  139.6922  155.4612 C   0  0  0  0  0  0  0  0  0  0  0  0
  149.6145  140.3963  154.9924 C   0  0  0  0  0  0  0  0  0  0  0  0
  148.4611  139.8480  154.1924 C   0  0  1  0  0  0  0  0  0  0  0  0
  147.6046  140.9714  153.5922 C   0  0  0  0  0  0  0  0  0  0  0  0
  148.8878  138.9998  153.1453 O   0  0  0  0  0  0  0  0  0  0  0  0
  149.6340  141.6744  155.3481 N   0  0  0  0  0  0  0  0  0  0  0  0
  153.2950  141.3330  162.4768 H   0  0  0  0  0  0  0  0  0  0  0  0
  152.5581  142.9178  162.6937 H   0  0  0  0  0  0  0  0  0  0  0  0
  154.2623  142.7850  162.2619 H   0  0  0  0  0  0  0  0  0  0  0  0
  153.6269  141.8020  160.0404 H   0  0  0  0  0  0  0  0  0  0  0  0
  151.9442  141.8460  160.4915 H   0  0  0  0  0  0  0  0  0  0  0  0
  153.7188  144.2930  160.1163 H   0  0  0  0  0  0  0  0  0  0  0  0
  151.9965  144.7214  161.8327 H   0  0  0  0  0  0  0  0  0  0  0  0
  150.7312  144.1760  160.7351 H   0  0  0  0  0  0  0  0  0  0  0  0
  151.6512  145.6340  160.3693 H   0  0  0  0  0  0  0  0  0  0  0  0
  152.9526  144.2310  157.9562 H   0  0  0  0  0  0  0  0  0  0  0  0
  150.3420  143.8303  156.3462 H   0  0  0  0  0  0  0  0  0  0  0  0
  152.0472  143.4845  156.1132 H   0  0  0  0  0  0  0  0  0  0  0  0
  152.4273  140.5721  156.6479 H   0  0  0  0  0  0  0  0  0  0  0  0
  151.0127  138.6507  155.3277 H   0  0  0  0  0  0  0  0  0  0  0  0
  147.8283  139.2470  154.8463 H   0  0  0  0  0  0  0  0  0  0  0  0
  147.2129  141.6234  154.3737 H   0  0  0  0  0  0  0  0  0  0  0  0
  146.7535  140.5676  153.0431 H   0  0  0  0  0  0  0  0  0  0  0  0
  148.1830  141.5883  152.9035 H   0  0  0  0  0  0  0  0  0  0  0  0
  149.3793  139.5162  152.5252 H   0  0  0  0  0  0  0  0  0  0  0  0
  1  2  1  0  0  0  0
  1 17  1  0  0  0  0
  1 18  1  0  0  0  0
  1 19  1  0  0  0  0
  2  3  1  0  0  0  0
  2 20  1  0  0  0  0
  2 21  1  0  0  0  0
  3  4  1  0  0  0  0
  3  5  1  0  0  0  0
  3 22  1  0  0  0  0
  4 23  1  0  0  0  0
  4 24  1  0  0  0  0
  4 25  1  0  0  0  0
  5  6  1  0  0  0  0
  5 26  1  0  0  0  0
  6  7  2  0  0  0  0
  6  8  1  0  0  0  0
  8  9  1  0  0  0  0
  8 27  1  0  0  0  0
  8 28  1  0  0  0  0
  9 16  1  0  0  0  0
  9 10  1  0  0  0  0
 10 11  2  0  0  0  0
 10 29  1  0  0  0  0
 11 12  1  0  0  0  0
 11 30  1  0  0  0  0
 12 13  1  0  0  0  0
 12 16  2  0  0  0  0
 13 14  1  0  0  0  0
 13 15  1  0  0  0  0
 13 31  1  0  0  0  0
 14 32  1  0  0  0  0
 14 33  1  0  0  0  0
 14 34  1  0  0  0  0
 15 35  1  0  0  0  0
M  END
> <s_m_source_file>
AV-unprocessed.smi

> <i_m_source_file_index>
2739

> <i_lp_mmshare_version>
43012

> <i_f3d_flags>
0

> <s_epik_input>
W0NIM11bQ0gyXVtDQEhdKFtDSDNdKVtOSF1DKD1PKVtDSDJdbjFbY0hdW2NIXWMobjEpW0NASF0oW0NIM10pW09IXQ==

> <s_epik_cmdline>
J2VwaWtfcHl0aG9uJywgJy1waCcsICc3LjAnLCAnLXRuJywgJzgnLCAnLW1hJywgJzIwMCcsICctbWV0YWxfYmluZGluZycsICctaW1hZScsICc8aW5maWxlLm1hZT4nLCAnLW9tYWUnLCAnPG91dGZpbGUubWFlPic=

> <r_lp_tautomer_probability>
1

> <r_epik_Ionization_Penalty>
5.22246e-06

> <r_epik_Ionization_Penalty_Charging>
0

> <r_epik_Ionization_Penalty_Neutral>
5.22246e-06

> <r_epik_State_Penalty>
-0

> <r_epik_Charging_Adjusted_Penalty>
0

> <i_epik_Tot_Q>
0

> <i_epik_Tot_abs_Q>
0

> <r_epik_Metal_State_Penalty>
-0

> <b_epik_Metal_Only>
0

> <s_lp_Force_Field>
OPLS_2005

> <r_lp_Energy>
1.64389

> <b_lp_Chiralities_Consistent>
1

> <s_lp_Variant>
AV-unprocessed.smi:2739-3

> <Gold.Version>
5.8.1

> <Gold.Id.Protein>
6NUR|6NUR_protein|mol2

> <Gold.PLP.Fitness>
38.8224

> <Gold.PLP.PLP>
-37.2188

> <Gold.PLP.part.hbond>
-1.6349

> <Gold.PLP.part.metal>
0.0000

> <Gold.PLP.part.buried>
-4.7381

> <Gold.PLP.part.nonpolar>
-30.9294

> <Gold.PLP.part.repulsive>
0.1903

> <Gold.PLP.ligand.clash>
0.0000

> <Gold.PLP.ligand.torsion>
0.7148

> <Gold.PLP.Chemscore.Hbond>
1.0000

> <Gold.PLP.Chemscore.CHOScore>
0.0000

> <Gold.PLP.Chemscore.Metal>
0.0000

> <Gold.Chemscore.Hbonds>
donor molecule, donor type, donor heavy atom, donor atom, acceptor molecule, acceptor atom, score
      L1  H    15    35       P1  7957  0.86

> <Gold.PLP.Chemscore.Internal.Correction>
0.0331

> <Gold.Rescore>
     Score         DG    S(hbond)    S(metal)    S(lipo)     H(rot)  DE(clash)    DE(int)     intcor
     11.76     -13.13       0.97        0.00      89.14       2.34       0.28       1.10       ----

> <Gold.Chemscore.Fitness>
11.7554

> <Gold.Chemscore.DG>
-13.1326

> <Gold.Chemscore.ZeroCoef>
-5.4800

> <Gold.Chemscore.Hbond>
0.9659

> <Gold.Chemscore.Metal>
0.0000

> <Gold.Chemscore.Lipo>
89.1374

> <Gold.Chemscore.Internal_Hbond>
0.0000

> <Gold.Chemscore.DEClash>
0.2819

> <Gold.Chemscore.DEInternal>
1.0952

> <Gold.Chemscore.Rot>
2.3448

> <Gold.Chemscore.Internal.Correction>
   9.000000E+99

> <Gold.Chemscore.Hbonds>
donor molecule, donor type, donor heavy atom, donor atom, acceptor molecule, acceptor atom, score
      L1  H    15    35       P1  7957  0.80

> <Gold.Chemscore.Hbond.Weighted>
-3.2262

> <Gold.Chemscore.Metal.Weighted>
-0.0000

> <Gold.Chemscore.Lipo.Weighted>
-10.4291

> <Gold.Chemscore.Internal_Hbond.Weighted>
0.0000

> <Gold.Chemscore.DEClash.Weighted>
0.2819

> <Gold.Chemscore.DEInternal.Weighted>
1.0952

> <Gold.Chemscore.Rot.Weighted>
6.0027

> <Gold.Chemscore.Internal.Correction.Weighted>
   9.000000E+99

> <Gold.Protein.RotatedTorsions>
[ 6907 6896 6895 6894 ] final  -96.62 input  -60.11 | X-H torsion
[ 7974 7965 7964 7962 ] final  -35.25 input  175.53 | X-H torsion
[ 8008 7997 7996 7995 ] final  -46.84 input   59.86 | X-H torsion
[ 10167 10162 10161 10158 ] final  -23.09 input  -65.29 | X-H torsion
[ 10718 10713 10712 10709 ] final  -94.30 input   66.30 | X-H torsion
[ 10763 10752 10751 10750 ] final  -39.86 input  -60.55 | X-H torsion
[ 11005 11000 10999 10996 ] final -107.11 input  -57.11 | X-H torsion

> <Gold.Protein.ActiveResidues>
 VAL166  LYS551  ARG553  GLY616  TRP617  ASP618  TYR619  PRO620  LYS621  CYS622 
 ASP623  PHE694  ASN695  SER759  ASP760  ASP761  ALA762  ILE779  LEU786  VAL792 
 PHE793  MET794  SER795  GLU796  ALA797  LYS798  CYS799  TRP800  GLU811  SER814 

> <Gold.Protein.RotatedAtoms>
  150.6994  134.1474  159.4127 H   0  0  0  0  0  0  0  0  0  0  0  0  # atno 6907 bound_to 6896
  151.9457  135.0190  160.0548 H   0  0  0  0  0  0  0  0  0  0  0  0  # atno 6908 bound_to 6896
  152.2054  133.4837  159.5118 H   0  0  0  0  0  0  0  0  0  0  0  0  # atno 6909 bound_to 6896
  146.0762  140.6136  142.8929 H   0  0  0  0  0  0  0  0  0  0  0  0  # atno 7974 bound_to 7965
  154.4011  140.1361  156.4077 H   0  0  0  0  0  0  0  0  0  0  0  0  # atno 8008 bound_to 7997
  155.7764  140.3482  155.5253 H   0  0  0  0  0  0  0  0  0  0  0  0  # atno 8009 bound_to 7997
  155.8717  140.0973  157.1536 H   0  0  0  0  0  0  0  0  0  0  0  0  # atno 8010 bound_to 7997
  140.7287  143.4475  151.0565 H   0  0  0  0  0  0  0  0  0  0  0  0  # atno 10167 bound_to 10162
  156.0025  130.5062  150.5905 H   0  0  0  0  0  0  0  0  0  0  0  0  # atno 10718 bound_to 10713
  153.9364  135.6766  153.4745 H   0  0  0  0  0  0  0  0  0  0  0  0  # atno 10763 bound_to 10752
  153.0953  135.4854  154.8764 H   0  0  0  0  0  0  0  0  0  0  0  0  # atno 10764 bound_to 10752
  154.7400  135.3158  154.8702 H   0  0  0  0  0  0  0  0  0  0  0  0  # atno 10765 bound_to 10752
  141.0970  133.8952  157.1937 H   0  0  0  0  0  0  0  0  0  0  0  0  # atno 11005 bound_to 11000
  144.7263  140.4535  143.6970 LP  0  0  0  0  0  0  0  0  0  0  0  0  # atno 17320 bound_to 7965
  145.6301  139.1535  143.2974 LP  0  0  0  0  0  0  0  0  0  0  0  0  # atno 17321 bound_to 7965
  139.8148  143.7901  152.3173 LP  0  0  0  0  0  0  0  0  0  0  0  0  # atno 17342 bound_to 10162
  139.7963  144.7391  150.9886 LP  0  0  0  0  0  0  0  0  0  0  0  0  # atno 17343 bound_to 10162
  157.3771  131.0775  151.1509 LP  0  0  0  0  0  0  0  0  0  0  0  0  # atno 17370 bound_to 10713
  157.2243  130.6496  149.5824 LP  0  0  0  0  0  0  0  0  0  0  0  0  # atno 17371 bound_to 10713
  139.9810  135.0098  156.9749 LP  0  0  0  0  0  0  0  0  0  0  0  0  # atno 17394 bound_to 11000
  140.5115  134.0997  155.7271 LP  0  0  0  0  0  0  0  0  0  0  0  0  # atno 17395 bound_to 11000

$$$$
