AV-unprocessed.smi:158|AV-procd|sdf|1327|dock9
  -GOLD-   2262019 23D 1   1.00000     0.00000
 Structure written by MMmdl.
 31 33  0  0  0  0  0  0  0  0  1 V2000
  152.0989  144.8775  161.3491 N   0  0  0  0  0  0  0  0  0  0  0  0
  152.2770  143.6724  160.7892 C   0  0  0  0  0  0  0  0  0  0  0  0
  152.9593  142.7342  161.4853 N   0  0  0  0  0  0  0  0  0  0  0  0
  153.1550  141.5179  160.9634 C   0  0  0  0  0  0  0  0  0  0  0  0
  154.0384  140.3972  161.9312 Cl  0  0  0  0  0  0  0  0  0  0  0  0
  152.7429  141.0719  159.7733 N   0  0  0  0  0  0  0  0  0  0  0  0
  152.0597  142.0142  159.0602 C   0  0  0  0  0  0  0  0  0  0  0  0
  151.7838  143.3362  159.5046 C   0  0  0  0  0  0  0  0  0  0  0  0
  151.0621  144.0218  158.5387 N   0  0  0  0  0  0  0  0  0  0  0  0
  150.9230  143.1500  157.5771 C   0  0  0  0  0  0  0  0  0  0  0  0
  151.4987  141.9170  157.7986 N   0  0  0  0  0  0  0  0  0  0  0  0
  151.4844  140.7436  156.8582 C   0  0  2  0  0  0  0  0  0  0  0  0
  150.8020  141.0970  155.6894 O   0  0  0  0  0  0  0  0  0  0  0  0
  149.6689  140.2483  155.4925 C   0  0  2  0  0  0  0  0  0  0  0  0
  148.5292  140.9758  154.7562 C   0  0  0  0  0  0  0  0  0  0  0  0
  149.0294  142.1138  154.0863 O   0  0  0  0  0  0  0  0  0  0  0  0
  149.3463  139.6609  156.8748 C   0  0  2  0  0  0  0  0  0  0  0  0
  148.5172  140.5188  157.6376 O   0  0  0  0  0  0  0  0  0  0  0  0
  150.7401  139.5427  157.4630 C   0  0  2  0  0  0  0  0  0  0  0  0
  150.7767  139.5131  158.7976 F   0  0  0  0  0  0  0  0  0  0  0  0
  152.5390  140.5481  156.6613 H   0  0  0  0  0  0  0  0  0  0  0  0
  150.0237  139.4341  154.8579 H   0  0  0  0  0  0  0  0  0  0  0  0
  148.8550  138.6903  156.7975 H   0  0  0  0  0  0  0  0  0  0  0  0
  151.2199  138.6321  157.1023 H   0  0  0  0  0  0  0  0  0  0  0  0
  151.5922  145.5937  160.8487 H   0  0  0  0  0  0  0  0  0  0  0  0
  152.4725  145.0675  162.2677 H   0  0  0  0  0  0  0  0  0  0  0  0
  150.3960  143.3859  156.6640 H   0  0  0  0  0  0  0  0  0  0  0  0
  148.0210  140.3258  154.0446 H   0  0  0  0  0  0  0  0  0  0  0  0
  147.7780  141.3065  155.4737 H   0  0  0  0  0  0  0  0  0  0  0  0
  148.9950  142.8495  154.6788 H   0  0  0  0  0  0  0  0  0  0  0  0
  149.0071  141.2989  157.8485 H   0  0  0  0  0  0  0  0  0  0  0  0
  1  2  1  0  0  0  0
  1 25  1  0  0  0  0
  1 26  1  0  0  0  0
  2  8  1  0  0  0  0
  2  3  2  0  0  0  0
  3  4  1  0  0  0  0
  4  5  1  0  0  0  0
  4  6  2  0  0  0  0
  6  7  1  0  0  0  0
  7 11  1  0  0  0  0
  7  8  2  0  0  0  0
  8  9  1  0  0  0  0
  9 10  2  0  0  0  0
 10 11  1  0  0  0  0
 10 27  1  0  0  0  0
 11 12  1  0  0  0  0
 12 21  1  0  0  0  0
 12 19  1  0  0  0  0
 12 13  1  0  0  0  0
 13 14  1  0  0  0  0
 14 22  1  0  0  0  0
 14 15  1  0  0  0  0
 14 17  1  0  0  0  0
 15 16  1  0  0  0  0
 15 28  1  0  0  0  0
 15 29  1  0  0  0  0
 16 30  1  0  0  0  0
 17 23  1  0  0  0  0
 17 18  1  0  0  0  0
 17 19  1  0  0  0  0
 18 31  1  0  0  0  0
 19 24  1  0  0  0  0
 19 20  1  0  0  0  0
M  END
> <s_m_source_file>
AV-unprocessed.smi

> <i_m_source_file_index>
158

> <i_lp_mmshare_version>
43012

> <i_f3d_flags>
0

> <s_epik_input>
Q2xjKG4xKW5jKFtOSDJdKWMoYzEyKW5bY0hdbjJbQ0BASF0zT1tDQEhdKFtDSDJdW09IXSlbQ0BASF0oW09IXSlbQ0BASF0zRg==

> <s_epik_cmdline>
J2VwaWtfcHl0aG9uJywgJy1waCcsICc3LjAnLCAnLXRuJywgJzgnLCAnLW1hJywgJzIwMCcsICctbWV0YWxfYmluZGluZycsICctaW1hZScsICc8aW5maWxlLm1hZT4nLCAnLW9tYWUnLCAnPG91dGZpbGUubWFlPic=

> <r_lp_tautomer_probability>
1

> <r_epik_Ionization_Penalty>
6.51543e-05

> <r_epik_Ionization_Penalty_Charging>
0

> <r_epik_Ionization_Penalty_Neutral>
6.51543e-05

> <r_epik_State_Penalty>
-0

> <r_epik_Charging_Adjusted_Penalty>
0

> <i_epik_Tot_Q>
0

> <i_epik_Tot_abs_Q>
0

> <r_epik_Metal_State_Penalty>
-0

> <b_epik_Metal_Only>
0

> <s_epik_Chemistry_Notes>
This compound contains an acetal/aminal-like group ( X-CH(R)-Y where X, Y are N, S, or O) that may be acid/base labile, releasing an aldehyde.

> <s_lp_Force_Field>
OPLS_2005

> <r_lp_Energy>
41.2985

> <b_lp_Chiralities_Consistent>
1

> <s_lp_Variant>
AV-unprocessed.smi:158-5

> <Gold.Version>
5.8.1

> <Gold.Id.Protein>
6NUR|6NUR_protein|mol2

> <Gold.PLP.Fitness>
35.5925

> <Gold.PLP.PLP>
-34.0922

> <Gold.PLP.part.hbond>
-3.8395

> <Gold.PLP.part.metal>
0.0000

> <Gold.PLP.part.buried>
-4.4586

> <Gold.PLP.part.nonpolar>
-24.7625

> <Gold.PLP.part.repulsive>
0.2514

> <Gold.PLP.ligand.clash>
5.7173

> <Gold.PLP.ligand.torsion>
0.5661

> <Gold.PLP.Chemscore.Hbond>
1.5184

> <Gold.PLP.Chemscore.CHOScore>
1.0000

> <Gold.PLP.Chemscore.Metal>
0.0000

> <Gold.Chemscore.Hbonds>
donor molecule, donor type, donor heavy atom, donor atom, acceptor molecule, acceptor atom, score
      L1  H    16    30       P1  8028  0.83
      P1  H  7989  7998       L1    13  0.12
      P1  H  8011  8017       L1    16  0.35
      L1  C    10    27       P1  8028  1.00

> <Gold.PLP.Chemscore.Internal.Correction>
0.7947

> <Gold.Rescore>
     Score         DG    S(hbond)    S(metal)    S(lipo)     H(rot)  DE(clash)    DE(int)     intcor
      2.36      -6.02       1.24        0.00      37.42       3.12       0.34       3.32       ----

> <Gold.Chemscore.Fitness>
2.3602

> <Gold.Chemscore.DG>
-6.0182

> <Gold.Chemscore.ZeroCoef>
-5.4800

> <Gold.Chemscore.Hbond>
1.2441

> <Gold.Chemscore.Metal>
0.0000

> <Gold.Chemscore.Lipo>
37.4175

> <Gold.Chemscore.Internal_Hbond>
0.0000

> <Gold.Chemscore.DEClash>
0.3358

> <Gold.Chemscore.DEInternal>
3.3223

> <Gold.Chemscore.Rot>
3.1230

> <Gold.Chemscore.Internal.Correction>
   9.000000E+99

> <Gold.Chemscore.Hbonds>
donor molecule, donor type, donor heavy atom, donor atom, acceptor molecule, acceptor atom, score
      L1  H    16    30       P1  8028  0.82
      P1  H  7989  7998       L1    13  0.02
      P1  H  8011  8017       L1    16  0.31

> <Gold.Chemscore.Hbond.Weighted>
-4.1553

> <Gold.Chemscore.Metal.Weighted>
-0.0000

> <Gold.Chemscore.Lipo.Weighted>
-4.3779

> <Gold.Chemscore.Internal_Hbond.Weighted>
0.0000

> <Gold.Chemscore.DEClash.Weighted>
0.3358

> <Gold.Chemscore.DEInternal.Weighted>
3.3223

> <Gold.Chemscore.Rot.Weighted>
7.9950

> <Gold.Chemscore.Internal.Correction.Weighted>
   9.000000E+99

> <Gold.Protein.RotatedTorsions>
[ 6907 6896 6895 6894 ] final   52.73 input  -60.11 | X-H torsion
[ 7974 7965 7964 7962 ] final   63.81 input  175.53 | X-H torsion
[ 8008 7997 7996 7995 ] final  -86.49 input   59.86 | X-H torsion
[ 10167 10162 10161 10158 ] final -173.54 input  -65.29 | X-H torsion
[ 10718 10713 10712 10709 ] final -108.38 input   66.30 | X-H torsion
[ 10763 10752 10751 10750 ] final   28.83 input  -60.55 | X-H torsion
[ 11005 11000 10999 10996 ] final  -97.27 input  -57.11 | X-H torsion

> <Gold.Protein.ActiveResidues>
 VAL166  LYS551  ARG553  GLY616  TRP617  ASP618  TYR619  PRO620  LYS621  CYS622 
 ASP623  PHE694  ASN695  SER759  ASP760  ASP761  ALA762  ILE779  LEU786  VAL792 
 PHE793  MET794  SER795  GLU796  ALA797  LYS798  CYS799  TRP800  GLU811  SER814 

> <Gold.Protein.RotatedAtoms>
  152.3264  134.7316  160.0300 H   0  0  0  0  0  0  0  0  0  0  0  0  # atno 6907 bound_to 6896
  151.7747  133.3339  159.3462 H   0  0  0  0  0  0  0  0  0  0  0  0  # atno 6908 bound_to 6896
  150.7398  134.5917  159.6035 H   0  0  0  0  0  0  0  0  0  0  0  0  # atno 6909 bound_to 6896
  145.8575  139.3293  143.0838 H   0  0  0  0  0  0  0  0  0  0  0  0  # atno 7974 bound_to 7965
  154.6525  140.0578  156.9972 H   0  0  0  0  0  0  0  0  0  0  0  0  # atno 8008 bound_to 7997
  155.1349  140.3260  155.4447 H   0  0  0  0  0  0  0  0  0  0  0  0  # atno 8009 bound_to 7997
  156.2582  140.1974  156.6467 H   0  0  0  0  0  0  0  0  0  0  0  0  # atno 8010 bound_to 7997
  139.5682  144.1704  152.1345 H   0  0  0  0  0  0  0  0  0  0  0  0  # atno 10167 bound_to 10162
  156.0483  130.5710  150.7953 H   0  0  0  0  0  0  0  0  0  0  0  0  # atno 10718 bound_to 10713
  153.0467  135.6504  154.0798 H   0  0  0  0  0  0  0  0  0  0  0  0  # atno 10763 bound_to 10752
  154.0494  135.2897  155.3344 H   0  0  0  0  0  0  0  0  0  0  0  0  # atno 10764 bound_to 10752
  154.6730  135.5349  153.8228 H   0  0  0  0  0  0  0  0  0  0  0  0  # atno 10765 bound_to 10752
  141.1384  133.8158  157.0683 H   0  0  0  0  0  0  0  0  0  0  0  0  # atno 11005 bound_to 11000
  145.9286  140.9064  143.0368 LP  0  0  0  0  0  0  0  0  0  0  0  0  # atno 17320 bound_to 7965
  144.6727  140.1387  143.7438 LP  0  0  0  0  0  0  0  0  0  0  0  0  # atno 17321 bound_to 7965
  140.1231  144.5355  150.6850 LP  0  0  0  0  0  0  0  0  0  0  0  0  # atno 17342 bound_to 10162
  140.6966  143.2408  151.4982 LP  0  0  0  0  0  0  0  0  0  0  0  0  # atno 17343 bound_to 10162
  157.5382  131.0939  150.9864 LP  0  0  0  0  0  0  0  0  0  0  0  0  # atno 17370 bound_to 10713
  157.0153  130.5653  149.5325 LP  0  0  0  0  0  0  0  0  0  0  0  0  # atno 17371 bound_to 10713
  140.0527  134.9797  157.1165 LP  0  0  0  0  0  0  0  0  0  0  0  0  # atno 17394 bound_to 11000
  140.3965  134.2128  155.7164 LP  0  0  0  0  0  0  0  0  0  0  0  0  # atno 17395 bound_to 11000

$$$$
