AV-unprocessed.smi:3330|AV-procd|sdf|12805|dock6
  -GOLD-   2272019173D 1   1.00000     0.00000
 Structure written by MMmdl.
 38 39  0  0  0  0  0  0  0  0  1 V2000
  150.0940  138.6927  158.0465 C   0  0  0  0  0  0  0  0  0  0  0  0
  151.4357  138.8349  157.3010 C   0  0  2  0  0  0  0  0  0  0  0  0
  151.9882  140.1570  157.5848 N   0  0  0  0  0  0  0  0  0  0  0  0
  152.0440  140.4425  159.0098 C   0  0  0  0  0  0  0  0  0  0  0  0
  152.4995  141.8947  159.2158 C   0  0  0  0  0  0  0  0  0  0  0  0
  152.9501  142.1170  160.5915 N   0  0  0  0  0  0  0  0  0  0  0  0
  152.3672  142.9650  161.4487 C   0  0  0  0  0  0  0  0  0  0  0  0
  151.3932  143.6884  161.2425 O   0  0  0  0  0  0  0  0  0  0  0  0
  153.1069  142.8971  162.7670 C   0  0  0  0  0  0  0  0  0  0  0  0
  154.1026  141.9036  162.4265 N   0  0  0  0  0  0  0  0  0  0  0  0
  153.9824  141.4715  161.1646 C   0  0  0  0  0  0  0  0  0  0  0  0
  154.6998  140.6239  160.6352 O   0  0  0  0  0  0  0  0  0  0  0  0
  151.2955  138.6768  155.7623 C   0  0  2  0  0  0  0  0  0  0  0  0
  152.6190  138.9006  155.0050 C   0  0  0  0  0  0  0  0  0  0  0  0
  150.2649  139.5637  155.2308 N   0  0  0  0  0  0  0  0  0  0  0  0
  149.0057  139.2297  154.7762 C   0  0  0  0  0  0  0  0  0  0  0  0
  148.3865  140.3863  154.3980 C   0  0  0  0  0  0  0  0  0  0  0  0
  149.3566  141.3917  154.6650 C   0  0  0  0  0  0  0  0  0  0  0  0
  150.4780  140.8982  155.1637 N   0  0  0  0  0  0  0  0  0  0  0  0
  149.6792  137.6920  157.9314 H   0  0  0  0  0  0  0  0  0  0  0  0
  149.3554  139.4042  157.6754 H   0  0  0  0  0  0  0  0  0  0  0  0
  150.2037  138.8582  159.1181 H   0  0  0  0  0  0  0  0  0  0  0  0
  152.1271  138.0712  157.6606 H   0  0  0  0  0  0  0  0  0  0  0  0
  151.4660  140.8699  157.0959 H   0  0  0  0  0  0  0  0  0  0  0  0
  151.0666  140.2862  159.4661 H   0  0  0  0  0  0  0  0  0  0  0  0
  152.7463  139.7610  159.4920 H   0  0  0  0  0  0  0  0  0  0  0  0
  153.3065  142.1353  158.5208 H   0  0  0  0  0  0  0  0  0  0  0  0
  151.6858  142.5812  158.9741 H   0  0  0  0  0  0  0  0  0  0  0  0
  153.5635  143.8538  163.0228 H   0  0  0  0  0  0  0  0  0  0  0  0
  152.4595  142.5582  163.5763 H   0  0  0  0  0  0  0  0  0  0  0  0
  154.8003  141.5766  163.0791 H   0  0  0  0  0  0  0  0  0  0  0  0
  150.9737  137.6554  155.5513 H   0  0  0  0  0  0  0  0  0  0  0  0
  153.3551  138.1344  155.2458 H   0  0  0  0  0  0  0  0  0  0  0  0
  153.0568  139.8708  155.2419 H   0  0  0  0  0  0  0  0  0  0  0  0
  152.4622  138.8618  153.9266 H   0  0  0  0  0  0  0  0  0  0  0  0
  148.6574  138.2074  154.7640 H   0  0  0  0  0  0  0  0  0  0  0  0
  147.3907  140.4978  153.9955 H   0  0  0  0  0  0  0  0  0  0  0  0
  149.2794  142.4582  154.5136 H   0  0  0  0  0  0  0  0  0  0  0  0
  1  2  1  0  0  0  0
  1 20  1  0  0  0  0
  1 21  1  0  0  0  0
  1 22  1  0  0  0  0
  2  3  1  0  0  0  0
  2 13  1  0  0  0  0
  2 23  1  0  0  0  0
  3  4  1  0  0  0  0
  3 24  1  0  0  0  0
  4  5  1  0  0  0  0
  4 25  1  0  0  0  0
  4 26  1  0  0  0  0
  5  6  1  0  0  0  0
  5 27  1  0  0  0  0
  5 28  1  0  0  0  0
  6 11  1  0  0  0  0
  6  7  1  0  0  0  0
  7  8  2  0  0  0  0
  7  9  1  0  0  0  0
  9 10  1  0  0  0  0
  9 29  1  0  0  0  0
  9 30  1  0  0  0  0
 10 11  1  0  0  0  0
 10 31  1  0  0  0  0
 11 12  2  0  0  0  0
 13 14  1  0  0  0  0
 13 15  1  0  0  0  0
 13 32  1  0  0  0  0
 14 33  1  0  0  0  0
 14 34  1  0  0  0  0
 14 35  1  0  0  0  0
 15 19  1  0  0  0  0
 15 16  1  0  0  0  0
 16 17  2  0  0  0  0
 16 36  1  0  0  0  0
 17 18  1  0  0  0  0
 17 37  1  0  0  0  0
 18 19  2  0  0  0  0
 18 38  1  0  0  0  0
M  END
> <s_m_source_file>
AV-unprocessed.smi

> <i_m_source_file_index>
3330

> <i_lp_mmshare_version>
43012

> <i_f3d_flags>
0

> <s_epik_input>
bjFbY0hdW2NIXVtjSF1uMVtDQEBIXShbQ0gzXSlbQ0BIXShbQ0gzXSlbTkhdW0NIMl1bQ0gyXU4yQyg9TylbQ0gyXVtOSF1DMj1P

> <s_epik_cmdline>
J2VwaWtfcHl0aG9uJywgJy1waCcsICc3LjAnLCAnLXRuJywgJzgnLCAnLW1hJywgJzIwMCcsICctbWV0YWxfYmluZGluZycsICctaW1hZScsICc8aW5maWxlLm1hZT4nLCAnLW9tYWUnLCAnPG91dGZpbGUubWFlPic=

> <r_lp_tautomer_probability>
1

> <r_epik_Ionization_Penalty>
2.2997

> <r_epik_Ionization_Penalty_Charging>
0

> <r_epik_Ionization_Penalty_Neutral>
2.2997

> <r_epik_State_Penalty>
2.44917

> <r_epik_Charging_Adjusted_Penalty>
2.44917

> <i_epik_Tot_Q>
0

> <i_epik_Tot_abs_Q>
0

> <r_epik_Metal_State_Penalty>
2.52438

> <b_epik_Metal_Only>
0

> <s_lp_Force_Field>
OPLS_2005

> <r_lp_Energy>
24.6484

> <b_lp_Chiralities_Consistent>
1

> <s_lp_Variant>
AV-unprocessed.smi:3330-5

> <Gold.Version>
5.8.1

> <Gold.Id.Protein>
6NUR|6NUR_protein|mol2

> <Gold.PLP.Fitness>
45.0612

> <Gold.PLP.PLP>
-40.5472

> <Gold.PLP.part.hbond>
-2.6203

> <Gold.PLP.part.metal>
0.0000

> <Gold.PLP.part.buried>
-5.7928

> <Gold.PLP.part.nonpolar>
-33.3641

> <Gold.PLP.part.repulsive>
0.2543

> <Gold.PLP.ligand.clash>
0.0000

> <Gold.PLP.ligand.torsion>
0.3265

> <Gold.PLP.Chemscore.Hbond>
0.6912

> <Gold.PLP.Chemscore.CHOScore>
0.9963

> <Gold.PLP.Chemscore.Metal>
0.0000

> <Gold.Chemscore.Hbonds>
donor molecule, donor type, donor heavy atom, donor atom, acceptor molecule, acceptor atom, score
      P1  H  7989  7998       L1    19  0.71
      L1  C    18    38       P1  8028  0.95

> <Gold.PLP.Chemscore.Internal.Correction>
0.1044

> <Gold.Rescore>
     Score         DG    S(hbond)    S(metal)    S(lipo)     H(rot)  DE(clash)    DE(int)     intcor
      8.42      -9.55       0.86        0.00      67.11       2.60       0.32       0.81       ----

> <Gold.Chemscore.Fitness>
8.4192

> <Gold.Chemscore.DG>
-9.5455

> <Gold.Chemscore.ZeroCoef>
-5.4800

> <Gold.Chemscore.Hbond>
0.8554

> <Gold.Chemscore.Metal>
0.0000

> <Gold.Chemscore.Lipo>
67.1125

> <Gold.Chemscore.Internal_Hbond>
0.0000

> <Gold.Chemscore.DEClash>
0.3158

> <Gold.Chemscore.DEInternal>
0.8104

> <Gold.Chemscore.Rot>
2.5952

> <Gold.Chemscore.Internal.Correction>
   9.000000E+99

> <Gold.Chemscore.Hbonds>
donor molecule, donor type, donor heavy atom, donor atom, acceptor molecule, acceptor atom, score
      P1  H  7989  7998       L1    19  0.03

> <Gold.Chemscore.Hbond.Weighted>
-2.8571

> <Gold.Chemscore.Metal.Weighted>
-0.0000

> <Gold.Chemscore.Lipo.Weighted>
-7.8522

> <Gold.Chemscore.Internal_Hbond.Weighted>
0.0000

> <Gold.Chemscore.DEClash.Weighted>
0.3158

> <Gold.Chemscore.DEInternal.Weighted>
0.8104

> <Gold.Chemscore.Rot.Weighted>
6.6437

> <Gold.Chemscore.Internal.Correction.Weighted>
   9.000000E+99

> <Gold.Protein.RotatedTorsions>
[ 6907 6896 6895 6894 ] final  146.33 input  -60.11 | X-H torsion
[ 7974 7965 7964 7962 ] final  -96.18 input  175.53 | X-H torsion
[ 8008 7997 7996 7995 ] final   17.20 input   59.86 | X-H torsion
[ 10167 10162 10161 10158 ] final  146.32 input  -65.29 | X-H torsion
[ 10718 10713 10712 10709 ] final -147.06 input   66.30 | X-H torsion
[ 10763 10752 10751 10750 ] final  152.29 input  -60.55 | X-H torsion
[ 11005 11000 10999 10996 ] final  -98.10 input  -57.11 | X-H torsion

> <Gold.Protein.ActiveResidues>
 VAL166  LYS551  ARG553  GLY616  TRP617  ASP618  TYR619  PRO620  LYS621  CYS622 
 ASP623  PHE694  ASN695  SER759  ASP760  ASP761  ALA762  ILE779  LEU786  VAL792 
 PHE793  MET794  SER795  GLU796  ALA797  LYS798  CYS799  TRP800  GLU811  SER814 

> <Gold.Protein.RotatedAtoms>
  152.1694  133.4633  159.4900 H   0  0  0  0  0  0  0  0  0  0  0  0  # atno 6907 bound_to 6896
  150.6917  134.1973  159.4317 H   0  0  0  0  0  0  0  0  0  0  0  0  # atno 6908 bound_to 6896
  151.9879  134.9994  160.0611 H   0  0  0  0  0  0  0  0  0  0  0  0  # atno 6909 bound_to 6896
  145.3502  140.9475  143.2558 H   0  0  0  0  0  0  0  0  0  0  0  0  # atno 7974 bound_to 7965
  154.8880  140.2983  155.5387 H   0  0  0  0  0  0  0  0  0  0  0  0  # atno 8008 bound_to 7997
  156.3021  140.2430  156.3826 H   0  0  0  0  0  0  0  0  0  0  0  0  # atno 8009 bound_to 7997
  154.8648  140.0404  157.1676 H   0  0  0  0  0  0  0  0  0  0  0  0  # atno 8010 bound_to 7997
  139.4909  144.5838  151.6819 H   0  0  0  0  0  0  0  0  0  0  0  0  # atno 10167 bound_to 10162
  156.4027  130.7942  151.2154 H   0  0  0  0  0  0  0  0  0  0  0  0  # atno 10718 bound_to 10713
  154.1176  135.2835  155.3216 H   0  0  0  0  0  0  0  0  0  0  0  0  # atno 10763 bound_to 10752
  154.6446  135.5390  153.7833 H   0  0  0  0  0  0  0  0  0  0  0  0  # atno 10764 bound_to 10752
  153.0324  135.6495  154.1331 H   0  0  0  0  0  0  0  0  0  0  0  0  # atno 10765 bound_to 10752
  141.1356  133.8220  157.0795 H   0  0  0  0  0  0  0  0  0  0  0  0  # atno 11005 bound_to 11000
  144.8723  139.5020  143.6762 LP  0  0  0  0  0  0  0  0  0  0  0  0  # atno 17320 bound_to 7965
  146.2971  139.7311  142.9119 LP  0  0  0  0  0  0  0  0  0  0  0  0  # atno 17321 bound_to 7965
  140.5450  144.0518  150.6103 LP  0  0  0  0  0  0  0  0  0  0  0  0  # atno 17342 bound_to 10162
  140.3553  143.2939  152.0443 LP  0  0  0  0  0  0  0  0  0  0  0  0  # atno 17343 bound_to 10162
  157.7504  131.0282  150.4037 LP  0  0  0  0  0  0  0  0  0  0  0  0  # atno 17370 bound_to 10713
  156.4320  130.3974  149.6754 LP  0  0  0  0  0  0  0  0  0  0  0  0  # atno 17371 bound_to 10713
  140.0461  134.9830  157.1051 LP  0  0  0  0  0  0  0  0  0  0  0  0  # atno 17394 bound_to 11000
  140.4061  134.2031  155.7163 LP  0  0  0  0  0  0  0  0  0  0  0  0  # atno 17395 bound_to 11000

$$$$
