AV-unprocessed.smi:901|AV-procd|sdf|4091|dock1
  -GOLD-   22720 1583D 1   1.00000     0.00000
 Structure written by MMmdl.
 43 44  0  0  0  0  0  0  0  0  1 V2000
  151.6070  139.9530  155.5184 C   0  0  0  0  0  0  0  0  0  0  0  0
  150.3187  140.7466  155.4333 C   0  0  0  0  0  0  0  0  0  0  0  0
  150.0900  141.7111  156.5838 C   0  0  0  0  0  0  0  0  0  0  0  0
  149.4603  140.5934  154.4067 C   0  0  0  0  0  0  0  0  0  0  0  0
  148.1650  141.3099  154.2161 C   0  0  1  0  0  0  0  0  0  0  0  0
  146.8934  140.6598  153.6784 C   0  0  1  0  0  0  0  0  0  0  0  0
  146.8945  139.2070  153.3203 C   0  0  0  0  0  0  0  0  0  0  0  0
  147.8399  138.4682  153.5926 O   0  0  0  0  0  0  0  0  0  0  0  0
  145.8175  138.8340  152.6056 N   0  0  0  0  0  0  0  0  0  0  0  0
  145.4755  137.5436  152.1254 C   0  0  0  0  0  0  0  0  0  0  0  0
  146.0717  136.8720  151.0160 C   0  0  0  0  0  0  0  0  0  0  0  0
  145.4008  135.6834  150.9731 C   0  0  0  0  0  0  0  0  0  0  0  0
  144.4844  135.6843  152.0061 N   0  0  0  0  0  0  0  0  0  0  0  0
  143.5362  134.6444  152.3730 C   0  0  0  0  0  0  0  0  0  0  0  0
  143.8038  133.3194  151.6484 C   0  0  0  0  0  0  0  0  0  0  0  0
  142.8098  132.8381  150.8981 N   0  0  0  0  0  0  0  0  0  0  0  0
  144.8788  132.7320  151.7607 O   0  0  0  0  0  0  0  0  0  0  0  0
  144.5283  136.8342  152.7147 N   0  0  0  0  0  0  0  0  0  0  0  0
  146.9789  141.0894  155.1391 C   0  0  0  0  0  0  0  0  0  0  0  0
  147.0537  140.0828  156.2853 C   0  0  0  0  0  0  0  0  0  0  0  0
  146.1583  142.2890  155.5784 C   0  0  0  0  0  0  0  0  0  0  0  0
  151.6245  139.3566  156.4310 H   0  0  0  0  0  0  0  0  0  0  0  0
  152.4643  140.6264  155.5317 H   0  0  0  0  0  0  0  0  0  0  0  0
  151.7203  139.2782  154.6693 H   0  0  0  0  0  0  0  0  0  0  0  0
  150.9122  142.4247  156.6416 H   0  0  0  0  0  0  0  0  0  0  0  0
  150.0448  141.1661  157.5268 H   0  0  0  0  0  0  0  0  0  0  0  0
  149.1652  142.2774  156.4777 H   0  0  0  0  0  0  0  0  0  0  0  0
  149.7154  139.8780  153.6391 H   0  0  0  0  0  0  0  0  0  0  0  0
  148.3394  142.3342  153.8919 H   0  0  0  0  0  0  0  0  0  0  0  0
  146.3179  141.2848  152.9982 H   0  0  0  0  0  0  0  0  0  0  0  0
  145.1440  139.5594  152.4071 H   0  0  0  0  0  0  0  0  0  0  0  0
  146.8604  137.1916  150.3520 H   0  0  0  0  0  0  0  0  0  0  0  0
  145.5004  134.8423  150.3030 H   0  0  0  0  0  0  0  0  0  0  0  0
  143.5762  134.4784  153.4507 H   0  0  0  0  0  0  0  0  0  0  0  0
  142.5322  135.0009  152.1389 H   0  0  0  0  0  0  0  0  0  0  0  0
  142.9303  131.9710  150.3951 H   0  0  0  0  0  0  0  0  0  0  0  0
  141.9397  133.3466  150.8337 H   0  0  0  0  0  0  0  0  0  0  0  0
  146.0520  139.7591  156.5691 H   0  0  0  0  0  0  0  0  0  0  0  0
  147.5282  140.5369  157.1557 H   0  0  0  0  0  0  0  0  0  0  0  0
  147.6274  139.1967  156.0146 H   0  0  0  0  0  0  0  0  0  0  0  0
  145.1443  141.9820  155.8357 H   0  0  0  0  0  0  0  0  0  0  0  0
  146.0987  143.0305  154.7810 H   0  0  0  0  0  0  0  0  0  0  0  0
  146.6124  142.7620  156.4498 H   0  0  0  0  0  0  0  0  0  0  0  0
  1  2  1  0  0  0  0
  1 22  1  0  0  0  0
  1 23  1  0  0  0  0
  1 24  1  0  0  0  0
  2  3  1  0  0  0  0
  2  4  2  0  0  0  0
  3 25  1  0  0  0  0
  3 26  1  0  0  0  0
  3 27  1  0  0  0  0
  4  5  1  0  0  0  0
  4 28  1  0  0  0  0
  5 19  1  0  0  0  0
  5  6  1  0  0  0  0
  5 29  1  0  0  0  0
  6  7  1  0  0  0  0
  6 19  1  0  0  0  0
  6 30  1  0  0  0  0
  7  8  2  0  0  0  0
  7  9  1  0  0  0  0
  9 10  1  0  0  0  0
  9 31  1  0  0  0  0
 10 18  2  0  0  0  0
 10 11  1  0  0  0  0
 11 12  2  0  0  0  0
 11 32  1  0  0  0  0
 12 13  1  0  0  0  0
 12 33  1  0  0  0  0
 13 14  1  0  0  0  0
 13 18  1  0  0  0  0
 14 15  1  0  0  0  0
 14 34  1  0  0  0  0
 14 35  1  0  0  0  0
 15 16  1  0  0  0  0
 15 17  2  0  0  0  0
 16 36  1  0  0  0  0
 16 37  1  0  0  0  0
 19 20  1  0  0  0  0
 19 21  1  0  0  0  0
 20 38  1  0  0  0  0
 20 39  1  0  0  0  0
 20 40  1  0  0  0  0
 21 41  1  0  0  0  0
 21 42  1  0  0  0  0
 21 43  1  0  0  0  0
M  END
> <s_m_source_file>
AV-unprocessed.smi

> <i_m_source_file_index>
901

> <i_lp_mmshare_version>
43012

> <i_f3d_flags>
0

> <s_epik_input>
W0NIM11DKFtDSDNdKT1bQ0hdW0NAQEhdKEMxKFtDSDNdKVtDSDNdKVtDQEhdMUMoPU8pW05IXWMyW2NIXVtjSF1uKG4yKVtDSDJdQyg9TylbTkgyXQ==

> <s_epik_cmdline>
J2VwaWtfcHl0aG9uJywgJy1waCcsICc3LjAnLCAnLXRuJywgJzgnLCAnLW1hJywgJzIwMCcsICctbWV0YWxfYmluZGluZycsICctaW1hZScsICc8aW5maWxlLm1hZT4nLCAnLW9tYWUnLCAnPG91dGZpbGUubWFlPic=

> <r_lp_tautomer_probability>
1

> <r_epik_Ionization_Penalty>
1.01454e-05

> <r_epik_Ionization_Penalty_Charging>
0

> <r_epik_Ionization_Penalty_Neutral>
1.01454e-05

> <r_epik_State_Penalty>
-0

> <r_epik_Charging_Adjusted_Penalty>
0

> <i_epik_Tot_Q>
0

> <i_epik_Tot_abs_Q>
0

> <r_epik_Metal_State_Penalty>
-0

> <b_epik_Metal_Only>
0

> <s_lp_Force_Field>
OPLS_2005

> <r_lp_Energy>
23.331

> <b_lp_Chiralities_Consistent>
1

> <s_lp_Variant>
AV-unprocessed.smi:901-2

> <Gold.Version>
5.8.1

> <Gold.Id.Protein>
6NUR|6NUR_protein|mol2

> <Gold.PLP.Fitness>
42.4009

> <Gold.PLP.PLP>
-35.3707

> <Gold.PLP.part.hbond>
-2.0000

> <Gold.PLP.part.metal>
0.0000

> <Gold.PLP.part.buried>
0.8692

> <Gold.PLP.part.nonpolar>
-35.4141

> <Gold.PLP.part.repulsive>
1.4636

> <Gold.PLP.ligand.clash>
0.0000

> <Gold.PLP.ligand.torsion>
1.1103

> <Gold.PLP.Chemscore.Hbond>
2.0000

> <Gold.PLP.Chemscore.CHOScore>
1.0000

> <Gold.PLP.Chemscore.Metal>
0.0000

> <Gold.Chemscore.Hbonds>
donor molecule, donor type, donor heavy atom, donor atom, acceptor molecule, acceptor atom, score
      L1  H     9    31       P1 10175  1.00
      L1  H    16    37       P1 10186  0.78
      L1  C    12    33       P1  7921  0.47

> <Gold.PLP.Chemscore.Internal.Correction>
0.2508

> <Gold.Rescore>
     Score         DG    S(hbond)    S(metal)    S(lipo)     H(rot)  DE(clash)    DE(int)     intcor
     10.54     -14.62       2.00        0.00      67.71       2.13       1.52       2.56       ----

> <Gold.Chemscore.Fitness>
10.5370

> <Gold.Chemscore.DG>
-14.6164

> <Gold.Chemscore.ZeroCoef>
-5.4800

> <Gold.Chemscore.Hbond>
1.9968

> <Gold.Chemscore.Metal>
0.0000

> <Gold.Chemscore.Lipo>
67.7110

> <Gold.Chemscore.Internal_Hbond>
0.0000

> <Gold.Chemscore.DEClash>
1.5179

> <Gold.Chemscore.DEInternal>
2.5615

> <Gold.Chemscore.Rot>
2.1309

> <Gold.Chemscore.Internal.Correction>
   9.000000E+99

> <Gold.Chemscore.Hbonds>
donor molecule, donor type, donor heavy atom, donor atom, acceptor molecule, acceptor atom, score
      L1  H     9    31       P1 10175  0.99
      L1  H    16    37       P1 10186  0.66

> <Gold.Chemscore.Hbond.Weighted>
-6.6693

> <Gold.Chemscore.Metal.Weighted>
-0.0000

> <Gold.Chemscore.Lipo.Weighted>
-7.9222

> <Gold.Chemscore.Internal_Hbond.Weighted>
0.0000

> <Gold.Chemscore.DEClash.Weighted>
1.5179

> <Gold.Chemscore.DEInternal.Weighted>
2.5615

> <Gold.Chemscore.Rot.Weighted>
5.4552

> <Gold.Chemscore.Internal.Correction.Weighted>
   9.000000E+99

> <Gold.Protein.RotatedTorsions>
[ 6907 6896 6895 6894 ] final   22.27 input  -60.11 | X-H torsion
[ 7974 7965 7964 7962 ] final -160.40 input  175.53 | X-H torsion
[ 8008 7997 7996 7995 ] final  -44.99 input   59.86 | X-H torsion
[ 10167 10162 10161 10158 ] final   44.88 input  -65.29 | X-H torsion
[ 10718 10713 10712 10709 ] final -102.18 input   66.30 | X-H torsion
[ 10763 10752 10751 10750 ] final   71.16 input  -60.55 | X-H torsion
[ 11005 11000 10999 10996 ] final -103.12 input  -57.11 | X-H torsion

> <Gold.Protein.ActiveResidues>
 VAL166  LYS551  ARG553  GLY616  TRP617  ASP618  TYR619  PRO620  LYS621  CYS622 
 ASP623  PHE694  ASN695  SER759  ASP760  ASP761  ALA762  ILE779  LEU786  VAL792 
 PHE793  MET794  SER795  GLU796  ALA797  LYS798  CYS799  TRP800  GLU811  SER814 

> <Gold.Protein.RotatedAtoms>
  151.9246  135.0283  160.0524 H   0  0  0  0  0  0  0  0  0  0  0  0  # atno 6907 bound_to 6896
  152.2170  133.4950  159.5150 H   0  0  0  0  0  0  0  0  0  0  0  0  # atno 6908 bound_to 6896
  150.6990  134.1309  159.4112 H   0  0  0  0  0  0  0  0  0  0  0  0  # atno 6909 bound_to 6896
  144.7428  140.3547  143.6108 H   0  0  0  0  0  0  0  0  0  0  0  0  # atno 7974 bound_to 7965
  154.3999  140.1408  156.3774 H   0  0  0  0  0  0  0  0  0  0  0  0  # atno 8008 bound_to 7997
  155.8036  140.3475  155.5396 H   0  0  0  0  0  0  0  0  0  0  0  0  # atno 8009 bound_to 7997
  155.8459  140.0934  157.1696 H   0  0  0  0  0  0  0  0  0  0  0  0  # atno 8010 bound_to 7997
  140.3298  144.2603  150.6170 H   0  0  0  0  0  0  0  0  0  0  0  0  # atno 10167 bound_to 10162
  156.0220  130.5408  150.7072 H   0  0  0  0  0  0  0  0  0  0  0  0  # atno 10718 bound_to 10713
  153.0383  135.5147  154.7551 H   0  0  0  0  0  0  0  0  0  0  0  0  # atno 10763 bound_to 10752
  154.6510  135.2925  154.9989 H   0  0  0  0  0  0  0  0  0  0  0  0  # atno 10764 bound_to 10752
  154.0874  135.6655  153.4899 H   0  0  0  0  0  0  0  0  0  0  0  0  # atno 10765 bound_to 10752
  141.1160  133.8614  157.1446 H   0  0  0  0  0  0  0  0  0  0  0  0  # atno 11005 bound_to 11000
  145.7240  139.1717  143.2468 LP  0  0  0  0  0  0  0  0  0  0  0  0  # atno 17320 bound_to 7965
  146.1256  140.7252  142.9436 LP  0  0  0  0  0  0  0  0  0  0  0  0  # atno 17321 bound_to 7965
  140.5408  143.2224  151.8088 LP  0  0  0  0  0  0  0  0  0  0  0  0  # atno 17342 bound_to 10162
  139.4858  144.4603  151.9549 LP  0  0  0  0  0  0  0  0  0  0  0  0  # atno 17343 bound_to 10162
  157.4718  131.0894  151.0634 LP  0  0  0  0  0  0  0  0  0  0  0  0  # atno 17370 bound_to 10713
  157.1092  130.6014  149.5478 LP  0  0  0  0  0  0  0  0  0  0  0  0  # atno 17371 bound_to 10713
  140.0082  134.9999  157.0339 LP  0  0  0  0  0  0  0  0  0  0  0  0  # atno 17394 bound_to 11000
  140.4645  134.1450  155.7195 LP  0  0  0  0  0  0  0  0  0  0  0  0  # atno 17395 bound_to 11000

$$$$
