#       Name:                AV-unprocessed.smi:2706
#       Creating user name   scv26
#       Creation time:       Fri Mar 27 14:48:51 2020


#       File generated by GOLD software.
#

@<TRIPOS>MOLECULE
AV-unprocessed.smi:2706
    46    49     1
SMALL
NO_CHARGES


@<TRIPOS>ATOM
      1 ****        -3.6095  -0.8454  -3.4657 C.3            1 S1                 0.0000
      2 ****        -2.7974  -0.3393  -4.5680 N.pl3          1 S1                 0.0000
      3 ****        -3.3651  -0.2491  -5.9073 C.3            1 S1                 0.0000
      4 ****        -1.4929   0.1419  -4.3143 C.ar           1 S1                 0.0000
      5 ****        -0.6812   0.6675  -5.3481 C.ar           1 S1                 0.0000
      6 ****         0.6068   1.1346  -5.0307 C.ar           1 S1                 0.0000
      7 ****         1.0494   1.0642  -3.6977 C.ar           1 S1                 0.0000
      8 ****         0.1920   0.5254  -2.7157 C.ar           1 S1                 0.0000
      9 ****         0.7218   0.4944  -1.3982 N.am           1 S1                 0.0000
     10 ****         0.1429   0.0152  -0.2826 C.2            1 S1                 0.0000
     11 ****        -0.9692  -0.5113  -0.2279 O.2            1 S1                 0.0000
     12 ****         0.9378   0.1799   0.7837 N.am           1 S1                 0.0000
     13 ****         0.6299  -0.2267   2.1165 C.3            1 S1                 0.0000
     14 ****         1.0791   0.6897   3.2438 C.3            1 S1                 0.0000
     15 ****         0.6325   0.5962   4.6999 C.3            1 S1                 0.0000
     16 ****         1.8835   0.7520   5.5890 C.3            1 S1                 0.0000
     17 ****         2.6320  -0.5824   5.3492 C.3            1 S1                 0.0000
     18 ****         1.7016  -1.3139   4.3593 C.3            1 S1                 0.0000
     19 ****         0.3397  -0.8901   4.9111 C.3            1 S1                 0.0000
     20 ****         1.8005  -0.6035   3.0124 C.3            1 S1                 0.0000
     21 ****        -1.0469   0.0802  -3.0362 N.ar           1 S1                 0.0000
     22 ****        -3.1141  -1.6853  -2.9777 H              1 S1                 0.0000
     23 ****        -4.5832  -1.1906  -3.8133 H              1 S1                 0.0000
     24 ****        -3.7765  -0.0639  -2.7240 H              1 S1                 0.0000
     25 ****        -2.7870  -0.8516  -6.6085 H              1 S1                 0.0000
     26 ****        -3.3706   0.7847  -6.2543 H              1 S1                 0.0000
     27 ****        -4.3933  -0.6103  -5.9270 H              1 S1                 0.0000
     28 ****        -1.0188   0.7219  -6.3719 H              1 S1                 0.0000
     29 ****         1.2468   1.5418  -5.7996 H              1 S1                 0.0000
     30 ****         2.0362   1.4191  -3.4379 H              1 S1                 0.0000
     31 ****         1.6455   0.8866  -1.2924 H              1 S1                 0.0000
     32 ****         1.8334   0.6238   0.6430 H              1 S1                 0.0000
     33 ****        -0.2998  -0.7751   2.2519 H              1 S1                 0.0000
     34 ****         1.5886   1.6106   2.9647 H              1 S1                 0.0000
     35 ****        -0.1871   1.2750   4.9360 H              1 S1                 0.0000
     36 ****         2.4820   1.6210   5.3125 H              1 S1                 0.0000
     37 ****         1.6068   0.8554   6.6390 H              1 S1                 0.0000
     38 ****         3.6323  -0.4307   4.9415 H              1 S1                 0.0000
     39 ****         2.7310  -1.1419   6.2804 H              1 S1                 0.0000
     40 ****         1.8650  -2.3890   4.2840 H              1 S1                 0.0000
     41 ****         0.1915  -1.1600   5.9587 H              1 S1                 0.0000
     42 ****        -0.5114  -1.2658   4.3442 H              1 S1                 0.0000
     43 ****         2.7971  -0.5563   2.5766 H              1 S1                 0.0000
     44 ****        -1.5175  -0.6091  -1.0584 LP             1 S1                 0.0000
     45 ****        -1.3239  -0.8410   0.6471 LP             1 S1                 0.0000
     46 ****        -1.6376  -0.2973  -2.3230 LP             1 S1                 0.0000
@<TRIPOS>BOND
    1    1    2 1     
    2    1   22 1     
    3    1   23 1     
    4    1   24 1     
    5    2    3 1     
    6    2    4 1     
    7    3   25 1     
    8    3   26 1     
    9    3   27 1     
   10    4   21 ar    
   11    4    5 ar    
   12    5    6 ar    
   13    5   28 1     
   14    6    7 ar    
   15    6   29 1     
   16    7    8 ar    
   17    7   30 1     
   18    8    9 1     
   19    8   21 ar    
   20    9   10 am    
   21    9   31 1     
   22   10   11 2     
   23   10   12 am    
   24   12   13 1     
   25   12   32 1     
   26   13   20 1     
   27   13   14 1     
   28   13   33 1     
   29   14   20 1     
   30   14   15 1     
   31   14   34 1     
   32   15   19 1     
   33   15   16 1     
   34   15   35 1     
   35   16   17 1     
   36   16   36 1     
   37   16   37 1     
   38   17   18 1     
   39   17   38 1     
   40   17   39 1     
   41   18   19 1     
   42   18   20 1     
   43   18   40 1     
   44   19   41 1     
   45   19   42 1     
   46   20   43 1     
   47   11   44 1     
   48   11   45 1     
   49   21   46 1     
@<TRIPOS>SUBSTRUCTURE
      1 S1             1
@<TRIPOS>SET
LONE_PAIRS      STATIC     ATOMS    <user>   **** ""
3 44 45 46
DONOR_HYDROGENS      STATIC     ATOMS    <user>   **** ""
2 31 32
ATOM$BLUE        STATIC     ATOMS    COLORGROUP SYSTEM
3 44 45 46
ATOM$RED        STATIC     ATOMS    COLORGROUP SYSTEM
2 31 32
