AV-unprocessed.smi:1126|AV-procd|sdf|4839|dock6
  -GOLD-   22720 3403D 1   1.00000     0.00000
 Structure written by MMmdl.
 47 48  0  0  0  0  0  0  0  0  1 V2000
  150.9974  143.5357  158.9823 C   0  0  0  0  0  0  0  0  0  0  0  0
  151.5052  142.9571  157.7931 O   0  0  0  0  0  0  0  0  0  0  0  0
  150.5417  142.1629  157.1203 C   0  0  0  0  0  0  0  0  0  0  0  0
  151.2088  141.3470  156.0000 C   0  0  0  0  0  0  0  0  0  0  0  0
  150.3024  140.7760  155.0014 N   0  0  0  0  0  0  0  0  0  0  0  0
  149.0263  141.4918  154.9217 C   0  0  0  0  0  0  0  0  0  0  0  0
  148.0852  140.9150  153.8496 C   0  0  0  0  0  0  0  0  0  0  0  0
  147.8219  139.4145  154.0921 C   0  0  0  0  0  0  0  0  0  0  0  0
  146.9488  138.7745  152.9971 C   0  0  0  0  0  0  0  0  0  0  0  0
  146.9334  137.3221  153.1079 N   0  0  0  0  0  0  0  0  0  0  0  0
  145.8586  136.5955  153.4460 C   0  0  0  0  0  0  0  0  0  0  0  0
  144.7545  137.0861  153.6804 O   0  0  0  0  0  0  0  0  0  0  0  0
  146.0594  135.0822  153.5344 C   0  0  0  0  0  0  0  0  0  0  0  0
  145.4751  134.4094  152.3879 N   0  0  0  0  0  0  0  0  0  0  0  0
  146.0637  133.4935  151.5415 C   0  0  0  0  0  0  0  0  0  0  0  0
  145.1335  133.1420  150.6044 C   0  0  0  0  0  0  0  0  0  0  0  0
  145.2700  132.1790  149.4607 C   0  0  0  0  0  0  0  0  0  0  0  0
  143.9910  133.9097  150.9686 C   0  0  0  0  0  0  0  0  0  0  0  0
  144.1970  134.6661  152.0345 N   0  0  0  0  0  0  0  0  0  0  0  0
  149.1718  138.6871  154.2262 C   0  0  0  0  0  0  0  0  0  0  0  0
  150.0556  139.3625  155.2873 C   0  0  0  0  0  0  0  0  0  0  0  0
  151.7776  144.1234  159.4655 H   0  0  0  0  0  0  0  0  0  0  0  0
  150.6698  142.7685  159.6851 H   0  0  0  0  0  0  0  0  0  0  0  0
  150.1575  144.1989  158.7708 H   0  0  0  0  0  0  0  0  0  0  0  0
  150.0233  141.5023  157.8173 H   0  0  0  0  0  0  0  0  0  0  0  0
  149.7910  142.8223  156.6820 H   0  0  0  0  0  0  0  0  0  0  0  0
  151.8914  142.0244  155.4858 H   0  0  0  0  0  0  0  0  0  0  0  0
  151.8375  140.5674  156.4328 H   0  0  0  0  0  0  0  0  0  0  0  0
  148.5296  141.4737  155.8931 H   0  0  0  0  0  0  0  0  0  0  0  0
  149.1993  142.5395  154.6803 H   0  0  0  0  0  0  0  0  0  0  0  0
  147.1493  141.4744  153.8534 H   0  0  0  0  0  0  0  0  0  0  0  0
  148.5277  141.0589  152.8629 H   0  0  0  0  0  0  0  0  0  0  0  0
  147.2954  139.3148  155.0427 H   0  0  0  0  0  0  0  0  0  0  0  0
  145.9264  139.1497  153.0632 H   0  0  0  0  0  0  0  0  0  0  0  0
  147.3273  139.0524  152.0120 H   0  0  0  0  0  0  0  0  0  0  0  0
  147.8031  136.8376  152.9373 H   0  0  0  0  0  0  0  0  0  0  0  0
  147.1241  134.8482  153.5721 H   0  0  0  0  0  0  0  0  0  0  0  0
  145.6134  134.6967  154.4529 H   0  0  0  0  0  0  0  0  0  0  0  0
  147.0866  133.1730  151.6744 H   0  0  0  0  0  0  0  0  0  0  0  0
  144.7880  132.5547  148.5579 H   0  0  0  0  0  0  0  0  0  0  0  0
  144.8148  131.2159  149.6915 H   0  0  0  0  0  0  0  0  0  0  0  0
  146.3144  131.9897  149.2116 H   0  0  0  0  0  0  0  0  0  0  0  0
  143.0224  133.9393  150.4917 H   0  0  0  0  0  0  0  0  0  0  0  0
  149.0110  137.6423  154.4933 H   0  0  0  0  0  0  0  0  0  0  0  0
  149.6920  138.6862  153.2672 H   0  0  0  0  0  0  0  0  0  0  0  0
  151.0048  138.8280  155.3404 H   0  0  0  0  0  0  0  0  0  0  0  0
  149.5895  139.2591  156.2686 H   0  0  0  0  0  0  0  0  0  0  0  0
  1  2  1  0  0  0  0
  1 22  1  0  0  0  0
  1 23  1  0  0  0  0
  1 24  1  0  0  0  0
  2  3  1  0  0  0  0
  3  4  1  0  0  0  0
  3 25  1  0  0  0  0
  3 26  1  0  0  0  0
  4  5  1  0  0  0  0
  4 27  1  0  0  0  0
  4 28  1  0  0  0  0
  5 21  1  0  0  0  0
  5  6  1  0  0  0  0
  6  7  1  0  0  0  0
  6 29  1  0  0  0  0
  6 30  1  0  0  0  0
  7  8  1  0  0  0  0
  7 31  1  0  0  0  0
  7 32  1  0  0  0  0
  8  9  1  0  0  0  0
  8 20  1  0  0  0  0
  8 33  1  0  0  0  0
  9 10  1  0  0  0  0
  9 34  1  0  0  0  0
  9 35  1  0  0  0  0
 10 11  1  0  0  0  0
 10 36  1  0  0  0  0
 11 12  2  0  0  0  0
 11 13  1  0  0  0  0
 13 14  1  0  0  0  0
 13 37  1  0  0  0  0
 13 38  1  0  0  0  0
 14 19  1  0  0  0  0
 14 15  1  0  0  0  0
 15 16  2  0  0  0  0
 15 39  1  0  0  0  0
 16 17  1  0  0  0  0
 16 18  1  0  0  0  0
 17 40  1  0  0  0  0
 17 41  1  0  0  0  0
 17 42  1  0  0  0  0
 18 19  2  0  0  0  0
 18 43  1  0  0  0  0
 20 21  1  0  0  0  0
 20 44  1  0  0  0  0
 20 45  1  0  0  0  0
 21 46  1  0  0  0  0
 21 47  1  0  0  0  0
M  END
> <s_m_source_file>
AV-unprocessed.smi

> <i_m_source_file_index>
1126

> <i_lp_mmshare_version>
43012

> <i_f3d_flags>
0

> <s_epik_input>
W0NIM11PW0NIMl1bQ0gyXU4xW0NIMl1bQ0gyXVtDSF0oW0NIMl1bQ0gyXTEpW0NIMl1bTkhdQyg9TylbQ0gyXW4yW2NIXWMoW0NIM10pW2NIXW4y

> <s_epik_cmdline>
J2VwaWtfcHl0aG9uJywgJy1waCcsICc3LjAnLCAnLXRuJywgJzgnLCAnLW1hJywgJzIwMCcsICctbWV0YWxfYmluZGluZycsICctaW1hZScsICc8aW5maWxlLm1hZT4nLCAnLW9tYWUnLCAnPG91dGZpbGUubWFlPic=

> <r_lp_tautomer_probability>
1

> <r_epik_Ionization_Penalty>
2.42913

> <r_epik_Ionization_Penalty_Charging>
0

> <r_epik_Ionization_Penalty_Neutral>
2.42913

> <r_epik_State_Penalty>
2.58903

> <r_epik_Charging_Adjusted_Penalty>
2.58903

> <i_epik_Tot_Q>
0

> <i_epik_Tot_abs_Q>
0

> <r_epik_Metal_State_Penalty>
2.58902

> <b_epik_Metal_Only>
0

> <s_lp_Force_Field>
OPLS_2005

> <r_lp_Energy>
26.3674

> <b_lp_Chiralities_Consistent>
1

> <s_lp_Variant>
AV-unprocessed.smi:1126-3

> <Gold.Version>
5.8.1

> <Gold.Id.Protein>
6NUR|6NUR_protein|mol2

> <Gold.PLP.Fitness>
40.9475

> <Gold.PLP.PLP>
-34.7473

> <Gold.PLP.part.hbond>
-1.6589

> <Gold.PLP.part.metal>
0.0000

> <Gold.PLP.part.buried>
-4.2429

> <Gold.PLP.part.nonpolar>
-29.3905

> <Gold.PLP.part.repulsive>
0.4792

> <Gold.PLP.ligand.clash>
0.0000

> <Gold.PLP.ligand.torsion>
0.9960

> <Gold.PLP.Chemscore.Hbond>
1.6864

> <Gold.PLP.Chemscore.CHOScore>
1.0000

> <Gold.PLP.Chemscore.Metal>
0.0000

> <Gold.Chemscore.Hbonds>
donor molecule, donor type, donor heavy atom, donor atom, acceptor molecule, acceptor atom, score
      L1  H    10    36       P1  7948  0.99
      P1  H  7989  7998       L1     5  0.62
      L1  C    18    43       P1 10186  1.00

> <Gold.PLP.Chemscore.Internal.Correction>
0.1331

> <Gold.Rescore>
     Score         DG    S(hbond)    S(metal)    S(lipo)     H(rot)  DE(clash)    DE(int)     intcor
     14.03     -15.10       1.05        0.00      96.44       2.03       0.10       0.96       ----

> <Gold.Chemscore.Fitness>
14.0333

> <Gold.Chemscore.DG>
-15.0968

> <Gold.Chemscore.ZeroCoef>
-5.4800

> <Gold.Chemscore.Hbond>
1.0541

> <Gold.Chemscore.Metal>
0.0000

> <Gold.Chemscore.Lipo>
96.4386

> <Gold.Chemscore.Internal_Hbond>
0.0000

> <Gold.Chemscore.DEClash>
0.1023

> <Gold.Chemscore.DEInternal>
0.9613

> <Gold.Chemscore.Rot>
2.0263

> <Gold.Chemscore.Internal.Correction>
   9.000000E+99

> <Gold.Chemscore.Hbonds>
donor molecule, donor type, donor heavy atom, donor atom, acceptor molecule, acceptor atom, score
      L1  H    10    36       P1  7948  0.94
      P1  H  7989  7998       L1     5  0.05

> <Gold.Chemscore.Hbond.Weighted>
-3.5207

> <Gold.Chemscore.Metal.Weighted>
-0.0000

> <Gold.Chemscore.Lipo.Weighted>
-11.2833

> <Gold.Chemscore.Internal_Hbond.Weighted>
0.0000

> <Gold.Chemscore.DEClash.Weighted>
0.1023

> <Gold.Chemscore.DEInternal.Weighted>
0.9613

> <Gold.Chemscore.Rot.Weighted>
5.1872

> <Gold.Chemscore.Internal.Correction.Weighted>
   9.000000E+99

> <Gold.Protein.RotatedTorsions>
[ 6907 6896 6895 6894 ] final  -52.50 input  -60.11 | X-H torsion
[ 7974 7965 7964 7962 ] final -113.84 input  175.53 | X-H torsion
[ 8008 7997 7996 7995 ] final  149.17 input   59.86 | X-H torsion
[ 10167 10162 10161 10158 ] final  -56.38 input  -65.29 | X-H torsion
[ 10718 10713 10712 10709 ] final -144.46 input   66.30 | X-H torsion
[ 10763 10752 10751 10750 ] final    3.95 input  -60.55 | X-H torsion
[ 11005 11000 10999 10996 ] final  116.96 input  -57.11 | X-H torsion

> <Gold.Protein.ActiveResidues>
 VAL166  LYS551  ARG553  GLY616  TRP617  ASP618  TYR619  PRO620  LYS621  CYS622 
 ASP623  PHE694  ASN695  SER759  ASP760  ASP761  ALA762  ILE779  LEU786  VAL792 
 PHE793  MET794  SER795  GLU796  ALA797  LYS798  CYS799  TRP800  GLU811  SER814 

> <Gold.Protein.RotatedAtoms>
  150.8512  134.7837  159.7009 H   0  0  0  0  0  0  0  0  0  0  0  0  # atno 6907 bound_to 6896
  152.4576  134.5253  159.9804 H   0  0  0  0  0  0  0  0  0  0  0  0  # atno 6908 bound_to 6896
  151.5374  133.3400  159.2965 H   0  0  0  0  0  0  0  0  0  0  0  0  # atno 6909 bound_to 6896
  145.1272  140.8704  143.3779 H   0  0  0  0  0  0  0  0  0  0  0  0  # atno 7974 bound_to 7965
  156.2765  140.2109  156.5815 H   0  0  0  0  0  0  0  0  0  0  0  0  # atno 8008 bound_to 7997
  154.7055  140.0517  157.0523 H   0  0  0  0  0  0  0  0  0  0  0  0  # atno 8009 bound_to 7997
  155.0676  140.3173  155.4643 H   0  0  0  0  0  0  0  0  0  0  0  0  # atno 8010 bound_to 7997
  140.6320  143.2464  151.5215 H   0  0  0  0  0  0  0  0  0  0  0  0  # atno 10167 bound_to 10162
  156.3703  130.7784  151.1964 H   0  0  0  0  0  0  0  0  0  0  0  0  # atno 10718 bound_to 10713
  153.2772  135.6937  153.7422 H   0  0  0  0  0  0  0  0  0  0  0  0  # atno 10763 bound_to 10752
  153.6423  135.3391  155.3076 H   0  0  0  0  0  0  0  0  0  0  0  0  # atno 10764 bound_to 10752
  154.8483  135.4434  154.1813 H   0  0  0  0  0  0  0  0  0  0  0  0  # atno 10765 bound_to 10752
  139.9058  134.9604  156.7278 H   0  0  0  0  0  0  0  0  0  0  0  0  # atno 11005 bound_to 11000
  145.0675  139.3057  143.5849 LP  0  0  0  0  0  0  0  0  0  0  0  0  # atno 17320 bound_to 7965
  146.3517  140.0138  142.8664 LP  0  0  0  0  0  0  0  0  0  0  0  0  # atno 17321 bound_to 7965
  139.5534  144.2338  152.1570 LP  0  0  0  0  0  0  0  0  0  0  0  0  # atno 17342 bound_to 10162
  140.1584  144.5048  150.6646 LP  0  0  0  0  0  0  0  0  0  0  0  0  # atno 17343 bound_to 10162
  157.7483  131.0374  150.4454 LP  0  0  0  0  0  0  0  0  0  0  0  0  # atno 17370 bound_to 10713
  156.4680  130.4046  149.6535 LP  0  0  0  0  0  0  0  0  0  0  0  0  # atno 17371 bound_to 10713
  140.6949  133.9357  155.7988 LP  0  0  0  0  0  0  0  0  0  0  0  0  # atno 17394 bound_to 11000
  141.0414  134.0615  157.3897 LP  0  0  0  0  0  0  0  0  0  0  0  0  # atno 17395 bound_to 11000

$$$$
