AV-unprocessed.smi:2799|AV-procd|sdf|10790|dock10
  -GOLD-   2272015223D 1   1.00000     0.00000
 Structure written by MMmdl.
 52 53  0  0  0  0  0  0  0  0  2 V2000
  148.9836  132.9113  154.8032 C   0  0  0  0  0  0  0  0  0  0  0  0
  149.4309  134.3776  154.6789 C   0  0  0  0  0  0  0  0  0  0  0  0
  150.6636  134.6372  155.5570 C   0  0  0  0  0  0  0  0  0  0  0  0
  148.2965  135.3649  155.0370 C   0  0  0  0  0  0  0  0  0  0  0  0
  148.4466  136.7237  154.4436 N   0  3  1  0  0  0  0  0  0  0  0  0
  147.1459  137.4417  154.3620 C   0  0  0  0  0  0  0  0  0  0  0  0
  147.2668  138.7277  153.5291 C   0  0  0  0  0  0  0  0  0  0  0  0
  148.3670  139.6417  154.0793 C   0  0  0  0  0  0  0  0  0  0  0  0
  149.6879  138.8660  154.1718 C   0  0  0  0  0  0  0  0  0  0  0  0
  149.5465  137.5702  155.0053 C   0  0  1  0  0  0  0  0  0  0  0  0
  149.4066  137.8284  156.5310 C   0  0  0  0  0  0  0  0  0  0  0  0
  150.6081  138.4232  157.1071 N   0  0  0  0  0  0  0  0  0  0  0  0
  150.6306  139.5605  157.8164 C   0  0  0  0  0  0  0  0  0  0  0  0
  149.6228  140.2307  158.0412 O   0  0  0  0  0  0  0  0  0  0  0  0
  151.8739  139.8317  158.2538 N   0  0  0  0  0  0  0  0  0  0  0  0
  152.3287  140.9156  159.0250 C   0  0  0  0  0  0  0  0  0  0  0  0
  153.1062  140.8017  160.1311 C   0  0  0  0  0  0  0  0  0  0  0  0
  153.5229  141.9701  160.8686 C   0  0  0  0  0  0  0  0  0  0  0  0
  153.1144  143.1729  160.4412 C   0  0  0  0  0  0  0  0  0  0  0  0
  152.2994  143.3139  159.3051 N   0  0  0  0  0  0  0  0  0  0  0  0
  151.9033  144.6706  158.9192 C   0  0  0  0  0  0  0  0  0  0  0  0
  151.8769  142.2443  158.5673 C   0  0  0  0  0  0  0  0  0  0  0  0
  151.1591  142.3964  157.5755 O   0  0  0  0  0  0  0  0  0  0  0  0
  148.6525  132.6815  155.8165 H   0  0  0  0  0  0  0  0  0  0  0  0
  149.8007  132.2315  154.5598 H   0  0  0  0  0  0  0  0  0  0  0  0
  148.1619  132.6831  154.1241 H   0  0  0  0  0  0  0  0  0  0  0  0
  149.7506  134.5519  153.6519 H   0  0  0  0  0  0  0  0  0  0  0  0
  150.4410  134.4807  156.6131 H   0  0  0  0  0  0  0  0  0  0  0  0
  151.0211  135.6608  155.4402 H   0  0  0  0  0  0  0  0  0  0  0  0
  151.4849  133.9720  155.2882 H   0  0  0  0  0  0  0  0  0  0  0  0
  147.3562  134.9404  154.6821 H   0  0  0  0  0  0  0  0  0  0  0  0
  148.1896  135.4442  156.1190 H   0  0  0  0  0  0  0  0  0  0  0  0
  146.3991  136.7947  153.8999 H   0  0  0  0  0  0  0  0  0  0  0  0
  146.7793  137.6691  155.3635 H   0  0  0  0  0  0  0  0  0  0  0  0
  147.4901  138.4710  152.4926 H   0  0  0  0  0  0  0  0  0  0  0  0
  146.3134  139.2566  153.5178 H   0  0  0  0  0  0  0  0  0  0  0  0
  148.4877  140.5120  153.4337 H   0  0  0  0  0  0  0  0  0  0  0  0
  148.0824  140.0215  155.0609 H   0  0  0  0  0  0  0  0  0  0  0  0
  150.0122  138.6035  153.1637 H   0  0  0  0  0  0  0  0  0  0  0  0
  150.4718  139.5089  154.5728 H   0  0  0  0  0  0  0  0  0  0  0  0
  150.4791  137.0304  154.8485 H   0  0  0  0  0  0  0  0  0  0  0  0
  148.5747  138.5001  156.7393 H   0  0  0  0  0  0  0  0  0  0  0  0
  149.1936  136.9050  157.0699 H   0  0  0  0  0  0  0  0  0  0  0  0
  151.4777  137.9292  156.9672 H   0  0  0  0  0  0  0  0  0  0  0  0
  152.5835  139.1451  158.0418 H   0  0  0  0  0  0  0  0  0  0  0  0
  153.4261  139.8436  160.5072 H   0  0  0  0  0  0  0  0  0  0  0  0
  154.1502  141.8767  161.7429 H   0  0  0  0  0  0  0  0  0  0  0  0
  153.3847  144.0938  160.9371 H   0  0  0  0  0  0  0  0  0  0  0  0
  152.2593  144.9022  157.9142 H   0  0  0  0  0  0  0  0  0  0  0  0
  152.3037  145.4330  159.5884 H   0  0  0  0  0  0  0  0  0  0  0  0
  150.8169  144.7701  158.9276 H   0  0  0  0  0  0  0  0  0  0  0  0
  148.7120  136.5575  153.4834 H   0  0  0  0  0  0  0  0  0  0  0  0
  1  2  1  0  0  0  0
  1 24  1  0  0  0  0
  1 25  1  0  0  0  0
  1 26  1  0  0  0  0
  2  3  1  0  0  0  0
  2  4  1  0  0  0  0
  2 27  1  0  0  0  0
  3 28  1  0  0  0  0
  3 29  1  0  0  0  0
  3 30  1  0  0  0  0
  4  5  1  0  0  0  0
  4 31  1  0  0  0  0
  4 32  1  0  0  0  0
  5 10  1  0  0  0  0
  5  6  1  0  0  0  0
  5 52  1  0  0  0  0
  6  7  1  0  0  0  0
  6 33  1  0  0  0  0
  6 34  1  0  0  0  0
  7  8  1  0  0  0  0
  7 35  1  0  0  0  0
  7 36  1  0  0  0  0
  8  9  1  0  0  0  0
  8 37  1  0  0  0  0
  8 38  1  0  0  0  0
  9 10  1  0  0  0  0
  9 39  1  0  0  0  0
  9 40  1  0  0  0  0
 10 11  1  0  0  0  0
 10 41  1  0  0  0  0
 11 12  1  0  0  0  0
 11 42  1  0  0  0  0
 11 43  1  0  0  0  0
 12 13  1  0  0  0  0
 12 44  1  0  0  0  0
 13 14  2  0  0  0  0
 13 15  1  0  0  0  0
 15 16  1  0  0  0  0
 15 45  1  0  0  0  0
 16 22  1  0  0  0  0
 16 17  2  0  0  0  0
 17 18  1  0  0  0  0
 17 46  1  0  0  0  0
 18 19  2  0  0  0  0
 18 47  1  0  0  0  0
 19 20  1  0  0  0  0
 19 48  1  0  0  0  0
 20 21  1  0  0  0  0
 20 22  1  0  0  0  0
 21 49  1  0  0  0  0
 21 50  1  0  0  0  0
 21 51  1  0  0  0  0
 22 23  2  0  0  0  0
M  CHG  1   5   1
M  END
> <s_m_source_file>
AV-unprocessed.smi

> <i_m_source_file_index>
2799

> <i_lp_mmshare_version>
43012

> <i_f3d_flags>
0

> <s_epik_input>
W0NIM11bQ0hdKFtDSDNdKVtDSDJdTjFbQ0gyXVtDSDJdW0NIMl1bQ0gyXVtDQEhdMVtDSDJdW05IXUMoPU8pW05IXWMyW2NIXVtjSF1bY0hdbihbQ0gzXSljMj1P

> <s_epik_cmdline>
J2VwaWtfcHl0aG9uJywgJy1waCcsICc3LjAnLCAnLXRuJywgJzgnLCAnLW1hJywgJzIwMCcsICctbWV0YWxfYmluZGluZycsICctaW1hZScsICc8aW5maWxlLm1hZT4nLCAnLW9tYWUnLCAnPG91dGZpbGUubWFlPic=

> <r_lp_tautomer_probability>
1

> <r_epik_Ionization_Penalty>
0.0010885

> <r_epik_Ionization_Penalty_Charging>
0.00106921

> <r_epik_Ionization_Penalty_Neutral>
1.92865e-05

> <r_epik_State_Penalty>
0.000697184

> <r_epik_Charging_Adjusted_Penalty>
0.0017664

> <i_epik_Tot_Q>
1

> <i_epik_Tot_abs_Q>
1

> <r_epik_Metal_State_Penalty>
-0

> <b_epik_Metal_Only>
0

> <s_lp_Force_Field>
OPLS_2005

> <r_lp_Energy>
35.5071

> <b_lp_Chiralities_Consistent>
1

> <s_lp_Variant>
AV-unprocessed.smi:2799-2

> <Gold.Version>
5.8.1

> <Gold.Id.Protein>
6NUR|6NUR_protein|mol2

> <Gold.PLP.Fitness>
43.7449

> <Gold.PLP.PLP>
-39.3143

> <Gold.PLP.part.hbond>
-1.0000

> <Gold.PLP.part.metal>
0.0000

> <Gold.PLP.part.buried>
-4.8931

> <Gold.PLP.part.nonpolar>
-34.0804

> <Gold.PLP.part.repulsive>
0.1680

> <Gold.PLP.ligand.clash>
0.0000

> <Gold.PLP.ligand.torsion>
0.8264

> <Gold.PLP.Chemscore.Hbond>
2.0000

> <Gold.PLP.Chemscore.CHOScore>
0.0000

> <Gold.PLP.Chemscore.Metal>
0.0000

> <Gold.Chemscore.Hbonds>
donor molecule, donor type, donor heavy atom, donor atom, acceptor molecule, acceptor atom, score
      L1  H     5    52       P1  7948  2.00

> <Gold.PLP.Chemscore.Internal.Correction>
0.0835

> <Gold.Rescore>
     Score         DG    S(hbond)    S(metal)    S(lipo)     H(rot)  DE(clash)    DE(int)     intcor
     15.25     -16.24       1.00        0.00      97.81       1.57       0.03       0.96       ----

> <Gold.Chemscore.Fitness>
15.2461

> <Gold.Chemscore.DG>
-16.2364

> <Gold.Chemscore.ZeroCoef>
-5.4800

> <Gold.Chemscore.Hbond>
0.9966

> <Gold.Chemscore.Metal>
0.0000

> <Gold.Chemscore.Lipo>
97.8114

> <Gold.Chemscore.Internal_Hbond>
0.0000

> <Gold.Chemscore.DEClash>
0.0309

> <Gold.Chemscore.DEInternal>
0.9595

> <Gold.Chemscore.Rot>
1.5688

> <Gold.Chemscore.Internal.Correction>
   9.000000E+99

> <Gold.Chemscore.Hbonds>
donor molecule, donor type, donor heavy atom, donor atom, acceptor molecule, acceptor atom, score
      L1  H     5    52       P1  7948  1.00

> <Gold.Chemscore.Hbond.Weighted>
-3.3286

> <Gold.Chemscore.Metal.Weighted>
-0.0000

> <Gold.Chemscore.Lipo.Weighted>
-11.4439

> <Gold.Chemscore.Internal_Hbond.Weighted>
0.0000

> <Gold.Chemscore.DEClash.Weighted>
0.0309

> <Gold.Chemscore.DEInternal.Weighted>
0.9595

> <Gold.Chemscore.Rot.Weighted>
4.0161

> <Gold.Chemscore.Internal.Correction.Weighted>
   9.000000E+99

> <Gold.Protein.RotatedTorsions>
[ 6907 6896 6895 6894 ] final   21.67 input  -60.11 | X-H torsion
[ 7974 7965 7964 7962 ] final  -97.51 input  175.53 | X-H torsion
[ 8008 7997 7996 7995 ] final  -76.83 input   59.86 | X-H torsion
[ 10167 10162 10161 10158 ] final -109.40 input  -65.29 | X-H torsion
[ 10718 10713 10712 10709 ] final   -5.71 input   66.30 | X-H torsion
[ 10763 10752 10751 10750 ] final  -98.20 input  -60.55 | X-H torsion
[ 11005 11000 10999 10996 ] final  115.82 input  -57.11 | X-H torsion

> <Gold.Protein.ActiveResidues>
 VAL166  LYS551  ARG553  GLY616  TRP617  ASP618  TYR619  PRO620  LYS621  CYS622 
 ASP623  PHE694  ASN695  SER759  ASP760  ASP761  ALA762  ILE779  LEU786  VAL792 
 PHE793  MET794  SER795  GLU796  ALA797  LYS798  CYS799  TRP800  GLU811  SER814 

> <Gold.Protein.RotatedAtoms>
  151.9153  135.0321  160.0517 H   0  0  0  0  0  0  0  0  0  0  0  0  # atno 6907 bound_to 6896
  152.2245  133.5004  159.5189 H   0  0  0  0  0  0  0  0  0  0  0  0  # atno 6908 bound_to 6896
  150.7008  134.1215  159.4079 H   0  0  0  0  0  0  0  0  0  0  0  0  # atno 6909 bound_to 6896
  145.3327  140.9445  143.2652 H   0  0  0  0  0  0  0  0  0  0  0  0  # atno 7974 bound_to 7965
  154.5540  140.0720  156.8714 H   0  0  0  0  0  0  0  0  0  0  0  0  # atno 8008 bound_to 7997
  155.2937  140.3379  155.4233 H   0  0  0  0  0  0  0  0  0  0  0  0  # atno 8009 bound_to 7997
  156.1986  140.1713  156.7932 H   0  0  0  0  0  0  0  0  0  0  0  0  # atno 8010 bound_to 7997
  140.1557  143.4162  152.1462 H   0  0  0  0  0  0  0  0  0  0  0  0  # atno 10167 bound_to 10162
  156.7426  130.5214  149.5821 H   0  0  0  0  0  0  0  0  0  0  0  0  # atno 10718 bound_to 10713
  154.7394  135.5018  153.9096 H   0  0  0  0  0  0  0  0  0  0  0  0  # atno 10763 bound_to 10752
  153.1027  135.6689  153.9651 H   0  0  0  0  0  0  0  0  0  0  0  0  # atno 10764 bound_to 10752
  153.9432  135.3065  155.3421 H   0  0  0  0  0  0  0  0  0  0  0  0  # atno 10765 bound_to 10752
  139.9022  134.9589  156.7104 H   0  0  0  0  0  0  0  0  0  0  0  0  # atno 11005 bound_to 11000
  144.8851  139.4850  143.6704 LP  0  0  0  0  0  0  0  0  0  0  0  0  # atno 17320 bound_to 7965
  146.3039  139.7515  142.9071 LP  0  0  0  0  0  0  0  0  0  0  0  0  # atno 17321 bound_to 7965
  139.5405  144.7251  151.4751 LP  0  0  0  0  0  0  0  0  0  0  0  0  # atno 17342 bound_to 10162
  140.6675  143.8367  150.6959 LP  0  0  0  0  0  0  0  0  0  0  0  0  # atno 17343 bound_to 10162
  156.1455  130.6274  151.0525 LP  0  0  0  0  0  0  0  0  0  0  0  0  # atno 17370 bound_to 10713
  157.6812  131.0837  150.7365 LP  0  0  0  0  0  0  0  0  0  0  0  0  # atno 17371 bound_to 10713
  140.7080  133.9248  155.8066 LP  0  0  0  0  0  0  0  0  0  0  0  0  # atno 17394 bound_to 11000
  141.0322  134.0740  157.4001 LP  0  0  0  0  0  0  0  0  0  0  0  0  # atno 17395 bound_to 11000

$$$$
