AV-unprocessed.smi:2710|AV-procd|sdf|10470|dock4
  -GOLD-   2272014513D 1   1.00000     0.00000
 Structure written by MMmdl.
 53 54  0  0  0  0  0  0  0  0  2 V2000
  146.4611  129.2083  152.0043 C   0  0  0  0  0  0  0  0  0  0  0  0
  145.6673  130.3516  151.3543 C   0  0  0  0  0  0  0  0  0  0  0  0
  146.4427  131.6242  151.2701 N   0  3  2  0  0  0  0  0  0  0  0  0
  146.8350  132.1847  152.5943 C   0  0  0  0  0  0  0  0  0  0  0  0
  145.6366  132.8077  153.3380 C   0  0  0  0  0  0  0  0  0  0  0  0
  144.9286  133.8688  152.4764 C   0  0  2  0  0  0  0  0  0  0  0  0
  143.7101  134.3221  153.1425 N   0  0  0  0  0  0  0  0  0  0  0  0
  143.1861  135.5540  153.0645 C   0  0  0  0  0  0  0  0  0  0  0  0
  143.6826  136.4669  152.4054 O   0  0  0  0  0  0  0  0  0  0  0  0
  142.0741  135.6557  153.8121 N   0  0  0  0  0  0  0  0  0  0  0  0
  141.2334  136.7879  153.9784 C   0  0  0  0  0  0  0  0  0  0  0  0
  139.9374  136.6121  154.5038 C   0  0  0  0  0  0  0  0  0  0  0  0
  139.0893  137.6477  154.6759 N   0  0  0  0  0  0  0  0  0  0  0  0
  139.5192  138.8659  154.3224 C   0  0  0  0  0  0  0  0  0  0  0  0
  138.5204  140.0233  154.5044 C   0  0  0  0  0  0  0  0  0  0  0  0
  138.1865  140.7228  153.1637 C   0  0  0  0  0  0  0  0  0  0  0  0
  139.1253  141.0980  155.4323 C   0  0  0  0  0  0  0  0  0  0  0  0
  137.2010  139.4844  155.0924 C   0  0  0  0  0  0  0  0  0  0  0  0
  140.7161  139.1384  153.7860 N   0  0  0  0  0  0  0  0  0  0  0  0
  141.5762  138.1120  153.6150 C   0  0  0  0  0  0  0  0  0  0  0  0
  144.5853  133.2989  151.0884 C   0  0  0  0  0  0  0  0  0  0  0  0
  145.8322  132.6881  150.4160 C   0  0  2  0  0  0  0  0  0  0  0  0
  145.5647  132.2408  148.9677 C   0  0  0  0  0  0  0  0  0  0  0  0
  145.9117  128.2703  151.9230 H   0  0  0  0  0  0  0  0  0  0  0  0
  146.6404  129.3792  153.0652 H   0  0  0  0  0  0  0  0  0  0  0  0
  147.4243  129.0673  151.5134 H   0  0  0  0  0  0  0  0  0  0  0  0
  145.4044  130.0102  150.3553 H   0  0  0  0  0  0  0  0  0  0  0  0
  144.7247  130.5015  151.8797 H   0  0  0  0  0  0  0  0  0  0  0  0
  147.3196  131.4334  153.2156 H   0  0  0  0  0  0  0  0  0  0  0  0
  147.5911  132.9535  152.4294 H   0  0  0  0  0  0  0  0  0  0  0  0
  144.9319  132.0271  153.6263 H   0  0  0  0  0  0  0  0  0  0  0  0
  145.9809  133.2598  154.2691 H   0  0  0  0  0  0  0  0  0  0  0  0
  145.6183  134.7027  152.3329 H   0  0  0  0  0  0  0  0  0  0  0  0
  143.2282  133.6435  153.7139 H   0  0  0  0  0  0  0  0  0  0  0  0
  141.8327  134.8495  154.3696 H   0  0  0  0  0  0  0  0  0  0  0  0
  139.5770  135.6358  154.7936 H   0  0  0  0  0  0  0  0  0  0  0  0
  137.4899  141.5491  153.3103 H   0  0  0  0  0  0  0  0  0  0  0  0
  137.7211  140.0369  152.4545 H   0  0  0  0  0  0  0  0  0  0  0  0
  139.0794  141.1347  152.6913 H   0  0  0  0  0  0  0  0  0  0  0  0
  140.0638  141.4829  155.0315 H   0  0  0  0  0  0  0  0  0  0  0  0
  139.3300  140.7048  156.4285 H   0  0  0  0  0  0  0  0  0  0  0  0
  138.4483  141.9439  155.5552 H   0  0  0  0  0  0  0  0  0  0  0  0
  136.4670  140.2812  155.2179 H   0  0  0  0  0  0  0  0  0  0  0  0
  137.3540  139.0297  156.0717 H   0  0  0  0  0  0  0  0  0  0  0  0
  136.7588  138.7274  154.4438 H   0  0  0  0  0  0  0  0  0  0  0  0
  142.5241  138.3657  153.1666 H   0  0  0  0  0  0  0  0  0  0  0  0
  143.7988  132.5475  151.1717 H   0  0  0  0  0  0  0  0  0  0  0  0
  144.1808  134.0945  150.4609 H   0  0  0  0  0  0  0  0  0  0  0  0
  146.5814  133.4783  150.3435 H   0  0  0  0  0  0  0  0  0  0  0  0
  145.3367  133.1020  148.3387 H   0  0  0  0  0  0  0  0  0  0  0  0
  144.7138  131.5638  148.8937 H   0  0  0  0  0  0  0  0  0  0  0  0
  146.4357  131.7451  148.5383 H   0  0  0  0  0  0  0  0  0  0  0  0
  147.3062  131.3743  150.8097 H   0  0  0  0  0  0  0  0  0  0  0  0
  1  2  1  0  0  0  0
  1 24  1  0  0  0  0
  1 25  1  0  0  0  0
  1 26  1  0  0  0  0
  2  3  1  0  0  0  0
  2 27  1  0  0  0  0
  2 28  1  0  0  0  0
  3 22  1  0  0  0  0
  3  4  1  0  0  0  0
  3 53  1  0  0  0  0
  4  5  1  0  0  0  0
  4 29  1  0  0  0  0
  4 30  1  0  0  0  0
  5  6  1  0  0  0  0
  5 31  1  0  0  0  0
  5 32  1  0  0  0  0
  6  7  1  0  0  0  0
  6 21  1  0  0  0  0
  6 33  1  0  0  0  0
  7  8  1  0  0  0  0
  7 34  1  0  0  0  0
  8  9  2  0  0  0  0
  8 10  1  0  0  0  0
 10 11  1  0  0  0  0
 10 35  1  0  0  0  0
 11 20  1  0  0  0  0
 11 12  2  0  0  0  0
 12 13  1  0  0  0  0
 12 36  1  0  0  0  0
 13 14  2  0  0  0  0
 14 15  1  0  0  0  0
 14 19  1  0  0  0  0
 15 16  1  0  0  0  0
 15 17  1  0  0  0  0
 15 18  1  0  0  0  0
 16 37  1  0  0  0  0
 16 38  1  0  0  0  0
 16 39  1  0  0  0  0
 17 40  1  0  0  0  0
 17 41  1  0  0  0  0
 17 42  1  0  0  0  0
 18 43  1  0  0  0  0
 18 44  1  0  0  0  0
 18 45  1  0  0  0  0
 19 20  2  0  0  0  0
 20 46  1  0  0  0  0
 21 22  1  0  0  0  0
 21 47  1  0  0  0  0
 21 48  1  0  0  0  0
 22 23  1  0  0  0  0
 22 49  1  0  0  0  0
 23 50  1  0  0  0  0
 23 51  1  0  0  0  0
 23 52  1  0  0  0  0
M  CHG  1   3   1
M  END
> <s_m_source_file>
AV-unprocessed.smi

> <i_m_source_file_index>
2710

> <i_lp_mmshare_version>
43012

> <i_f3d_flags>
0

> <s_epik_input>
W0NIM11bQ0gyXU4xW0NIMl1bQ0gyXVtDQEhdKFtDSDJdW0NASF0xW0NIM10pW05IXUMoPU8pW05IXWMyW2NIXW5jKEMoW0NIM10pKFtDSDNdKVtDSDNdKW5bY0hdMg==

> <s_epik_cmdline>
J2VwaWtfcHl0aG9uJywgJy1waCcsICc3LjAnLCAnLXRuJywgJzgnLCAnLW1hJywgJzIwMCcsICctbWV0YWxfYmluZGluZycsICctaW1hZScsICc8aW5maWxlLm1hZT4nLCAnLW9tYWUnLCAnPG91dGZpbGUubWFlPic=

> <r_lp_tautomer_probability>
1

> <r_epik_Ionization_Penalty>
0.00396003

> <r_epik_Ionization_Penalty_Charging>
0.0039379

> <r_epik_Ionization_Penalty_Neutral>
2.21316e-05

> <r_epik_State_Penalty>
0.00281651

> <r_epik_Charging_Adjusted_Penalty>
0.00675441

> <i_epik_Tot_Q>
1

> <i_epik_Tot_abs_Q>
1

> <r_epik_Metal_State_Penalty>
-0

> <b_epik_Metal_Only>
0

> <s_lp_Force_Field>
OPLS_2005

> <r_lp_Energy>
21.9784

> <b_lp_Chiralities_Consistent>
1

> <s_lp_Variant>
AV-unprocessed.smi:2710-7

> <Gold.Version>
5.8.1

> <Gold.Id.Protein>
6NUR|6NUR_protein|mol2

> <Gold.PLP.Fitness>
45.7099

> <Gold.PLP.PLP>
-35.9031

> <Gold.PLP.part.hbond>
-1.4853

> <Gold.PLP.part.metal>
0.0000

> <Gold.PLP.part.buried>
-5.8463

> <Gold.PLP.part.nonpolar>
-28.3600

> <Gold.PLP.part.repulsive>
0.7439

> <Gold.PLP.ligand.clash>
0.0000

> <Gold.PLP.ligand.torsion>
0.4683

> <Gold.PLP.Chemscore.Hbond>
1.5688

> <Gold.PLP.Chemscore.CHOScore>
1.9941

> <Gold.PLP.Chemscore.Metal>
0.0000

> <Gold.Chemscore.Hbonds>
donor molecule, donor type, donor heavy atom, donor atom, acceptor molecule, acceptor atom, score
      L1  H     3    53       P1 10747  1.00
      L1  H     7    34       P1 10957  0.50
      L1  C    12    36       P1 11000  1.00
      L1  C    20    46       P1 10175  1.00

> <Gold.PLP.Chemscore.Internal.Correction>
0.0548

> <Gold.Rescore>
     Score         DG    S(hbond)    S(metal)    S(lipo)     H(rot)  DE(clash)    DE(int)     intcor
     18.94     -20.63       1.95        0.00     102.39       1.31       0.02       1.67       ----

> <Gold.Chemscore.Fitness>
18.9406

> <Gold.Chemscore.DG>
-20.6280

> <Gold.Chemscore.ZeroCoef>
-5.4800

> <Gold.Chemscore.Hbond>
1.9512

> <Gold.Chemscore.Metal>
0.0000

> <Gold.Chemscore.Lipo>
102.3906

> <Gold.Chemscore.Internal_Hbond>
0.0000

> <Gold.Chemscore.DEClash>
0.0197

> <Gold.Chemscore.DEInternal>
1.6677

> <Gold.Chemscore.Rot>
1.3081

> <Gold.Chemscore.Internal.Correction>
   9.000000E+99

> <Gold.Chemscore.Hbonds>
donor molecule, donor type, donor heavy atom, donor atom, acceptor molecule, acceptor atom, score
      L1  H     3    53       P1 10747  1.00
      L1  H     7    34       P1 10957  0.50

> <Gold.Chemscore.Hbond.Weighted>
-6.5171

> <Gold.Chemscore.Metal.Weighted>
-0.0000

> <Gold.Chemscore.Lipo.Weighted>
-11.9797

> <Gold.Chemscore.Internal_Hbond.Weighted>
0.0000

> <Gold.Chemscore.DEClash.Weighted>
0.0197

> <Gold.Chemscore.DEInternal.Weighted>
1.6677

> <Gold.Chemscore.Rot.Weighted>
3.3488

> <Gold.Chemscore.Internal.Correction.Weighted>
   9.000000E+99

> <Gold.Protein.RotatedTorsions>
[ 6907 6896 6895 6894 ] final  102.50 input  -60.11 | X-H torsion
[ 7974 7965 7964 7962 ] final  -80.50 input  175.53 | X-H torsion
[ 8008 7997 7996 7995 ] final  -21.91 input   59.86 | X-H torsion
[ 10167 10162 10161 10158 ] final  -60.13 input  -65.29 | X-H torsion
[ 10718 10713 10712 10709 ] final -100.85 input   66.30 | X-H torsion
[ 10763 10752 10751 10750 ] final   -9.67 input  -60.55 | X-H torsion
[ 11005 11000 10999 10996 ] final -169.39 input  -57.11 | X-H torsion

> <Gold.Protein.ActiveResidues>
 VAL166  LYS551  ARG553  GLY616  TRP617  ASP618  TYR619  PRO620  LYS621  CYS622 
 ASP623  PHE694  ASN695  SER759  ASP760  ASP761  ALA762  ILE779  LEU786  VAL792 
 PHE793  MET794  SER795  GLU796  ALA797  LYS798  CYS799  TRP800  GLU811  SER814 

> <Gold.Protein.RotatedAtoms>
  152.5322  133.9966  159.7875 H   0  0  0  0  0  0  0  0  0  0  0  0  # atno 6907 bound_to 6896
  151.0192  133.5884  159.2680 H   0  0  0  0  0  0  0  0  0  0  0  0  # atno 6908 bound_to 6896
  151.2930  135.0754  159.9264 H   0  0  0  0  0  0  0  0  0  0  0  0  # atno 6909 bound_to 6896
  145.5592  140.9485  143.1457 H   0  0  0  0  0  0  0  0  0  0  0  0  # atno 7974 bound_to 7965
  154.4676  140.2022  156.0077 H   0  0  0  0  0  0  0  0  0  0  0  0  # atno 8008 bound_to 7997
  156.0954  140.3252  155.7842 H   0  0  0  0  0  0  0  0  0  0  0  0  # atno 8009 bound_to 7997
  155.4886  140.0544  157.2948 H   0  0  0  0  0  0  0  0  0  0  0  0  # atno 8010 bound_to 7997
  140.6091  143.2382  151.5751 H   0  0  0  0  0  0  0  0  0  0  0  0  # atno 10167 bound_to 10162
  156.0176  130.5347  150.6878 H   0  0  0  0  0  0  0  0  0  0  0  0  # atno 10718 bound_to 10713
  153.4581  135.7016  153.6067 H   0  0  0  0  0  0  0  0  0  0  0  0  # atno 10763 bound_to 10752
  153.4373  135.3788  155.2207 H   0  0  0  0  0  0  0  0  0  0  0  0  # atno 10764 bound_to 10752
  154.8727  135.3965  154.4003 H   0  0  0  0  0  0  0  0  0  0  0  0  # atno 10765 bound_to 10752
  140.5312  134.5614  157.5075 H   0  0  0  0  0  0  0  0  0  0  0  0  # atno 11005 bound_to 11000
  144.7491  139.7240  143.7280 LP  0  0  0  0  0  0  0  0  0  0  0  0  # atno 17320 bound_to 7965
  146.1863  139.5080  142.9834 LP  0  0  0  0  0  0  0  0  0  0  0  0  # atno 17321 bound_to 7965
  139.5347  144.2814  152.1226 LP  0  0  0  0  0  0  0  0  0  0  0  0  # atno 17342 bound_to 10162
  140.2009  144.4658  150.6432 LP  0  0  0  0  0  0  0  0  0  0  0  0  # atno 17343 bound_to 10162
  157.4566  131.0878  151.0790 LP  0  0  0  0  0  0  0  0  0  0  0  0  # atno 17370 bound_to 10713
  157.1290  130.6094  149.5524 LP  0  0  0  0  0  0  0  0  0  0  0  0  # atno 17371 bound_to 10713
  139.9553  134.7546  156.0356 LP  0  0  0  0  0  0  0  0  0  0  0  0  # atno 17394 bound_to 11000
  141.1280  133.6594  156.3388 LP  0  0  0  0  0  0  0  0  0  0  0  0  # atno 17395 bound_to 11000

$$$$
