#       Name:                AV-unprocessed.smi:2424
#       Creating user name   scv26
#       Creation time:       Fri Mar 27 13:19:32 2020


#       File generated by GOLD software.
#

@<TRIPOS>MOLECULE
AV-unprocessed.smi:2424
    56    57     1
SMALL
NO_CHARGES


@<TRIPOS>ATOM
      1 ****        -4.2741   0.7280  -1.1171 C.3            1 S1                 0.0000
      2 ****        -3.8559  -0.7498  -1.0159 C.3            1 S1                 0.0000
      3 ****        -2.3524  -1.0210  -0.7147 C.3            1 S1                 0.0000
      4 ****        -1.6270  -1.2517  -2.0617 C.3            1 S1                 0.0000
      5 ****        -1.5087  -0.0211  -2.9731 C.3            1 S1                 0.0000
      6 ****        -1.6807  -0.0802   0.3336 C.3            1 S1                 0.0000
      7 ****        -0.2253   0.0111   0.1803 N.am           1 S1                 0.0000
      8 ****         0.5107   1.1051   0.4157 C.2            1 S1                 0.0000
      9 ****         0.0326   2.1731   0.7963 O.2            1 S1                 0.0000
     10 ****         1.8136   0.8597   0.1839 N.am           1 S1                 0.0000
     11 ****         2.9132   1.7239   0.2883 C.2            1 S1                 0.0000
     12 ****         2.8520   3.0407   0.5808 C.2            1 S1                 0.0000
     13 ****         4.0090   3.8206   0.6582 N.am           1 S1                 0.0000
     14 ****         5.2609   3.3521   0.4519 C.2            1 S1                 0.0000
     15 ****         6.2303   4.1037   0.5370 O.2            1 S1                 0.0000
     16 ****         5.3540   1.9193   0.1295 C.2            1 S1                 0.0000
     17 ****         6.7308   1.3257  -0.1086 C.3            1 S1                 0.0000
     18 ****         4.2325   1.1670   0.0558 C.2            1 S1                 0.0000
     19 ****        -2.0816  -1.0763   1.4386 C.3            1 S1                 0.0000
     20 ****        -1.2012  -1.2565   2.6730 C.3            1 S1                 0.0000
     21 ****        -2.0903  -2.1406   0.3298 C.3            1 S1                 0.0000
     22 ****        -3.1293  -3.1062   0.4039 O.3            1 S1                 0.0000
     23 ****        -2.8768  -4.1281   1.3517 C.3            1 S1                 0.0000
     24 ****         3.8878   4.7971   0.8843 H              1 S1                 0.0000
     25 ****        -5.2866   0.8093  -1.5127 H              1 S1                 0.0000
     26 ****        -3.6207   1.3071  -1.7668 H              1 S1                 0.0000
     27 ****        -4.2806   1.2073  -0.1384 H              1 S1                 0.0000
     28 ****        -4.4909  -1.1944  -0.2501 H              1 S1                 0.0000
     29 ****        -4.1533  -1.2522  -1.9369 H              1 S1                 0.0000
     30 ****        -0.6176  -1.6217  -1.8796 H              1 S1                 0.0000
     31 ****        -2.1104  -2.0563  -2.6170 H              1 S1                 0.0000
     32 ****        -0.8448  -0.2309  -3.8120 H              1 S1                 0.0000
     33 ****        -1.1041   0.8392  -2.4399 H              1 S1                 0.0000
     34 ****        -2.4731   0.2583  -3.3952 H              1 S1                 0.0000
     35 ****        -2.1645   0.8880   0.4535 H              1 S1                 0.0000
     36 ****         0.2502  -0.8229  -0.1305 H              1 S1                 0.0000
     37 ****         2.0437  -0.0796  -0.1047 H              1 S1                 0.0000
     38 ****         1.9561   3.6095   0.7723 H              1 S1                 0.0000
     39 ****         6.6702   0.2641  -0.3500 H              1 S1                 0.0000
     40 ****         7.3502   1.4340   0.7823 H              1 S1                 0.0000
     41 ****         7.2271   1.8323  -0.9370 H              1 S1                 0.0000
     42 ****         4.3195   0.1163  -0.1806 H              1 S1                 0.0000
     43 ****        -3.1078  -0.8574   1.7400 H              1 S1                 0.0000
     44 ****        -0.2267  -1.6728   2.4173 H              1 S1                 0.0000
     45 ****        -1.6638  -1.9277   3.3959 H              1 S1                 0.0000
     46 ****        -1.0318  -0.3041   3.1756 H              1 S1                 0.0000
     47 ****        -1.1107  -2.6053   0.1945 H              1 S1                 0.0000
     48 ****        -3.6862  -4.8575   1.3249 H              1 S1                 0.0000
     49 ****        -2.8230  -3.7276   2.3636 H              1 S1                 0.0000
     50 ****        -1.9455  -4.6513   1.1307 H              1 S1                 0.0000
     51 ****        -0.9529   2.2550   0.9450 LP             1 S1                 0.0000
     52 ****         0.6295   2.9592   0.9568 LP             1 S1                 0.0000
     53 ****         6.0963   5.0692   0.7602 LP             1 S1                 0.0000
     54 ****         7.1527   3.7495   0.3830 LP             1 S1                 0.0000
     55 ****        -3.2359  -3.5276  -0.4967 LP             1 S1                 0.0000
     56 ****        -3.9776  -2.6411   0.6568 LP             1 S1                 0.0000
@<TRIPOS>BOND
    1    1    2 1     
    2    1   25 1     
    3    1   26 1     
    4    1   27 1     
    5    2    3 1     
    6    2   28 1     
    7    2   29 1     
    8    3   21 1     
    9    3    4 1     
   10    3    6 1     
   11    4    5 1     
   12    4   30 1     
   13    4   31 1     
   14    5   32 1     
   15    5   33 1     
   16    5   34 1     
   17    6    7 1     
   18    6   19 1     
   19    6   35 1     
   20    7    8 am    
   21    7   36 1     
   22    8    9 2     
   23    8   10 am    
   24   10   11 1     
   25   10   37 1     
   26   11   18 1     
   27   11   12 2     
   28   12   13 1     
   29   12   38 1     
   30   13   24 1     
   31   13   14 am    
   32   14   15 2     
   33   14   16 1     
   34   16   17 1     
   35   16   18 2     
   36   17   39 1     
   37   17   40 1     
   38   17   41 1     
   39   18   42 1     
   40   19   20 1     
   41   19   21 1     
   42   19   43 1     
   43   20   44 1     
   44   20   45 1     
   45   20   46 1     
   46   21   22 1     
   47   21   47 1     
   48   22   23 1     
   49   23   48 1     
   50   23   49 1     
   51   23   50 1     
   52    9   51 1     
   53    9   52 1     
   54   15   53 1     
   55   15   54 1     
   56   22   55 1     
   57   22   56 1     
@<TRIPOS>SUBSTRUCTURE
      1 S1             1
@<TRIPOS>SET
LONE_PAIRS      STATIC     ATOMS    <user>   **** ""
6 51 52 53 54 55 56
DONOR_HYDROGENS      STATIC     ATOMS    <user>   **** ""
3 36 37 24
ATOM$BLUE        STATIC     ATOMS    COLORGROUP SYSTEM
6 51 52 53 54 55 56
ATOM$RED        STATIC     ATOMS    COLORGROUP SYSTEM
3 36 37 24
