AV-unprocessed.smi:1260|AV-procd|sdf|5294|dock10
  -GOLD-   22720 4413D 1   1.00000     0.00000
 Structure written by MMmdl.
 37 39  0  0  0  0  0  0  0  0  2 V2000
  149.6536  141.0187  153.7665 O   0  0  0  0  0  0  0  0  0  0  0  0
  149.8678  140.1989  154.6588 C   0  0  0  0  0  0  0  0  0  0  0  0
  150.3716  138.7994  154.3109 C   0  0  0  0  0  0  0  0  0  0  0  0
  151.7131  138.6091  154.8292 N   0  0  0  0  0  0  0  0  0  0  0  0
  152.5346  139.4476  155.4639 C   0  0  0  0  0  0  0  0  0  0  0  0
  153.6678  138.8544  155.8073 N   0  0  0  0  0  0  0  0  0  0  0  0
  153.5031  137.5629  155.3354 N   0  0  0  0  0  0  0  0  0  0  0  0
  152.3450  137.4109  154.7541 N   0  0  0  0  0  0  0  0  0  0  0  0
  149.7243  140.4728  155.9644 N   0  0  0  0  0  0  0  0  0  0  0  0
  149.4136  141.7914  156.5077 C   0  0  1  0  0  0  0  0  0  0  0  0
  148.3927  141.7525  157.6527 C   0  0  0  0  0  0  0  0  0  0  0  0
  148.7813  142.9211  158.5768 C   0  0  0  0  0  0  0  0  0  0  0  0
  149.9916  143.5326  157.9836 N   0  3  1  0  0  0  0  0  0  0  0  0
  150.8947  144.2530  158.9177 C   0  0  0  0  0  0  0  0  0  0  0  0
  151.7963  143.3039  159.7248 C   0  0  0  0  0  0  0  0  0  0  0  0
  152.5617  142.3600  158.7920 C   0  0  0  0  0  0  0  0  0  0  0  0
  151.5682  141.5700  157.9349 C   0  0  0  0  0  0  0  0  0  0  0  0
  150.6274  142.5050  157.1293 C   0  0  1  0  0  0  0  0  0  0  0  0
  149.7078  138.0388  154.7251 H   0  0  0  0  0  0  0  0  0  0  0  0
  150.3882  138.6635  153.2287 H   0  0  0  0  0  0  0  0  0  0  0  0
  152.2994  140.4787  155.6829 H   0  0  0  0  0  0  0  0  0  0  0  0
  149.9178  139.7362  156.6281 H   0  0  0  0  0  0  0  0  0  0  0  0
  149.0044  142.4211  155.7146 H   0  0  0  0  0  0  0  0  0  0  0  0
  147.3703  141.8417  157.2836 H   0  0  0  0  0  0  0  0  0  0  0  0
  148.4607  140.8134  158.2041 H   0  0  0  0  0  0  0  0  0  0  0  0
  147.9872  143.6647  158.6492 H   0  0  0  0  0  0  0  0  0  0  0  0
  148.9823  142.5498  159.5823 H   0  0  0  0  0  0  0  0  0  0  0  0
  151.5206  144.9224  158.3263 H   0  0  0  0  0  0  0  0  0  0  0  0
  150.3075  144.8865  159.5835 H   0  0  0  0  0  0  0  0  0  0  0  0
  152.4993  143.8830  160.3242 H   0  0  0  0  0  0  0  0  0  0  0  0
  151.1991  142.7237  160.4291 H   0  0  0  0  0  0  0  0  0  0  0  0
  153.2369  142.9297  158.1523 H   0  0  0  0  0  0  0  0  0  0  0  0
  153.1814  141.6766  159.3735 H   0  0  0  0  0  0  0  0  0  0  0  0
  152.1187  140.9148  157.2590 H   0  0  0  0  0  0  0  0  0  0  0  0
  150.9853  140.9158  158.5845 H   0  0  0  0  0  0  0  0  0  0  0  0
  151.2111  143.0051  156.3550 H   0  0  0  0  0  0  0  0  0  0  0  0
  149.6380  144.2292  157.3431 H   0  0  0  0  0  0  0  0  0  0  0  0
  1  2  2  0  0  0  0
  2  3  1  0  0  0  0
  2  9  1  0  0  0  0
  3  4  1  0  0  0  0
  3 19  1  0  0  0  0
  3 20  1  0  0  0  0
  4  8  1  0  0  0  0
  4  5  1  0  0  0  0
  5  6  2  0  0  0  0
  5 21  1  0  0  0  0
  6  7  1  0  0  0  0
  7  8  2  0  0  0  0
  9 10  1  0  0  0  0
  9 22  1  0  0  0  0
 10 18  1  0  0  0  0
 10 11  1  0  0  0  0
 10 23  1  0  0  0  0
 11 12  1  0  0  0  0
 11 24  1  0  0  0  0
 11 25  1  0  0  0  0
 12 13  1  0  0  0  0
 12 26  1  0  0  0  0
 12 27  1  0  0  0  0
 13 18  1  0  0  0  0
 13 14  1  0  0  0  0
 13 37  1  0  0  0  0
 14 15  1  0  0  0  0
 14 28  1  0  0  0  0
 14 29  1  0  0  0  0
 15 16  1  0  0  0  0
 15 30  1  0  0  0  0
 15 31  1  0  0  0  0
 16 17  1  0  0  0  0
 16 32  1  0  0  0  0
 16 33  1  0  0  0  0
 17 18  1  0  0  0  0
 17 34  1  0  0  0  0
 17 35  1  0  0  0  0
 18 36  1  0  0  0  0
M  CHG  1  13   1
M  END
> <s_m_source_file>
AV-unprocessed.smi

> <i_m_source_file_index>
1260

> <i_lp_mmshare_version>
43012

> <i_f3d_flags>
0

> <s_epik_input>
bjFubltjSF1uMVtDSDJdQyg9TylbTkhdW0NASF0oW0NIMl1bQ0gyXTIpW0NAQEhdKE4yMylbQ0gyXVtDSDJdW0NIMl1bQ0gyXTM=

> <s_epik_cmdline>
J2VwaWtfcHl0aG9uJywgJy1waCcsICc3LjAnLCAnLXRuJywgJzgnLCAnLW1hJywgJzIwMCcsICctbWV0YWxfYmluZGluZycsICctaW1hZScsICc8aW5maWxlLm1hZT4nLCAnLW9tYWUnLCAnPG91dGZpbGUubWFlPic=

> <r_lp_tautomer_probability>
1

> <r_epik_Ionization_Penalty>
0.00234324

> <r_epik_Ionization_Penalty_Charging>
0.00233897

> <r_epik_Ionization_Penalty_Neutral>
4.26861e-06

> <r_epik_State_Penalty>
0.00161477

> <r_epik_Charging_Adjusted_Penalty>
0.00395374

> <i_epik_Tot_Q>
1

> <i_epik_Tot_abs_Q>
1

> <r_epik_Metal_State_Penalty>
-0

> <b_epik_Metal_Only>
0

> <s_lp_Force_Field>
OPLS_2005

> <r_lp_Energy>
37.4375

> <b_lp_Chiralities_Consistent>
1

> <s_lp_Variant>
AV-unprocessed.smi:1260-2

> <Gold.Version>
5.8.1

> <Gold.Id.Protein>
6NUR|6NUR_protein|mol2

> <Gold.PLP.Fitness>
43.6604

> <Gold.PLP.PLP>
-32.7348

> <Gold.PLP.part.hbond>
-5.9076

> <Gold.PLP.part.metal>
0.0000

> <Gold.PLP.part.buried>
-2.4788

> <Gold.PLP.part.nonpolar>
-26.2453

> <Gold.PLP.part.repulsive>
2.4474

> <Gold.PLP.ligand.clash>
0.0000

> <Gold.PLP.ligand.torsion>
0.2839

> <Gold.PLP.Chemscore.Hbond>
3.8287

> <Gold.PLP.Chemscore.CHOScore>
0.0000

> <Gold.PLP.Chemscore.Metal>
0.0000

> <Gold.Chemscore.Hbonds>
donor molecule, donor type, donor heavy atom, donor atom, acceptor molecule, acceptor atom, score
      L1  H    13    37       P1  8028  2.00
      P1  H  7989  7998       L1     1  0.09
      P1  H  7997  8008       L1     6  0.64
      P1  H  8011  8017       L1     1  0.94
      P1  H 10752 10765       L1     8  0.19

> <Gold.PLP.Chemscore.Internal.Correction>
0.0072

> <Gold.Rescore>
     Score         DG    S(hbond)    S(metal)    S(lipo)     H(rot)  DE(clash)    DE(int)     intcor
     10.69     -13.77       1.65        0.00      66.85       1.98       1.88       1.20       ----

> <Gold.Chemscore.Fitness>
10.6876

> <Gold.Chemscore.DG>
-13.7697

> <Gold.Chemscore.ZeroCoef>
-5.4800

> <Gold.Chemscore.Hbond>
1.6544

> <Gold.Chemscore.Metal>
0.0000

> <Gold.Chemscore.Lipo>
66.8543

> <Gold.Chemscore.Internal_Hbond>
0.0000

> <Gold.Chemscore.DEClash>
1.8812

> <Gold.Chemscore.DEInternal>
1.2009

> <Gold.Chemscore.Rot>
1.9757

> <Gold.Chemscore.Internal.Correction>
   9.000000E+99

> <Gold.Chemscore.Hbonds>
donor molecule, donor type, donor heavy atom, donor atom, acceptor molecule, acceptor atom, score
      L1  H    13    37       P1  8028  0.29
      P1  H  7997  8008       L1     6  0.16
      P1  H  8011  8017       L1     1  0.87

> <Gold.Chemscore.Hbond.Weighted>
-5.5256

> <Gold.Chemscore.Metal.Weighted>
-0.0000

> <Gold.Chemscore.Lipo.Weighted>
-7.8219

> <Gold.Chemscore.Internal_Hbond.Weighted>
0.0000

> <Gold.Chemscore.DEClash.Weighted>
1.8812

> <Gold.Chemscore.DEInternal.Weighted>
1.2009

> <Gold.Chemscore.Rot.Weighted>
5.0578

> <Gold.Chemscore.Internal.Correction.Weighted>
   9.000000E+99

> <Gold.Protein.RotatedTorsions>
[ 6907 6896 6895 6894 ] final  111.64 input  -60.11 | X-H torsion
[ 7974 7965 7964 7962 ] final  -43.18 input  175.53 | X-H torsion
[ 8008 7997 7996 7995 ] final  -55.59 input   59.86 | X-H torsion
[ 10167 10162 10161 10158 ] final  175.75 input  -65.29 | X-H torsion
[ 10718 10713 10712 10709 ] final -136.25 input   66.30 | X-H torsion
[ 10763 10752 10751 10750 ] final  154.32 input  -60.55 | X-H torsion
[ 11005 11000 10999 10996 ] final  146.73 input  -57.11 | X-H torsion

> <Gold.Protein.ActiveResidues>
 VAL166  LYS551  ARG553  GLY616  TRP617  ASP618  TYR619  PRO620  LYS621  CYS622 
 ASP623  PHE694  ASN695  SER759  ASP760  ASP761  ALA762  ILE779  LEU786  VAL792 
 PHE793  MET794  SER795  GLU796  ALA797  LYS798  CYS799  TRP800  GLU811  SER814 

> <Gold.Protein.RotatedAtoms>
  152.4959  133.8629  159.7258 H   0  0  0  0  0  0  0  0  0  0  0  0  # atno 6907 bound_to 6896
  150.9136  133.6958  159.2855 H   0  0  0  0  0  0  0  0  0  0  0  0  # atno 6908 bound_to 6896
  151.4359  135.1019  159.9708 H   0  0  0  0  0  0  0  0  0  0  0  0  # atno 6909 bound_to 6896
  146.0044  140.7037  142.9254 H   0  0  0  0  0  0  0  0  0  0  0  0  # atno 7974 bound_to 7965
  154.4200  140.1149  156.5502 H   0  0  0  0  0  0  0  0  0  0  0  0  # atno 8008 bound_to 7997
  155.6418  140.3496  155.4698 H   0  0  0  0  0  0  0  0  0  0  0  0  # atno 8009 bound_to 7997
  155.9865  140.1170  157.0668 H   0  0  0  0  0  0  0  0  0  0  0  0  # atno 8010 bound_to 7997
  139.5189  144.2995  152.0391 H   0  0  0  0  0  0  0  0  0  0  0  0  # atno 10167 bound_to 10162
  156.2750  130.7288  151.1267 H   0  0  0  0  0  0  0  0  0  0  0  0  # atno 10718 bound_to 10713
  154.1504  135.2815  155.3137 H   0  0  0  0  0  0  0  0  0  0  0  0  # atno 10763 bound_to 10752
  154.6222  135.5463  153.7590 H   0  0  0  0  0  0  0  0  0  0  0  0  # atno 10764 bound_to 10752
  153.0223  135.6441  154.1648 H   0  0  0  0  0  0  0  0  0  0  0  0  # atno 10765 bound_to 10752
  140.0818  134.9093  157.1512 H   0  0  0  0  0  0  0  0  0  0  0  0  # atno 11005 bound_to 11000
  144.6930  140.3290  143.7219 LP  0  0  0  0  0  0  0  0  0  0  0  0  # atno 17320 bound_to 7965
  145.7438  139.1772  143.2361 LP  0  0  0  0  0  0  0  0  0  0  0  0  # atno 17321 bound_to 7965
  140.2443  144.4236  150.6247 LP  0  0  0  0  0  0  0  0  0  0  0  0  # atno 17342 bound_to 10162
  140.6269  143.2182  151.6578 LP  0  0  0  0  0  0  0  0  0  0  0  0  # atno 17343 bound_to 10162
  157.7296  131.0623  150.5765 LP  0  0  0  0  0  0  0  0  0  0  0  0  # atno 17370 bound_to 10713
  156.5865  130.4318  149.5955 LP  0  0  0  0  0  0  0  0  0  0  0  0  # atno 17371 bound_to 10713
  140.3477  134.2633  155.7203 LP  0  0  0  0  0  0  0  0  0  0  0  0  # atno 17394 bound_to 11000
  141.2049  133.7874  157.0262 LP  0  0  0  0  0  0  0  0  0  0  0  0  # atno 17395 bound_to 11000

$$$$
