#       Name:                AV-unprocessed.smi:1340
#       Creating user name   scv26
#       Creation time:       Fri Mar 27 05:08:41 2020


#       File generated by GOLD software.
#

@<TRIPOS>MOLECULE
AV-unprocessed.smi:1340
    45    46     1
SMALL
NO_CHARGES


@<TRIPOS>ATOM
      1 ****        -3.6890  -2.3732  -2.5038 C.3            1 S1                 0.0000
      2 ****        -2.9819  -1.6801  -1.3340 C.3            1 S1                 0.0000
      3 ****        -3.3986  -2.2566   0.0305 C.3            1 S1                 0.0000
      4 ****        -2.7567  -1.5385   1.2331 C.3            1 S1                 0.0000
      5 ****        -3.2966  -2.0843   2.5655 C.3            1 S1                 0.0000
      6 ****        -1.3022  -1.6732   1.1858 N.am           1 S1                 0.0000
      7 ****        -0.4223  -0.8293   1.7475 C.2            1 S1                 0.0000
      8 ****        -0.7598   0.1681   2.3870 O.2            1 S1                 0.0000
      9 ****         1.0587  -1.1841   1.5659 C.3            1 S1                 0.0000
     10 ****         1.9275   0.0421   1.5574 C.2            1 S1                 0.0000
     11 ****         2.5809   0.5944   2.6321 C.2            1 S1                 0.0000
     12 ****         3.4833   2.0166   2.1887 S.3            1 S1                 0.0000
     13 ****         2.9371   1.8023   0.5228 C.2            1 S1                 0.0000
     14 ****         3.2629   2.6358  -0.5881 N.am           1 S1                 0.0000
     15 ****         2.7251   2.3818  -1.9209 C.3            1 S1                 0.0000
     16 ****         3.3188   3.4983  -2.7744 C.3            1 S1                 0.0000
     17 ****         4.1120   4.2266  -1.8125 N.am           1 S1                 0.0000
     18 ****         4.0661   3.7183  -0.5789 C.2            1 S1                 0.0000
     19 ****         4.6736   4.1892   0.3808 O.2            1 S1                 0.0000
     20 ****         2.1444   0.7370   0.3624 N.2            1 S1                 0.0000
     21 ****        -3.3772  -1.9431  -3.4558 H              1 S1                 0.0000
     22 ****        -4.7714  -2.2655  -2.4291 H              1 S1                 0.0000
     23 ****        -3.4583  -3.4385  -2.5284 H              1 S1                 0.0000
     24 ****        -1.9038  -1.7747  -1.4670 H              1 S1                 0.0000
     25 ****        -3.2040  -0.6128  -1.3632 H              1 S1                 0.0000
     26 ****        -4.4840  -2.1932   0.1203 H              1 S1                 0.0000
     27 ****        -3.1543  -3.3192   0.0656 H              1 S1                 0.0000
     28 ****        -3.0164  -0.4801   1.1673 H              1 S1                 0.0000
     29 ****        -4.3807  -1.9826   2.6195 H              1 S1                 0.0000
     30 ****        -2.8766  -1.5458   3.4156 H              1 S1                 0.0000
     31 ****        -3.0555  -3.1406   2.6889 H              1 S1                 0.0000
     32 ****        -0.9370  -2.4689   0.6828 H              1 S1                 0.0000
     33 ****         1.3522  -1.8533   2.3751 H              1 S1                 0.0000
     34 ****         1.1890  -1.7461   0.6396 H              1 S1                 0.0000
     35 ****         2.5803   0.2540   3.6569 H              1 S1                 0.0000
     36 ****         3.0332   1.3989  -2.2803 H              1 S1                 0.0000
     37 ****         1.6350   2.4240  -1.9111 H              1 S1                 0.0000
     38 ****         3.9473   3.1117  -3.5774 H              1 S1                 0.0000
     39 ****         2.5492   4.1415  -3.2020 H              1 S1                 0.0000
     40 ****         4.6489   5.0445  -2.0627 H              1 S1                 0.0000
     41 ****        -1.7296   0.3804   2.5072 LP             1 S1                 0.0000
     42 ****        -0.0640   0.7654   2.7858 LP             1 S1                 0.0000
     43 ****         4.5982   3.7588   1.2803 LP             1 S1                 0.0000
     44 ****         5.2431   5.0025   0.2618 LP             1 S1                 0.0000
     45 ****         1.7498   0.4666  -0.5158 LP             1 S1                 0.0000
@<TRIPOS>BOND
    1    1    2 1     
    2    1   21 1     
    3    1   22 1     
    4    1   23 1     
    5    2    3 1     
    6    2   24 1     
    7    2   25 1     
    8    3    4 1     
    9    3   26 1     
   10    3   27 1     
   11    4    5 1     
   12    4    6 1     
   13    4   28 1     
   14    5   29 1     
   15    5   30 1     
   16    5   31 1     
   17    6    7 am    
   18    6   32 1     
   19    7    8 2     
   20    7    9 1     
   21    9   10 1     
   22    9   33 1     
   23    9   34 1     
   24   10   20 1     
   25   10   11 2     
   26   11   12 1     
   27   11   35 1     
   28   12   13 1     
   29   13   14 1     
   30   13   20 2     
   31   14   18 am    
   32   14   15 1     
   33   15   16 1     
   34   15   36 1     
   35   15   37 1     
   36   16   17 1     
   37   16   38 1     
   38   16   39 1     
   39   17   18 am    
   40   17   40 1     
   41   18   19 2     
   42    8   41 1     
   43    8   42 1     
   44   19   43 1     
   45   19   44 1     
   46   20   45 1     
@<TRIPOS>SUBSTRUCTURE
      1 S1             1
@<TRIPOS>SET
LONE_PAIRS      STATIC     ATOMS    <user>   **** ""
5 41 42 43 44 45
DONOR_HYDROGENS      STATIC     ATOMS    <user>   **** ""
2 32 40
ATOM$BLUE        STATIC     ATOMS    COLORGROUP SYSTEM
5 41 42 43 44 45
ATOM$RED        STATIC     ATOMS    COLORGROUP SYSTEM
2 32 40
