AV-unprocessed.smi:2999|AV-procd|sdf|11419|dock3
  -GOLD-   2272016343D 1   1.00000     0.00000
 Structure written by MMmdl.
 38 40  0  0  0  0  0  0  0  0  2 V2000
  153.0961  140.0148  156.9886 O   0  0  0  0  0  0  0  0  0  0  0  0
  152.0636  140.5594  156.5973 C   0  0  0  0  0  0  0  0  0  0  0  0
  151.3830  140.1536  155.5177 N   0  0  0  0  0  0  0  0  0  0  0  0
  151.7807  139.0382  154.6689 C   0  0  0  0  0  0  0  0  0  0  0  0
  150.5807  138.1306  154.3640 C   0  0  2  0  0  0  0  0  0  0  0  0
  149.3408  138.9389  153.9330 C   0  0  0  0  0  0  0  0  0  0  0  0
  148.1881  138.0361  153.7122 N   0  3  2  0  0  0  0  0  0  0  0  0
  146.9822  138.7583  153.2530 C   0  0  0  0  0  0  0  0  0  0  0  0
  145.8557  137.8458  152.8286 C   0  0  0  0  0  0  0  0  0  0  0  0
  146.6805  138.5667  151.7853 C   0  0  0  0  0  0  0  0  0  0  0  0
  147.9307  137.2157  154.9172 C   0  0  0  0  0  0  0  0  0  0  0  0
  149.2057  136.4638  155.3309 C   0  0  0  0  0  0  0  0  0  0  0  0
  150.2589  137.3962  155.5423 O   0  0  0  0  0  0  0  0  0  0  0  0
  151.4728  141.6195  157.1758 N   0  0  0  0  0  0  0  0  0  0  0  0
  151.8879  142.3347  158.3296 C   0  0  0  0  0  0  0  0  0  0  0  0
  151.3441  143.4861  158.7408 N   0  0  0  0  0  0  0  0  0  0  0  0
  151.9493  143.9649  159.9057 C   0  0  0  0  0  0  0  0  0  0  0  0
  152.9592  143.1600  160.3705 C   0  0  0  0  0  0  0  0  0  0  0  0
  153.1927  141.7604  159.3577 S   0  0  0  0  0  0  0  0  0  0  0  0
  150.5463  140.6554  155.2583 H   0  0  0  0  0  0  0  0  0  0  0  0
  152.2137  139.4186  153.7422 H   0  0  0  0  0  0  0  0  0  0  0  0
  152.5591  138.4662  155.1765 H   0  0  0  0  0  0  0  0  0  0  0  0
  150.8558  137.4363  153.5674 H   0  0  0  0  0  0  0  0  0  0  0  0
  149.0852  139.6767  154.6958 H   0  0  0  0  0  0  0  0  0  0  0  0
  149.5544  139.4884  153.0154 H   0  0  0  0  0  0  0  0  0  0  0  0
  146.7700  139.7080  153.7411 H   0  0  0  0  0  0  0  0  0  0  0  0
  145.9974  136.7707  152.9253 H   0  0  0  0  0  0  0  0  0  0  0  0
  144.8384  138.1968  152.9901 H   0  0  0  0  0  0  0  0  0  0  0  0
  146.2063  139.3925  151.2586 H   0  0  0  0  0  0  0  0  0  0  0  0
  147.3699  137.9706  151.1901 H   0  0  0  0  0  0  0  0  0  0  0  0
  147.5944  137.8578  155.7328 H   0  0  0  0  0  0  0  0  0  0  0  0
  147.1282  136.5051  154.7167 H   0  0  0  0  0  0  0  0  0  0  0  0
  149.0328  135.9102  156.2539 H   0  0  0  0  0  0  0  0  0  0  0  0
  149.4946  135.7354  154.5714 H   0  0  0  0  0  0  0  0  0  0  0  0
  150.6285  141.9580  156.7385 H   0  0  0  0  0  0  0  0  0  0  0  0
  151.5977  144.8898  160.3385 H   0  0  0  0  0  0  0  0  0  0  0  0
  153.5777  143.3055  161.2437 H   0  0  0  0  0  0  0  0  0  0  0  0
  148.4494  137.4001  152.9721 H   0  0  0  0  0  0  0  0  0  0  0  0
  1  2  2  0  0  0  0
  2  3  1  0  0  0  0
  2 14  1  0  0  0  0
  3  4  1  0  0  0  0
  3 20  1  0  0  0  0
  4  5  1  0  0  0  0
  4 21  1  0  0  0  0
  4 22  1  0  0  0  0
  5 13  1  0  0  0  0
  5  6  1  0  0  0  0
  5 23  1  0  0  0  0
  6  7  1  0  0  0  0
  6 24  1  0  0  0  0
  6 25  1  0  0  0  0
  7  8  1  0  0  0  0
  7 11  1  0  0  0  0
  7 38  1  0  0  0  0
  8 10  1  0  0  0  0
  8  9  1  0  0  0  0
  8 26  1  0  0  0  0
  9 10  1  0  0  0  0
  9 27  1  0  0  0  0
  9 28  1  0  0  0  0
 10 29  1  0  0  0  0
 10 30  1  0  0  0  0
 11 12  1  0  0  0  0
 11 31  1  0  0  0  0
 11 32  1  0  0  0  0
 12 13  1  0  0  0  0
 12 33  1  0  0  0  0
 12 34  1  0  0  0  0
 14 15  1  0  0  0  0
 14 35  1  0  0  0  0
 15 19  1  0  0  0  0
 15 16  2  0  0  0  0
 16 17  1  0  0  0  0
 17 18  2  0  0  0  0
 17 36  1  0  0  0  0
 18 19  1  0  0  0  0
 18 37  1  0  0  0  0
M  CHG  1   7   1
M  END
> <s_m_source_file>
AV-unprocessed.smi

> <i_m_source_file_index>
2999

> <i_lp_mmshare_version>
43012

> <i_f3d_flags>
0

> <s_epik_input>
czFbY0hdW2NIXW5jMVtOSF1DKD1PKVtOSF1bQ0gyXVtDQEBIXTJbQ0gyXU4oW0NIMl1bQ0gyXU8yKVtDSF0zW0NIMl1bQ0gyXTM=

> <s_epik_cmdline>
J2VwaWtfcHl0aG9uJywgJy1waCcsICc3LjAnLCAnLXRuJywgJzgnLCAnLW1hJywgJzIwMCcsICctbWV0YWxfYmluZGluZycsICctaW1hZScsICc8aW5maWxlLm1hZT4nLCAnLW9tYWUnLCAnPG91dGZpbGUubWFlPic=

> <r_lp_tautomer_probability>
0.999

> <r_epik_Ionization_Penalty>
1.55235

> <r_epik_Ionization_Penalty_Charging>
1.55221

> <r_epik_Ionization_Penalty_Neutral>
0.000139685

> <r_epik_State_Penalty>
1.64652

> <r_epik_Charging_Adjusted_Penalty>
3.19873

> <i_epik_Tot_Q>
1

> <i_epik_Tot_abs_Q>
1

> <r_epik_Metal_State_Penalty>
1.68612

> <b_epik_Metal_Only>
0

> <s_lp_Force_Field>
OPLS_2005

> <r_lp_Energy>
22.0843

> <b_lp_Chiralities_Consistent>
1

> <s_lp_Variant>
AV-unprocessed.smi:2999-3

> <Gold.Version>
5.8.1

> <Gold.Id.Protein>
6NUR|6NUR_protein|mol2

> <Gold.PLP.Fitness>
42.2019

> <Gold.PLP.PLP>
-33.7041

> <Gold.PLP.part.hbond>
-1.8918

> <Gold.PLP.part.metal>
0.0000

> <Gold.PLP.part.buried>
-2.9944

> <Gold.PLP.part.nonpolar>
-29.0675

> <Gold.PLP.part.repulsive>
0.3111

> <Gold.PLP.ligand.clash>
0.0000

> <Gold.PLP.ligand.torsion>
0.8818

> <Gold.PLP.Chemscore.Hbond>
3.0000

> <Gold.PLP.Chemscore.CHOScore>
0.0000

> <Gold.PLP.Chemscore.Metal>
0.0000

> <Gold.Chemscore.Hbonds>
donor molecule, donor type, donor heavy atom, donor atom, acceptor molecule, acceptor atom, score
      L1  H     7    38       P1  7948  2.00
      P1  H  7997  8008       L1     1  0.60

> <Gold.PLP.Chemscore.Internal.Correction>
1.2613

> <Gold.Rescore>
     Score         DG    S(hbond)    S(metal)    S(lipo)     H(rot)  DE(clash)    DE(int)     intcor
     15.29     -17.55       1.96        0.00      81.64       1.58       0.04       2.22       ----

> <Gold.Chemscore.Fitness>
15.2915

> <Gold.Chemscore.DG>
-17.5489

> <Gold.Chemscore.ZeroCoef>
-5.4800

> <Gold.Chemscore.Hbond>
1.9643

> <Gold.Chemscore.Metal>
0.0000

> <Gold.Chemscore.Lipo>
81.6365

> <Gold.Chemscore.Internal_Hbond>
0.0000

> <Gold.Chemscore.DEClash>
0.0351

> <Gold.Chemscore.DEInternal>
2.2223

> <Gold.Chemscore.Rot>
1.5795

> <Gold.Chemscore.Internal.Correction>
   9.000000E+99

> <Gold.Chemscore.Hbonds>
donor molecule, donor type, donor heavy atom, donor atom, acceptor molecule, acceptor atom, score
      L1  H     7    38       P1  7948  1.00
      P1  H  7997  8008       L1     1  0.60

> <Gold.Chemscore.Hbond.Weighted>
-6.5609

> <Gold.Chemscore.Metal.Weighted>
-0.0000

> <Gold.Chemscore.Lipo.Weighted>
-9.5515

> <Gold.Chemscore.Internal_Hbond.Weighted>
0.0000

> <Gold.Chemscore.DEClash.Weighted>
0.0351

> <Gold.Chemscore.DEInternal.Weighted>
2.2223

> <Gold.Chemscore.Rot.Weighted>
4.0434

> <Gold.Chemscore.Internal.Correction.Weighted>
   9.000000E+99

> <Gold.Protein.RotatedTorsions>
[ 6907 6896 6895 6894 ] final -143.23 input  -60.11 | X-H torsion
[ 7974 7965 7964 7962 ] final -179.08 input  175.53 | X-H torsion
[ 8008 7997 7996 7995 ] final  -82.89 input   59.86 | X-H torsion
[ 10167 10162 10161 10158 ] final  112.26 input  -65.29 | X-H torsion
[ 10718 10713 10712 10709 ] final   91.93 input   66.30 | X-H torsion
[ 10763 10752 10751 10750 ] final   14.82 input  -60.55 | X-H torsion
[ 11005 11000 10999 10996 ] final  172.46 input  -57.11 | X-H torsion

> <Gold.Protein.ActiveResidues>
 VAL166  LYS551  ARG553  GLY616  TRP617  ASP618  TYR619  PRO620  LYS621  CYS622 
 ASP623  PHE694  ASN695  SER759  ASP760  ASP761  ALA762  ILE779  LEU786  VAL792 
 PHE793  MET794  SER795  GLU796  ALA797  LYS798  CYS799  TRP800  GLU811  SER814 

> <Gold.Protein.RotatedAtoms>
  151.0976  133.5268  159.2611 H   0  0  0  0  0  0  0  0  0  0  0  0  # atno 6907 bound_to 6896
  151.2111  135.0481  159.8921 H   0  0  0  0  0  0  0  0  0  0  0  0  # atno 6908 bound_to 6896
  152.5440  134.0792  159.8281 H   0  0  0  0  0  0  0  0  0  0  0  0  # atno 6909 bound_to 6896
  144.7134  140.0772  143.6427 H   0  0  0  0  0  0  0  0  0  0  0  0  # atno 7974 bound_to 7965
  154.6133  140.0626  156.9522 H   0  0  0  0  0  0  0  0  0  0  0  0  # atno 8008 bound_to 7997
  155.1937  140.3309  155.4336 H   0  0  0  0  0  0  0  0  0  0  0  0  # atno 8009 bound_to 7997
  156.2389  140.1876  156.7025 H   0  0  0  0  0  0  0  0  0  0  0  0  # atno 8010 bound_to 7997
  139.6549  144.7129  151.1976 H   0  0  0  0  0  0  0  0  0  0  0  0  # atno 10167 bound_to 10162
  157.6959  131.0425  150.3804 H   0  0  0  0  0  0  0  0  0  0  0  0  # atno 10718 bound_to 10713
  153.1585  135.6791  153.8777 H   0  0  0  0  0  0  0  0  0  0  0  0  # atno 10763 bound_to 10752
  153.8180  135.3134  155.3408 H   0  0  0  0  0  0  0  0  0  0  0  0  # atno 10764 bound_to 10752
  154.7915  135.4832  154.0152 H   0  0  0  0  0  0  0  0  0  0  0  0  # atno 10765 bound_to 10752
  140.3300  134.7366  157.4127 H   0  0  0  0  0  0  0  0  0  0  0  0  # atno 11005 bound_to 11000
  145.9733  139.2886  143.1086 LP  0  0  0  0  0  0  0  0  0  0  0  0  # atno 17320 bound_to 7965
  145.9092  140.9191  143.0463 LP  0  0  0  0  0  0  0  0  0  0  0  0  # atno 17321 bound_to 7965
  140.7554  143.6089  150.8625 LP  0  0  0  0  0  0  0  0  0  0  0  0  # atno 17342 bound_to 10162
  139.9740  143.6024  152.2964 LP  0  0  0  0  0  0  0  0  0  0  0  0  # atno 17343 bound_to 10162
  156.4219  130.3954  149.6819 LP  0  0  0  0  0  0  0  0  0  0  0  0  # atno 17370 bound_to 10713
  156.4067  130.7702  151.2712 LP  0  0  0  0  0  0  0  0  0  0  0  0  # atno 17371 bound_to 10713
  140.0869  134.5654  155.8483 LP  0  0  0  0  0  0  0  0  0  0  0  0  # atno 17394 bound_to 11000
  141.2066  133.6656  156.6251 LP  0  0  0  0  0  0  0  0  0  0  0  0  # atno 17395 bound_to 11000

$$$$
