AV-unprocessed.smi:875|AV-procd|sdf|4018|dock3
  -GOLD-   22720 1503D 1   1.00000     0.00000
 Structure written by MMmdl.
 37 38  0  0  0  0  0  0  0  0  1 V2000
  146.4771  138.2649  152.0397 C   0  0  0  0  0  0  0  0  0  0  0  0
  146.9858  139.5293  152.5480 N   0  0  0  0  0  0  0  0  0  0  0  0
  147.8332  139.6422  153.5819 C   0  0  0  0  0  0  0  0  0  0  0  0
  148.2556  138.6757  154.2165 O   0  0  0  0  0  0  0  0  0  0  0  0
  148.2630  141.0591  153.9715 C   0  0  0  0  0  0  0  0  0  0  0  0
  149.3301  141.0292  155.0199 C   0  0  0  0  0  0  0  0  0  0  0  0
  150.4851  140.4060  154.8147 N   0  0  0  0  0  0  0  0  0  0  0  0
  151.1853  140.6191  156.0109 O   0  0  0  0  0  0  0  0  0  0  0  0
  150.3598  141.3478  156.7998 C   0  0  0  0  0  0  0  0  0  0  0  0
  150.8267  141.7335  158.1647 C   0  0  0  0  0  0  0  0  0  0  0  0
  151.8844  142.6684  158.0021 O   0  0  0  0  0  0  0  0  0  0  0  0
  152.7188  142.8201  159.1429 C   0  0  0  0  0  0  0  0  0  0  0  0
  153.3129  141.4655  159.5852 C   0  0  0  0  0  0  0  0  0  0  0  0
  154.1045  141.6020  160.8964 C   0  0  0  0  0  0  0  0  0  0  0  0
  153.2412  142.2135  162.0111 C   0  0  0  0  0  0  0  0  0  0  0  0
  152.6456  143.5613  161.5747 C   0  0  0  0  0  0  0  0  0  0  0  0
  151.8531  143.4202  160.2649 C   0  0  0  0  0  0  0  0  0  0  0  0
  149.1852  141.6246  156.2364 N   0  0  0  0  0  0  0  0  0  0  0  0
  145.8346  138.4427  151.1774 H   0  0  0  0  0  0  0  0  0  0  0  0
  145.8919  137.7481  152.8013 H   0  0  0  0  0  0  0  0  0  0  0  0
  147.2947  137.6142  151.7265 H   0  0  0  0  0  0  0  0  0  0  0  0
  146.6848  140.3718  152.0787 H   0  0  0  0  0  0  0  0  0  0  0  0
  148.6275  141.5845  153.0878 H   0  0  0  0  0  0  0  0  0  0  0  0
  147.4032  141.6200  154.3410 H   0  0  0  0  0  0  0  0  0  0  0  0
  149.9889  142.1605  158.7153 H   0  0  0  0  0  0  0  0  0  0  0  0
  151.1727  140.8448  158.6945 H   0  0  0  0  0  0  0  0  0  0  0  0
  153.5248  143.5216  158.9191 H   0  0  0  0  0  0  0  0  0  0  0  0
  152.5096  140.7397  159.7191 H   0  0  0  0  0  0  0  0  0  0  0  0
  153.9692  141.0609  158.8153 H   0  0  0  0  0  0  0  0  0  0  0  0
  154.4772  140.6262  161.2088 H   0  0  0  0  0  0  0  0  0  0  0  0
  154.9815  142.2287  160.7293 H   0  0  0  0  0  0  0  0  0  0  0  0
  152.4363  141.5241  162.2694 H   0  0  0  0  0  0  0  0  0  0  0  0
  153.8375  142.3450  162.9144 H   0  0  0  0  0  0  0  0  0  0  0  0
  151.9988  143.9528  162.3602 H   0  0  0  0  0  0  0  0  0  0  0  0
  153.4464  144.2896  161.4409 H   0  0  0  0  0  0  0  0  0  0  0  0
  151.4704  144.3944  159.9587 H   0  0  0  0  0  0  0  0  0  0  0  0
  150.9817  142.7863  160.4351 H   0  0  0  0  0  0  0  0  0  0  0  0
  1  2  1  0  0  0  0
  1 19  1  0  0  0  0
  1 20  1  0  0  0  0
  1 21  1  0  0  0  0
  2  3  1  0  0  0  0
  2 22  1  0  0  0  0
  3  4  2  0  0  0  0
  3  5  1  0  0  0  0
  5  6  1  0  0  0  0
  5 23  1  0  0  0  0
  5 24  1  0  0  0  0
  6 18  1  0  0  0  0
  6  7  2  0  0  0  0
  7  8  1  0  0  0  0
  8  9  1  0  0  0  0
  9 10  1  0  0  0  0
  9 18  2  0  0  0  0
 10 11  1  0  0  0  0
 10 25  1  0  0  0  0
 10 26  1  0  0  0  0
 11 12  1  0  0  0  0
 12 17  1  0  0  0  0
 12 13  1  0  0  0  0
 12 27  1  0  0  0  0
 13 14  1  0  0  0  0
 13 28  1  0  0  0  0
 13 29  1  0  0  0  0
 14 15  1  0  0  0  0
 14 30  1  0  0  0  0
 14 31  1  0  0  0  0
 15 16  1  0  0  0  0
 15 32  1  0  0  0  0
 15 33  1  0  0  0  0
 16 17  1  0  0  0  0
 16 34  1  0  0  0  0
 16 35  1  0  0  0  0
 17 36  1  0  0  0  0
 17 37  1  0  0  0  0
M  END
> <s_m_source_file>
AV-unprocessed.smi

> <i_m_source_file_index>
875

> <i_lp_mmshare_version>
43012

> <i_f3d_flags>
0

> <s_epik_input>
W0NIM11bTkhdQyg9TylbQ0gyXWMxbm9jKG4xKVtDSDJdT1tDSF0yW0NIMl1bQ0gyXVtDSDJdW0NIMl1bQ0gyXTI=

> <s_epik_cmdline>
J2VwaWtfcHl0aG9uJywgJy1waCcsICc3LjAnLCAnLXRuJywgJzgnLCAnLW1hJywgJzIwMCcsICctbWV0YWxfYmluZGluZycsICctaW1hZScsICc8aW5maWxlLm1hZT4nLCAnLW9tYWUnLCAnPG91dGZpbGUubWFlPic=

> <r_lp_tautomer_probability>
1

> <r_epik_Ionization_Penalty>
1.02915e-07

> <r_epik_Ionization_Penalty_Charging>
0

> <r_epik_Ionization_Penalty_Neutral>
1.02915e-07

> <r_epik_State_Penalty>
-0

> <r_epik_Charging_Adjusted_Penalty>
0

> <i_epik_Tot_Q>
0

> <i_epik_Tot_abs_Q>
0

> <r_epik_Metal_State_Penalty>
-0

> <b_epik_Metal_Only>
0

> <s_lp_Force_Field>
OPLS_2005

> <r_lp_Energy>
10.4582

> <b_lp_Chiralities_Consistent>
1

> <s_lp_Variant>
AV-unprocessed.smi:875-1

> <Gold.Version>
5.8.1

> <Gold.Id.Protein>
6NUR|6NUR_protein|mol2

> <Gold.PLP.Fitness>
43.6116

> <Gold.PLP.PLP>
-41.1263

> <Gold.PLP.part.hbond>
-2.0000

> <Gold.PLP.part.metal>
0.0000

> <Gold.PLP.part.buried>
-4.2915

> <Gold.PLP.part.nonpolar>
-36.5874

> <Gold.PLP.part.repulsive>
2.4460

> <Gold.PLP.ligand.clash>
0.0000

> <Gold.PLP.ligand.torsion>
0.2106

> <Gold.PLP.Chemscore.Hbond>
0.9600

> <Gold.PLP.Chemscore.CHOScore>
0.0000

> <Gold.PLP.Chemscore.Metal>
0.0000

> <Gold.Chemscore.Hbonds>
donor molecule, donor type, donor heavy atom, donor atom, acceptor molecule, acceptor atom, score
      P1  H  7989  7998       L1     7  1.00

> <Gold.PLP.Chemscore.Internal.Correction>
0.0265

> <Gold.Rescore>
     Score         DG    S(hbond)    S(metal)    S(lipo)     H(rot)  DE(clash)    DE(int)     intcor
     11.41     -12.79       0.72        0.00      89.65       2.18       0.90       0.48       ----

> <Gold.Chemscore.Fitness>
11.4067

> <Gold.Chemscore.DG>
-12.7872

> <Gold.Chemscore.ZeroCoef>
-5.4800

> <Gold.Chemscore.Hbond>
0.7154

> <Gold.Chemscore.Metal>
0.0000

> <Gold.Chemscore.Lipo>
89.6492

> <Gold.Chemscore.Internal_Hbond>
0.0000

> <Gold.Chemscore.DEClash>
0.8956

> <Gold.Chemscore.DEInternal>
0.4849

> <Gold.Chemscore.Rot>
2.1763

> <Gold.Chemscore.Internal.Correction>
   9.000000E+99

> <Gold.Chemscore.Hbonds>
donor molecule, donor type, donor heavy atom, donor atom, acceptor molecule, acceptor atom, score
      P1  H  7989  7998       L1     7  0.53

> <Gold.Chemscore.Hbond.Weighted>
-2.3895

> <Gold.Chemscore.Metal.Weighted>
-0.0000

> <Gold.Chemscore.Lipo.Weighted>
-10.4890

> <Gold.Chemscore.Internal_Hbond.Weighted>
0.0000

> <Gold.Chemscore.DEClash.Weighted>
0.8956

> <Gold.Chemscore.DEInternal.Weighted>
0.4849

> <Gold.Chemscore.Rot.Weighted>
5.5712

> <Gold.Chemscore.Internal.Correction.Weighted>
   9.000000E+99

> <Gold.Protein.RotatedTorsions>
[ 6907 6896 6895 6894 ] final  149.29 input  -60.11 | X-H torsion
[ 7974 7965 7964 7962 ] final -136.27 input  175.53 | X-H torsion
[ 8008 7997 7996 7995 ] final -143.17 input   59.86 | X-H torsion
[ 10167 10162 10161 10158 ] final  -47.28 input  -65.29 | X-H torsion
[ 10718 10713 10712 10709 ] final  117.54 input   66.30 | X-H torsion
[ 10763 10752 10751 10750 ] final  168.44 input  -60.55 | X-H torsion
[ 11005 11000 10999 10996 ] final   90.53 input  -57.11 | X-H torsion

> <Gold.Protein.ActiveResidues>
 VAL166  LYS551  ARG553  GLY616  TRP617  ASP618  TYR619  PRO620  LYS621  CYS622 
 ASP623  PHE694  ASN695  SER759  ASP760  ASP761  ALA762  ILE779  LEU786  VAL792 
 PHE793  MET794  SER795  GLU796  ALA797  LYS798  CYS799  TRP800  GLU811  SER814 

> <Gold.Protein.RotatedAtoms>
  152.1300  133.4402  159.4716 H   0  0  0  0  0  0  0  0  0  0  0  0  # atno 6907 bound_to 6896
  150.6877  134.2432  159.4490 H   0  0  0  0  0  0  0  0  0  0  0  0  # atno 6908 bound_to 6896
  152.0315  134.9764  160.0623 H   0  0  0  0  0  0  0  0  0  0  0  0  # atno 6909 bound_to 6896
  144.8941  140.6683  143.5126 H   0  0  0  0  0  0  0  0  0  0  0  0  # atno 7974 bound_to 7965
  155.5062  140.0579  157.2931 H   0  0  0  0  0  0  0  0  0  0  0  0  # atno 8008 bound_to 7997
  154.4568  140.1977  156.0304 H   0  0  0  0  0  0  0  0  0  0  0  0  # atno 8009 bound_to 7997
  156.0815  140.3246  155.7704 H   0  0  0  0  0  0  0  0  0  0  0  0  # atno 8010 bound_to 7997
  140.6781  143.2791  151.3904 H   0  0  0  0  0  0  0  0  0  0  0  0  # atno 10167 bound_to 10162
  157.6090  131.1038  150.7629 H   0  0  0  0  0  0  0  0  0  0  0  0  # atno 10718 bound_to 10713
  154.3686  135.2753  155.2279 H   0  0  0  0  0  0  0  0  0  0  0  0  # atno 10763 bound_to 10752
  154.4436  135.5948  153.6149 H   0  0  0  0  0  0  0  0  0  0  0  0  # atno 10764 bound_to 10752
  152.9839  135.6025  154.3915 H   0  0  0  0  0  0  0  0  0  0  0  0  # atno 10765 bound_to 10752
  139.8854  134.8619  156.3297 H   0  0  0  0  0  0  0  0  0  0  0  0  # atno 11005 bound_to 11000
  145.3730  139.1654  143.4321 LP  0  0  0  0  0  0  0  0  0  0  0  0  # atno 17320 bound_to 7965
  146.3071  140.3804  142.8683 LP  0  0  0  0  0  0  0  0  0  0  0  0  # atno 17321 bound_to 7965
  139.6086  144.1144  152.2276 LP  0  0  0  0  0  0  0  0  0  0  0  0  # atno 17342 bound_to 10162
  140.0551  144.5901  150.7306 LP  0  0  0  0  0  0  0  0  0  0  0  0  # atno 17343 bound_to 10162
  156.8011  130.4921  149.5369 LP  0  0  0  0  0  0  0  0  0  0  0  0  # atno 17370 bound_to 10713
  156.1186  130.6093  151.0158 LP  0  0  0  0  0  0  0  0  0  0  0  0  # atno 17371 bound_to 10713
  140.9731  133.7315  156.0563 LP  0  0  0  0  0  0  0  0  0  0  0  0  # atno 17394 bound_to 11000
  140.7846  134.3687  157.5479 LP  0  0  0  0  0  0  0  0  0  0  0  0  # atno 17395 bound_to 11000

$$$$
