AV-unprocessed.smi:1768|AV-procd|sdf|7147|dock1
  -GOLD-   22720 8383D 1   1.00000     0.00000
 Structure written by MMmdl.
 32 33  0  0  0  0  0  0  0  0  2 V2000
  146.0929  136.2536  162.1963 C   0  0  0  0  0  0  0  0  0  0  0  0
  147.0648  136.3815  161.0741 C   0  0  0  0  0  0  0  0  0  0  0  0
  147.3584  137.5526  160.5043 N   0  0  0  0  0  0  0  0  0  0  0  0
  148.2907  137.4190  159.4853 N   0  0  0  0  0  0  0  0  0  0  0  0
  148.6946  136.1537  159.3046 C   0  0  0  0  0  0  0  0  0  0  0  0
  149.5917  135.8119  158.3649 N   0  5  0  0  0  0  0  0  0  0  0  0
  150.2122  136.7711  157.6407 C   0  0  0  0  0  0  0  0  0  0  0  0
  151.2850  137.3123  157.9166 O   0  0  0  0  0  0  0  0  0  0  0  0
  149.5475  137.1156  156.5279 N   0  0  0  0  0  0  0  0  0  0  0  0
  149.9594  138.0996  155.5270 C   0  0  2  0  0  0  0  0  0  0  0  0
  151.0984  137.5104  154.6825 C   0  0  0  0  0  0  0  0  0  0  0  0
  150.3747  139.4103  156.2222 C   0  0  2  0  0  0  0  0  0  0  0  0
  149.2579  140.1022  157.0031 C   0  0  0  0  0  0  0  0  0  0  0  0
  149.7535  141.5332  157.0987 C   0  0  0  0  0  0  0  0  0  0  0  0
  150.7014  141.6734  155.9030 C   0  0  0  0  0  0  0  0  0  0  0  0
  150.7212  140.4010  155.2658 O   0  0  0  0  0  0  0  0  0  0  0  0
  147.9161  135.0051  160.3935 S   0  0  0  0  0  0  0  0  0  0  0  0
  146.4516  136.8055  163.0653 H   0  0  0  0  0  0  0  0  0  0  0  0
  145.9688  135.2068  162.4738 H   0  0  0  0  0  0  0  0  0  0  0  0
  145.1229  136.6539  161.9006 H   0  0  0  0  0  0  0  0  0  0  0  0
  148.6755  136.6377  156.3542 H   0  0  0  0  0  0  0  0  0  0  0  0
  149.1313  138.3260  154.8536 H   0  0  0  0  0  0  0  0  0  0  0  0
  151.4197  138.2108  153.9112 H   0  0  0  0  0  0  0  0  0  0  0  0
  150.7808  136.5950  154.1824 H   0  0  0  0  0  0  0  0  0  0  0  0
  151.9665  137.2707  155.2973 H   0  0  0  0  0  0  0  0  0  0  0  0
  151.2305  139.2400  156.8787 H   0  0  0  0  0  0  0  0  0  0  0  0
  148.3267  140.0700  156.4357 H   0  0  0  0  0  0  0  0  0  0  0  0
  149.0755  139.6494  157.9782 H   0  0  0  0  0  0  0  0  0  0  0  0
  148.9331  142.2506  157.0683 H   0  0  0  0  0  0  0  0  0  0  0  0
  150.3006  141.6862  158.0298 H   0  0  0  0  0  0  0  0  0  0  0  0
  150.3688  142.4385  155.2009 H   0  0  0  0  0  0  0  0  0  0  0  0
  151.7070  141.9327  156.2361 H   0  0  0  0  0  0  0  0  0  0  0  0
  1  2  1  0  0  0  0
  1 18  1  0  0  0  0
  1 19  1  0  0  0  0
  1 20  1  0  0  0  0
  2 17  1  0  0  0  0
  2  3  2  0  0  0  0
  3  4  1  0  0  0  0
  4  5  2  0  0  0  0
  5  6  1  0  0  0  0
  5 17  1  0  0  0  0
  6  7  1  0  0  0  0
  7  8  2  0  0  0  0
  7  9  1  0  0  0  0
  9 10  1  0  0  0  0
  9 21  1  0  0  0  0
 10 11  1  0  0  0  0
 10 12  1  0  0  0  0
 10 22  1  0  0  0  0
 11 23  1  0  0  0  0
 11 24  1  0  0  0  0
 11 25  1  0  0  0  0
 12 16  1  0  0  0  0
 12 13  1  0  0  0  0
 12 26  1  0  0  0  0
 13 14  1  0  0  0  0
 13 27  1  0  0  0  0
 13 28  1  0  0  0  0
 14 15  1  0  0  0  0
 14 29  1  0  0  0  0
 14 30  1  0  0  0  0
 15 16  1  0  0  0  0
 15 31  1  0  0  0  0
 15 32  1  0  0  0  0
M  CHG  1   6  -1
M  END
> <s_m_source_file>
AV-unprocessed.smi

> <i_m_source_file_index>
1768

> <i_lp_mmshare_version>
43012

> <i_f3d_flags>
0

> <s_epik_input>
W0NIM11jMW5uYyhzMSlbTkhdQyg9TylbTkhdW0NASF0oW0NIM10pW0NAQEhdMltDSDJdW0NIMl1bQ0gyXU8y

> <s_epik_cmdline>
J2VwaWtfcHl0aG9uJywgJy1waCcsICc3LjAnLCAnLXRuJywgJzgnLCAnLW1hJywgJzIwMCcsICctbWV0YWxfYmluZGluZycsICctaW1hZScsICc8aW5maWxlLm1hZT4nLCAnLW9tYWUnLCAnPG91dGZpbGUubWFlPic=

> <r_lp_tautomer_probability>
1

> <r_epik_Ionization_Penalty>
4.3376

> <r_epik_Ionization_Penalty_Charging>
4.19392

> <r_epik_Ionization_Penalty_Neutral>
0.143681

> <r_epik_State_Penalty>
4.19342

> <r_epik_Charging_Adjusted_Penalty>
8.38735

> <i_epik_Tot_Q>
-1

> <i_epik_Tot_abs_Q>
1

> <r_epik_Metal_State_Penalty>
0.686065

> <b_epik_Metal_Only>
1

> <s_lp_Force_Field>
OPLS_2005

> <r_lp_Energy>
15.5769

> <b_lp_Chiralities_Consistent>
1

> <s_lp_Variant>
AV-unprocessed.smi:1768-5

> <Gold.Version>
5.8.1

> <Gold.Id.Protein>
6NUR|6NUR_protein|mol2

> <Gold.PLP.Fitness>
32.3303

> <Gold.PLP.PLP>
-22.2960

> <Gold.PLP.part.hbond>
-5.1302

> <Gold.PLP.part.metal>
0.0000

> <Gold.PLP.part.buried>
-3.7999

> <Gold.PLP.part.nonpolar>
-13.6326

> <Gold.PLP.part.repulsive>
0.0530

> <Gold.PLP.ligand.clash>
0.0000

> <Gold.PLP.ligand.torsion>
0.9073

> <Gold.PLP.Chemscore.Hbond>
3.9327

> <Gold.PLP.Chemscore.CHOScore>
0.0000

> <Gold.PLP.Chemscore.Metal>
0.0000

> <Gold.Chemscore.Hbonds>
donor molecule, donor type, donor heavy atom, donor atom, acceptor molecule, acceptor atom, score
      P1  H  6896  6907       L1     6  1.70
      P1  H  6931  6943       L1     3  0.10
      P1  H  6934  6947       L1     3  1.00
      P1  H  7989  7998       L1    16  0.98

> <Gold.PLP.Chemscore.Internal.Correction>
0.0508

> <Gold.Rescore>
     Score         DG    S(hbond)    S(metal)    S(lipo)     H(rot)  DE(clash)    DE(int)     intcor
     11.38     -13.51       1.65        0.00      49.51       1.28       0.01       2.12       ----

> <Gold.Chemscore.Fitness>
11.3777

> <Gold.Chemscore.DG>
-13.5131

> <Gold.Chemscore.ZeroCoef>
-5.4800

> <Gold.Chemscore.Hbond>
1.6500

> <Gold.Chemscore.Metal>
0.0000

> <Gold.Chemscore.Lipo>
49.5099

> <Gold.Chemscore.Internal_Hbond>
0.0000

> <Gold.Chemscore.DEClash>
0.0149

> <Gold.Chemscore.DEInternal>
2.1205

> <Gold.Chemscore.Rot>
1.2776

> <Gold.Chemscore.Internal.Correction>
   9.000000E+99

> <Gold.Chemscore.Hbonds>
donor molecule, donor type, donor heavy atom, donor atom, acceptor molecule, acceptor atom, score
      P1  H  6896  6907       L1     6  0.13
      P1  H  6934  6947       L1     3  0.72
      P1  H  7989  7998       L1    16  0.22

> <Gold.Chemscore.Hbond.Weighted>
-5.5110

> <Gold.Chemscore.Metal.Weighted>
-0.0000

> <Gold.Chemscore.Lipo.Weighted>
-5.7927

> <Gold.Chemscore.Internal_Hbond.Weighted>
0.0000

> <Gold.Chemscore.DEClash.Weighted>
0.0149

> <Gold.Chemscore.DEInternal.Weighted>
2.1205

> <Gold.Chemscore.Rot.Weighted>
3.2706

> <Gold.Chemscore.Internal.Correction.Weighted>
   9.000000E+99

> <Gold.Protein.RotatedTorsions>
[ 6907 6896 6895 6894 ] final  -71.29 input  -60.11 | X-H torsion
[ 7974 7965 7964 7962 ] final   16.43 input  175.53 | X-H torsion
[ 8008 7997 7996 7995 ] final  -38.04 input   59.86 | X-H torsion
[ 10167 10162 10161 10158 ] final   79.18 input  -65.29 | X-H torsion
[ 10718 10713 10712 10709 ] final   17.10 input   66.30 | X-H torsion
[ 10763 10752 10751 10750 ] final   13.40 input  -60.55 | X-H torsion
[ 11005 11000 10999 10996 ] final  -14.37 input  -57.11 | X-H torsion

> <Gold.Protein.ActiveResidues>
 VAL166  LYS551  ARG553  GLY616  TRP617  ASP618  TYR619  PRO620  LYS621  CYS622 
 ASP623  PHE694  ASN695  SER759  ASP760  ASP761  ALA762  ILE779  LEU786  VAL792 
 PHE793  MET794  SER795  GLU796  ALA797  LYS798  CYS799  TRP800  GLU811  SER814 

> <Gold.Protein.RotatedAtoms>
  150.7219  134.5330  159.5709 H   0  0  0  0  0  0  0  0  0  0  0  0  # atno 6907 bound_to 6896
  152.2859  134.7774  160.0396 H   0  0  0  0  0  0  0  0  0  0  0  0  # atno 6908 bound_to 6896
  151.8404  133.3387  159.3678 H   0  0  0  0  0  0  0  0  0  0  0  0  # atno 6909 bound_to 6896
  146.2250  139.8749  142.8581 H   0  0  0  0  0  0  0  0  0  0  0  0  # atno 7974 bound_to 7965
  154.4043  140.1588  156.2635 H   0  0  0  0  0  0  0  0  0  0  0  0  # atno 8008 bound_to 7997
  155.9016  140.3433  155.6008 H   0  0  0  0  0  0  0  0  0  0  0  0  # atno 8009 bound_to 7997
  155.7441  140.0796  157.2222 H   0  0  0  0  0  0  0  0  0  0  0  0  # atno 8010 bound_to 7997
  139.9631  144.5947  150.8054 H   0  0  0  0  0  0  0  0  0  0  0  0  # atno 10167 bound_to 10162
  157.0773  130.6373  149.5819 H   0  0  0  0  0  0  0  0  0  0  0  0  # atno 10718 bound_to 10713
  153.1725  135.6814  153.8588 H   0  0  0  0  0  0  0  0  0  0  0  0  # atno 10763 bound_to 10752
  153.7947  135.3164  155.3384 H   0  0  0  0  0  0  0  0  0  0  0  0  # atno 10764 bound_to 10752
  154.8007  135.4779  154.0362 H   0  0  0  0  0  0  0  0  0  0  0  0  # atno 10765 bound_to 10752
  140.7857  133.8327  155.9333 H   0  0  0  0  0  0  0  0  0  0  0  0  # atno 11005 bound_to 11000
  145.2571  141.0064  143.3848 LP  0  0  0  0  0  0  0  0  0  0  0  0  # atno 17320 bound_to 7965
  144.9328  139.4278  143.6487 LP  0  0  0  0  0  0  0  0  0  0  0  0  # atno 17321 bound_to 7965
  140.7547  143.3031  151.3029 LP  0  0  0  0  0  0  0  0  0  0  0  0  # atno 17342 bound_to 10162
  139.6539  144.0312  152.2646 LP  0  0  0  0  0  0  0  0  0  0  0  0  # atno 17343 bound_to 10162
  155.9933  130.4994  150.7376 LP  0  0  0  0  0  0  0  0  0  0  0  0  # atno 17370 bound_to 10713
  157.4829  131.0904  151.0516 LP  0  0  0  0  0  0  0  0  0  0  0  0  # atno 17371 bound_to 10713
  140.9439  134.1866  157.4778 LP  0  0  0  0  0  0  0  0  0  0  0  0  # atno 17394 bound_to 11000
  139.8737  134.9882  156.5404 LP  0  0  0  0  0  0  0  0  0  0  0  0  # atno 17395 bound_to 11000

$$$$
