AV-unprocessed.smi:1892|AV-procd|sdf|7669|dock3
  -GOLD-   22720 9403D 1   1.00000     0.00000
 Structure written by MMmdl.
 42 43  0  0  0  0  0  0  0  0  1 V2000
  151.5444  141.5644  157.8246 C   0  0  0  0  0  0  0  0  0  0  0  0
  151.6681  140.4330  156.8018 C   0  0  0  0  0  0  0  0  0  0  0  0
  152.5470  139.5889  156.9758 O   0  0  0  0  0  0  0  0  0  0  0  0
  150.8160  140.3955  155.7501 N   0  0  0  0  0  0  0  0  0  0  0  0
  149.7045  141.3204  155.5086 C   0  0  0  0  0  0  0  0  0  0  0  0
  148.3798  140.5406  155.6151 C   0  0  0  0  0  0  0  0  0  0  0  0
  148.3522  139.4452  154.6408 N   0  0  0  0  0  0  0  0  0  0  0  0
  147.0775  138.7356  154.7571 C   0  0  0  0  0  0  0  0  0  0  0  0
  146.3270  138.6215  153.4133 C   0  0  0  0  0  0  0  0  0  0  0  0
  146.6626  137.3955  152.6950 N   0  0  0  0  0  0  0  0  0  0  0  0
  145.7715  136.5161  152.2154 C   0  0  0  0  0  0  0  0  0  0  0  0
  144.5540  136.6438  152.3484 O   0  0  0  0  0  0  0  0  0  0  0  0
  146.3829  135.4995  151.5822 N   0  0  0  0  0  0  0  0  0  0  0  0
  145.7877  134.3871  150.9293 C   0  0  0  0  0  0  0  0  0  0  0  0
  146.5576  133.2019  150.9436 C   0  0  0  0  0  0  0  0  0  0  0  0
  146.0570  132.0424  150.3204 C   0  0  0  0  0  0  0  0  0  0  0  0
  144.7977  132.0978  149.6967 C   0  0  0  0  0  0  0  0  0  0  0  0
  144.0958  133.3171  149.7279 C   0  0  0  0  0  0  0  0  0  0  0  0
  144.5735  134.4291  150.3252 N   0  0  0  0  0  0  0  0  0  0  0  0
  149.4889  138.5433  154.8643 C   0  0  0  0  0  0  0  0  0  0  0  0
  150.8145  139.3213  154.7543 C   0  0  0  0  0  0  0  0  0  0  0  0
  150.5634  141.5502  158.3001 H   0  0  0  0  0  0  0  0  0  0  0  0
  151.6960  142.5340  157.3497 H   0  0  0  0  0  0  0  0  0  0  0  0
  152.2951  141.4567  158.6082 H   0  0  0  0  0  0  0  0  0  0  0  0
  149.6834  142.1649  156.1955 H   0  0  0  0  0  0  0  0  0  0  0  0
  149.8073  141.7542  154.5128 H   0  0  0  0  0  0  0  0  0  0  0  0
  148.2526  140.1487  156.6258 H   0  0  0  0  0  0  0  0  0  0  0  0
  147.5461  141.2178  155.4254 H   0  0  0  0  0  0  0  0  0  0  0  0
  147.2396  137.7456  155.1857 H   0  0  0  0  0  0  0  0  0  0  0  0
  146.4359  139.2701  155.4593 H   0  0  0  0  0  0  0  0  0  0  0  0
  145.2482  138.6543  153.5601 H   0  0  0  0  0  0  0  0  0  0  0  0
  146.5650  139.4840  152.7890 H   0  0  0  0  0  0  0  0  0  0  0  0
  147.6433  137.2168  152.5366 H   0  0  0  0  0  0  0  0  0  0  0  0
  147.3915  135.5262  151.5609 H   0  0  0  0  0  0  0  0  0  0  0  0
  147.5234  133.1768  151.4269 H   0  0  0  0  0  0  0  0  0  0  0  0
  146.6300  131.1268  150.3212 H   0  0  0  0  0  0  0  0  0  0  0  0
  144.3810  131.2298  149.2078 H   0  0  0  0  0  0  0  0  0  0  0  0
  143.1257  133.4029  149.2610 H   0  0  0  0  0  0  0  0  0  0  0  0
  149.4091  138.0743  155.8466 H   0  0  0  0  0  0  0  0  0  0  0  0
  149.4886  137.7433  154.1251 H   0  0  0  0  0  0  0  0  0  0  0  0
  150.9216  139.7502  153.7568 H   0  0  0  0  0  0  0  0  0  0  0  0
  151.6521  138.6332  154.8757 H   0  0  0  0  0  0  0  0  0  0  0  0
  1  2  1  0  0  0  0
  1 22  1  0  0  0  0
  1 23  1  0  0  0  0
  1 24  1  0  0  0  0
  2  3  2  0  0  0  0
  2  4  1  0  0  0  0
  4 21  1  0  0  0  0
  4  5  1  0  0  0  0
  5  6  1  0  0  0  0
  5 25  1  0  0  0  0
  5 26  1  0  0  0  0
  6  7  1  0  0  0  0
  6 27  1  0  0  0  0
  6 28  1  0  0  0  0
  7  8  1  0  0  0  0
  7 20  1  0  0  0  0
  8  9  1  0  0  0  0
  8 29  1  0  0  0  0
  8 30  1  0  0  0  0
  9 10  1  0  0  0  0
  9 31  1  0  0  0  0
  9 32  1  0  0  0  0
 10 11  1  0  0  0  0
 10 33  1  0  0  0  0
 11 12  2  0  0  0  0
 11 13  1  0  0  0  0
 13 14  1  0  0  0  0
 13 34  1  0  0  0  0
 14 19  1  0  0  0  0
 14 15  2  0  0  0  0
 15 16  1  0  0  0  0
 15 35  1  0  0  0  0
 16 17  2  0  0  0  0
 16 36  1  0  0  0  0
 17 18  1  0  0  0  0
 17 37  1  0  0  0  0
 18 19  2  0  0  0  0
 18 38  1  0  0  0  0
 20 21  1  0  0  0  0
 20 39  1  0  0  0  0
 20 40  1  0  0  0  0
 21 41  1  0  0  0  0
 21 42  1  0  0  0  0
M  END
> <s_m_source_file>
AV-unprocessed.smi

> <i_m_source_file_index>
1892

> <i_lp_mmshare_version>
43012

> <i_f3d_flags>
0

> <s_epik_input>
W0NIM11DKD1PKU4xW0NIMl1bQ0gyXU4oW0NIMl1bQ0gyXTEpW0NIMl1bQ0gyXVtOSF1DKD1PKVtOSF1jMltjSF1bY0hdW2NIXVtjSF1uMg==

> <s_epik_cmdline>
J2VwaWtfcHl0aG9uJywgJy1waCcsICc3LjAnLCAnLXRuJywgJzgnLCAnLW1hJywgJzIwMCcsICctbWV0YWxfYmluZGluZycsICctaW1hZScsICc8aW5maWxlLm1hZT4nLCAnLW9tYWUnLCAnPG91dGZpbGUubWFlPic=

> <r_epik_Ionization_Penalty>
0.251009

> <r_epik_Ionization_Penalty_Charging>
0

> <r_epik_Ionization_Penalty_Neutral>
0.251009

> <r_epik_State_Penalty>
0.242297

> <r_epik_Charging_Adjusted_Penalty>
0.242297

> <i_epik_Tot_Q>
0

> <i_epik_Tot_abs_Q>
0

> <r_epik_Metal_State_Penalty>
0.242295

> <b_epik_Metal_Only>
0

> <s_lp_Force_Field>
OPLS_2005

> <r_lp_Energy>
38.7367

> <b_lp_Chiralities_Consistent>
1

> <s_lp_Variant>
AV-unprocessed.smi:1892-1

> <Gold.Version>
5.8.1

> <Gold.Id.Protein>
6NUR|6NUR_protein|mol2

> <Gold.PLP.Fitness>
45.0980

> <Gold.PLP.PLP>
-35.3723

> <Gold.PLP.part.hbond>
-3.0000

> <Gold.PLP.part.metal>
0.0000

> <Gold.PLP.part.buried>
-3.7219

> <Gold.PLP.part.nonpolar>
-29.9303

> <Gold.PLP.part.repulsive>
1.6030

> <Gold.PLP.ligand.clash>
0.0000

> <Gold.PLP.ligand.torsion>
1.1493

> <Gold.PLP.Chemscore.Hbond>
3.0000

> <Gold.PLP.Chemscore.CHOScore>
1.0000

> <Gold.PLP.Chemscore.Metal>
0.0000

> <Gold.Chemscore.Hbonds>
donor molecule, donor type, donor heavy atom, donor atom, acceptor molecule, acceptor atom, score
      L1  H    10    33       P1  7948  1.00
      L1  H    13    34       P1  7948  1.00
      P1  H  7997  8009       L1     3  1.00
      L1  C    18    38       P1 10186  1.00

> <Gold.PLP.Chemscore.Internal.Correction>
0.0243

> <Gold.Rescore>
     Score         DG    S(hbond)    S(metal)    S(lipo)     H(rot)  DE(clash)    DE(int)     intcor
     17.53     -20.46       2.90        0.00      80.41       1.60       0.70       2.23       ----

> <Gold.Chemscore.Fitness>
17.5287

> <Gold.Chemscore.DG>
-20.4601

> <Gold.Chemscore.ZeroCoef>
-5.4800

> <Gold.Chemscore.Hbond>
2.8977

> <Gold.Chemscore.Metal>
0.0000

> <Gold.Chemscore.Lipo>
80.4133

> <Gold.Chemscore.Internal_Hbond>
0.0000

> <Gold.Chemscore.DEClash>
0.6998

> <Gold.Chemscore.DEInternal>
2.2316

> <Gold.Chemscore.Rot>
1.6041

> <Gold.Chemscore.Internal.Correction>
   9.000000E+99

> <Gold.Chemscore.Hbonds>
donor molecule, donor type, donor heavy atom, donor atom, acceptor molecule, acceptor atom, score
      L1  H    10    33       P1  7948  0.95
      L1  H    13    34       P1  7948  0.95
      P1  H  7997  8009       L1     3  0.94

> <Gold.Chemscore.Hbond.Weighted>
-9.6784

> <Gold.Chemscore.Metal.Weighted>
-0.0000

> <Gold.Chemscore.Lipo.Weighted>
-9.4084

> <Gold.Chemscore.Internal_Hbond.Weighted>
0.0000

> <Gold.Chemscore.DEClash.Weighted>
0.6998

> <Gold.Chemscore.DEInternal.Weighted>
2.2316

> <Gold.Chemscore.Rot.Weighted>
4.1066

> <Gold.Chemscore.Internal.Correction.Weighted>
   9.000000E+99

> <Gold.Protein.RotatedTorsions>
[ 6907 6896 6895 6894 ] final  178.77 input  -60.11 | X-H torsion
[ 7974 7965 7964 7962 ] final   -7.09 input  175.53 | X-H torsion
[ 8008 7997 7996 7995 ] final -174.89 input   59.86 | X-H torsion
[ 10167 10162 10161 10158 ] final -155.14 input  -65.29 | X-H torsion
[ 10718 10713 10712 10709 ] final   60.34 input   66.30 | X-H torsion
[ 10763 10752 10751 10750 ] final   86.17 input  -60.55 | X-H torsion
[ 11005 11000 10999 10996 ] final -110.56 input  -57.11 | X-H torsion

> <Gold.Protein.ActiveResidues>
 VAL166  LYS551  ARG553  GLY616  TRP617  ASP618  TYR619  PRO620  LYS621  CYS622 
 ASP623  PHE694  ASN695  SER759  ASP760  ASP761  ALA762  ILE779  LEU786  VAL792 
 PHE793  MET794  SER795  GLU796  ALA797  LYS798  CYS799  TRP800  GLU811  SER814 

> <Gold.Protein.RotatedAtoms>
  151.6825  133.3312  159.3222 H   0  0  0  0  0  0  0  0  0  0  0  0  # atno 6907 bound_to 6896
  150.7816  134.6769  159.6432 H   0  0  0  0  0  0  0  0  0  0  0  0  # atno 6908 bound_to 6896
  152.3875  134.6497  160.0172 H   0  0  0  0  0  0  0  0  0  0  0  0  # atno 6909 bound_to 6896
  146.2315  140.2268  142.8339 H   0  0  0  0  0  0  0  0  0  0  0  0  # atno 7974 bound_to 7965
  155.9757  140.1172  157.0772 H   0  0  0  0  0  0  0  0  0  0  0  0  # atno 8008 bound_to 7997
  154.4168  140.1154  156.5435 H   0  0  0  0  0  0  0  0  0  0  0  0  # atno 8009 bound_to 7997
  155.6537  140.3473  155.4760 H   0  0  0  0  0  0  0  0  0  0  0  0  # atno 8010 bound_to 7997
  139.6955  143.9349  152.2405 H   0  0  0  0  0  0  0  0  0  0  0  0  # atno 10167 bound_to 10162
  157.5745  130.8933  149.9323 H   0  0  0  0  0  0  0  0  0  0  0  0  # atno 10718 bound_to 10713
  153.1545  135.4590  154.9684 H   0  0  0  0  0  0  0  0  0  0  0  0  # atno 10763 bound_to 10752
  154.7850  135.3201  154.7908 H   0  0  0  0  0  0  0  0  0  0  0  0  # atno 10764 bound_to 10752
  153.8408  135.6930  153.4857 H   0  0  0  0  0  0  0  0  0  0  0  0  # atno 10765 bound_to 10752
  141.0784  133.9261  157.2340 H   0  0  0  0  0  0  0  0  0  0  0  0  # atno 11005 bound_to 11000
  144.9589  140.8255  143.5526 LP  0  0  0  0  0  0  0  0  0  0  0  0  # atno 17320 bound_to 7965
  145.2237  139.2147  143.5079 LP  0  0  0  0  0  0  0  0  0  0  0  0  # atno 17321 bound_to 7965
  139.9177  144.6818  150.8495 LP  0  0  0  0  0  0  0  0  0  0  0  0  # atno 17342 bound_to 10162
  140.7695  143.3397  151.2233 LP  0  0  0  0  0  0  0  0  0  0  0  0  # atno 17343 bound_to 10162
  156.0790  130.3675  150.0619 LP  0  0  0  0  0  0  0  0  0  0  0  0  # atno 17370 bound_to 10713
  156.8767  130.9543  151.3604 LP  0  0  0  0  0  0  0  0  0  0  0  0  # atno 17371 bound_to 10713
  139.9597  135.0157  156.9227 LP  0  0  0  0  0  0  0  0  0  0  0  0  # atno 17394 bound_to 11000
  140.5522  134.0616  155.7372 LP  0  0  0  0  0  0  0  0  0  0  0  0  # atno 17395 bound_to 11000

$$$$
