#       Name:                AV-unprocessed.smi:3331
#       Creating user name   scv26
#       Creation time:       Fri Mar 27 19:19:36 2020


#       File generated by GOLD software.
#

@<TRIPOS>MOLECULE
AV-unprocessed.smi:3331
    50    51     1
SMALL
NO_CHARGES


@<TRIPOS>ATOM
      1 ****        -3.3915   2.2858   0.5196 C.3            1 S1                 0.0000
      2 ****        -2.5745   1.1217  -0.0576 C.3            1 S1                 0.0000
      3 ****        -3.1020   0.6920  -1.4446 C.3            1 S1                 0.0000
      4 ****        -2.3755  -0.5583  -1.9896 C.3            1 S1                 0.0000
      5 ****        -2.9975  -1.0419  -3.3069 C.3            1 S1                 0.0000
      6 ****        -2.3593  -1.6749  -0.9239 C.3            1 S1                 0.0000
      7 ****        -1.7365  -1.1493   0.2980 N.am           1 S1                 0.0000
      8 ****        -0.4983  -1.5279   0.7040 C.2            1 S1                 0.0000
      9 ****         0.1273  -2.4259   0.1369 O.2            1 S1                 0.0000
     10 ****         0.1694  -0.8297   1.9088 C.3            1 S1                 0.0000
     11 ****        -0.2880  -1.4858   3.2223 C.3            1 S1                 0.0000
     12 ****         1.6484  -0.8827   1.8266 N.4            1 S1                 1.0000
     13 ****         2.2582   0.0326   0.8378 C.3            1 S1                 0.0000
     14 ****         3.7861  -0.1106   0.8311 C.3            1 S1                 0.0000
     15 ****         4.4033   0.7714  -0.1397 N.pl3          1 S1                 0.0000
     16 ****         4.9415   0.4532  -1.3687 C.2            1 S1                 0.0000
     17 ****         5.4079   1.6122  -1.9195 C.2            1 S1                 0.0000
     18 ****         5.1061   2.5982  -0.9390 C.2            1 S1                 0.0000
     19 ****         4.5038   2.0916   0.1251 N.2            1 S1                 0.0000
     20 ****        -2.5595  -0.0900   0.8956 C.3            1 S1                 0.0000
     21 ****        -4.4331   2.0020   0.6732 H              1 S1                 0.0000
     22 ****        -3.3766   3.1456  -0.1508 H              1 S1                 0.0000
     23 ****        -2.9898   2.6099   1.4800 H              1 S1                 0.0000
     24 ****        -1.5470   1.4689  -0.1790 H              1 S1                 0.0000
     25 ****        -4.1694   0.4790  -1.3698 H              1 S1                 0.0000
     26 ****        -3.0041   1.5168  -2.1515 H              1 S1                 0.0000
     27 ****        -1.3415  -0.2797  -2.1990 H              1 S1                 0.0000
     28 ****        -4.0354  -1.3461  -3.1675 H              1 S1                 0.0000
     29 ****        -2.4513  -1.8957  -3.7088 H              1 S1                 0.0000
     30 ****        -2.9791  -0.2551  -4.0614 H              1 S1                 0.0000
     31 ****        -3.3760  -2.0032  -0.7025 H              1 S1                 0.0000
     32 ****        -1.8465  -2.5551  -1.3142 H              1 S1                 0.0000
     33 ****        -0.0951   0.2272   1.9288 H              1 S1                 0.0000
     34 ****        -1.3722  -1.4572   3.3342 H              1 S1                 0.0000
     35 ****         0.1395  -0.9727   4.0843 H              1 S1                 0.0000
     36 ****         0.0201  -2.5310   3.2746 H              1 S1                 0.0000
     37 ****         2.0194  -0.6396   2.7339 H              1 S1                 0.0000
     38 ****         1.8664  -0.1811  -0.1573 H              1 S1                 0.0000
     39 ****         1.9782   1.0590   1.0794 H              1 S1                 0.0000
     40 ****         4.1978   0.1146   1.8162 H              1 S1                 0.0000
     41 ****         4.0697  -1.1373   0.5953 H              1 S1                 0.0000
     42 ****         4.9483  -0.5590  -1.7453 H              1 S1                 0.0000
     43 ****         5.8926   1.7367  -2.8765 H              1 S1                 0.0000
     44 ****         5.3056   3.6593  -0.9692 H              1 S1                 0.0000
     45 ****        -2.2362   0.2085   1.8907 H              1 S1                 0.0000
     46 ****        -3.5746  -0.4654   1.0352 H              1 S1                 0.0000
     47 ****         1.9207  -1.8312   1.6102 H              1 S1                 0.0000
     48 ****        -0.2762  -2.8985  -0.6466 LP             1 S1                 0.0000
     49 ****         1.0383  -2.6818   0.4603 LP             1 S1                 0.0000
     50 ****         4.1929   2.5776   0.9419 LP             1 S1                 0.0000
@<TRIPOS>BOND
    1    1    2 1     
    2    1   21 1     
    3    1   22 1     
    4    1   23 1     
    5    2   20 1     
    6    2    3 1     
    7    2   24 1     
    8    3    4 1     
    9    3   25 1     
   10    3   26 1     
   11    4    5 1     
   12    4    6 1     
   13    4   27 1     
   14    5   28 1     
   15    5   29 1     
   16    5   30 1     
   17    6    7 1     
   18    6   31 1     
   19    6   32 1     
   20    7    8 am    
   21    7   20 1     
   22    8    9 2     
   23    8   10 1     
   24   10   11 1     
   25   10   12 1     
   26   10   33 1     
   27   11   34 1     
   28   11   35 1     
   29   11   36 1     
   30   12   13 1     
   31   12   37 1     
   32   12   47 1     
   33   13   14 1     
   34   13   38 1     
   35   13   39 1     
   36   14   15 1     
   37   14   40 1     
   38   14   41 1     
   39   15   19 1     
   40   15   16 1     
   41   16   17 2     
   42   16   42 1     
   43   17   18 1     
   44   17   43 1     
   45   18   19 2     
   46   18   44 1     
   47   20   45 1     
   48   20   46 1     
   49    9   48 1     
   50    9   49 1     
   51   19   50 1     
@<TRIPOS>SUBSTRUCTURE
      1 S1             1
@<TRIPOS>SET
LONE_PAIRS      STATIC     ATOMS    <user>   **** ""
3 48 49 50
DONOR_HYDROGENS      STATIC     ATOMS    <user>   **** ""
2 37 47
ATOM$BLUE        STATIC     ATOMS    COLORGROUP SYSTEM
3 48 49 50
ATOM$RED        STATIC     ATOMS    COLORGROUP SYSTEM
2 37 47
