AV-unprocessed.smi:169|AV-procd|sdf|1405|dock10
  -GOLD-   2262019163D 1   1.00000     0.00000
 Structure written by MMmdl.
 56 60  0  0  0  0  0  0  0  0  2 V2000
  151.6663  144.7765  159.0852 C   0  0  0  0  0  0  0  0  0  0  0  0
  152.2927  143.9631  157.9385 C   0  0  0  0  0  0  0  0  0  0  0  0
  151.7377  142.5909  157.7997 N   0  3  1  0  0  0  0  0  0  0  0  0
  151.9449  141.7483  159.0047 C   0  0  0  0  0  0  0  0  0  0  0  0
  152.2545  140.2780  158.6592 C   0  0  0  0  0  0  0  0  0  0  0  0
  151.3311  139.6081  157.6164 C   0  0  2  0  0  0  0  0  0  0  0  0
  151.7820  139.8408  156.1590 C   0  0  0  0  0  0  0  0  0  0  0  0
  150.7179  140.7533  155.5403 C   0  0  0  0  0  0  0  0  0  0  0  0
  149.8720  141.2188  156.7297 C   0  0  2  0  0  0  0  0  0  0  0  0
  150.3329  142.5778  157.3044 C   0  0  0  0  0  0  0  0  0  0  0  0
  149.9659  140.1279  157.6958 N   0  0  0  0  0  0  0  0  0  0  0  0
  148.9017  139.2839  157.7156 C   0  0  0  0  0  0  0  0  0  0  0  0
  147.9678  139.3175  156.7282 N   0  0  0  0  0  0  0  0  0  0  0  0
  146.9194  138.4897  156.7628 C   0  0  0  0  0  0  0  0  0  0  0  0
  146.6143  137.5684  157.6782 N   0  0  0  0  0  0  0  0  0  0  0  0
  147.5447  137.5314  158.6740 C   0  0  0  0  0  0  0  0  0  0  0  0
  148.7092  138.3444  158.7663 C   0  0  0  0  0  0  0  0  0  0  0  0
  149.4289  138.0169  159.9089 N   0  0  0  0  0  0  0  0  0  0  0  0
  148.7274  137.0657  160.4627 C   0  0  0  0  0  0  0  0  0  0  0  0
  147.5731  136.7202  159.7951 N   0  0  0  0  0  0  0  0  0  0  0  0
  146.6124  135.7025  160.1940 C   0  0  0  0  0  0  0  0  0  0  0  0
  145.8823  136.0079  161.5188 C   0  0  0  0  0  0  0  0  0  0  0  0
  145.1797  137.3759  161.4572 C   0  0  0  0  0  0  0  0  0  0  0  0
  146.1109  138.4393  161.4647 O   0  0  0  0  0  0  0  0  0  0  0  0
  145.0091  134.8769  162.0815 C   0  0  0  0  0  0  0  0  0  0  0  0
  145.6268  134.9733  163.3819 O   0  0  0  0  0  0  0  0  0  0  0  0
  146.6897  135.7574  162.7999 C   0  0  0  0  0  0  0  0  0  0  0  0
  152.1320  145.7598  159.1521 H   0  0  0  0  0  0  0  0  0  0  0  0
  151.8006  144.2873  160.0500 H   0  0  0  0  0  0  0  0  0  0  0  0
  150.5987  144.9354  158.9337 H   0  0  0  0  0  0  0  0  0  0  0  0
  152.1590  144.4967  156.9967 H   0  0  0  0  0  0  0  0  0  0  0  0
  153.3708  143.8925  158.0876 H   0  0  0  0  0  0  0  0  0  0  0  0
  152.7822  142.1296  159.5912 H   0  0  0  0  0  0  0  0  0  0  0  0
  151.0732  141.8150  159.6581 H   0  0  0  0  0  0  0  0  0  0  0  0
  153.2939  140.1812  158.3430 H   0  0  0  0  0  0  0  0  0  0  0  0
  152.1884  139.7095  159.5876 H   0  0  0  0  0  0  0  0  0  0  0  0
  151.3730  138.5368  157.8144 H   0  0  0  0  0  0  0  0  0  0  0  0
  152.7708  140.2969  156.1038 H   0  0  0  0  0  0  0  0  0  0  0  0
  151.8321  138.8981  155.6127 H   0  0  0  0  0  0  0  0  0  0  0  0
  151.1453  141.5775  154.9683 H   0  0  0  0  0  0  0  0  0  0  0  0
  150.0966  140.1706  154.8587 H   0  0  0  0  0  0  0  0  0  0  0  0
  148.8450  141.3457  156.3841 H   0  0  0  0  0  0  0  0  0  0  0  0
  149.6570  142.8798  158.1055 H   0  0  0  0  0  0  0  0  0  0  0  0
  150.2258  143.3289  156.5208 H   0  0  0  0  0  0  0  0  0  0  0  0
  146.2250  138.5784  155.9400 H   0  0  0  0  0  0  0  0  0  0  0  0
  149.0294  136.5916  161.3854 H   0  0  0  0  0  0  0  0  0  0  0  0
  145.8955  135.5851  159.3803 H   0  0  0  0  0  0  0  0  0  0  0  0
  147.1358  134.7479  160.2589 H   0  0  0  0  0  0  0  0  0  0  0  0
  144.5419  137.4628  160.5775 H   0  0  0  0  0  0  0  0  0  0  0  0
  144.5218  137.5056  162.3173 H   0  0  0  0  0  0  0  0  0  0  0  0
  146.1895  138.7626  162.3496 H   0  0  0  0  0  0  0  0  0  0  0  0
  143.9427  135.1046  162.1012 H   0  0  0  0  0  0  0  0  0  0  0  0
  145.1900  133.9015  161.6283 H   0  0  0  0  0  0  0  0  0  0  0  0
  147.5928  135.1644  162.6460 H   0  0  0  0  0  0  0  0  0  0  0  0
  146.9095  136.6587  163.3731 H   0  0  0  0  0  0  0  0  0  0  0  0
  152.2919  142.1656  157.0699 H   0  0  0  0  0  0  0  0  0  0  0  0
  1  2  1  0  0  0  0
  1 28  1  0  0  0  0
  1 29  1  0  0  0  0
  1 30  1  0  0  0  0
  2  3  1  0  0  0  0
  2 31  1  0  0  0  0
  2 32  1  0  0  0  0
  3 10  1  0  0  0  0
  3  4  1  0  0  0  0
  3 56  1  0  0  0  0
  4  5  1  0  0  0  0
  4 33  1  0  0  0  0
  4 34  1  0  0  0  0
  5  6  1  0  0  0  0
  5 35  1  0  0  0  0
  5 36  1  0  0  0  0
  6 11  1  0  0  0  0
  6  7  1  0  0  0  0
  6 37  1  0  0  0  0
  7  8  1  0  0  0  0
  7 38  1  0  0  0  0
  7 39  1  0  0  0  0
  8  9  1  0  0  0  0
  8 40  1  0  0  0  0
  8 41  1  0  0  0  0
  9 10  1  0  0  0  0
  9 11  1  0  0  0  0
  9 42  1  0  0  0  0
 10 43  1  0  0  0  0
 10 44  1  0  0  0  0
 11 12  1  0  0  0  0
 12 17  1  0  0  0  0
 12 13  2  0  0  0  0
 13 14  1  0  0  0  0
 14 15  2  0  0  0  0
 14 45  1  0  0  0  0
 15 16  1  0  0  0  0
 16 20  1  0  0  0  0
 16 17  2  0  0  0  0
 17 18  1  0  0  0  0
 18 19  2  0  0  0  0
 19 20  1  0  0  0  0
 19 46  1  0  0  0  0
 20 21  1  0  0  0  0
 21 22  1  0  0  0  0
 21 47  1  0  0  0  0
 21 48  1  0  0  0  0
 22 27  1  0  0  0  0
 22 23  1  0  0  0  0
 22 25  1  0  0  0  0
 23 24  1  0  0  0  0
 23 49  1  0  0  0  0
 23 50  1  0  0  0  0
 24 51  1  0  0  0  0
 25 26  1  0  0  0  0
 25 52  1  0  0  0  0
 25 53  1  0  0  0  0
 26 27  1  0  0  0  0
 27 54  1  0  0  0  0
 27 55  1  0  0  0  0
M  CHG  1   3   1
M  END
> <s_m_source_file>
AV-unprocessed.smi

> <i_m_source_file_index>
169

> <i_lp_mmshare_version>
43012

> <i_f3d_flags>
0

> <s_epik_input>
W0NASF0xMltDSDJdW0NIMl1OKFtDSDJdW0NIM10pW0NIMl1bQ0BIXShbQ0gyXVtDSDJdMSlOMmMobltjSF1uMyljKGMzNCluW2NIXW40W0NIMl1DNShbQ0gyXVtPSF0pW0NIMl1PW0NIMl01

> <s_epik_cmdline>
J2VwaWtfcHl0aG9uJywgJy1waCcsICc3LjAnLCAnLXRuJywgJzgnLCAnLW1hJywgJzIwMCcsICctbWV0YWxfYmluZGluZycsICctaW1hZScsICc8aW5maWxlLm1hZT4nLCAnLW9tYWUnLCAnPG91dGZpbGUubWFlPic=

> <r_lp_tautomer_probability>
1

> <r_epik_Ionization_Penalty>
0.00274162

> <r_epik_Ionization_Penalty_Charging>
0.00243722

> <r_epik_Ionization_Penalty_Neutral>
0.000304399

> <r_epik_State_Penalty>
-0

> <r_epik_Charging_Adjusted_Penalty>
0.00243722

> <i_epik_Tot_Q>
1

> <i_epik_Tot_abs_Q>
1

> <r_epik_Metal_State_Penalty>
-0

> <b_epik_Metal_Only>
0

> <s_lp_Force_Field>
OPLS_2005

> <r_lp_Energy>
77.4951

> <b_lp_Chiralities_Consistent>
1

> <s_lp_Variant>
AV-unprocessed.smi:169-8

> <Gold.Version>
5.8.1

> <Gold.Id.Protein>
6NUR|6NUR_protein|mol2

> <Gold.PLP.Fitness>
44.0192

> <Gold.PLP.PLP>
-41.5694

> <Gold.PLP.part.hbond>
-3.4303

> <Gold.PLP.part.metal>
0.0000

> <Gold.PLP.part.buried>
-4.5267

> <Gold.PLP.part.nonpolar>
-33.5524

> <Gold.PLP.part.repulsive>
0.0628

> <Gold.PLP.ligand.clash>
0.0000

> <Gold.PLP.ligand.torsion>
0.4427

> <Gold.PLP.Chemscore.Hbond>
0.9440

> <Gold.PLP.Chemscore.CHOScore>
0.0000

> <Gold.PLP.Chemscore.Metal>
0.0000

> <Gold.Chemscore.Hbonds>
donor molecule, donor type, donor heavy atom, donor atom, acceptor molecule, acceptor atom, score
      P1  H  6934  6947       L1    24  0.22

> <Gold.PLP.Chemscore.Internal.Correction>
0.5032

> <Gold.Rescore>
     Score         DG    S(hbond)    S(metal)    S(lipo)     H(rot)  DE(clash)    DE(int)     intcor
     12.09     -13.90       0.75        0.00     107.86       2.62       0.08       1.72       ----

> <Gold.Chemscore.Fitness>
12.0940

> <Gold.Chemscore.DG>
-13.8979

> <Gold.Chemscore.ZeroCoef>
-5.4800

> <Gold.Chemscore.Hbond>
0.7509

> <Gold.Chemscore.Metal>
0.0000

> <Gold.Chemscore.Lipo>
107.8645

> <Gold.Chemscore.Internal_Hbond>
0.0000

> <Gold.Chemscore.DEClash>
0.0846

> <Gold.Chemscore.DEInternal>
1.7192

> <Gold.Chemscore.Rot>
2.6212

> <Gold.Chemscore.Internal.Correction>
   9.000000E+99

> <Gold.Chemscore.Hbonds>
donor molecule, donor type, donor heavy atom, donor atom, acceptor molecule, acceptor atom, score
      P1  H  6934  6947       L1    24  0.04

> <Gold.Chemscore.Hbond.Weighted>
-2.5080

> <Gold.Chemscore.Metal.Weighted>
-0.0000

> <Gold.Chemscore.Lipo.Weighted>
-12.6201

> <Gold.Chemscore.Internal_Hbond.Weighted>
0.0000

> <Gold.Chemscore.DEClash.Weighted>
0.0846

> <Gold.Chemscore.DEInternal.Weighted>
1.7192

> <Gold.Chemscore.Rot.Weighted>
6.7102

> <Gold.Chemscore.Internal.Correction.Weighted>
   9.000000E+99

> <Gold.Protein.RotatedTorsions>
[ 6907 6896 6895 6894 ] final  -18.65 input  -60.11 | X-H torsion
[ 7974 7965 7964 7962 ] final  175.31 input  175.53 | X-H torsion
[ 8008 7997 7996 7995 ] final  -93.20 input   59.86 | X-H torsion
[ 10167 10162 10161 10158 ] final -148.02 input  -65.29 | X-H torsion
[ 10718 10713 10712 10709 ] final   -3.34 input   66.30 | X-H torsion
[ 10763 10752 10751 10750 ] final   86.34 input  -60.55 | X-H torsion
[ 11005 11000 10999 10996 ] final  117.77 input  -57.11 | X-H torsion

> <Gold.Protein.ActiveResidues>
 VAL166  LYS551  ARG553  GLY616  TRP617  ASP618  TYR619  PRO620  LYS621  CYS622 
 ASP623  PHE694  ASN695  SER759  ASP760  ASP761  ALA762  ILE779  LEU786  VAL792 
 PHE793  MET794  SER795  GLU796  ALA797  LYS798  CYS799  TRP800  GLU811  SER814 

> <Gold.Protein.RotatedAtoms>
  151.2749  135.0696  159.9147 H   0  0  0  0  0  0  0  0  0  0  0  0  # atno 6907 bound_to 6896
  152.5344  134.0091  159.7940 H   0  0  0  0  0  0  0  0  0  0  0  0  # atno 6908 bound_to 6896
  151.0335  133.5718  159.2689 H   0  0  0  0  0  0  0  0  0  0  0  0  # atno 6909 bound_to 6896
  144.7204  139.9928  143.6440 H   0  0  0  0  0  0  0  0  0  0  0  0  # atno 7974 bound_to 7965
  154.7327  140.0501  157.0740 H   0  0  0  0  0  0  0  0  0  0  0  0  # atno 8008 bound_to 7997
  155.0281  140.3155  155.4749 H   0  0  0  0  0  0  0  0  0  0  0  0  # atno 8009 bound_to 7997
  156.2845  140.2155  156.5401 H   0  0  0  0  0  0  0  0  0  0  0  0  # atno 8010 bound_to 7997
  139.7569  143.8434  152.2599 H   0  0  0  0  0  0  0  0  0  0  0  0  # atno 10167 bound_to 10162
  156.7775  130.5320  149.5756 H   0  0  0  0  0  0  0  0  0  0  0  0  # atno 10718 bound_to 10713
  153.1561  135.4584  154.9706 H   0  0  0  0  0  0  0  0  0  0  0  0  # atno 10763 bound_to 10752
  154.7862  135.3205  154.7882 H   0  0  0  0  0  0  0  0  0  0  0  0  # atno 10764 bound_to 10752
  153.8379  135.6933  153.4861 H   0  0  0  0  0  0  0  0  0  0  0  0  # atno 10765 bound_to 10752
  139.9086  134.9613  156.7401 H   0  0  0  0  0  0  0  0  0  0  0  0  # atno 11005 bound_to 11000
  146.0398  139.3411  143.0704 LP  0  0  0  0  0  0  0  0  0  0  0  0  # atno 17320 bound_to 7965
  145.8349  140.9611  143.0829 LP  0  0  0  0  0  0  0  0  0  0  0  0  # atno 17321 bound_to 7965
  139.8429  144.7201  150.9309 LP  0  0  0  0  0  0  0  0  0  0  0  0  # atno 17342 bound_to 10162
  140.7803  143.3967  151.1217 LP  0  0  0  0  0  0  0  0  0  0  0  0  # atno 17343 bound_to 10162
  156.1239  130.6130  151.0235 LP  0  0  0  0  0  0  0  0  0  0  0  0  # atno 17370 bound_to 10713
  157.6662  131.0871  150.7722 LP  0  0  0  0  0  0  0  0  0  0  0  0  # atno 17371 bound_to 10713
  140.6856  133.9435  155.7936 LP  0  0  0  0  0  0  0  0  0  0  0  0  # atno 17394 bound_to 11000
  141.0478  134.0528  157.3821 LP  0  0  0  0  0  0  0  0  0  0  0  0  # atno 17395 bound_to 11000

$$$$
