AV-unprocessed.smi:2562|AV-procd|sdf|10055|dock2
  -GOLD-   2272014 93D 1   1.00000     0.00000
 Structure written by MMmdl.
 29 30  0  0  0  0  0  0  0  0  2 V2000
  152.5615  143.1566  161.7510 C   0  0  0  0  0  0  0  0  0  0  0  0
  152.3255  142.9550  160.2503 C   0  0  0  0  0  0  0  0  0  0  0  0
  152.9781  141.6725  159.7163 C   0  0  0  0  0  0  0  0  0  0  0  0
  152.3969  141.2524  158.3838 C   0  0  0  0  0  0  0  0  0  0  0  0
  152.7679  140.1764  157.6675 N   0  5  0  0  0  0  0  0  0  0  0  0
  152.0271  140.0876  156.5816 N   0  0  0  0  0  0  0  0  0  0  0  0
  151.1726  141.1211  156.6452 C   0  0  0  0  0  0  0  0  0  0  0  0
  150.1336  141.4511  155.5918 C   0  0  1  0  0  0  0  0  0  0  0  0
  150.2291  140.4845  154.3935 C   0  0  0  0  0  0  0  0  0  0  0  0
  149.2144  140.8045  153.3890 N   0  0  0  0  0  0  0  0  0  0  0  0
  147.8763  140.8230  153.9751 C   0  0  0  0  0  0  0  0  0  0  0  0
  147.8344  141.7852  155.1744 C   0  0  0  0  0  0  0  0  0  0  0  0
  148.8138  141.3932  156.1294 O   0  0  0  0  0  0  0  0  0  0  0  0
  151.3952  141.8516  157.7476 N   0  0  0  0  0  0  0  0  0  0  0  0
  152.0831  144.0719  162.0997 H   0  0  0  0  0  0  0  0  0  0  0  0
  153.6259  143.2308  161.9750 H   0  0  0  0  0  0  0  0  0  0  0  0
  152.1531  142.3266  162.3278 H   0  0  0  0  0  0  0  0  0  0  0  0
  151.2530  142.9253  160.0551 H   0  0  0  0  0  0  0  0  0  0  0  0
  152.7145  143.8160  159.7055 H   0  0  0  0  0  0  0  0  0  0  0  0
  154.0527  141.8168  159.5999 H   0  0  0  0  0  0  0  0  0  0  0  0
  152.8449  140.8574  160.4283 H   0  0  0  0  0  0  0  0  0  0  0  0
  150.3300  142.4709  155.2552 H   0  0  0  0  0  0  0  0  0  0  0  0
  151.2229  140.5373  153.9480 H   0  0  0  0  0  0  0  0  0  0  0  0
  150.0957  139.4586  154.7394 H   0  0  0  0  0  0  0  0  0  0  0  0
  149.2495  140.1183  152.6421 H   0  0  0  0  0  0  0  0  0  0  0  0
  147.1432  141.1232  153.2263 H   0  0  0  0  0  0  0  0  0  0  0  0
  147.5998  139.8197  154.3014 H   0  0  0  0  0  0  0  0  0  0  0  0
  148.0045  142.8156  154.8577 H   0  0  0  0  0  0  0  0  0  0  0  0
  146.8518  141.7550  155.6452 H   0  0  0  0  0  0  0  0  0  0  0  0
  1  2  1  0  0  0  0
  1 15  1  0  0  0  0
  1 16  1  0  0  0  0
  1 17  1  0  0  0  0
  2  3  1  0  0  0  0
  2 18  1  0  0  0  0
  2 19  1  0  0  0  0
  3 20  1  0  0  0  0
  3 21  1  0  0  0  0
  3  4  1  0  0  0  0
  4 14  2  0  0  0  0
  4  5  1  0  0  0  0
  5  6  1  0  0  0  0
  6  7  2  0  0  0  0
  7 14  1  0  0  0  0
  7  8  1  0  0  0  0
  8 13  1  0  0  0  0
  8  9  1  0  0  0  0
  8 22  1  0  0  0  0
  9 10  1  0  0  0  0
  9 23  1  0  0  0  0
  9 24  1  0  0  0  0
 10 11  1  0  0  0  0
 10 25  1  0  0  0  0
 11 12  1  0  0  0  0
 11 26  1  0  0  0  0
 11 27  1  0  0  0  0
 12 13  1  0  0  0  0
 12 28  1  0  0  0  0
 12 29  1  0  0  0  0
M  CHG  1   5  -1
M  END
> <s_m_source_file>
AV-unprocessed.smi

> <i_m_source_file_index>
2562

> <i_lp_mmshare_version>
43012

> <i_f3d_flags>
0

> <s_epik_input>
W0NIM11bQ0gyXVtDSDJdYzFuW25IXWMobjEpW0NAQEhdMltDSDJdW05IXVtDSDJdW0NIMl1PMg==

> <s_epik_cmdline>
J2VwaWtfcHl0aG9uJywgJy1waCcsICc3LjAnLCAnLXRuJywgJzgnLCAnLW1hJywgJzIwMCcsICctbWV0YWxfYmluZGluZycsICctaW1hZScsICc8aW5maWxlLm1hZT4nLCAnLW9tYWUnLCAnPG91dGZpbGUubWFlPic=

> <r_epik_Ionization_Penalty>
15.949

> <r_epik_Ionization_Penalty_Charging>
14.3757

> <r_epik_Ionization_Penalty_Neutral>
1.5733

> <r_epik_State_Penalty>
7.02775

> <r_epik_Charging_Adjusted_Penalty>
21.4034

> <i_epik_Tot_Q>
-1

> <i_epik_Tot_abs_Q>
1

> <r_epik_Metal_State_Penalty>
3.10311

> <b_epik_Metal_Only>
1

> <s_lp_Force_Field>
OPLS_2005

> <r_lp_Energy>
11.7076

> <b_lp_Chiralities_Consistent>
1

> <s_lp_Variant>
AV-unprocessed.smi:2562-14

> <Gold.Version>
5.8.1

> <Gold.Id.Protein>
6NUR|6NUR_protein|mol2

> <Gold.PLP.Fitness>
38.9960

> <Gold.PLP.PLP>
-28.1475

> <Gold.PLP.part.hbond>
-3.6449

> <Gold.PLP.part.metal>
0.0000

> <Gold.PLP.part.buried>
0.3333

> <Gold.PLP.part.nonpolar>
-24.0187

> <Gold.PLP.part.repulsive>
0.1289

> <Gold.PLP.ligand.clash>
0.0000

> <Gold.PLP.ligand.torsion>
0.1089

> <Gold.PLP.Chemscore.Hbond>
3.6840

> <Gold.PLP.Chemscore.CHOScore>
0.0000

> <Gold.PLP.Chemscore.Metal>
0.0000

> <Gold.Chemscore.Hbonds>
donor molecule, donor type, donor heavy atom, donor atom, acceptor molecule, acceptor atom, score
      L1  H    10    25       P1  7957  0.78
      P1  H  7997  8009       L1     5  1.98
      P1  H  8011  8017       L1    10  0.90

> <Gold.PLP.Chemscore.Internal.Correction>
0.0143

> <Gold.Rescore>
     Score         DG    S(hbond)    S(metal)    S(lipo)     H(rot)  DE(clash)    DE(int)     intcor
     12.80     -14.27       1.65        0.00      59.72       1.44       1.42       0.06       ----

> <Gold.Chemscore.Fitness>
12.7993

> <Gold.Chemscore.DG>
-14.2719

> <Gold.Chemscore.ZeroCoef>
-5.4800

> <Gold.Chemscore.Hbond>
1.6472

> <Gold.Chemscore.Metal>
0.0000

> <Gold.Chemscore.Lipo>
59.7209

> <Gold.Chemscore.Internal_Hbond>
0.0000

> <Gold.Chemscore.DEClash>
1.4151

> <Gold.Chemscore.DEInternal>
0.0576

> <Gold.Chemscore.Rot>
1.4441

> <Gold.Chemscore.Internal.Correction>
   9.000000E+99

> <Gold.Chemscore.Hbonds>
donor molecule, donor type, donor heavy atom, donor atom, acceptor molecule, acceptor atom, score
      L1  H    10    25       P1  7957  0.72
      P1  H  7997  8009       L1     5  0.24
      P1  H  8011  8017       L1    10  0.12

> <Gold.Chemscore.Hbond.Weighted>
-5.5015

> <Gold.Chemscore.Metal.Weighted>
-0.0000

> <Gold.Chemscore.Lipo.Weighted>
-6.9873

> <Gold.Chemscore.Internal_Hbond.Weighted>
0.0000

> <Gold.Chemscore.DEClash.Weighted>
1.4151

> <Gold.Chemscore.DEInternal.Weighted>
0.0576

> <Gold.Chemscore.Rot.Weighted>
3.6969

> <Gold.Chemscore.Internal.Correction.Weighted>
   9.000000E+99

> <Gold.Protein.RotatedTorsions>
[ 6907 6896 6895 6894 ] final   20.40 input  -60.11 | X-H torsion
[ 7974 7965 7964 7962 ] final   57.31 input  175.53 | X-H torsion
[ 8008 7997 7996 7995 ] final  163.25 input   59.86 | X-H torsion
[ 10167 10162 10161 10158 ] final  116.63 input  -65.29 | X-H torsion
[ 10718 10713 10712 10709 ] final  -81.34 input   66.30 | X-H torsion
[ 10763 10752 10751 10750 ] final -127.26 input  -60.55 | X-H torsion
[ 11005 11000 10999 10996 ] final   22.03 input  -57.11 | X-H torsion

> <Gold.Protein.ActiveResidues>
 VAL166  LYS551  ARG553  GLY616  TRP617  ASP618  TYR619  PRO620  LYS621  CYS622 
 ASP623  PHE694  ASN695  SER759  ASP760  ASP761  ALA762  ILE779  LEU786  VAL792 
 PHE793  MET794  SER795  GLU796  ALA797  LYS798  CYS799  TRP800  GLU811  SER814 

> <Gold.Protein.RotatedAtoms>
  151.8958  135.0398  160.0501 H   0  0  0  0  0  0  0  0  0  0  0  0  # atno 6907 bound_to 6896
  152.2399  133.5122  159.5272 H   0  0  0  0  0  0  0  0  0  0  0  0  # atno 6908 bound_to 6896
  150.7050  134.1019  159.4011 H   0  0  0  0  0  0  0  0  0  0  0  0  # atno 6909 bound_to 6896
  145.9304  139.3803  143.0424 H   0  0  0  0  0  0  0  0  0  0  0  0  # atno 7974 bound_to 7965
  156.1971  140.1728  156.7976 H   0  0  0  0  0  0  0  0  0  0  0  0  # atno 8008 bound_to 7997
  154.5543  140.0711  156.8750 H   0  0  0  0  0  0  0  0  0  0  0  0  # atno 8009 bound_to 7997
  155.2968  140.3359  155.4252 H   0  0  0  0  0  0  0  0  0  0  0  0  # atno 8010 bound_to 7997
  139.6234  144.7104  151.2585 H   0  0  0  0  0  0  0  0  0  0  0  0  # atno 10167 bound_to 10162
  156.0052  130.4601  150.3937 H   0  0  0  0  0  0  0  0  0  0  0  0  # atno 10718 bound_to 10713
  154.8751  135.3968  154.3564 H   0  0  0  0  0  0  0  0  0  0  0  0  # atno 10763 bound_to 10752
  153.4343  135.7025  153.6215 H   0  0  0  0  0  0  0  0  0  0  0  0  # atno 10764 bound_to 10752
  153.4824  135.3766  155.2418 H   0  0  0  0  0  0  0  0  0  0  0  0  # atno 10765 bound_to 10752
  140.3850  134.1880  155.7663 H   0  0  0  0  0  0  0  0  0  0  0  0  # atno 11005 bound_to 11000
  145.8433  140.9569  143.0788 LP  0  0  0  0  0  0  0  0  0  0  0  0  # atno 17320 bound_to 7965
  144.6764  140.0313  143.7482 LP  0  0  0  0  0  0  0  0  0  0  0  0  # atno 17321 bound_to 7965
  140.7396  143.6613  150.8162 LP  0  0  0  0  0  0  0  0  0  0  0  0  # atno 17342 bound_to 10162
  140.0227  143.5525  152.2793 LP  0  0  0  0  0  0  0  0  0  0  0  0  # atno 17343 bound_to 10162
  157.2010  131.0438  151.2650 LP  0  0  0  0  0  0  0  0  0  0  0  0  # atno 17370 bound_to 10713
  157.3975  130.7315  149.6743 LP  0  0  0  0  0  0  0  0  0  0  0  0  # atno 17371 bound_to 10713
  141.1910  133.8204  157.0895 LP  0  0  0  0  0  0  0  0  0  0  0  0  # atno 17394 bound_to 11000
  140.0449  134.9835  157.1031 LP  0  0  0  0  0  0  0  0  0  0  0  0  # atno 17395 bound_to 11000

$$$$
