AV-unprocessed.smi:3116|AV-procd|sdf|11867|dock5
  -GOLD-   2272017253D 1   1.00000     0.00000
 Structure written by MMmdl.
 34 34  0  0  0  0  0  0  0  0  2 V2000
  153.0562  138.6783  154.7418 C   0  0  0  0  0  0  0  0  0  0  0  0
  151.6664  138.4377  155.3491 C   0  0  1  0  0  0  0  0  0  0  0  0
  151.0005  139.7373  155.6032 N   0  3  0  0  0  0  0  0  0  0  0  0
  151.5082  140.5122  156.7629 C   0  0  2  0  0  0  0  0  0  0  0  0
  151.1224  139.7686  158.0529 C   0  0  0  0  0  0  0  0  0  0  0  0
  150.9610  141.9656  156.7280 C   0  0  1  0  0  0  0  0  0  0  0  0
  149.4222  142.0368  156.7701 C   0  0  0  0  0  0  0  0  0  0  0  0
  151.5235  142.7798  157.7997 N   0  0  0  0  0  0  0  0  0  0  0  0
  151.3534  144.1311  158.0226 C   0  0  0  0  0  0  0  0  0  0  0  0
  152.0782  144.4570  159.1327 C   0  0  0  0  0  0  0  0  0  0  0  0
  152.6623  143.2224  159.5299 C   0  0  0  0  0  0  0  0  0  0  0  0
  152.3302  142.2217  158.7306 N   0  0  0  0  0  0  0  0  0  0  0  0
  150.8300  137.5455  154.4212 C   0  0  0  0  0  0  0  0  0  0  0  0
  149.8223  138.1259  153.7646 N   0  0  0  0  0  0  0  0  0  0  0  0
  151.0804  136.3470  154.3075 O   0  0  0  0  0  0  0  0  0  0  0  0
  153.5810  137.7383  154.5665 H   0  0  0  0  0  0  0  0  0  0  0  0
  153.6753  139.2752  155.4126 H   0  0  0  0  0  0  0  0  0  0  0  0
  152.9932  139.2073  153.7898 H   0  0  0  0  0  0  0  0  0  0  0  0
  151.8065  137.9241  156.3007 H   0  0  0  0  0  0  0  0  0  0  0  0
  151.1120  140.3136  154.7817 H   0  0  0  0  0  0  0  0  0  0  0  0
  152.5984  140.5472  156.7251 H   0  0  0  0  0  0  0  0  0  0  0  0
  151.5723  140.2269  158.9332 H   0  0  0  0  0  0  0  0  0  0  0  0
  151.4662  138.7340  158.0270 H   0  0  0  0  0  0  0  0  0  0  0  0
  150.0415  139.7543  158.1959 H   0  0  0  0  0  0  0  0  0  0  0  0
  151.2794  142.4218  155.7891 H   0  0  0  0  0  0  0  0  0  0  0  0
  148.9739  141.5993  155.8787 H   0  0  0  0  0  0  0  0  0  0  0  0
  149.0805  143.0713  156.8202 H   0  0  0  0  0  0  0  0  0  0  0  0
  149.0198  141.5128  157.6377 H   0  0  0  0  0  0  0  0  0  0  0  0
  150.7386  144.7433  157.3793 H   0  0  0  0  0  0  0  0  0  0  0  0
  152.1739  145.4291  159.5936 H   0  0  0  0  0  0  0  0  0  0  0  0
  153.3141  143.0250  160.3683 H   0  0  0  0  0  0  0  0  0  0  0  0
  149.2427  137.5846  153.1394 H   0  0  0  0  0  0  0  0  0  0  0  0
  149.6439  139.1117  153.8944 H   0  0  0  0  0  0  0  0  0  0  0  0
  150.0153  139.5589  155.7372 H   0  0  0  0  0  0  0  0  0  0  0  0
  1  2  1  0  0  0  0
  1 16  1  0  0  0  0
  1 17  1  0  0  0  0
  1 18  1  0  0  0  0
  2  3  1  0  0  0  0
  2 13  1  0  0  0  0
  2 19  1  0  0  0  0
  3  4  1  0  0  0  0
  3 20  1  0  0  0  0
  3 34  1  0  0  0  0
  4  5  1  0  0  0  0
  4  6  1  0  0  0  0
  4 21  1  0  0  0  0
  5 22  1  0  0  0  0
  5 23  1  0  0  0  0
  5 24  1  0  0  0  0
  6  7  1  0  0  0  0
  6  8  1  0  0  0  0
  6 25  1  0  0  0  0
  7 26  1  0  0  0  0
  7 27  1  0  0  0  0
  7 28  1  0  0  0  0
  8 12  1  0  0  0  0
  8  9  1  0  0  0  0
  9 10  2  0  0  0  0
  9 29  1  0  0  0  0
 10 11  1  0  0  0  0
 10 30  1  0  0  0  0
 11 12  2  0  0  0  0
 11 31  1  0  0  0  0
 13 14  1  0  0  0  0
 13 15  2  0  0  0  0
 14 32  1  0  0  0  0
 14 33  1  0  0  0  0
M  CHG  1   3   1
M  END
> <s_m_source_file>
AV-unprocessed.smi

> <i_m_source_file_index>
3116

> <i_lp_mmshare_version>
43012

> <i_f3d_flags>
0

> <s_epik_input>
W05IMl1DKD1PKVtDQEhdKFtDSDNdKVtOSF1bQ0BIXShbQ0gzXSlbQ0BIXShbQ0gzXSluMVtjSF1bY0hdW2NIXW4x

> <s_epik_cmdline>
J2VwaWtfcHl0aG9uJywgJy1waCcsICc3LjAnLCAnLXRuJywgJzgnLCAnLW1hJywgJzIwMCcsICctbWV0YWxfYmluZGluZycsICctaW1hZScsICc8aW5maWxlLm1hZT4nLCAnLW9tYWUnLCAnPG91dGZpbGUubWFlPic=

> <r_lp_tautomer_probability>
1

> <r_epik_Ionization_Penalty>
0.15658

> <r_epik_Ionization_Penalty_Charging>
0.156568

> <r_epik_Ionization_Penalty_Neutral>
1.19778e-05

> <r_epik_State_Penalty>
0.145866

> <r_epik_Charging_Adjusted_Penalty>
0.302434

> <i_epik_Tot_Q>
1

> <i_epik_Tot_abs_Q>
1

> <r_epik_Metal_State_Penalty>
0.146064

> <b_epik_Metal_Only>
0

> <s_lp_Force_Field>
OPLS_2005

> <r_lp_Energy>
9.77371

> <b_lp_Chiralities_Consistent>
1

> <s_lp_Variant>
AV-unprocessed.smi:3116-6

> <Gold.Version>
5.8.1

> <Gold.Id.Protein>
6NUR|6NUR_protein|mol2

> <Gold.PLP.Fitness>
41.0796

> <Gold.PLP.PLP>
-33.0213

> <Gold.PLP.part.hbond>
-2.0000

> <Gold.PLP.part.metal>
0.0000

> <Gold.PLP.part.buried>
-3.5228

> <Gold.PLP.part.nonpolar>
-28.5388

> <Gold.PLP.part.repulsive>
1.4232

> <Gold.PLP.ligand.clash>
0.0000

> <Gold.PLP.ligand.torsion>
0.5105

> <Gold.PLP.Chemscore.Hbond>
2.0000

> <Gold.PLP.Chemscore.CHOScore>
1.0000

> <Gold.PLP.Chemscore.Metal>
0.0000

> <Gold.Chemscore.Hbonds>
donor molecule, donor type, donor heavy atom, donor atom, acceptor molecule, acceptor atom, score
      L1  H    14    32       P1  7948  1.00
      P1  H 10752 10765       L1    15  1.00
      L1  C     9    29       P1  8028  1.00

> <Gold.PLP.Chemscore.Internal.Correction>
0.0792

> <Gold.Rescore>
     Score         DG    S(hbond)    S(metal)    S(lipo)     H(rot)  DE(clash)    DE(int)     intcor
     12.88     -14.48       1.93        0.00      75.24       2.45       0.12       1.48       ----

> <Gold.Chemscore.Fitness>
12.8762

> <Gold.Chemscore.DG>
-14.4810

> <Gold.Chemscore.ZeroCoef>
-5.4800

> <Gold.Chemscore.Hbond>
1.9344

> <Gold.Chemscore.Metal>
0.0000

> <Gold.Chemscore.Lipo>
75.2423

> <Gold.Chemscore.Internal_Hbond>
0.0000

> <Gold.Chemscore.DEClash>
0.1236

> <Gold.Chemscore.DEInternal>
1.4812

> <Gold.Chemscore.Rot>
2.4465

> <Gold.Chemscore.Internal.Correction>
   9.000000E+99

> <Gold.Chemscore.Hbonds>
donor molecule, donor type, donor heavy atom, donor atom, acceptor molecule, acceptor atom, score
      L1  H    14    32       P1  7948  0.95
      P1  H 10752 10765       L1    15  0.97

> <Gold.Chemscore.Hbond.Weighted>
-6.4608

> <Gold.Chemscore.Metal.Weighted>
-0.0000

> <Gold.Chemscore.Lipo.Weighted>
-8.8034

> <Gold.Chemscore.Internal_Hbond.Weighted>
0.0000

> <Gold.Chemscore.DEClash.Weighted>
0.1236

> <Gold.Chemscore.DEInternal.Weighted>
1.4812

> <Gold.Chemscore.Rot.Weighted>
6.2631

> <Gold.Chemscore.Internal.Correction.Weighted>
   9.000000E+99

> <Gold.Protein.RotatedTorsions>
[ 6907 6896 6895 6894 ] final   25.47 input  -60.11 | X-H torsion
[ 7974 7965 7964 7962 ] final   98.58 input  175.53 | X-H torsion
[ 8008 7997 7996 7995 ] final -140.57 input   59.86 | X-H torsion
[ 10167 10162 10161 10158 ] final  144.17 input  -65.29 | X-H torsion
[ 10718 10713 10712 10709 ] final  -84.75 input   66.30 | X-H torsion
[ 10763 10752 10751 10750 ] final  167.08 input  -60.55 | X-H torsion
[ 11005 11000 10999 10996 ] final -173.17 input  -57.11 | X-H torsion

> <Gold.Protein.ActiveResidues>
 VAL166  LYS551  ARG553  GLY616  TRP617  ASP618  TYR619  PRO620  LYS621  CYS622 
 ASP623  PHE694  ASN695  SER759  ASP760  ASP761  ALA762  ILE779  LEU786  VAL792 
 PHE793  MET794  SER795  GLU796  ALA797  LYS798  CYS799  TRP800  GLU811  SER814 

> <Gold.Protein.RotatedAtoms>
  151.9730  135.0067  160.0553 H   0  0  0  0  0  0  0  0  0  0  0  0  # atno 6907 bound_to 6896
  152.1766  133.4674  159.4944 H   0  0  0  0  0  0  0  0  0  0  0  0  # atno 6908 bound_to 6896
  150.6910  134.1804  159.4289 H   0  0  0  0  0  0  0  0  0  0  0  0  # atno 6909 bound_to 6896
  145.4103  139.2335  143.3252 H   0  0  0  0  0  0  0  0  0  0  0  0  # atno 7974 bound_to 7965
  155.4636  140.0547  157.2988 H   0  0  0  0  0  0  0  0  0  0  0  0  # atno 8008 bound_to 7997
  154.4727  140.2047  155.9909 H   0  0  0  0  0  0  0  0  0  0  0  0  # atno 8009 bound_to 7997
  156.1082  140.3208  155.8040 H   0  0  0  0  0  0  0  0  0  0  0  0  # atno 8010 bound_to 7997
  139.4953  144.5990  151.6521 H   0  0  0  0  0  0  0  0  0  0  0  0  # atno 10167 bound_to 10162
  156.0003  130.4708  150.4457 H   0  0  0  0  0  0  0  0  0  0  0  0  # atno 10718 bound_to 10713
  154.3485  135.2753  155.2385 H   0  0  0  0  0  0  0  0  0  0  0  0  # atno 10763 bound_to 10752
  154.4624  135.5903  153.6268 H   0  0  0  0  0  0  0  0  0  0  0  0  # atno 10764 bound_to 10752
  152.9852  135.6068  154.3693 H   0  0  0  0  0  0  0  0  0  0  0  0  # atno 10765 bound_to 10752
  140.4888  134.6005  157.4947 H   0  0  0  0  0  0  0  0  0  0  0  0  # atno 11005 bound_to 11000
  146.2708  140.4813  142.8815 LP  0  0  0  0  0  0  0  0  0  0  0  0  # atno 17320 bound_to 7965
  144.8314  140.6712  143.6289 LP  0  0  0  0  0  0  0  0  0  0  0  0  # atno 17321 bound_to 7965
  140.5635  144.0229  150.6181 LP  0  0  0  0  0  0  0  0  0  0  0  0  # atno 17342 bound_to 10162
  140.3323  143.3070  152.0675 LP  0  0  0  0  0  0  0  0  0  0  0  0  # atno 17343 bound_to 10162
  157.2495  131.0543  151.2388 LP  0  0  0  0  0  0  0  0  0  0  0  0  # atno 17370 bound_to 10713
  157.3542  130.7098  149.6460 LP  0  0  0  0  0  0  0  0  0  0  0  0  # atno 17371 bound_to 10713
  139.9782  134.7181  155.9910 LP  0  0  0  0  0  0  0  0  0  0  0  0  # atno 17394 bound_to 11000
  141.1495  133.6550  156.3968 LP  0  0  0  0  0  0  0  0  0  0  0  0  # atno 17395 bound_to 11000

$$$$
