AV-unprocessed.smi:759|AV-procd|sdf|3619|dock8
  -GOLD-   22720 1 13D 1   1.00000     0.00000
 Structure written by MMmdl.
 24 25  0  0  0  0  0  0  0  0  2 V2000
  151.5073  138.3392  154.2391 C   0  0  0  0  0  0  0  0  0  0  0  0
  152.5456  137.9239  154.9624 N   0  0  0  0  0  0  0  0  0  0  0  0
  152.7778  138.8212  155.9445 N   0  0  0  0  0  0  0  0  0  0  0  0
  151.8277  139.7316  155.7238 C   0  0  0  0  0  0  0  0  0  0  0  0
  151.7005  140.9436  156.5948 C   0  0  2  0  0  0  0  0  0  0  0  0
  151.4320  140.5768  158.0667 C   0  0  0  0  0  0  0  0  0  0  0  0
  151.2950  141.8476  158.9194 C   0  0  0  0  0  0  0  0  0  0  0  0
  150.2342  142.7934  158.3315 C   0  0  0  0  0  0  0  0  0  0  0  0
  150.5518  143.1279  156.9258 N   0  3  0  0  0  0  0  0  0  0  0  0
  150.6501  141.9355  156.0552 C   0  0  0  0  0  0  0  0  0  0  0  0
  150.9958  139.4868  154.6641 N   0  0  0  0  0  0  0  0  0  0  0  0
  153.0954  137.0862  154.8334 H   0  0  0  0  0  0  0  0  0  0  0  0
  151.1205  137.7955  153.3897 H   0  0  0  0  0  0  0  0  0  0  0  0
  152.6627  141.4593  156.5697 H   0  0  0  0  0  0  0  0  0  0  0  0
  150.5157  139.9897  158.1436 H   0  0  0  0  0  0  0  0  0  0  0  0
  152.2370  139.9515  158.4546 H   0  0  0  0  0  0  0  0  0  0  0  0
  151.0322  141.5823  159.9439 H   0  0  0  0  0  0  0  0  0  0  0  0
  152.2563  142.3608  158.9699 H   0  0  0  0  0  0  0  0  0  0  0  0
  149.2466  142.3323  158.3774 H   0  0  0  0  0  0  0  0  0  0  0  0
  150.1837  143.7139  158.9133 H   0  0  0  0  0  0  0  0  0  0  0  0
  149.8337  143.7391  156.5636 H   0  0  0  0  0  0  0  0  0  0  0  0
  150.9115  142.2561  155.0463 H   0  0  0  0  0  0  0  0  0  0  0  0
  149.6693  141.4613  155.9952 H   0  0  0  0  0  0  0  0  0  0  0  0
  151.4360  143.6160  156.9040 H   0  0  0  0  0  0  0  0  0  0  0  0
  1 11  2  0  0  0  0
  1 13  1  0  0  0  0
  1  2  1  0  0  0  0
  2 12  1  0  0  0  0
  2  3  1  0  0  0  0
  3  4  2  0  0  0  0
  4 11  1  0  0  0  0
  4  5  1  0  0  0  0
  5 10  1  0  0  0  0
  5  6  1  0  0  0  0
  5 14  1  0  0  0  0
  6  7  1  0  0  0  0
  6 15  1  0  0  0  0
  6 16  1  0  0  0  0
  7  8  1  0  0  0  0
  7 17  1  0  0  0  0
  7 18  1  0  0  0  0
  8  9  1  0  0  0  0
  8 19  1  0  0  0  0
  8 20  1  0  0  0  0
  9 10  1  0  0  0  0
  9 21  1  0  0  0  0
  9 24  1  0  0  0  0
 10 22  1  0  0  0  0
 10 23  1  0  0  0  0
M  CHG  1   9   1
M  END
> <s_m_source_file>
AV-unprocessed.smi

> <i_m_source_file_index>
759

> <i_lp_mmshare_version>
43012

> <i_f3d_flags>
0

> <s_epik_input>
W25IXTFbY0hdbm5jMVtDQEBIXTJbQ0gyXVtDSDJdW0NIMl1bTkhdW0NIMl0y

> <s_epik_cmdline>
J2VwaWtfcHl0aG9uJywgJy1waCcsICc3LjAnLCAnLXRuJywgJzgnLCAnLW1hJywgJzIwMCcsICctbWV0YWxfYmluZGluZycsICctaW1hZScsICc8aW5maWxlLm1hZT4nLCAnLW9tYWUnLCAnPG91dGZpbGUubWFlPic=

> <r_lp_tautomer_probability>
0.948284

> <r_epik_Ionization_Penalty>
0.0050177

> <r_epik_Ionization_Penalty_Charging>
0.000345518

> <r_epik_Ionization_Penalty_Neutral>
0.00467218

> <r_epik_State_Penalty>
0.271452

> <r_epik_Charging_Adjusted_Penalty>
0.271797

> <i_epik_Tot_Q>
1

> <i_epik_Tot_abs_Q>
1

> <r_epik_Metal_State_Penalty>
0.537172

> <b_epik_Metal_Only>
0

> <s_lp_Force_Field>
OPLS_2005

> <r_lp_Energy>
9.69095

> <b_lp_Chiralities_Consistent>
1

> <s_lp_Variant>
AV-unprocessed.smi:759-1

> <Gold.Version>
5.8.1

> <Gold.Id.Protein>
6NUR|6NUR_protein|mol2

> <Gold.PLP.Fitness>
33.5260

> <Gold.PLP.PLP>
-19.1992

> <Gold.PLP.part.hbond>
-3.0000

> <Gold.PLP.part.metal>
0.0000

> <Gold.PLP.part.buried>
-5.2978

> <Gold.PLP.part.nonpolar>
-10.9363

> <Gold.PLP.part.repulsive>
0.6708

> <Gold.PLP.ligand.clash>
0.0000

> <Gold.PLP.ligand.torsion>
0.0447

> <Gold.PLP.Chemscore.Hbond>
4.0000

> <Gold.PLP.Chemscore.CHOScore>
0.7911

> <Gold.PLP.Chemscore.Metal>
0.0000

> <Gold.Chemscore.Hbonds>
donor molecule, donor type, donor heavy atom, donor atom, acceptor molecule, acceptor atom, score
      L1  H     9    21       P1  8028  2.00
      P1  H  7989  7998       L1    11  0.90
      P1  H  7997  8008       L1     3  0.83
      L1  C     1    13       P1  7949  0.78

> <Gold.PLP.Chemscore.Internal.Correction>
0.0427

> <Gold.Rescore>
     Score         DG    S(hbond)    S(metal)    S(lipo)     H(rot)  DE(clash)    DE(int)     intcor
     13.37     -13.71       2.25        0.00      28.02       1.00       0.17       0.17       ----

> <Gold.Chemscore.Fitness>
13.3668

> <Gold.Chemscore.DG>
-13.7121

> <Gold.Chemscore.ZeroCoef>
-5.4800

> <Gold.Chemscore.Hbond>
2.2498

> <Gold.Chemscore.Metal>
0.0000

> <Gold.Chemscore.Lipo>
28.0165

> <Gold.Chemscore.Internal_Hbond>
0.0000

> <Gold.Chemscore.DEClash>
0.1725

> <Gold.Chemscore.DEInternal>
0.1728

> <Gold.Chemscore.Rot>
1.0000

> <Gold.Chemscore.Internal.Correction>
   9.000000E+99

> <Gold.Chemscore.Hbonds>
donor molecule, donor type, donor heavy atom, donor atom, acceptor molecule, acceptor atom, score
      L1  H     9    21       P1  8028  0.99
      P1  H  7989  7998       L1    11  0.11
      P1  H  7997  8008       L1     3  0.18

> <Gold.Chemscore.Hbond.Weighted>
-7.5142

> <Gold.Chemscore.Metal.Weighted>
-0.0000

> <Gold.Chemscore.Lipo.Weighted>
-3.2779

> <Gold.Chemscore.Internal_Hbond.Weighted>
0.0000

> <Gold.Chemscore.DEClash.Weighted>
0.1725

> <Gold.Chemscore.DEInternal.Weighted>
0.1728

> <Gold.Chemscore.Rot.Weighted>
2.5600

> <Gold.Chemscore.Internal.Correction.Weighted>
   9.000000E+99

> <Gold.Protein.RotatedTorsions>
[ 6907 6896 6895 6894 ] final   42.15 input  -60.11 | X-H torsion
[ 7974 7965 7964 7962 ] final  -33.09 input  175.53 | X-H torsion
[ 8008 7997 7996 7995 ] final  -50.36 input   59.86 | X-H torsion
[ 10167 10162 10161 10158 ] final  -24.05 input  -65.29 | X-H torsion
[ 10718 10713 10712 10709 ] final  140.97 input   66.30 | X-H torsion
[ 10763 10752 10751 10750 ] final  -10.81 input  -60.55 | X-H torsion
[ 11005 11000 10999 10996 ] final -123.09 input  -57.11 | X-H torsion

> <Gold.Protein.ActiveResidues>
 VAL166  LYS551  ARG553  GLY616  TRP617  ASP618  TYR619  PRO620  LYS621  CYS622 
 ASP623  PHE694  ASN695  SER759  ASP760  ASP761  ALA762  ILE779  LEU786  VAL792 
 PHE793  MET794  SER795  GLU796  ALA797  LYS798  CYS799  TRP800  GLU811  SER814 

> <Gold.Protein.RotatedAtoms>
  152.2042  134.8560  160.0504 H   0  0  0  0  0  0  0  0  0  0  0  0  # atno 6907 bound_to 6896
  151.9402  133.3631  159.3970 H   0  0  0  0  0  0  0  0  0  0  0  0  # atno 6908 bound_to 6896
  150.6961  134.4371  159.5319 H   0  0  0  0  0  0  0  0  0  0  0  0  # atno 6909 bound_to 6896
  146.0938  140.5874  142.8852 H   0  0  0  0  0  0  0  0  0  0  0  0  # atno 7974 bound_to 7965
  154.4060  140.1274  156.4653 H   0  0  0  0  0  0  0  0  0  0  0  0  # atno 8008 bound_to 7997
  155.7233  140.3492  155.5006 H   0  0  0  0  0  0  0  0  0  0  0  0  # atno 8009 bound_to 7997
  155.9194  140.1050  157.1208 H   0  0  0  0  0  0  0  0  0  0  0  0  # atno 8010 bound_to 7997
  140.7288  143.4387  151.0689 H   0  0  0  0  0  0  0  0  0  0  0  0  # atno 10167 bound_to 10162
  157.3973  131.1012  151.0587 H   0  0  0  0  0  0  0  0  0  0  0  0  # atno 10718 bound_to 10713
  153.4746  135.7017  153.5973 H   0  0  0  0  0  0  0  0  0  0  0  0  # atno 10763 bound_to 10752
  153.4213  135.3825  155.2113 H   0  0  0  0  0  0  0  0  0  0  0  0  # atno 10764 bound_to 10752
  154.8724  135.3928  154.4188 H   0  0  0  0  0  0  0  0  0  0  0  0  # atno 10765 bound_to 10752
  140.9945  134.0491  157.3614 H   0  0  0  0  0  0  0  0  0  0  0  0  # atno 11005 bound_to 11000
  144.7380  140.4862  143.6890 LP  0  0  0  0  0  0  0  0  0  0  0  0  # atno 17320 bound_to 7965
  145.5988  139.1502  143.3141 LP  0  0  0  0  0  0  0  0  0  0  0  0  # atno 17321 bound_to 7965
  139.8052  143.8027  152.3166 LP  0  0  0  0  0  0  0  0  0  0  0  0  # atno 17342 bound_to 10162
  139.8058  144.7356  150.9763 LP  0  0  0  0  0  0  0  0  0  0  0  0  # atno 17343 bound_to 10162
  157.1598  130.6221  149.5607 LP  0  0  0  0  0  0  0  0  0  0  0  0  # atno 17370 bound_to 10713
  155.9814  130.4821  150.6824 LP  0  0  0  0  0  0  0  0  0  0  0  0  # atno 17371 bound_to 10713
  139.9008  135.0164  156.7259 LP  0  0  0  0  0  0  0  0  0  0  0  0  # atno 17394 bound_to 11000
  140.6987  133.9326  155.8011 LP  0  0  0  0  0  0  0  0  0  0  0  0  # atno 17395 bound_to 11000

$$$$
