AV-unprocessed.smi:2025|AV-procd|sdf|8200|dock2
  -GOLD-   2272010453D 1   1.00000     0.00000
 Structure written by MMmdl.
 39 40  0  0  0  0  0  0  0  0  1 V2000
  148.3724  141.3823  155.7319 C   0  0  0  0  0  0  0  0  0  0  0  0
  149.8405  141.4526  155.2840 C   0  0  1  0  0  0  0  0  0  0  0  0
  150.5207  142.4710  156.0813 N   0  0  0  0  0  0  0  0  0  0  0  0
  150.4134  142.6259  157.4102 C   0  0  0  0  0  0  0  0  0  0  0  0
  149.7087  141.9086  158.1219 O   0  0  0  0  0  0  0  0  0  0  0  0
  151.2094  143.7902  158.0152 C   0  0  0  0  0  0  0  0  0  0  0  0
  151.8835  143.4355  159.2710 N   0  0  0  0  0  0  0  0  0  0  0  0
  151.7526  144.2604  160.3735 C   0  0  0  0  0  0  0  0  0  0  0  0
  152.3218  143.9999  161.5705 C   0  0  0  0  0  0  0  0  0  0  0  0
  153.1313  142.8041  161.7679 C   0  0  0  0  0  0  0  0  0  0  0  0
  153.6569  142.5135  162.8434 O   0  0  0  0  0  0  0  0  0  0  0  0
  153.2614  141.9852  160.6223 N   0  0  0  0  0  0  0  0  0  0  0  0
  154.0430  140.7743  160.7667 C   0  0  0  0  0  0  0  0  0  0  0  0
  152.6474  142.2528  159.3766 C   0  0  0  0  0  0  0  0  0  0  0  0
  152.7566  141.4933  158.4110 O   0  0  0  0  0  0  0  0  0  0  0  0
  150.5658  140.0987  155.4331 C   0  0  1  0  0  0  0  0  0  0  0  0
  149.9827  138.9658  154.5900 C   0  0  0  0  0  0  0  0  0  0  0  0
  151.1381  137.9904  154.5386 C   0  0  0  0  0  0  0  0  0  0  0  0
  152.3591  138.9102  154.5221 C   0  0  0  0  0  0  0  0  0  0  0  0
  151.9063  140.1882  154.9620 O   0  0  0  0  0  0  0  0  0  0  0  0
  147.8028  140.6816  155.1211 H   0  0  0  0  0  0  0  0  0  0  0  0
  147.8884  142.3556  155.6425 H   0  0  0  0  0  0  0  0  0  0  0  0
  148.2886  141.0627  156.7711 H   0  0  0  0  0  0  0  0  0  0  0  0
  149.8499  141.7425  154.2318 H   0  0  0  0  0  0  0  0  0  0  0  0
  151.1163  143.1141  155.5803 H   0  0  0  0  0  0  0  0  0  0  0  0
  151.9364  144.1579  157.2887 H   0  0  0  0  0  0  0  0  0  0  0  0
  150.5208  144.6186  158.1864 H   0  0  0  0  0  0  0  0  0  0  0  0
  151.1579  145.1573  160.2776 H   0  0  0  0  0  0  0  0  0  0  0  0
  152.1740  144.6836  162.3935 H   0  0  0  0  0  0  0  0  0  0  0  0
  154.3491  140.3945  159.7918 H   0  0  0  0  0  0  0  0  0  0  0  0
  153.4145  140.0527  161.2905 H   0  0  0  0  0  0  0  0  0  0  0  0
  154.9423  141.0106  161.3383 H   0  0  0  0  0  0  0  0  0  0  0  0
  150.5923  139.7944  156.4812 H   0  0  0  0  0  0  0  0  0  0  0  0
  149.0818  138.5294  155.0224 H   0  0  0  0  0  0  0  0  0  0  0  0
  149.7460  139.3189  153.5851 H   0  0  0  0  0  0  0  0  0  0  0  0
  151.1460  137.3771  155.4407 H   0  0  0  0  0  0  0  0  0  0  0  0
  151.0952  137.3245  153.6762 H   0  0  0  0  0  0  0  0  0  0  0  0
  153.1506  138.5358  155.1722 H   0  0  0  0  0  0  0  0  0  0  0  0
  152.7660  139.0087  153.5153 H   0  0  0  0  0  0  0  0  0  0  0  0
  1  2  1  0  0  0  0
  1 21  1  0  0  0  0
  1 22  1  0  0  0  0
  1 23  1  0  0  0  0
  2  3  1  0  0  0  0
  2 16  1  0  0  0  0
  2 24  1  0  0  0  0
  3  4  1  0  0  0  0
  3 25  1  0  0  0  0
  4  5  2  0  0  0  0
  4  6  1  0  0  0  0
  6  7  1  0  0  0  0
  6 26  1  0  0  0  0
  6 27  1  0  0  0  0
  7 14  1  0  0  0  0
  7  8  1  0  0  0  0
  8  9  2  0  0  0  0
  8 28  1  0  0  0  0
  9 10  1  0  0  0  0
  9 29  1  0  0  0  0
 10 11  2  0  0  0  0
 10 12  1  0  0  0  0
 12 13  1  0  0  0  0
 12 14  1  0  0  0  0
 13 30  1  0  0  0  0
 13 31  1  0  0  0  0
 13 32  1  0  0  0  0
 14 15  2  0  0  0  0
 16 20  1  0  0  0  0
 16 17  1  0  0  0  0
 16 33  1  0  0  0  0
 17 18  1  0  0  0  0
 17 34  1  0  0  0  0
 17 35  1  0  0  0  0
 18 19  1  0  0  0  0
 18 36  1  0  0  0  0
 18 37  1  0  0  0  0
 19 20  1  0  0  0  0
 19 38  1  0  0  0  0
 19 39  1  0  0  0  0
M  END
> <s_m_source_file>
AV-unprocessed.smi

> <i_m_source_file_index>
2025

> <i_lp_mmshare_version>
43012

> <i_f3d_flags>
0

> <s_epik_input>
TzFbQ0gyXVtDSDJdW0NIMl1bQ0BIXTFbQ0BIXShbQ0gzXSlbTkhdQyg9TylbQ0gyXW4yW2NIXVtjSF1jKD1PKW4oW0NIM10pYzI9Tw==

> <s_epik_cmdline>
J2VwaWtfcHl0aG9uJywgJy1waCcsICc3LjAnLCAnLXRuJywgJzgnLCAnLW1hJywgJzIwMCcsICctbWV0YWxfYmluZGluZycsICctaW1hZScsICc8aW5maWxlLm1hZT4nLCAnLW9tYWUnLCAnPG91dGZpbGUubWFlPic=

> <r_lp_tautomer_probability>
1

> <r_epik_Ionization_Penalty>
3.54787e-08

> <r_epik_Ionization_Penalty_Charging>
1.24654e-08

> <r_epik_Ionization_Penalty_Neutral>
2.30132e-08

> <r_epik_State_Penalty>
-0

> <r_epik_Charging_Adjusted_Penalty>
1.24654e-08

> <i_epik_Tot_Q>
0

> <i_epik_Tot_abs_Q>
0

> <r_epik_Metal_State_Penalty>
-0

> <b_epik_Metal_Only>
0

> <s_lp_Force_Field>
OPLS_2005

> <r_lp_Energy>
25.8508

> <b_lp_Chiralities_Consistent>
1

> <s_lp_Variant>
AV-unprocessed.smi:2025-4

> <Gold.Version>
5.8.1

> <Gold.Id.Protein>
6NUR|6NUR_protein|mol2

> <Gold.PLP.Fitness>
49.9909

> <Gold.PLP.PLP>
-48.5141

> <Gold.PLP.part.hbond>
-2.0000

> <Gold.PLP.part.metal>
0.0000

> <Gold.PLP.part.buried>
-5.0214

> <Gold.PLP.part.nonpolar>
-41.7877

> <Gold.PLP.part.repulsive>
0.3138

> <Gold.PLP.ligand.clash>
0.0000

> <Gold.PLP.ligand.torsion>
0.5682

> <Gold.PLP.Chemscore.Hbond>
0.8640

> <Gold.PLP.Chemscore.CHOScore>
0.0000

> <Gold.PLP.Chemscore.Metal>
0.0000

> <Gold.Chemscore.Hbonds>
donor molecule, donor type, donor heavy atom, donor atom, acceptor molecule, acceptor atom, score
      P1  H  7989  7998       L1    20  0.79

> <Gold.PLP.Chemscore.Internal.Correction>
0.0213

> <Gold.Rescore>
     Score         DG    S(hbond)    S(metal)    S(lipo)     H(rot)  DE(clash)    DE(int)     intcor
      8.28     -11.62       0.35        0.00      82.35       1.82       0.03       3.31       ----

> <Gold.Chemscore.Fitness>
8.2789

> <Gold.Chemscore.DG>
-11.6161

> <Gold.Chemscore.ZeroCoef>
-5.4800

> <Gold.Chemscore.Hbond>
0.3494

> <Gold.Chemscore.Metal>
0.0000

> <Gold.Chemscore.Lipo>
82.3543

> <Gold.Chemscore.Internal_Hbond>
0.0000

> <Gold.Chemscore.DEClash>
0.0275

> <Gold.Chemscore.DEInternal>
3.3097

> <Gold.Chemscore.Rot>
1.8228

> <Gold.Chemscore.Internal.Correction>
   9.000000E+99

> <Gold.Chemscore.Hbonds>
donor molecule, donor type, donor heavy atom, donor atom, acceptor molecule, acceptor atom, score
      P1  H  7989  7998       L1    20  0.05

> <Gold.Chemscore.Hbond.Weighted>
-1.1671

> <Gold.Chemscore.Metal.Weighted>
-0.0000

> <Gold.Chemscore.Lipo.Weighted>
-9.6355

> <Gold.Chemscore.Internal_Hbond.Weighted>
0.0000

> <Gold.Chemscore.DEClash.Weighted>
0.0275

> <Gold.Chemscore.DEInternal.Weighted>
3.3097

> <Gold.Chemscore.Rot.Weighted>
4.6665

> <Gold.Chemscore.Internal.Correction.Weighted>
   9.000000E+99

> <Gold.Protein.RotatedTorsions>
[ 6907 6896 6895 6894 ] final   50.16 input  -60.11 | X-H torsion
[ 7974 7965 7964 7962 ] final -124.60 input  175.53 | X-H torsion
[ 8008 7997 7996 7995 ] final   26.55 input   59.86 | X-H torsion
[ 10167 10162 10161 10158 ] final -118.65 input  -65.29 | X-H torsion
[ 10718 10713 10712 10709 ] final -101.68 input   66.30 | X-H torsion
[ 10763 10752 10751 10750 ] final  114.57 input  -60.55 | X-H torsion
[ 11005 11000 10999 10996 ] final -121.11 input  -57.11 | X-H torsion

> <Gold.Protein.ActiveResidues>
 VAL166  LYS551  ARG553  GLY616  TRP617  ASP618  TYR619  PRO620  LYS621  CYS622 
 ASP623  PHE694  ASN695  SER759  ASP760  ASP761  ALA762  ILE779  LEU786  VAL792 
 PHE793  MET794  SER795  GLU796  ALA797  LYS798  CYS799  TRP800  GLU811  SER814 

> <Gold.Protein.RotatedAtoms>
  152.2988  134.7636  160.0362 H   0  0  0  0  0  0  0  0  0  0  0  0  # atno 6907 bound_to 6896
  151.8156  133.3382  159.3577 H   0  0  0  0  0  0  0  0  0  0  0  0  # atno 6908 bound_to 6896
  150.7264  134.5552  159.5859 H   0  0  0  0  0  0  0  0  0  0  0  0  # atno 6909 bound_to 6896
  145.0064  140.7866  143.4465 H   0  0  0  0  0  0  0  0  0  0  0  0  # atno 7974 bound_to 7965
  155.0290  140.3156  155.4765 H   0  0  0  0  0  0  0  0  0  0  0  0  # atno 8008 bound_to 7997
  156.2877  140.2183  156.5353 H   0  0  0  0  0  0  0  0  0  0  0  0  # atno 8009 bound_to 7997
  154.7386  140.0475  157.0779 H   0  0  0  0  0  0  0  0  0  0  0  0  # atno 8010 bound_to 7997
  140.0552  143.5021  152.2061 H   0  0  0  0  0  0  0  0  0  0  0  0  # atno 10167 bound_to 10162
  156.0203  130.5385  150.6999 H   0  0  0  0  0  0  0  0  0  0  0  0  # atno 10718 bound_to 10713
  153.5092  135.3621  155.2578 H   0  0  0  0  0  0  0  0  0  0  0  0  # atno 10763 bound_to 10752
  154.8743  135.4018  154.3388 H   0  0  0  0  0  0  0  0  0  0  0  0  # atno 10764 bound_to 10752
  153.4038  135.7076  153.6474 H   0  0  0  0  0  0  0  0  0  0  0  0  # atno 10765 bound_to 10752
  141.0094  134.0287  157.3434 H   0  0  0  0  0  0  0  0  0  0  0  0  # atno 11005 bound_to 11000
  145.2083  139.2217  143.5156 LP  0  0  0  0  0  0  0  0  0  0  0  0  # atno 17320 bound_to 7965
  146.3462  140.1916  142.8589 LP  0  0  0  0  0  0  0  0  0  0  0  0  # atno 17321 bound_to 7965
  139.5928  144.7556  151.3359 LP  0  0  0  0  0  0  0  0  0  0  0  0  # atno 17342 bound_to 10162
  140.7198  143.7167  150.7727 LP  0  0  0  0  0  0  0  0  0  0  0  0  # atno 17343 bound_to 10162
  157.4661  131.0888  151.0693 LP  0  0  0  0  0  0  0  0  0  0  0  0  # atno 17370 bound_to 10713
  157.1166  130.6044  149.5495 LP  0  0  0  0  0  0  0  0  0  0  0  0  # atno 17371 bound_to 10713
  139.9081  135.0184  156.7575 LP  0  0  0  0  0  0  0  0  0  0  0  0  # atno 17394 bound_to 11000
  140.6759  133.9518  155.7882 LP  0  0  0  0  0  0  0  0  0  0  0  0  # atno 17395 bound_to 11000

$$$$
