AV-unprocessed.smi:65|AV-procd|sdf|613|dock4
  -GOLD-   2262016503D 1   1.00000     0.00000
 Structure written by MMmdl.
 25 26  0  0  0  0  0  0  0  0  1 V2000
  153.0750  138.7382  154.8888 N   0  0  0  0  0  0  0  0  0  0  0  0
  152.1972  139.5849  155.5203 C   0  0  0  0  0  0  0  0  0  0  0  0
  151.0928  139.9102  154.8474 N   0  0  0  0  0  0  0  0  0  0  0  0
  150.2320  140.7441  155.4689 C   0  0  0  0  0  0  0  0  0  0  0  0
  150.4832  141.2449  156.7625 C   0  0  0  0  0  0  0  0  0  0  0  0
  151.6846  140.8294  157.3849 C   0  0  0  0  0  0  0  0  0  0  0  0
  152.0381  141.2747  158.6732 N   0  0  0  0  0  0  0  0  0  0  0  0
  153.3407  140.9706  159.2517 C   0  0  0  0  0  0  0  0  0  0  0  0
  153.6368  142.1153  160.2287 C   0  0  0  0  0  0  0  0  0  0  0  0
  152.2550  142.6921  160.5398 C   0  0  1  0  0  0  0  0  0  0  0  0
  152.3109  144.0426  160.9474 O   0  0  0  0  0  0  0  0  0  0  0  0
  151.5087  142.5148  159.2186 C   0  0  0  0  0  0  0  0  0  0  0  0
  152.5393  139.9960  156.7428 N   0  0  0  0  0  0  0  0  0  0  0  0
  153.9296  138.4547  155.3457 H   0  0  0  0  0  0  0  0  0  0  0  0
  152.8846  138.4103  153.9531 H   0  0  0  0  0  0  0  0  0  0  0  0
  149.3366  141.0163  154.9300 H   0  0  0  0  0  0  0  0  0  0  0  0
  149.7845  141.9176  157.2370 H   0  0  0  0  0  0  0  0  0  0  0  0
  153.2775  140.0182  159.7790 H   0  0  0  0  0  0  0  0  0  0  0  0
  154.1225  140.8936  158.4954 H   0  0  0  0  0  0  0  0  0  0  0  0
  154.1740  141.7869  161.1190 H   0  0  0  0  0  0  0  0  0  0  0  0
  154.2488  142.8658  159.7259 H   0  0  0  0  0  0  0  0  0  0  0  0
  151.7754  142.0960  161.3177 H   0  0  0  0  0  0  0  0  0  0  0  0
  152.1568  144.5903  160.1929 H   0  0  0  0  0  0  0  0  0  0  0  0
  151.7301  143.3324  158.5308 H   0  0  0  0  0  0  0  0  0  0  0  0
  150.4290  142.4670  159.3654 H   0  0  0  0  0  0  0  0  0  0  0  0
  1  2  1  0  0  0  0
  1 14  1  0  0  0  0
  1 15  1  0  0  0  0
  2 13  1  0  0  0  0
  2  3  2  0  0  0  0
  3  4  1  0  0  0  0
  4  5  2  0  0  0  0
  4 16  1  0  0  0  0
  5  6  1  0  0  0  0
  5 17  1  0  0  0  0
  6  7  1  0  0  0  0
  6 13  2  0  0  0  0
  7 12  1  0  0  0  0
  7  8  1  0  0  0  0
  8  9  1  0  0  0  0
  8 18  1  0  0  0  0
  8 19  1  0  0  0  0
  9 10  1  0  0  0  0
  9 20  1  0  0  0  0
  9 21  1  0  0  0  0
 10 11  1  0  0  0  0
 10 12  1  0  0  0  0
 10 22  1  0  0  0  0
 11 23  1  0  0  0  0
 12 24  1  0  0  0  0
 12 25  1  0  0  0  0
M  END
> <s_m_source_file>
AV-unprocessed.smi

> <i_m_source_file_index>
65

> <i_lp_mmshare_version>
43012

> <i_f3d_flags>
0

> <s_epik_input>
W05IMl1jMW5bY0hdW2NIXWMobjEpTjJbQ0gyXVtDSDJdW0NAQEhdKFtPSF0pW0NIMl0y

> <s_epik_cmdline>
J2VwaWtfcHl0aG9uJywgJy1waCcsICc3LjAnLCAnLXRuJywgJzgnLCAnLW1hJywgJzIwMCcsICctbWV0YWxfYmluZGluZycsICctaW1hZScsICc8aW5maWxlLm1hZT4nLCAnLW9tYWUnLCAnPG91dGZpbGUubWFlPic=

> <r_lp_tautomer_probability>
1

> <r_epik_Ionization_Penalty>
0.99295

> <r_epik_Ionization_Penalty_Charging>
0

> <r_epik_Ionization_Penalty_Neutral>
0.99295

> <r_epik_State_Penalty>
0.750885

> <r_epik_Charging_Adjusted_Penalty>
0.750885

> <i_epik_Tot_Q>
0

> <i_epik_Tot_abs_Q>
0

> <r_epik_Metal_State_Penalty>
0.338511

> <b_epik_Metal_Only>
0

> <s_lp_Force_Field>
OPLS_2005

> <r_lp_Energy>
17.7727

> <b_lp_Chiralities_Consistent>
1

> <s_lp_Variant>
AV-unprocessed.smi:65-3

> <Gold.Version>
5.8.1

> <Gold.Id.Protein>
6NUR|6NUR_protein|mol2

> <Gold.PLP.Fitness>
33.0459

> <Gold.PLP.PLP>
-27.1029

> <Gold.PLP.part.hbond>
-2.0000

> <Gold.PLP.part.metal>
0.0000

> <Gold.PLP.part.buried>
-3.8111

> <Gold.PLP.part.nonpolar>
-21.4510

> <Gold.PLP.part.repulsive>
0.2969

> <Gold.PLP.ligand.clash>
0.0000

> <Gold.PLP.ligand.torsion>
0.1334

> <Gold.PLP.Chemscore.Hbond>
2.0000

> <Gold.PLP.Chemscore.CHOScore>
0.0000

> <Gold.PLP.Chemscore.Metal>
0.0000

> <Gold.Chemscore.Hbonds>
donor molecule, donor type, donor heavy atom, donor atom, acceptor molecule, acceptor atom, score
      P1  H  7989  7998       L1     3  1.00
      P1  H  7997  8008       L1    13  1.00

> <Gold.PLP.Chemscore.Internal.Correction>
0.2099

> <Gold.Rescore>
     Score         DG    S(hbond)    S(metal)    S(lipo)     H(rot)  DE(clash)    DE(int)     intcor
     11.70     -11.88       0.85        0.00      52.28       1.00       0.00       0.18       ----

> <Gold.Chemscore.Fitness>
11.6983

> <Gold.Chemscore.DG>
-11.8799

> <Gold.Chemscore.ZeroCoef>
-5.4800

> <Gold.Chemscore.Hbond>
0.8511

> <Gold.Chemscore.Metal>
0.0000

> <Gold.Chemscore.Lipo>
52.2849

> <Gold.Chemscore.Internal_Hbond>
0.0000

> <Gold.Chemscore.DEClash>
0.0038

> <Gold.Chemscore.DEInternal>
0.1777

> <Gold.Chemscore.Rot>
1.0000

> <Gold.Chemscore.Internal.Correction>
   9.000000E+99

> <Gold.Chemscore.Hbonds>
donor molecule, donor type, donor heavy atom, donor atom, acceptor molecule, acceptor atom, score
      P1  H  7989  7998       L1     3  0.20
      P1  H  7997  8008       L1    13  0.30

> <Gold.Chemscore.Hbond.Weighted>
-2.8425

> <Gold.Chemscore.Metal.Weighted>
-0.0000

> <Gold.Chemscore.Lipo.Weighted>
-6.1173

> <Gold.Chemscore.Internal_Hbond.Weighted>
0.0000

> <Gold.Chemscore.DEClash.Weighted>
0.0038

> <Gold.Chemscore.DEInternal.Weighted>
0.1777

> <Gold.Chemscore.Rot.Weighted>
2.5600

> <Gold.Chemscore.Internal.Correction.Weighted>
   9.000000E+99

> <Gold.Protein.RotatedTorsions>
[ 6907 6896 6895 6894 ] final   15.97 input  -60.11 | X-H torsion
[ 7974 7965 7964 7962 ] final   15.22 input  175.53 | X-H torsion
[ 8008 7997 7996 7995 ] final  -57.31 input   59.86 | X-H torsion
[ 10167 10162 10161 10158 ] final  130.69 input  -65.29 | X-H torsion
[ 10718 10713 10712 10709 ] final  148.16 input   66.30 | X-H torsion
[ 10763 10752 10751 10750 ] final  -68.96 input  -60.55 | X-H torsion
[ 11005 11000 10999 10996 ] final  142.72 input  -57.11 | X-H torsion

> <Gold.Protein.ActiveResidues>
 VAL166  LYS551  ARG553  GLY616  TRP617  ASP618  TYR619  PRO620  LYS621  CYS622 
 ASP623  PHE694  ASN695  SER759  ASP760  ASP761  ALA762  ILE779  LEU786  VAL792 
 PHE793  MET794  SER795  GLU796  ALA797  LYS798  CYS799  TRP800  GLU811  SER814 

> <Gold.Protein.RotatedAtoms>
  151.8265  135.0635  160.0431 H   0  0  0  0  0  0  0  0  0  0  0  0  # atno 6907 bound_to 6896
  152.2912  133.5559  159.5567 H   0  0  0  0  0  0  0  0  0  0  0  0  # atno 6908 bound_to 6896
  150.7231  134.0341  159.3785 H   0  0  0  0  0  0  0  0  0  0  0  0  # atno 6909 bound_to 6896
  146.2284  139.8926  142.8552 H   0  0  0  0  0  0  0  0  0  0  0  0  # atno 7974 bound_to 7965
  154.4263  140.1110  156.5777 H   0  0  0  0  0  0  0  0  0  0  0  0  # atno 8008 bound_to 7997
  155.6145  140.3494  155.4614 H   0  0  0  0  0  0  0  0  0  0  0  0  # atno 8009 bound_to 7997
  156.0073  140.1211  157.0478 H   0  0  0  0  0  0  0  0  0  0  0  0  # atno 8010 bound_to 7997
  139.5418  144.6738  151.4599 H   0  0  0  0  0  0  0  0  0  0  0  0  # atno 10167 bound_to 10162
  157.3120  131.0889  151.1309 H   0  0  0  0  0  0  0  0  0  0  0  0  # atno 10718 bound_to 10713
  154.3966  135.6040  153.5873 H   0  0  0  0  0  0  0  0  0  0  0  0  # atno 10763 bound_to 10752
  152.9788  135.5896  154.4235 H   0  0  0  0  0  0  0  0  0  0  0  0  # atno 10764 bound_to 10752
  154.4027  135.2843  155.2065 H   0  0  0  0  0  0  0  0  0  0  0  0  # atno 10765 bound_to 10752
  140.0499  134.9261  157.0997 H   0  0  0  0  0  0  0  0  0  0  0  0  # atno 11005 bound_to 11000
  145.2402  141.0006  143.3940 LP  0  0  0  0  0  0  0  0  0  0  0  0  # atno 17320 bound_to 7965
  144.9458  139.4138  143.6426 LP  0  0  0  0  0  0  0  0  0  0  0  0  # atno 17321 bound_to 7965
  140.6651  143.8415  150.6933 LP  0  0  0  0  0  0  0  0  0  0  0  0  # atno 17342 bound_to 10162
  140.1821  143.4106  152.1925 LP  0  0  0  0  0  0  0  0  0  0  0  0  # atno 17343 bound_to 10162
  157.2627  130.6666  149.5982 LP  0  0  0  0  0  0  0  0  0  0  0  0  # atno 17370 bound_to 10713
  155.9678  130.4503  150.5694 LP  0  0  0  0  0  0  0  0  0  0  0  0  # atno 17371 bound_to 10713
  140.3934  134.2160  155.7165 LP  0  0  0  0  0  0  0  0  0  0  0  0  # atno 17394 bound_to 11000
  141.1925  133.8171  157.0837 LP  0  0  0  0  0  0  0  0  0  0  0  0  # atno 17395 bound_to 11000

$$$$
