AV-unprocessed.smi:259|AV-procd|sdf|1974|dock3
  -GOLD-   2262021143D 1   1.00000     0.00000
 Structure written by MMmdl.
 54 57  0  0  0  0  0  0  0  0  1 V2000
  150.9431  138.4104  153.8531 C   0  0  0  0  0  0  0  0  0  0  0  0
  150.6626  139.6671  154.5304 N   0  0  0  0  0  0  0  0  0  0  0  0
  151.5924  140.4249  155.1297 C   0  0  0  0  0  0  0  0  0  0  0  0
  152.7853  140.1213  155.1587 O   0  0  0  0  0  0  0  0  0  0  0  0
  151.0962  141.7265  155.7819 C   0  0  0  0  0  0  0  0  0  0  0  0
  151.2580  141.8261  157.3244 C   0  0  2  0  0  0  0  0  0  0  0  0
  150.1174  141.2318  157.9214 O   0  0  0  0  0  0  0  0  0  0  0  0
  151.4161  143.2900  157.8108 C   0  0  0  0  0  0  0  0  0  0  0  0
  151.7823  143.3725  159.3007 C   0  0  0  0  0  0  0  0  0  0  0  0
  153.0188  142.5207  159.6123 C   0  0  0  0  0  0  0  0  0  0  0  0
  152.8078  141.1441  159.1708 N   0  0  0  0  0  0  0  0  0  0  0  0
  153.6028  140.1762  159.6928 C   0  0  0  0  0  0  0  0  0  0  0  0
  154.1511  139.2362  158.8767 N   0  0  0  0  0  0  0  0  0  0  0  0
  154.9229  138.2699  159.3827 C   0  0  0  0  0  0  0  0  0  0  0  0
  155.2726  138.0603  160.6532 N   0  0  0  0  0  0  0  0  0  0  0  0
  154.7343  139.0051  161.4763 C   0  0  0  0  0  0  0  0  0  0  0  0
  153.8979  140.0876  161.0829 C   0  0  0  0  0  0  0  0  0  0  0  0
  153.5556  140.8468  162.1957 N   0  0  0  0  0  0  0  0  0  0  0  0
  154.1443  140.2412  163.1901 C   0  0  0  0  0  0  0  0  0  0  0  0
  154.8803  139.1295  162.8477 N   0  0  0  0  0  0  0  0  0  0  0  0
  155.6319  138.2690  163.7488 C   0  0  0  0  0  0  0  0  0  0  0  0
  154.7695  137.5903  164.8293 C   0  0  0  0  0  0  0  0  0  0  0  0
  153.6663  136.7668  164.1342 C   0  0  0  0  0  0  0  0  0  0  0  0
  152.5743  136.4932  164.9895 O   0  0  0  0  0  0  0  0  0  0  0  0
  155.5315  136.8794  165.9572 C   0  0  0  0  0  0  0  0  0  0  0  0
  154.8501  137.6398  166.9791 O   0  0  0  0  0  0  0  0  0  0  0  0
  154.3135  138.5177  165.9649 C   0  0  0  0  0  0  0  0  0  0  0  0
  152.4755  140.9734  157.7553 C   0  0  0  0  0  0  0  0  0  0  0  0
  150.0205  137.9895  153.4538 H   0  0  0  0  0  0  0  0  0  0  0  0
  151.3782  137.6860  154.5428 H   0  0  0  0  0  0  0  0  0  0  0  0
  151.6355  138.5626  153.0243 H   0  0  0  0  0  0  0  0  0  0  0  0
  149.7032  139.9823  154.5417 H   0  0  0  0  0  0  0  0  0  0  0  0
  151.6125  142.5583  155.3007 H   0  0  0  0  0  0  0  0  0  0  0  0
  150.0410  141.8507  155.5330 H   0  0  0  0  0  0  0  0  0  0  0  0
  149.8176  140.5312  157.3615 H   0  0  0  0  0  0  0  0  0  0  0  0
  152.2013  143.7770  157.2311 H   0  0  0  0  0  0  0  0  0  0  0  0
  150.5056  143.8629  157.6329 H   0  0  0  0  0  0  0  0  0  0  0  0
  151.9631  144.4094  159.5843 H   0  0  0  0  0  0  0  0  0  0  0  0
  150.9415  143.0295  159.9050 H   0  0  0  0  0  0  0  0  0  0  0  0
  153.8964  142.9320  159.1113 H   0  0  0  0  0  0  0  0  0  0  0  0
  153.2142  142.5486  160.6852 H   0  0  0  0  0  0  0  0  0  0  0  0
  155.3159  137.5631  158.6668 H   0  0  0  0  0  0  0  0  0  0  0  0
  154.0560  140.5945  164.2069 H   0  0  0  0  0  0  0  0  0  0  0  0
  156.1393  137.5203  163.1394 H   0  0  0  0  0  0  0  0  0  0  0  0
  156.4257  138.8587  164.2088 H   0  0  0  0  0  0  0  0  0  0  0  0
  153.2854  137.2916  163.2576 H   0  0  0  0  0  0  0  0  0  0  0  0
  154.0502  135.8072  163.7875 H   0  0  0  0  0  0  0  0  0  0  0  0
  152.8296  135.8144  165.5958 H   0  0  0  0  0  0  0  0  0  0  0  0
  155.3321  135.8094  166.0269 H   0  0  0  0  0  0  0  0  0  0  0  0
  156.6042  137.0746  165.9638 H   0  0  0  0  0  0  0  0  0  0  0  0
  154.8102  139.4892  165.9704 H   0  0  0  0  0  0  0  0  0  0  0  0
  153.2326  138.6392  166.0429 H   0  0  0  0  0  0  0  0  0  0  0  0
  152.2983  139.9279  157.5054 H   0  0  0  0  0  0  0  0  0  0  0  0
  153.3518  141.2756  157.1801 H   0  0  0  0  0  0  0  0  0  0  0  0
  1  2  1  0  0  0  0
  1 29  1  0  0  0  0
  1 30  1  0  0  0  0
  1 31  1  0  0  0  0
  2  3  1  0  0  0  0
  2 32  1  0  0  0  0
  3  4  2  0  0  0  0
  3  5  1  0  0  0  0
  5  6  1  0  0  0  0
  5 33  1  0  0  0  0
  5 34  1  0  0  0  0
  6 28  1  0  0  0  0
  6  7  1  0  0  0  0
  6  8  1  0  0  0  0
  7 35  1  0  0  0  0
  8  9  1  0  0  0  0
  8 36  1  0  0  0  0
  8 37  1  0  0  0  0
  9 10  1  0  0  0  0
  9 38  1  0  0  0  0
  9 39  1  0  0  0  0
 10 11  1  0  0  0  0
 10 40  1  0  0  0  0
 10 41  1  0  0  0  0
 11 12  1  0  0  0  0
 11 28  1  0  0  0  0
 12 17  1  0  0  0  0
 12 13  2  0  0  0  0
 13 14  1  0  0  0  0
 14 15  2  0  0  0  0
 14 42  1  0  0  0  0
 15 16  1  0  0  0  0
 16 20  1  0  0  0  0
 16 17  2  0  0  0  0
 17 18  1  0  0  0  0
 18 19  2  0  0  0  0
 19 20  1  0  0  0  0
 19 43  1  0  0  0  0
 20 21  1  0  0  0  0
 21 22  1  0  0  0  0
 21 44  1  0  0  0  0
 21 45  1  0  0  0  0
 22 27  1  0  0  0  0
 22 23  1  0  0  0  0
 22 25  1  0  0  0  0
 23 24  1  0  0  0  0
 23 46  1  0  0  0  0
 23 47  1  0  0  0  0
 24 48  1  0  0  0  0
 25 26  1  0  0  0  0
 25 49  1  0  0  0  0
 25 50  1  0  0  0  0
 26 27  1  0  0  0  0
 27 51  1  0  0  0  0
 27 52  1  0  0  0  0
 28 53  1  0  0  0  0
 28 54  1  0  0  0  0
M  END
> <s_m_source_file>
AV-unprocessed.smi

> <i_m_source_file_index>
259

> <i_lp_mmshare_version>
43012

> <i_f3d_flags>
0

> <s_epik_input>
W0NIM11bTkhdQyg9TylbQ0gyXVtDQEBdMShbT0hdKVtDSDJdW0NIMl1bQ0gyXU4oW0NIMl0xKWMobltjSF1uMiljKGMyMyluW2NIXW4zW0NIMl1DNChbQ0gyXVtPSF0pW0NIMl1PW0NIMl00

> <s_epik_cmdline>
J2VwaWtfcHl0aG9uJywgJy1waCcsICc3LjAnLCAnLXRuJywgJzgnLCAnLW1hJywgJzIwMCcsICctbWV0YWxfYmluZGluZycsICctaW1hZScsICc8aW5maWxlLm1hZT4nLCAnLW9tYWUnLCAnPG91dGZpbGUubWFlPic=

> <r_lp_tautomer_probability>
1

> <r_epik_Ionization_Penalty>
0.00366363

> <r_epik_Ionization_Penalty_Charging>
0

> <r_epik_Ionization_Penalty_Neutral>
0.00366363

> <r_epik_State_Penalty>
0.00243014

> <r_epik_Charging_Adjusted_Penalty>
0.00243014

> <i_epik_Tot_Q>
0

> <i_epik_Tot_abs_Q>
0

> <r_epik_Metal_State_Penalty>
-0

> <b_epik_Metal_Only>
0

> <s_lp_Force_Field>
OPLS_2005

> <r_lp_Energy>
39.9433

> <b_lp_Chiralities_Consistent>
1

> <s_lp_Variant>
AV-unprocessed.smi:259-2

> <Gold.Version>
5.8.1

> <Gold.Id.Protein>
6NUR|6NUR_protein|mol2

> <Gold.PLP.Fitness>
49.6785

> <Gold.PLP.PLP>
-45.1382

> <Gold.PLP.part.hbond>
-6.9212

> <Gold.PLP.part.metal>
0.0000

> <Gold.PLP.part.buried>
-2.8438

> <Gold.PLP.part.nonpolar>
-34.1527

> <Gold.PLP.part.repulsive>
0.1589

> <Gold.PLP.ligand.clash>
0.0000

> <Gold.PLP.ligand.torsion>
1.1761

> <Gold.PLP.Chemscore.Hbond>
2.0000

> <Gold.PLP.Chemscore.CHOScore>
0.0000

> <Gold.PLP.Chemscore.Metal>
0.0000

> <Gold.Chemscore.Hbonds>
donor molecule, donor type, donor heavy atom, donor atom, acceptor molecule, acceptor atom, score
      P1  H  6924  6935       L1    24  0.51
      P1  H  7997  8008       L1    13  0.92
      P1  H  7997  8009       L1     4  1.00

> <Gold.PLP.Chemscore.Internal.Correction>
0.8924

> <Gold.Rescore>
     Score         DG    S(hbond)    S(metal)    S(lipo)     H(rot)  DE(clash)    DE(int)     intcor
      4.87      -7.99       1.01        0.00      82.17       4.09       0.28       2.85       ----

> <Gold.Chemscore.Fitness>
4.8722

> <Gold.Chemscore.DG>
-7.9937

> <Gold.Chemscore.ZeroCoef>
-5.4800

> <Gold.Chemscore.Hbond>
1.0093

> <Gold.Chemscore.Metal>
0.0000

> <Gold.Chemscore.Lipo>
82.1749

> <Gold.Chemscore.Internal_Hbond>
0.0000

> <Gold.Chemscore.DEClash>
0.2759

> <Gold.Chemscore.DEInternal>
2.8456

> <Gold.Chemscore.Rot>
4.0906

> <Gold.Chemscore.Internal.Correction>
   9.000000E+99

> <Gold.Chemscore.Hbonds>
donor molecule, donor type, donor heavy atom, donor atom, acceptor molecule, acceptor atom, score
      P1  H  6924  6935       L1    24  0.15
      P1  H  7997  8008       L1    13  0.33
      P1  H  7997  8009       L1     4  1.00

> <Gold.Chemscore.Hbond.Weighted>
-3.3712

> <Gold.Chemscore.Metal.Weighted>
-0.0000

> <Gold.Chemscore.Lipo.Weighted>
-9.6145

> <Gold.Chemscore.Internal_Hbond.Weighted>
0.0000

> <Gold.Chemscore.DEClash.Weighted>
0.2759

> <Gold.Chemscore.DEInternal.Weighted>
2.8456

> <Gold.Chemscore.Rot.Weighted>
10.4719

> <Gold.Chemscore.Internal.Correction.Weighted>
   9.000000E+99

> <Gold.Protein.RotatedTorsions>
[ 6907 6896 6895 6894 ] final   45.97 input  -60.11 | X-H torsion
[ 7974 7965 7964 7962 ] final  -21.89 input  175.53 | X-H torsion
[ 8008 7997 7996 7995 ] final -131.22 input   59.86 | X-H torsion
[ 10167 10162 10161 10158 ] final   88.97 input  -65.29 | X-H torsion
[ 10718 10713 10712 10709 ] final   26.07 input   66.30 | X-H torsion
[ 10763 10752 10751 10750 ] final  -54.88 input  -60.55 | X-H torsion
[ 11005 11000 10999 10996 ] final   -8.19 input  -57.11 | X-H torsion

> <Gold.Protein.ActiveResidues>
 VAL166  LYS551  ARG553  GLY616  TRP617  ASP618  TYR619  PRO620  LYS621  CYS622 
 ASP623  PHE694  ASN695  SER759  ASP760  ASP761  ALA762  ILE779  LEU786  VAL792 
 PHE793  MET794  SER795  GLU796  ALA797  LYS798  CYS799  TRP800  GLU811  SER814 

> <Gold.Protein.RotatedAtoms>
  152.2509  134.8134  160.0445 H   0  0  0  0  0  0  0  0  0  0  0  0  # atno 6907 bound_to 6896
  151.8814  133.3491  159.3776 H   0  0  0  0  0  0  0  0  0  0  0  0  # atno 6908 bound_to 6896
  150.7083  134.4941  159.5574 H   0  0  0  0  0  0  0  0  0  0  0  0  # atno 6909 bound_to 6896
  146.1707  140.4404  142.8533 H   0  0  0  0  0  0  0  0  0  0  0  0  # atno 7974 bound_to 7965
  155.3087  140.0456  157.3033 H   0  0  0  0  0  0  0  0  0  0  0  0  # atno 8008 bound_to 7997
  154.5445  140.2298  155.8552 H   0  0  0  0  0  0  0  0  0  0  0  0  # atno 8009 bound_to 7997
  156.1911  140.3050  155.9342 H   0  0  0  0  0  0  0  0  0  0  0  0  # atno 8010 bound_to 7997
  139.8619  144.6539  150.9048 H   0  0  0  0  0  0  0  0  0  0  0  0  # atno 10167 bound_to 10162
  157.2019  130.6894  149.6192 H   0  0  0  0  0  0  0  0  0  0  0  0  # atno 10718 bound_to 10713
  154.1820  135.6442  153.5036 H   0  0  0  0  0  0  0  0  0  0  0  0  # atno 10763 bound_to 10752
  153.0057  135.5408  154.6505 H   0  0  0  0  0  0  0  0  0  0  0  0  # atno 10764 bound_to 10752
  154.5871  135.2930  155.0646 H   0  0  0  0  0  0  0  0  0  0  0  0  # atno 10765 bound_to 10752
  140.7209  133.8830  155.8820 H   0  0  0  0  0  0  0  0  0  0  0  0  # atno 11005 bound_to 11000
  144.8159  140.6466  143.6385 LP  0  0  0  0  0  0  0  0  0  0  0  0  # atno 17320 bound_to 7965
  145.4348  139.1544  143.4002 LP  0  0  0  0  0  0  0  0  0  0  0  0  # atno 17321 bound_to 7965
  140.7774  143.3737  151.1602 LP  0  0  0  0  0  0  0  0  0  0  0  0  # atno 17342 bound_to 10162
  139.7365  143.8990  152.3036 LP  0  0  0  0  0  0  0  0  0  0  0  0  # atno 17343 bound_to 10162
  155.9699  130.4580  150.5982 LP  0  0  0  0  0  0  0  0  0  0  0  0  # atno 17370 bound_to 10713
  157.3759  131.0773  151.1518 LP  0  0  0  0  0  0  0  0  0  0  0  0  # atno 17371 bound_to 10713
  141.0004  134.1157  157.4322 LP  0  0  0  0  0  0  0  0  0  0  0  0  # atno 17394 bound_to 11000
  139.8848  135.0067  156.6396 LP  0  0  0  0  0  0  0  0  0  0  0  0  # atno 17395 bound_to 11000

$$$$
