AV-unprocessed.smi:828|AV-procd|sdf|3863|dock2
  -GOLD-   22720 1313D 1   1.00000     0.00000
 Structure written by MMmdl.
 34 35  0  0  0  0  0  0  0  0  3 V2000
  151.7376  140.4819  159.0466 C   0  0  0  0  0  0  0  0  0  0  0  0
  151.9419  139.5274  157.9206 C   0  0  0  0  0  0  0  0  0  0  0  0
  152.8418  139.7318  156.9558 N   0  0  0  0  0  0  0  0  0  0  0  0
  152.8495  138.7057  156.0221 N   0  0  0  0  0  0  0  0  0  0  0  0
  151.9527  137.7456  156.2883 C   0  0  0  0  0  0  0  0  0  0  0  0
  151.8050  136.6624  155.5076 N   0  5  0  0  0  0  0  0  0  0  0  0
  151.0343  135.6321  155.9203 C   0  0  0  0  0  0  0  0  0  0  0  0
  150.7137  135.3761  157.0829 O   0  0  0  0  0  0  0  0  0  0  0  0
  150.6211  134.8399  154.9219 N   0  0  0  0  0  0  0  0  0  0  0  0
  149.8275  133.6219  155.0624 C   0  0  0  0  0  0  0  0  0  0  0  0
  149.0090  133.2991  153.7905 C   0  0  1  0  0  0  0  0  0  0  0  0
  148.3621  131.9150  153.7715 C   0  0  0  0  0  0  0  0  0  0  0  0
  147.2886  132.0271  152.6846 C   0  0  0  0  0  0  0  0  0  0  0  0
  147.0901  133.5345  152.4486 C   0  0  0  0  0  0  0  0  0  0  0  0
  147.9113  134.2411  153.4575 N   0  3  1  0  0  0  0  0  0  0  0  0
  147.0970  134.7120  154.6058 C   0  0  0  0  0  0  0  0  0  0  0  0
  151.0243  138.0391  157.7589 S   0  0  0  0  0  0  0  0  0  0  0  0
  151.6723  141.5023  158.6682 H   0  0  0  0  0  0  0  0  0  0  0  0
  152.5720  140.4176  159.7451 H   0  0  0  0  0  0  0  0  0  0  0  0
  150.8157  140.2482  159.5790 H   0  0  0  0  0  0  0  0  0  0  0  0
  150.8923  135.1024  153.9854 H   0  0  0  0  0  0  0  0  0  0  0  0
  150.4840  132.7855  155.3073 H   0  0  0  0  0  0  0  0  0  0  0  0
  149.1673  133.7457  155.9211 H   0  0  0  0  0  0  0  0  0  0  0  0
  149.6904  133.3362  152.9388 H   0  0  0  0  0  0  0  0  0  0  0  0
  149.0816  131.1206  153.5707 H   0  0  0  0  0  0  0  0  0  0  0  0
  147.8937  131.7039  154.7337 H   0  0  0  0  0  0  0  0  0  0  0  0
  147.6140  131.5411  151.7641 H   0  0  0  0  0  0  0  0  0  0  0  0
  146.3636  131.5444  153.0013 H   0  0  0  0  0  0  0  0  0  0  0  0
  147.4684  133.8003  151.4606 H   0  0  0  0  0  0  0  0  0  0  0  0
  146.0387  133.8245  152.4774 H   0  0  0  0  0  0  0  0  0  0  0  0
  146.6537  133.8764  155.1482 H   0  0  0  0  0  0  0  0  0  0  0  0
  146.2886  135.3552  154.2567 H   0  0  0  0  0  0  0  0  0  0  0  0
  147.6870  135.3026  155.3055 H   0  0  0  0  0  0  0  0  0  0  0  0
  148.3169  135.0629  153.0322 H   0  0  0  0  0  0  0  0  0  0  0  0
  1  2  1  0  0  0  0
  1 18  1  0  0  0  0
  1 19  1  0  0  0  0
  1 20  1  0  0  0  0
  2 17  1  0  0  0  0
  2  3  2  0  0  0  0
  3  4  1  0  0  0  0
  4  5  2  0  0  0  0
  5  6  1  0  0  0  0
  5 17  1  0  0  0  0
  6  7  1  0  0  0  0
  7  8  2  0  0  0  0
  7  9  1  0  0  0  0
  9 10  1  0  0  0  0
  9 21  1  0  0  0  0
 10 11  1  0  0  0  0
 10 22  1  0  0  0  0
 10 23  1  0  0  0  0
 11 15  1  0  0  0  0
 11 12  1  0  0  0  0
 11 24  1  0  0  0  0
 12 13  1  0  0  0  0
 12 25  1  0  0  0  0
 12 26  1  0  0  0  0
 13 14  1  0  0  0  0
 13 27  1  0  0  0  0
 13 28  1  0  0  0  0
 14 15  1  0  0  0  0
 14 29  1  0  0  0  0
 14 30  1  0  0  0  0
 15 16  1  0  0  0  0
 15 34  1  0  0  0  0
 16 31  1  0  0  0  0
 16 32  1  0  0  0  0
 16 33  1  0  0  0  0
M  CHG  1   6  -1
M  CHG  1  15   1
M  END
> <s_m_source_file>
AV-unprocessed.smi

> <i_m_source_file_index>
828

> <i_lp_mmshare_version>
43012

> <i_f3d_flags>
0

> <s_epik_input>
W0NIM11jMW5uYyhzMSlbTkhdQyg9TylbTkhdW0NIMl1bQ0BASF0yW0NIMl1bQ0gyXVtDSDJdTjJbQ0gzXQ==

> <s_epik_cmdline>
J2VwaWtfcHl0aG9uJywgJy1waCcsICc3LjAnLCAnLXRuJywgJzgnLCAnLW1hJywgJzIwMCcsICctbWV0YWxfYmluZGluZycsICctaW1hZScsICc8aW5maWxlLm1hZT4nLCAnLW9tYWUnLCAnPG91dGZpbGUubWFlPic=

> <r_lp_tautomer_probability>
1

> <r_epik_Ionization_Penalty>
3.94379

> <r_epik_Ionization_Penalty_Charging>
3.83377

> <r_epik_Ionization_Penalty_Neutral>
0.110023

> <r_epik_State_Penalty>
3.83036

> <r_epik_Charging_Adjusted_Penalty>
7.66413

> <i_epik_Tot_Q>
0

> <i_epik_Tot_abs_Q>
2

> <r_epik_Metal_State_Penalty>
0.575095

> <b_epik_Metal_Only>
1

> <s_lp_Force_Field>
OPLS_2005

> <r_lp_Energy>
27.8836

> <b_lp_Chiralities_Consistent>
1

> <s_lp_Variant>
AV-unprocessed.smi:828-6

> <Gold.Version>
5.8.1

> <Gold.Id.Protein>
6NUR|6NUR_protein|mol2

> <Gold.PLP.Fitness>
37.4974

> <Gold.PLP.PLP>
-23.1576

> <Gold.PLP.part.hbond>
-4.4784

> <Gold.PLP.part.metal>
0.0000

> <Gold.PLP.part.buried>
-2.5892

> <Gold.PLP.part.nonpolar>
-16.1069

> <Gold.PLP.part.repulsive>
0.1468

> <Gold.PLP.ligand.clash>
0.0000

> <Gold.PLP.ligand.torsion>
0.3333

> <Gold.PLP.Chemscore.Hbond>
5.0000

> <Gold.PLP.Chemscore.CHOScore>
0.0000

> <Gold.PLP.Chemscore.Metal>
0.0000

> <Gold.Chemscore.Hbonds>
donor molecule, donor type, donor heavy atom, donor atom, acceptor molecule, acceptor atom, score
      L1  H    15    34       P1  7948  2.00
      P1  H  7997  8008       L1     3  0.80
      P1  H 10752 10764       L1     6  1.30

> <Gold.PLP.Chemscore.Internal.Correction>
0.0064

> <Gold.Rescore>
     Score         DG    S(hbond)    S(metal)    S(lipo)     H(rot)  DE(clash)    DE(int)     intcor
     14.61     -16.32       2.79        0.00      41.82       1.31       0.00       1.72       ----

> <Gold.Chemscore.Fitness>
14.6052

> <Gold.Chemscore.DG>
-16.3206

> <Gold.Chemscore.ZeroCoef>
-5.4800

> <Gold.Chemscore.Hbond>
2.7884

> <Gold.Chemscore.Metal>
0.0000

> <Gold.Chemscore.Lipo>
41.8244

> <Gold.Chemscore.Internal_Hbond>
0.0000

> <Gold.Chemscore.DEClash>
0.0000

> <Gold.Chemscore.DEInternal>
1.7154

> <Gold.Chemscore.Rot>
1.3149

> <Gold.Chemscore.Internal.Correction>
   9.000000E+99

> <Gold.Chemscore.Hbonds>
donor molecule, donor type, donor heavy atom, donor atom, acceptor molecule, acceptor atom, score
      L1  H    15    34       P1  7948  0.88
      P1  H  7997  8008       L1     3  0.11
      P1  H 10752 10764       L1     6  0.06

> <Gold.Chemscore.Hbond.Weighted>
-9.3133

> <Gold.Chemscore.Metal.Weighted>
-0.0000

> <Gold.Chemscore.Lipo.Weighted>
-4.8934

> <Gold.Chemscore.Internal_Hbond.Weighted>
0.0000

> <Gold.Chemscore.DEClash.Weighted>
0.0000

> <Gold.Chemscore.DEInternal.Weighted>
1.7154

> <Gold.Chemscore.Rot.Weighted>
3.3662

> <Gold.Chemscore.Internal.Correction.Weighted>
   9.000000E+99

> <Gold.Protein.RotatedTorsions>
[ 6907 6896 6895 6894 ] final   52.23 input  -60.11 | X-H torsion
[ 7974 7965 7964 7962 ] final  -78.81 input  175.53 | X-H torsion
[ 8008 7997 7996 7995 ] final  -75.73 input   59.86 | X-H torsion
[ 10167 10162 10161 10158 ] final  144.97 input  -65.29 | X-H torsion
[ 10718 10713 10712 10709 ] final   71.41 input   66.30 | X-H torsion
[ 10763 10752 10751 10750 ] final  -55.66 input  -60.55 | X-H torsion
[ 11005 11000 10999 10996 ] final  108.13 input  -57.11 | X-H torsion

> <Gold.Protein.ActiveResidues>
 VAL166  LYS551  ARG553  GLY616  TRP617  ASP618  TYR619  PRO620  LYS621  CYS622 
 ASP623  PHE694  ASN695  SER759  ASP760  ASP761  ALA762  ILE779  LEU786  VAL792 
 PHE793  MET794  SER795  GLU796  ALA797  LYS798  CYS799  TRP800  GLU811  SER814 

> <Gold.Protein.RotatedAtoms>
  152.3211  134.7379  160.0313 H   0  0  0  0  0  0  0  0  0  0  0  0  # atno 6907 bound_to 6896
  151.7827  133.3346  159.3484 H   0  0  0  0  0  0  0  0  0  0  0  0  # atno 6908 bound_to 6896
  150.7370  134.5847  159.6001 H   0  0  0  0  0  0  0  0  0  0  0  0  # atno 6909 bound_to 6896
  145.5815  140.9447  143.1341 H   0  0  0  0  0  0  0  0  0  0  0  0  # atno 7974 bound_to 7965
  154.5443  140.0739  156.8562 H   0  0  0  0  0  0  0  0  0  0  0  0  # atno 8008 bound_to 7997
  155.3119  140.3391  155.4225 H   0  0  0  0  0  0  0  0  0  0  0  0  # atno 8009 bound_to 7997
  156.1903  140.1684  156.8091 H   0  0  0  0  0  0  0  0  0  0  0  0  # atno 8010 bound_to 7997
  139.4936  144.5935  151.6632 H   0  0  0  0  0  0  0  0  0  0  0  0  # atno 10167 bound_to 10162
  157.6450  130.9527  150.0786 H   0  0  0  0  0  0  0  0  0  0  0  0  # atno 10718 bound_to 10713
  154.1943  135.6422  153.5069 H   0  0  0  0  0  0  0  0  0  0  0  0  # atno 10763 bound_to 10752
  153.0027  135.5436  154.6383 H   0  0  0  0  0  0  0  0  0  0  0  0  # atno 10764 bound_to 10752
  154.5779  135.2922  155.0735 H   0  0  0  0  0  0  0  0  0  0  0  0  # atno 10765 bound_to 10752
  139.8839  134.9421  156.5925 H   0  0  0  0  0  0  0  0  0  0  0  0  # atno 11005 bound_to 11000
  144.7392  139.7498  143.7317 LP  0  0  0  0  0  0  0  0  0  0  0  0  # atno 17320 bound_to 7965
  146.1712  139.4864  142.9926 LP  0  0  0  0  0  0  0  0  0  0  0  0  # atno 17321 bound_to 7965
  140.5567  144.0336  150.6151 LP  0  0  0  0  0  0  0  0  0  0  0  0  # atno 17342 bound_to 10162
  140.3408  143.3020  152.0590 LP  0  0  0  0  0  0  0  0  0  0  0  0  # atno 17343 bound_to 10162
  156.1769  130.3648  149.9089 LP  0  0  0  0  0  0  0  0  0  0  0  0  # atno 17370 bound_to 10713
  156.7050  130.8948  151.3603 LP  0  0  0  0  0  0  0  0  0  0  0  0  # atno 17371 bound_to 10713
  140.7944  133.8556  155.8673 LP  0  0  0  0  0  0  0  0  0  0  0  0  # atno 17394 bound_to 11000
  140.9648  134.1608  157.4625 LP  0  0  0  0  0  0  0  0  0  0  0  0  # atno 17395 bound_to 11000

$$$$
