AV-unprocessed.smi:1484|AV-procd|sdf|5996|dock2
  -GOLD-   22720 6 93D 1   1.00000     0.00000
 Structure written by MMmdl.
 37 38  0  0  0  0  0  0  0  0  2 V2000
  152.8962  142.5727  162.7429 C   0  0  0  0  0  0  0  0  0  0  0  0
  152.4314  142.8012  161.2978 C   0  0  1  0  0  0  0  0  0  0  0  0
  152.2839  144.3028  160.9843 C   0  0  0  0  0  0  0  0  0  0  0  0
  151.8292  144.5382  159.5350 C   0  0  0  0  0  0  0  0  0  0  0  0
  152.7806  143.8601  158.5327 C   0  0  0  0  0  0  0  0  0  0  0  0
  152.9475  142.3563  158.8233 C   0  0  2  0  0  0  0  0  0  0  0  0
  151.6978  141.6606  158.5376 N   0  0  0  0  0  0  0  0  0  0  0  0
  151.5425  140.5592  157.7854 C   0  0  0  0  0  0  0  0  0  0  0  0
  152.4762  140.0088  157.2020 O   0  0  0  0  0  0  0  0  0  0  0  0
  150.1236  139.9734  157.6688 C   0  0  0  0  0  0  0  0  0  0  0  0
  149.3686  140.4409  156.4936 N   0  0  0  0  0  0  0  0  0  0  0  0
  148.0737  141.0330  156.8210 N   0  5  0  0  0  0  0  0  0  0  0  0
  147.3420  141.6132  155.8333 C   0  0  0  0  0  0  0  0  0  0  0  0
  146.2688  142.1744  156.0406 O   0  0  0  0  0  0  0  0  0  0  0  0
  147.8592  141.5565  154.4761 C   0  0  0  0  0  0  0  0  0  0  0  0
  149.0397  140.9693  154.1969 C   0  0  0  0  0  0  0  0  0  0  0  0
  149.8775  140.3727  155.2303 C   0  0  0  0  0  0  0  0  0  0  0  0
  150.9724  139.8657  154.9864 O   0  0  0  0  0  0  0  0  0  0  0  0
  153.3842  142.1285  160.2864 C   0  0  0  0  0  0  0  0  0  0  0  0
  153.8781  143.0129  162.9185 H   0  0  0  0  0  0  0  0  0  0  0  0
  152.9625  141.5082  162.9689 H   0  0  0  0  0  0  0  0  0  0  0  0
  152.1990  143.0167  163.4541 H   0  0  0  0  0  0  0  0  0  0  0  0
  151.4474  142.3398  161.1988 H   0  0  0  0  0  0  0  0  0  0  0  0
  151.5673  144.7575  161.6690 H   0  0  0  0  0  0  0  0  0  0  0  0
  153.2354  144.8093  161.1516 H   0  0  0  0  0  0  0  0  0  0  0  0
  150.8161  144.1550  159.4031 H   0  0  0  0  0  0  0  0  0  0  0  0
  151.7792  145.6082  159.3322 H   0  0  0  0  0  0  0  0  0  0  0  0
  152.4181  144.0094  157.5147 H   0  0  0  0  0  0  0  0  0  0  0  0
  153.7560  144.3453  158.5819 H   0  0  0  0  0  0  0  0  0  0  0  0
  153.7189  141.9643  158.1582 H   0  0  0  0  0  0  0  0  0  0  0  0
  150.8683  142.0252  158.9851 H   0  0  0  0  0  0  0  0  0  0  0  0
  150.1926  138.8842  157.6703 H   0  0  0  0  0  0  0  0  0  0  0  0
  149.5791  140.2276  158.5799 H   0  0  0  0  0  0  0  0  0  0  0  0
  147.2816  141.9899  153.6730 H   0  0  0  0  0  0  0  0  0  0  0  0
  149.3833  140.9472  153.1734 H   0  0  0  0  0  0  0  0  0  0  0  0
  154.3906  142.5271  160.4208 H   0  0  0  0  0  0  0  0  0  0  0  0
  153.4550  141.0598  160.4933 H   0  0  0  0  0  0  0  0  0  0  0  0
  1  2  1  0  0  0  0
  1 20  1  0  0  0  0
  1 21  1  0  0  0  0
  1 22  1  0  0  0  0
  2 19  1  0  0  0  0
  2  3  1  0  0  0  0
  2 23  1  0  0  0  0
  3  4  1  0  0  0  0
  3 24  1  0  0  0  0
  3 25  1  0  0  0  0
  4  5  1  0  0  0  0
  4 26  1  0  0  0  0
  4 27  1  0  0  0  0
  5  6  1  0  0  0  0
  5 28  1  0  0  0  0
  5 29  1  0  0  0  0
  6  7  1  0  0  0  0
  6 19  1  0  0  0  0
  6 30  1  0  0  0  0
  7  8  1  0  0  0  0
  7 31  1  0  0  0  0
  8  9  2  0  0  0  0
  8 10  1  0  0  0  0
 10 32  1  0  0  0  0
 10 33  1  0  0  0  0
 10 11  1  0  0  0  0
 11 12  1  0  0  0  0
 11 17  1  0  0  0  0
 12 13  1  0  0  0  0
 13 14  2  0  0  0  0
 13 15  1  0  0  0  0
 15 34  1  0  0  0  0
 15 16  2  0  0  0  0
 16 35  1  0  0  0  0
 16 17  1  0  0  0  0
 17 18  2  0  0  0  0
 19 36  1  0  0  0  0
 19 37  1  0  0  0  0
M  CHG  1  12  -1
M  END
> <s_m_source_file>
AV-unprocessed.smi

> <i_m_source_file_index>
1484

> <i_lp_mmshare_version>
43012

> <i_f3d_flags>
0

> <s_epik_input>
W0NIM11bQ0BASF0xW0NIMl1bQ0gyXVtDSDJdW0NASF0oW0NIMl0xKVtOSF1DKD1PKVtDSDJdbjJbbkhdYyg9TylbY0hdW2NIXWMyPU8=

> <s_epik_cmdline>
J2VwaWtfcHl0aG9uJywgJy1waCcsICc3LjAnLCAnLXRuJywgJzgnLCAnLW1hJywgJzIwMCcsICctbWV0YWxfYmluZGluZycsICctaW1hZScsICc8aW5maWxlLm1hZT4nLCAnLW9tYWUnLCAnPG91dGZpbGUubWFlPic=

> <r_lp_tautomer_probability>
1

> <r_epik_Ionization_Penalty>
0.101352

> <r_epik_Ionization_Penalty_Charging>
0.101352

> <r_epik_Ionization_Penalty_Neutral>
1.90469e-08

> <r_epik_State_Penalty>
0.0358555

> <r_epik_Charging_Adjusted_Penalty>
0.137208

> <i_epik_Tot_Q>
-1

> <i_epik_Tot_abs_Q>
1

> <r_epik_Metal_State_Penalty>
0.0358555

> <b_epik_Metal_Only>
0

> <s_lp_Force_Field>
OPLS_2005

> <r_lp_Energy>
21.3013

> <b_lp_Chiralities_Consistent>
1

> <s_lp_Variant>
AV-unprocessed.smi:1484-4

> <Gold.Version>
5.8.1

> <Gold.Id.Protein>
6NUR|6NUR_protein|mol2

> <Gold.PLP.Fitness>
48.0388

> <Gold.PLP.PLP>
-43.0588

> <Gold.PLP.part.hbond>
-2.0000

> <Gold.PLP.part.metal>
0.0000

> <Gold.PLP.part.buried>
-4.9684

> <Gold.PLP.part.nonpolar>
-36.3620

> <Gold.PLP.part.repulsive>
0.3161

> <Gold.PLP.ligand.clash>
0.0000

> <Gold.PLP.ligand.torsion>
0.5165

> <Gold.PLP.Chemscore.Hbond>
2.0000

> <Gold.PLP.Chemscore.CHOScore>
0.0000

> <Gold.PLP.Chemscore.Metal>
0.0000

> <Gold.Chemscore.Hbonds>
donor molecule, donor type, donor heavy atom, donor atom, acceptor molecule, acceptor atom, score
      P1  H  7989  7998       L1    18  1.00
      P1  H  7997  8009       L1     9  1.00

> <Gold.PLP.Chemscore.Internal.Correction>
0.0130

> <Gold.Rescore>
     Score         DG    S(hbond)    S(metal)    S(lipo)     H(rot)  DE(clash)    DE(int)     intcor
     18.33     -19.67       1.93        0.00     102.53       1.65       0.24       1.10       ----

> <Gold.Chemscore.Fitness>
18.3283

> <Gold.Chemscore.DG>
-19.6737

> <Gold.Chemscore.ZeroCoef>
-5.4800

> <Gold.Chemscore.Hbond>
1.9263

> <Gold.Chemscore.Metal>
0.0000

> <Gold.Chemscore.Lipo>
102.5326

> <Gold.Chemscore.Internal_Hbond>
0.0000

> <Gold.Chemscore.DEClash>
0.2433

> <Gold.Chemscore.DEInternal>
1.1022

> <Gold.Chemscore.Rot>
1.6549

> <Gold.Chemscore.Internal.Correction>
   9.000000E+99

> <Gold.Chemscore.Hbonds>
donor molecule, donor type, donor heavy atom, donor atom, acceptor molecule, acceptor atom, score
      P1  H  7989  7998       L1    18  0.45
      P1  H  7997  8009       L1     9  0.96

> <Gold.Chemscore.Hbond.Weighted>
-6.4338

> <Gold.Chemscore.Metal.Weighted>
-0.0000

> <Gold.Chemscore.Lipo.Weighted>
-11.9963

> <Gold.Chemscore.Internal_Hbond.Weighted>
0.0000

> <Gold.Chemscore.DEClash.Weighted>
0.2433

> <Gold.Chemscore.DEInternal.Weighted>
1.1022

> <Gold.Chemscore.Rot.Weighted>
4.2364

> <Gold.Chemscore.Internal.Correction.Weighted>
   9.000000E+99

> <Gold.Protein.RotatedTorsions>
[ 6907 6896 6895 6894 ] final  -23.30 input  -60.11 | X-H torsion
[ 7974 7965 7964 7962 ] final  -40.55 input  175.53 | X-H torsion
[ 8008 7997 7996 7995 ] final -174.51 input   59.86 | X-H torsion
[ 10167 10162 10161 10158 ] final  135.41 input  -65.29 | X-H torsion
[ 10718 10713 10712 10709 ] final  114.10 input   66.30 | X-H torsion
[ 10763 10752 10751 10750 ] final  -71.47 input  -60.55 | X-H torsion
[ 11005 11000 10999 10996 ] final   57.85 input  -57.11 | X-H torsion

> <Gold.Protein.ActiveResidues>
 VAL166  LYS551  ARG553  GLY616  TRP617  ASP618  TYR619  PRO620  LYS621  CYS622 
 ASP623  PHE694  ASN695  SER759  ASP760  ASP761  ALA762  ILE779  LEU786  VAL792 
 PHE793  MET794  SER795  GLU796  ALA797  LYS798  CYS799  TRP800  GLU811  SER814 

> <Gold.Protein.RotatedAtoms>
  151.2060  135.0462  159.8891 H   0  0  0  0  0  0  0  0  0  0  0  0  # atno 6907 bound_to 6896
  152.5429  134.0797  159.8240 H   0  0  0  0  0  0  0  0  0  0  0  0  # atno 6908 bound_to 6896
  151.0944  133.5243  159.2645 H   0  0  0  0  0  0  0  0  0  0  0  0  # atno 6909 bound_to 6896
  146.0294  140.6751  142.9140 H   0  0  0  0  0  0  0  0  0  0  0  0  # atno 7974 bound_to 7965
  155.9710  140.1163  157.0812 H   0  0  0  0  0  0  0  0  0  0  0  0  # atno 8008 bound_to 7997
  154.4156  140.1163  156.5374 H   0  0  0  0  0  0  0  0  0  0  0  0  # atno 8009 bound_to 7997
  155.6596  140.3473  155.4780 H   0  0  0  0  0  0  0  0  0  0  0  0  # atno 8010 bound_to 7997
  139.5218  144.6518  151.5279 H   0  0  0  0  0  0  0  0  0  0  0  0  # atno 10167 bound_to 10162
  157.6300  131.0993  150.7137 H   0  0  0  0  0  0  0  0  0  0  0  0  # atno 10718 bound_to 10713
  154.4322  135.5961  153.6076 H   0  0  0  0  0  0  0  0  0  0  0  0  # atno 10763 bound_to 10752
  152.9799  135.5978  154.3825 H   0  0  0  0  0  0  0  0  0  0  0  0  # atno 10764 bound_to 10752
  154.3664  135.2841  155.2270 H   0  0  0  0  0  0  0  0  0  0  0  0  # atno 10765 bound_to 10752
  140.0422  134.5857  155.9368 H   0  0  0  0  0  0  0  0  0  0  0  0  # atno 11005 bound_to 11000
  144.7023  140.3708  143.7146 LP  0  0  0  0  0  0  0  0  0  0  0  0  # atno 17320 bound_to 7965
  145.7066  139.1674  143.2562 LP  0  0  0  0  0  0  0  0  0  0  0  0  # atno 17321 bound_to 7965
  140.6327  143.9045  150.6619 LP  0  0  0  0  0  0  0  0  0  0  0  0  # atno 17342 bound_to 10162
  140.2354  143.3704  152.1531 LP  0  0  0  0  0  0  0  0  0  0  0  0  # atno 17343 bound_to 10162
  156.7478  130.4759  149.5463 LP  0  0  0  0  0  0  0  0  0  0  0  0  # atno 17370 bound_to 10713
  156.1498  130.6302  151.0580 LP  0  0  0  0  0  0  0  0  0  0  0  0  # atno 17371 bound_to 10713
  141.1889  133.6563  156.5343 LP  0  0  0  0  0  0  0  0  0  0  0  0  # atno 17394 bound_to 11000
  140.4051  134.7322  157.4803 LP  0  0  0  0  0  0  0  0  0  0  0  0  # atno 17395 bound_to 11000

$$$$
