AV-unprocessed.smi:1887|AV-procd|sdf|7656|dock9
  -GOLD-   22720 9393D 1   1.00000     0.00000
 Structure written by MMmdl.
 43 45  0  0  0  0  0  0  0  0  2 V2000
  147.6077  141.7022  153.6103 C   0  0  0  0  0  0  0  0  0  0  0  0
  148.8931  141.9573  154.1461 O   0  0  0  0  0  0  0  0  0  0  0  0
  148.9501  141.7612  155.5491 C   0  0  0  0  0  0  0  0  0  0  0  0
  150.3677  142.0641  156.0534 C   0  0  0  0  0  0  0  0  0  0  0  0
  150.9719  140.9124  156.7193 N   0  0  0  0  0  0  0  0  0  0  0  0
  151.4856  140.8478  157.9749 C   0  0  0  0  0  0  0  0  0  0  0  0
  151.4816  141.9662  158.8343 N   0  0  0  0  0  0  0  0  0  0  0  0
  150.5939  142.9639  158.6419 N   0  0  0  0  0  0  0  0  0  0  0  0
  150.8613  143.8443  159.5913 C   0  0  0  0  0  0  0  0  0  0  0  0
  150.0313  145.0925  159.6793 C   0  0  0  0  0  0  0  0  0  0  0  0
  151.9501  143.4391  160.4179 C   0  0  0  0  0  0  0  0  0  0  0  0
  152.5362  144.1801  161.5884 C   0  0  0  0  0  0  0  0  0  0  0  0
  152.3268  142.2305  159.8966 C   0  0  0  0  0  0  0  0  0  0  0  0
  153.4190  141.2953  160.3113 C   0  0  0  0  0  0  0  0  0  0  0  0
  151.9550  139.6509  158.3323 N   0  0  0  0  0  0  0  0  0  0  0  0
  151.7231  138.8841  157.1994 C   0  0  0  0  0  0  0  0  0  0  0  0
  151.1272  139.6166  156.2196 C   0  0  0  0  0  0  0  0  0  0  0  0
  150.7337  139.0685  154.9037 C   0  0  0  0  0  0  0  0  0  0  0  0
  150.1885  139.7760  154.0590 O   0  0  0  0  0  0  0  0  0  0  0  0
  151.0443  137.7386  154.7847 N   0  5  0  0  0  0  0  0  0  0  0  0
  151.6471  136.9582  155.7480 C   0  0  0  0  0  0  0  0  0  0  0  0
  151.8859  135.7644  155.5614 O   0  0  0  0  0  0  0  0  0  0  0  0
  151.9949  137.5105  156.9533 N   0  0  0  0  0  0  0  0  0  0  0  0
  152.6350  136.7041  157.9965 C   0  0  0  0  0  0  0  0  0  0  0  0
  147.6236  141.8636  152.5326 H   0  0  0  0  0  0  0  0  0  0  0  0
  146.8624  142.3724  154.0403 H   0  0  0  0  0  0  0  0  0  0  0  0
  147.3012  140.6715  153.7930 H   0  0  0  0  0  0  0  0  0  0  0  0
  148.2275  142.4086  156.0479 H   0  0  0  0  0  0  0  0  0  0  0  0
  148.6846  140.7310  155.7900 H   0  0  0  0  0  0  0  0  0  0  0  0
  151.0089  142.3765  155.2302 H   0  0  0  0  0  0  0  0  0  0  0  0
  150.3407  142.9134  156.7340 H   0  0  0  0  0  0  0  0  0  0  0  0
  150.4993  145.8395  160.3201 H   0  0  0  0  0  0  0  0  0  0  0  0
  149.0447  144.8761  160.0891 H   0  0  0  0  0  0  0  0  0  0  0  0
  149.8925  145.5439  158.6966 H   0  0  0  0  0  0  0  0  0  0  0  0
  153.5182  143.7979  161.8672 H   0  0  0  0  0  0  0  0  0  0  0  0
  151.8992  144.1029  162.4694 H   0  0  0  0  0  0  0  0  0  0  0  0
  152.6612  145.2411  161.3728 H   0  0  0  0  0  0  0  0  0  0  0  0
  153.6240  141.3825  161.3779 H   0  0  0  0  0  0  0  0  0  0  0  0
  154.3389  141.5166  159.7704 H   0  0  0  0  0  0  0  0  0  0  0  0
  153.1550  140.2565  160.1133 H   0  0  0  0  0  0  0  0  0  0  0  0
  153.5458  136.2379  157.6181 H   0  0  0  0  0  0  0  0  0  0  0  0
  151.9613  135.9148  158.3322 H   0  0  0  0  0  0  0  0  0  0  0  0
  152.9137  137.2920  158.8709 H   0  0  0  0  0  0  0  0  0  0  0  0
  1  2  1  0  0  0  0
  1 25  1  0  0  0  0
  1 26  1  0  0  0  0
  1 27  1  0  0  0  0
  2  3  1  0  0  0  0
  3  4  1  0  0  0  0
  3 28  1  0  0  0  0
  3 29  1  0  0  0  0
  4  5  1  0  0  0  0
  4 30  1  0  0  0  0
  4 31  1  0  0  0  0
  5 17  1  0  0  0  0
  5  6  1  0  0  0  0
  6  7  1  0  0  0  0
  6 15  2  0  0  0  0
  7 13  1  0  0  0  0
  7  8  1  0  0  0  0
  8  9  2  0  0  0  0
  9 10  1  0  0  0  0
  9 11  1  0  0  0  0
 10 32  1  0  0  0  0
 10 33  1  0  0  0  0
 10 34  1  0  0  0  0
 11 12  1  0  0  0  0
 11 13  2  0  0  0  0
 12 35  1  0  0  0  0
 12 36  1  0  0  0  0
 12 37  1  0  0  0  0
 13 14  1  0  0  0  0
 14 38  1  0  0  0  0
 14 39  1  0  0  0  0
 14 40  1  0  0  0  0
 15 16  1  0  0  0  0
 16 23  1  0  0  0  0
 16 17  2  0  0  0  0
 17 18  1  0  0  0  0
 18 19  2  0  0  0  0
 18 20  1  0  0  0  0
 20 21  1  0  0  0  0
 21 22  2  0  0  0  0
 21 23  1  0  0  0  0
 23 24  1  0  0  0  0
 24 41  1  0  0  0  0
 24 42  1  0  0  0  0
 24 43  1  0  0  0  0
M  CHG  1  20  -1
M  END
> <s_m_source_file>
AV-unprocessed.smi

> <i_m_source_file_index>
1887

> <i_lp_mmshare_version>
43012

> <i_f3d_flags>
0

> <s_epik_input>
W0NIM11uMWMoPU8pW25IXWMoPU8pYyhjMTIpbihbQ0gyXVtDSDJdT1tDSDNdKWMobjIpLW4zbmMoW0NIM10pYyhbQ0gzXSljM1tDSDNd

> <s_epik_cmdline>
J2VwaWtfcHl0aG9uJywgJy1waCcsICc3LjAnLCAnLXRuJywgJzgnLCAnLW1hJywgJzIwMCcsICctbWV0YWxfYmluZGluZycsICctaW1hZScsICc8aW5maWxlLm1hZT4nLCAnLW9tYWUnLCAnPG91dGZpbGUubWFlPic=

> <r_lp_tautomer_probability>
1

> <r_epik_Ionization_Penalty>
3.98818

> <r_epik_Ionization_Penalty_Charging>
0.0180637

> <r_epik_Ionization_Penalty_Neutral>
3.97012

> <r_epik_State_Penalty>
3.96767

> <r_epik_Charging_Adjusted_Penalty>
3.98573

> <i_epik_Tot_Q>
-1

> <i_epik_Tot_abs_Q>
1

> <r_epik_Metal_State_Penalty>
0.612715

> <b_epik_Metal_Only>
1

> <s_lp_Force_Field>
OPLS_2005

> <r_lp_Energy>
28.3599

> <b_lp_Chiralities_Consistent>
1

> <s_lp_Variant>
AV-unprocessed.smi:1887-2

> <Gold.Version>
5.8.1

> <Gold.Id.Protein>
6NUR|6NUR_protein|mol2

> <Gold.PLP.Fitness>
42.7906

> <Gold.PLP.PLP>
-36.8644

> <Gold.PLP.part.hbond>
-2.7467

> <Gold.PLP.part.metal>
0.0000

> <Gold.PLP.part.buried>
-3.5905

> <Gold.PLP.part.nonpolar>
-31.5113

> <Gold.PLP.part.repulsive>
1.1574

> <Gold.PLP.ligand.clash>
0.0087

> <Gold.PLP.ligand.torsion>
0.6611

> <Gold.PLP.Chemscore.Hbond>
2.2806

> <Gold.PLP.Chemscore.CHOScore>
0.0000

> <Gold.PLP.Chemscore.Metal>
0.0000

> <Gold.Chemscore.Hbonds>
donor molecule, donor type, donor heavy atom, donor atom, acceptor molecule, acceptor atom, score
      P1  H  7989  7998       L1    19  1.00
      P1  H  8011  8017       L1     2  0.30
      P1  H 10752 10765       L1    22  0.67

> <Gold.PLP.Chemscore.Internal.Correction>
0.4152

> <Gold.Rescore>
     Score         DG    S(hbond)    S(metal)    S(lipo)     H(rot)  DE(clash)    DE(int)     intcor
     10.57     -17.34       1.48        0.00      91.45       1.48       0.42       6.35       ----

> <Gold.Chemscore.Fitness>
10.5746

> <Gold.Chemscore.DG>
-17.3385

> <Gold.Chemscore.ZeroCoef>
-5.4800

> <Gold.Chemscore.Hbond>
1.4838

> <Gold.Chemscore.Metal>
0.0000

> <Gold.Chemscore.Lipo>
91.4479

> <Gold.Chemscore.Internal_Hbond>
0.0000

> <Gold.Chemscore.DEClash>
0.4162

> <Gold.Chemscore.DEInternal>
6.3477

> <Gold.Chemscore.Rot>
1.4832

> <Gold.Chemscore.Internal.Correction>
   9.000000E+99

> <Gold.Chemscore.Hbonds>
donor molecule, donor type, donor heavy atom, donor atom, acceptor molecule, acceptor atom, score
      P1  H  7989  7998       L1    19  0.33
      P1  H  8011  8017       L1     2  0.04
      P1  H 10752 10765       L1    22  0.56

> <Gold.Chemscore.Hbond.Weighted>
-4.9560

> <Gold.Chemscore.Metal.Weighted>
-0.0000

> <Gold.Chemscore.Lipo.Weighted>
-10.6994

> <Gold.Chemscore.Internal_Hbond.Weighted>
0.0000

> <Gold.Chemscore.DEClash.Weighted>
0.4162

> <Gold.Chemscore.DEInternal.Weighted>
6.3477

> <Gold.Chemscore.Rot.Weighted>
3.7970

> <Gold.Chemscore.Internal.Correction.Weighted>
   9.000000E+99

> <Gold.Protein.RotatedTorsions>
[ 6907 6896 6895 6894 ] final  -37.10 input  -60.11 | X-H torsion
[ 7974 7965 7964 7962 ] final   28.23 input  175.53 | X-H torsion
[ 8008 7997 7996 7995 ] final  149.92 input   59.86 | X-H torsion
[ 10167 10162 10161 10158 ] final  116.98 input  -65.29 | X-H torsion
[ 10718 10713 10712 10709 ] final  -15.27 input   66.30 | X-H torsion
[ 10763 10752 10751 10750 ] final -176.34 input  -60.55 | X-H torsion
[ 11005 11000 10999 10996 ] final  -44.12 input  -57.11 | X-H torsion

> <Gold.Protein.ActiveResidues>
 VAL166  LYS551  ARG553  GLY616  TRP617  ASP618  TYR619  PRO620  LYS621  CYS622 
 ASP623  PHE694  ASN695  SER759  ASP760  ASP761  ALA762  ILE779  LEU786  VAL792 
 PHE793  MET794  SER795  GLU796  ALA797  LYS798  CYS799  TRP800  GLU811  SER814 

> <Gold.Protein.RotatedAtoms>
  151.0190  134.9454  159.8048 H   0  0  0  0  0  0  0  0  0  0  0  0  # atno 6907 bound_to 6896
  152.5320  134.2929  159.9060 H   0  0  0  0  0  0  0  0  0  0  0  0  # atno 6908 bound_to 6896
  151.2936  133.4112  159.2669 H   0  0  0  0  0  0  0  0  0  0  0  0  # atno 6909 bound_to 6896
  146.1740  139.7084  142.8947 H   0  0  0  0  0  0  0  0  0  0  0  0  # atno 7974 bound_to 7965
  156.2736  140.2088  156.5935 H   0  0  0  0  0  0  0  0  0  0  0  0  # atno 8008 bound_to 7997
  154.6963  140.0525  157.0437 H   0  0  0  0  0  0  0  0  0  0  0  0  # atno 8009 bound_to 7997
  155.0796  140.3185  155.4608 H   0  0  0  0  0  0  0  0  0  0  0  0  # atno 8010 bound_to 7997
  139.6210  144.7101  151.2635 H   0  0  0  0  0  0  0  0  0  0  0  0  # atno 10167 bound_to 10162
  156.6041  130.4832  149.6228 H   0  0  0  0  0  0  0  0  0  0  0  0  # atno 10718 bound_to 10713
  154.5735  135.2830  155.0804 H   0  0  0  0  0  0  0  0  0  0  0  0  # atno 10763 bound_to 10752
  154.2167  135.6398  153.5136 H   0  0  0  0  0  0  0  0  0  0  0  0  # atno 10764 bound_to 10752
  153.0065  135.5504  154.6366 H   0  0  0  0  0  0  0  0  0  0  0  0  # atno 10765 bound_to 10752
  141.0429  133.6773  156.2827 H   0  0  0  0  0  0  0  0  0  0  0  0  # atno 11005 bound_to 11000
  145.4262  141.0411  143.2936 LP  0  0  0  0  0  0  0  0  0  0  0  0  # atno 17320 bound_to 7965
  144.8207  139.5796  143.6988 LP  0  0  0  0  0  0  0  0  0  0  0  0  # atno 17321 bound_to 7965
  140.7382  143.6656  150.8126 LP  0  0  0  0  0  0  0  0  0  0  0  0  # atno 17342 bound_to 10162
  140.0267  143.5486  152.2778 LP  0  0  0  0  0  0  0  0  0  0  0  0  # atno 17343 bound_to 10162
  156.2444  130.6870  151.1586 LP  0  0  0  0  0  0  0  0  0  0  0  0  # atno 17370 bound_to 10713
  157.7272  131.0641  150.5877 LP  0  0  0  0  0  0  0  0  0  0  0  0  # atno 17371 bound_to 10713
  140.6201  134.5370  157.5546 LP  0  0  0  0  0  0  0  0  0  0  0  0  # atno 17394 bound_to 11000
  139.9289  134.8001  156.0987 LP  0  0  0  0  0  0  0  0  0  0  0  0  # atno 17395 bound_to 11000

$$$$
