AV-unprocessed.smi:53|AV-procd|sdf|522|dock2
  -GOLD-   2262016393D 1   1.00000     0.00000
 Structure written by MMmdl.
 30 31  0  0  0  0  0  0  0  0  1 V2000
  139.2836  137.6870  155.2669 N   0  0  0  0  0  0  0  0  0  0  0  0
  140.3789  137.1135  154.7491 C   0  0  0  0  0  0  0  0  0  0  0  0
  140.2565  136.0163  153.8161 C   0  0  0  0  0  0  0  0  0  0  0  0
  141.4054  135.4887  153.3389 C   0  0  0  0  0  0  0  0  0  0  0  0
  142.6529  135.9672  153.7194 N   0  0  0  0  0  0  0  0  0  0  0  0
  143.9442  135.3755  153.1835 C   0  0  1  0  0  0  0  0  0  0  0  0
  143.6562  134.2785  152.3646 O   0  0  0  0  0  0  0  0  0  0  0  0
  143.9123  134.6003  151.0001 C   0  0  2  0  0  0  0  0  0  0  0  0
  144.1922  133.3147  150.2074 C   0  0  0  0  0  0  0  0  0  0  0  0
  143.0086  132.5556  150.0835 O   0  0  0  0  0  0  0  0  0  0  0  0
  145.1236  135.5235  151.1229 C   0  0  1  0  0  0  0  0  0  0  0  0
  145.3690  136.2805  149.9520 O   0  0  0  0  0  0  0  0  0  0  0  0
  144.7683  136.3759  152.3370 C   0  0  1  0  0  0  0  0  0  0  0  0
  144.0469  137.5444  151.9747 O   0  0  0  0  0  0  0  0  0  0  0  0
  142.7385  137.0480  154.6294 C   0  0  0  0  0  0  0  0  0  0  0  0
  143.8227  137.5154  154.9765 O   0  0  0  0  0  0  0  0  0  0  0  0
  141.5648  137.5681  155.1044 N   0  0  0  0  0  0  0  0  0  0  0  0
  144.4834  134.9949  154.0531 H   0  0  0  0  0  0  0  0  0  0  0  0
  143.0708  135.1523  150.5768 H   0  0  0  0  0  0  0  0  0  0  0  0
  146.0107  134.9307  151.3520 H   0  0  0  0  0  0  0  0  0  0  0  0
  145.6582  136.6778  152.8900 H   0  0  0  0  0  0  0  0  0  0  0  0
  139.3731  138.4538  155.9175 H   0  0  0  0  0  0  0  0  0  0  0  0
  138.3688  137.3499  155.0034 H   0  0  0  0  0  0  0  0  0  0  0  0
  139.3069  135.6124  153.4947 H   0  0  0  0  0  0  0  0  0  0  0  0
  141.3198  134.6701  152.6410 H   0  0  0  0  0  0  0  0  0  0  0  0
  144.5292  133.5606  149.1999 H   0  0  0  0  0  0  0  0  0  0  0  0
  144.9776  132.7214  150.6765 H   0  0  0  0  0  0  0  0  0  0  0  0
  142.3150  133.1259  149.7889 H   0  0  0  0  0  0  0  0  0  0  0  0
  144.8016  137.0361  149.9597 H   0  0  0  0  0  0  0  0  0  0  0  0
  144.0983  137.6454  151.0361 H   0  0  0  0  0  0  0  0  0  0  0  0
  1  2  1  0  0  0  0
  1 22  1  0  0  0  0
  1 23  1  0  0  0  0
  2 17  2  0  0  0  0
  2  3  1  0  0  0  0
  3  4  2  0  0  0  0
  3 24  1  0  0  0  0
  4  5  1  0  0  0  0
  4 25  1  0  0  0  0
  5  6  1  0  0  0  0
  5 15  1  0  0  0  0
  6 18  1  0  0  0  0
  6 13  1  0  0  0  0
  6  7  1  0  0  0  0
  7  8  1  0  0  0  0
  8 19  1  0  0  0  0
  8  9  1  0  0  0  0
  8 11  1  0  0  0  0
  9 10  1  0  0  0  0
  9 26  1  0  0  0  0
  9 27  1  0  0  0  0
 10 28  1  0  0  0  0
 11 20  1  0  0  0  0
 11 12  1  0  0  0  0
 11 13  1  0  0  0  0
 12 29  1  0  0  0  0
 13 21  1  0  0  0  0
 13 14  1  0  0  0  0
 14 30  1  0  0  0  0
 15 16  2  0  0  0  0
 15 17  1  0  0  0  0
M  END
> <s_m_source_file>
AV-unprocessed.smi

> <i_m_source_file_index>
53

> <i_lp_mmshare_version>
43012

> <i_f3d_flags>
0

> <s_epik_input>
W05IMl1jMVtjSF1bY0hdbihjKD1PKW4xKVtDQEBIXTJPW0NASF0oW0NIMl1bT0hdKVtDQEBIXShbT0hdKVtDQEBIXTJbT0hd

> <s_epik_cmdline>
J2VwaWtfcHl0aG9uJywgJy1waCcsICc3LjAnLCAnLXRuJywgJzgnLCAnLW1hJywgJzIwMCcsICctbWV0YWxfYmluZGluZycsICctaW1hZScsICc8aW5maWxlLm1hZT4nLCAnLW9tYWUnLCAnPG91dGZpbGUubWFlPic=

> <r_lp_tautomer_probability>
0.99996

> <r_epik_Ionization_Penalty>
0.00069087

> <r_epik_Ionization_Penalty_Charging>
2.61959e-08

> <r_epik_Ionization_Penalty_Neutral>
0.000690844

> <r_epik_State_Penalty>
1.15523e-05

> <r_epik_Charging_Adjusted_Penalty>
1.15785e-05

> <i_epik_Tot_Q>
0

> <i_epik_Tot_abs_Q>
0

> <r_epik_Metal_State_Penalty>
-0

> <b_epik_Metal_Only>
0

> <s_epik_Chemistry_Notes>
This compound contains an acetal/aminal-like group ( X-CH(R)-Y where X, Y are N, S, or O) that may be acid/base labile, releasing an aldehyde.

> <s_lp_Force_Field>
OPLS_2005

> <r_lp_Energy>
37.6612

> <b_lp_Chiralities_Consistent>
1

> <s_lp_Variant>
AV-unprocessed.smi:53-10

> <Gold.Version>
5.8.1

> <Gold.Id.Protein>
6NUR|6NUR_protein|mol2

> <Gold.PLP.Fitness>
36.4782

> <Gold.PLP.PLP>
-27.6731

> <Gold.PLP.part.hbond>
-5.2520

> <Gold.PLP.part.metal>
0.0000

> <Gold.PLP.part.buried>
-7.0269

> <Gold.PLP.part.nonpolar>
-16.3280

> <Gold.PLP.part.repulsive>
0.2329

> <Gold.PLP.ligand.clash>
0.0000

> <Gold.PLP.ligand.torsion>
0.0527

> <Gold.PLP.Chemscore.Hbond>
2.9440

> <Gold.PLP.Chemscore.CHOScore>
0.0000

> <Gold.PLP.Chemscore.Metal>
0.0000

> <Gold.Chemscore.Hbonds>
donor molecule, donor type, donor heavy atom, donor atom, acceptor molecule, acceptor atom, score
      L1  H    10    28       P1 10186  1.00
      L1  H    12    29       P1 10171  1.00
      L1  H    14    30       P1 10171  0.93

> <Gold.PLP.Chemscore.Internal.Correction>
0.0786

> <Gold.Rescore>
     Score         DG    S(hbond)    S(metal)    S(lipo)     H(rot)  DE(clash)    DE(int)     intcor
     10.23     -10.42       2.98        0.00      38.24       3.71       0.00       0.19       ----

> <Gold.Chemscore.Fitness>
10.2275

> <Gold.Chemscore.DG>
-10.4215

> <Gold.Chemscore.ZeroCoef>
-5.4800

> <Gold.Chemscore.Hbond>
2.9831

> <Gold.Chemscore.Metal>
0.0000

> <Gold.Chemscore.Lipo>
38.2416

> <Gold.Chemscore.Internal_Hbond>
0.0000

> <Gold.Chemscore.DEClash>
0.0000

> <Gold.Chemscore.DEInternal>
0.1941

> <Gold.Chemscore.Rot>
3.7095

> <Gold.Chemscore.Internal.Correction>
   9.000000E+99

> <Gold.Chemscore.Hbonds>
donor molecule, donor type, donor heavy atom, donor atom, acceptor molecule, acceptor atom, score
      L1  H    10    28       P1 10186  1.00
      L1  H    12    29       P1 10171  1.00
      L1  H    14    30       P1 10171  0.86

> <Gold.Chemscore.Hbond.Weighted>
-9.9636

> <Gold.Chemscore.Metal.Weighted>
-0.0000

> <Gold.Chemscore.Lipo.Weighted>
-4.4743

> <Gold.Chemscore.Internal_Hbond.Weighted>
0.0000

> <Gold.Chemscore.DEClash.Weighted>
0.0000

> <Gold.Chemscore.DEInternal.Weighted>
0.1941

> <Gold.Chemscore.Rot.Weighted>
9.4964

> <Gold.Chemscore.Internal.Correction.Weighted>
   9.000000E+99

> <Gold.Protein.RotatedTorsions>
[ 6907 6896 6895 6894 ] final  -96.00 input  -60.11 | X-H torsion
[ 7974 7965 7964 7962 ] final   23.74 input  175.53 | X-H torsion
[ 8008 7997 7996 7995 ] final   55.81 input   59.86 | X-H torsion
[ 10167 10162 10161 10158 ] final  178.49 input  -65.29 | X-H torsion
[ 10718 10713 10712 10709 ] final  -95.07 input   66.30 | X-H torsion
[ 10763 10752 10751 10750 ] final   33.02 input  -60.55 | X-H torsion
[ 11005 11000 10999 10996 ] final  107.98 input  -57.11 | X-H torsion

> <Gold.Protein.ActiveResidues>
 VAL166  LYS551  ARG553  GLY616  TRP617  ASP618  TYR619  PRO620  LYS621  CYS622 
 ASP623  PHE694  ASN695  SER759  ASP760  ASP761  ALA762  ILE779  LEU786  VAL792 
 PHE793  MET794  SER795  GLU796  ALA797  LYS798  CYS799  TRP800  GLU811  SER814 

> <Gold.Protein.RotatedAtoms>
  150.6977  134.1571  159.4161 H   0  0  0  0  0  0  0  0  0  0  0  0  # atno 6907 bound_to 6896
  151.9552  135.0148  160.0553 H   0  0  0  0  0  0  0  0  0  0  0  0  # atno 6908 bound_to 6896
  152.1976  133.4782  159.5078 H   0  0  0  0  0  0  0  0  0  0  0  0  # atno 6909 bound_to 6896
  146.1970  139.7702  142.8790 H   0  0  0  0  0  0  0  0  0  0  0  0  # atno 7974 bound_to 7965
  155.5071  140.3476  155.4381 H   0  0  0  0  0  0  0  0  0  0  0  0  # atno 8008 bound_to 7997
  156.0874  140.1402  156.9663 H   0  0  0  0  0  0  0  0  0  0  0  0  # atno 8009 bound_to 7997
  154.4615  140.0933  156.6882 H   0  0  0  0  0  0  0  0  0  0  0  0  # atno 8010 bound_to 7997
  139.5296  144.2674  152.0657 H   0  0  0  0  0  0  0  0  0  0  0  0  # atno 10167 bound_to 10162
  156.0037  130.5094  150.6021 H   0  0  0  0  0  0  0  0  0  0  0  0  # atno 10718 bound_to 10713
  153.0232  135.6398  154.1447 H   0  0  0  0  0  0  0  0  0  0  0  0  # atno 10763 bound_to 10752
  154.1179  135.2848  155.3217 H   0  0  0  0  0  0  0  0  0  0  0  0  # atno 10764 bound_to 10752
  154.6285  135.5501  153.7716 H   0  0  0  0  0  0  0  0  0  0  0  0  # atno 10765 bound_to 10752
  139.8836  134.9417  156.5902 H   0  0  0  0  0  0  0  0  0  0  0  0  # atno 11005 bound_to 11000
  145.3610  141.0326  143.3284 LP  0  0  0  0  0  0  0  0  0  0  0  0  # atno 17320 bound_to 7965
  144.8601  139.5189  143.6816 LP  0  0  0  0  0  0  0  0  0  0  0  0  # atno 17321 bound_to 7965
  140.2135  144.4539  150.6375 LP  0  0  0  0  0  0  0  0  0  0  0  0  # atno 17342 bound_to 10162
  140.6465  143.2214  151.6174 LP  0  0  0  0  0  0  0  0  0  0  0  0  # atno 17343 bound_to 10162
  157.3868  131.0789  151.1429 LP  0  0  0  0  0  0  0  0  0  0  0  0  # atno 17370 bound_to 10713
  157.2133  130.6448  149.5782 LP  0  0  0  0  0  0  0  0  0  0  0  0  # atno 17371 bound_to 10713
  140.7961  133.8543  155.8687 LP  0  0  0  0  0  0  0  0  0  0  0  0  # atno 17394 bound_to 11000
  140.9634  134.1626  157.4635 LP  0  0  0  0  0  0  0  0  0  0  0  0  # atno 17395 bound_to 11000

$$$$
