AV-unprocessed.smi:3267|AV-procd|sdf|12507|dock7
  -GOLD-   2272018413D 1   1.00000     0.00000
 Structure written by MMmdl.
 38 39  0  0  0  0  0  0  0  0  1 V2000
  148.1000  138.0684  155.7785 C   0  0  0  0  0  0  0  0  0  0  0  0
  147.7830  138.7393  154.4322 C   0  0  1  0  0  0  0  0  0  0  0  0
  148.9029  139.6859  153.9383 C   0  0  0  0  0  0  0  0  0  0  0  0
  150.2448  139.2124  154.2371 N   0  0  0  0  0  0  0  0  0  0  0  0
  150.7493  137.9342  154.1173 C   0  0  0  0  0  0  0  0  0  0  0  0
  152.0555  137.9733  154.5132 C   0  0  0  0  0  0  0  0  0  0  0  0
  152.2601  139.3359  154.8681 C   0  0  0  0  0  0  0  0  0  0  0  0
  151.1748  140.0743  154.7037 N   0  0  0  0  0  0  0  0  0  0  0  0
  147.4858  137.7100  153.4389 N   0  0  0  0  0  0  0  0  0  0  0  0
  146.2681  137.4197  152.9608 C   0  0  0  0  0  0  0  0  0  0  0  0
  145.2321  137.9808  153.3189 O   0  0  0  0  0  0  0  0  0  0  0  0
  146.3162  136.4436  152.0448 N   0  0  0  0  0  0  0  0  0  0  0  0
  145.1588  135.8862  151.3555 C   0  0  0  0  0  0  0  0  0  0  0  0
  145.0465  134.3696  151.5818 C   0  0  1  0  0  0  0  0  0  0  0  0
  144.0206  133.6813  150.6820 C   0  0  0  0  0  0  0  0  0  0  0  0
  144.5545  132.2626  150.5395 C   0  0  0  0  0  0  0  0  0  0  0  0
  145.9629  132.3287  151.1356 C   0  0  0  0  0  0  0  0  0  0  0  0
  146.2538  133.7152  151.2246 O   0  0  0  0  0  0  0  0  0  0  0  0
  148.3336  138.8124  156.5405 H   0  0  0  0  0  0  0  0  0  0  0  0
  148.9493  137.3888  155.7029 H   0  0  0  0  0  0  0  0  0  0  0  0
  147.2479  137.4893  156.1357 H   0  0  0  0  0  0  0  0  0  0  0  0
  146.8834  139.3404  154.5770 H   0  0  0  0  0  0  0  0  0  0  0  0
  148.8211  139.8570  152.8636 H   0  0  0  0  0  0  0  0  0  0  0  0
  148.7825  140.6629  154.4076 H   0  0  0  0  0  0  0  0  0  0  0  0
  150.1442  137.1136  153.7604 H   0  0  0  0  0  0  0  0  0  0  0  0
  152.7575  137.1534  154.5452 H   0  0  0  0  0  0  0  0  0  0  0  0
  153.1586  139.8071  155.2383 H   0  0  0  0  0  0  0  0  0  0  0  0
  148.2723  137.1931  153.0736 H   0  0  0  0  0  0  0  0  0  0  0  0
  147.2158  136.0454  151.8184 H   0  0  0  0  0  0  0  0  0  0  0  0
  144.2501  136.3875  151.6929 H   0  0  0  0  0  0  0  0  0  0  0  0
  145.2557  136.1027  150.2912 H   0  0  0  0  0  0  0  0  0  0  0  0
  144.8193  134.1507  152.6270 H   0  0  0  0  0  0  0  0  0  0  0  0
  143.0139  133.7153  151.0994 H   0  0  0  0  0  0  0  0  0  0  0  0
  143.9929  134.1591  149.7018 H   0  0  0  0  0  0  0  0  0  0  0  0
  143.9382  131.5398  151.0754 H   0  0  0  0  0  0  0  0  0  0  0  0
  144.5812  131.9681  149.4897 H   0  0  0  0  0  0  0  0  0  0  0  0
  145.9763  131.8962  152.1371 H   0  0  0  0  0  0  0  0  0  0  0  0
  146.7025  131.8057  150.5288 H   0  0  0  0  0  0  0  0  0  0  0  0
  1  2  1  0  0  0  0
  1 19  1  0  0  0  0
  1 20  1  0  0  0  0
  1 21  1  0  0  0  0
  2  3  1  0  0  0  0
  2  9  1  0  0  0  0
  2 22  1  0  0  0  0
  3  4  1  0  0  0  0
  3 23  1  0  0  0  0
  3 24  1  0  0  0  0
  4  8  1  0  0  0  0
  4  5  1  0  0  0  0
  5  6  2  0  0  0  0
  5 25  1  0  0  0  0
  6  7  1  0  0  0  0
  6 26  1  0  0  0  0
  7  8  2  0  0  0  0
  7 27  1  0  0  0  0
  9 10  1  0  0  0  0
  9 28  1  0  0  0  0
 10 11  2  0  0  0  0
 10 12  1  0  0  0  0
 12 13  1  0  0  0  0
 12 29  1  0  0  0  0
 13 14  1  0  0  0  0
 13 30  1  0  0  0  0
 13 31  1  0  0  0  0
 14 18  1  0  0  0  0
 14 15  1  0  0  0  0
 14 32  1  0  0  0  0
 15 16  1  0  0  0  0
 15 33  1  0  0  0  0
 15 34  1  0  0  0  0
 16 17  1  0  0  0  0
 16 35  1  0  0  0  0
 16 36  1  0  0  0  0
 17 18  1  0  0  0  0
 17 37  1  0  0  0  0
 17 38  1  0  0  0  0
M  END
> <s_m_source_file>
AV-unprocessed.smi

> <i_m_source_file_index>
3267

> <i_lp_mmshare_version>
43012

> <i_f3d_flags>
0

> <s_epik_input>
bjFbY0hdW2NIXVtjSF1uMVtDSDJdW0NAQEhdKFtDSDNdKVtOSF1DKD1PKVtOSF1bQ0gyXVtDQEBIXTJbQ0gyXVtDSDJdW0NIMl1PMg==

> <s_epik_cmdline>
J2VwaWtfcHl0aG9uJywgJy1waCcsICc3LjAnLCAnLXRuJywgJzgnLCAnLW1hJywgJzIwMCcsICctbWV0YWxfYmluZGluZycsICctaW1hZScsICc8aW5maWxlLm1hZT4nLCAnLW9tYWUnLCAnPG91dGZpbGUubWFlPic=

> <r_lp_tautomer_probability>
1

> <r_epik_Ionization_Penalty>
6.24796e-05

> <r_epik_Ionization_Penalty_Charging>
0

> <r_epik_Ionization_Penalty_Neutral>
6.24796e-05

> <r_epik_State_Penalty>
-0

> <r_epik_Charging_Adjusted_Penalty>
0

> <i_epik_Tot_Q>
0

> <i_epik_Tot_abs_Q>
0

> <r_epik_Metal_State_Penalty>
-0

> <b_epik_Metal_Only>
0

> <s_lp_Force_Field>
OPLS_2005

> <r_lp_Energy>
14.3103

> <b_lp_Chiralities_Consistent>
1

> <s_lp_Variant>
AV-unprocessed.smi:3267-4

> <Gold.Version>
5.8.1

> <Gold.Id.Protein>
6NUR|6NUR_protein|mol2

> <Gold.PLP.Fitness>
41.6354

> <Gold.PLP.PLP>
-31.0991

> <Gold.PLP.part.hbond>
-3.0000

> <Gold.PLP.part.metal>
0.0000

> <Gold.PLP.part.buried>
-4.2038

> <Gold.PLP.part.nonpolar>
-26.1316

> <Gold.PLP.part.repulsive>
0.9164

> <Gold.PLP.ligand.clash>
0.0000

> <Gold.PLP.ligand.torsion>
0.6583

> <Gold.PLP.Chemscore.Hbond>
2.9200

> <Gold.PLP.Chemscore.CHOScore>
1.0174

> <Gold.PLP.Chemscore.Metal>
0.0000

> <Gold.Chemscore.Hbonds>
donor molecule, donor type, donor heavy atom, donor atom, acceptor molecule, acceptor atom, score
      L1  H     9    28       P1  7948  1.00
      L1  H    12    29       P1  7948  0.96
      P1  H  7989  7998       L1     8  0.86
      L1  C     5    25       P1  7948  1.00
      L1  C     5    25       P1  7949  0.06

> <Gold.PLP.Chemscore.Internal.Correction>
0.0406

> <Gold.Rescore>
     Score         DG    S(hbond)    S(metal)    S(lipo)     H(rot)  DE(clash)    DE(int)     intcor
     15.21     -15.72       1.92        0.00      73.82       1.87       0.08       0.44       ----

> <Gold.Chemscore.Fitness>
15.2118

> <Gold.Chemscore.DG>
-15.7232

> <Gold.Chemscore.ZeroCoef>
-5.4800

> <Gold.Chemscore.Hbond>
1.9159

> <Gold.Chemscore.Metal>
0.0000

> <Gold.Chemscore.Lipo>
73.8232

> <Gold.Chemscore.Internal_Hbond>
0.0000

> <Gold.Chemscore.DEClash>
0.0758

> <Gold.Chemscore.DEInternal>
0.4356

> <Gold.Chemscore.Rot>
1.8724

> <Gold.Chemscore.Internal.Correction>
   9.000000E+99

> <Gold.Chemscore.Hbonds>
donor molecule, donor type, donor heavy atom, donor atom, acceptor molecule, acceptor atom, score
      L1  H     9    28       P1  7948  0.94
      L1  H    12    29       P1  7948  0.92
      P1  H  7989  7998       L1     8  0.09

> <Gold.Chemscore.Hbond.Weighted>
-6.3992

> <Gold.Chemscore.Metal.Weighted>
-0.0000

> <Gold.Chemscore.Lipo.Weighted>
-8.6373

> <Gold.Chemscore.Internal_Hbond.Weighted>
0.0000

> <Gold.Chemscore.DEClash.Weighted>
0.0758

> <Gold.Chemscore.DEInternal.Weighted>
0.4356

> <Gold.Chemscore.Rot.Weighted>
4.7933

> <Gold.Chemscore.Internal.Correction.Weighted>
   9.000000E+99

> <Gold.Protein.RotatedTorsions>
[ 6907 6896 6895 6894 ] final   58.00 input  -60.11 | X-H torsion
[ 7974 7965 7964 7962 ] final   91.03 input  175.53 | X-H torsion
[ 8008 7997 7996 7995 ] final   26.09 input   59.86 | X-H torsion
[ 10167 10162 10161 10158 ] final -105.15 input  -65.29 | X-H torsion
[ 10718 10713 10712 10709 ] final  -31.29 input   66.30 | X-H torsion
[ 10763 10752 10751 10750 ] final    3.60 input  -60.55 | X-H torsion
[ 11005 11000 10999 10996 ] final   46.19 input  -57.11 | X-H torsion

> <Gold.Protein.ActiveResidues>
 VAL166  LYS551  ARG553  GLY616  TRP617  ASP618  TYR619  PRO620  LYS621  CYS622 
 ASP623  PHE694  ASN695  SER759  ASP760  ASP761  ALA762  ILE779  LEU786  VAL792 
 PHE793  MET794  SER795  GLU796  ALA797  LYS798  CYS799  TRP800  GLU811  SER814 

> <Gold.Protein.RotatedAtoms>
  152.3784  134.6628  160.0151 H   0  0  0  0  0  0  0  0  0  0  0  0  # atno 6907 bound_to 6896
  151.6899  133.3305  159.3248 H   0  0  0  0  0  0  0  0  0  0  0  0  # atno 6908 bound_to 6896
  150.7728  134.6643  159.6401 H   0  0  0  0  0  0  0  0  0  0  0  0  # atno 6909 bound_to 6896
  145.5111  139.2277  143.2724 H   0  0  0  0  0  0  0  0  0  0  0  0  # atno 7974 bound_to 7965
  155.0218  140.3148  155.4790 H   0  0  0  0  0  0  0  0  0  0  0  0  # atno 8008 bound_to 7997
  156.2890  140.2196  156.5279 H   0  0  0  0  0  0  0  0  0  0  0  0  # atno 8009 bound_to 7997
  154.7445  140.0471  157.0828 H   0  0  0  0  0  0  0  0  0  0  0  0  # atno 8010 bound_to 7997
  140.2016  143.3814  152.1125 H   0  0  0  0  0  0  0  0  0  0  0  0  # atno 10167 bound_to 10162
  156.3891  130.4369  149.7409 H   0  0  0  0  0  0  0  0  0  0  0  0  # atno 10718 bound_to 10713
  153.2813  135.6941  153.7383 H   0  0  0  0  0  0  0  0  0  0  0  0  # atno 10763 bound_to 10752
  153.6369  135.3400  155.3060 H   0  0  0  0  0  0  0  0  0  0  0  0  # atno 10764 bound_to 10752
  154.8496  135.4422  154.1867 H   0  0  0  0  0  0  0  0  0  0  0  0  # atno 10765 bound_to 10752
  140.1392  134.4606  155.8463 H   0  0  0  0  0  0  0  0  0  0  0  0  # atno 11005 bound_to 11000
  146.2166  140.5918  142.9036 LP  0  0  0  0  0  0  0  0  0  0  0  0  # atno 17320 bound_to 7965
  144.7727  140.5672  143.6659 LP  0  0  0  0  0  0  0  0  0  0  0  0  # atno 17321 bound_to 7965
  139.5215  144.7047  151.5391 LP  0  0  0  0  0  0  0  0  0  0  0  0  # atno 17342 bound_to 10162
  140.6386  143.8934  150.6670 LP  0  0  0  0  0  0  0  0  0  0  0  0  # atno 17343 bound_to 10162
  156.4469  130.7888  151.2909 LP  0  0  0  0  0  0  0  0  0  0  0  0  # atno 17370 bound_to 10713
  157.7498  131.0107  150.3318 LP  0  0  0  0  0  0  0  0  0  0  0  0  # atno 17371 bound_to 10713
  141.2183  133.6826  156.7214 LP  0  0  0  0  0  0  0  0  0  0  0  0  # atno 17394 bound_to 11000
  140.2744  134.8366  157.3877 LP  0  0  0  0  0  0  0  0  0  0  0  0  # atno 17395 bound_to 11000

$$$$
