AV-unprocessed.smi:1101|AV-procd|sdf|4766|dock8
  -GOLD-   22720 3303D 1   1.00000     0.00000
 Structure written by MMmdl.
 41 42  0  0  0  0  0  0  0  0  1 V2000
  147.6945  141.6395  154.5864 C   0  0  0  0  0  0  0  0  0  0  0  0
  148.4862  140.6852  153.6840 C   0  0  0  0  0  0  0  0  0  0  0  0
  149.4918  139.8207  154.4605 C   0  0  1  0  0  0  0  0  0  0  0  0
  149.8906  138.5521  153.6782 C   0  0  0  0  0  0  0  0  0  0  0  0
  150.8784  137.8088  154.4740 N   0  0  0  0  0  0  0  0  0  0  0  0
  150.6826  136.6313  155.1181 C   0  0  0  0  0  0  0  0  0  0  0  0
  151.4173  136.2256  156.0198 O   0  0  0  0  0  0  0  0  0  0  0  0
  149.6343  135.9160  154.6759 N   0  0  0  0  0  0  0  0  0  0  0  0
  149.2204  134.6176  155.1947 C   0  0  0  0  0  0  0  0  0  0  0  0
  149.3156  133.5217  154.1208 C   0  0  0  0  0  0  0  0  0  0  0  0
  147.9579  133.1414  153.6009 C   0  0  0  0  0  0  0  0  0  0  0  0
  146.7143  133.1762  154.2942 C   0  0  0  0  0  0  0  0  0  0  0  0
  145.6974  132.7773  153.5474 N   0  0  0  0  0  0  0  0  0  0  0  0
  146.2539  132.4749  152.3562 N   0  0  0  0  0  0  0  0  0  0  0  0
  145.4157  131.9953  151.2784 C   0  0  0  0  0  0  0  0  0  0  0  0
  147.6163  132.6833  152.3596 C   0  0  0  0  0  0  0  0  0  0  0  0
  152.0765  138.6269  154.6778 C   0  0  0  0  0  0  0  0  0  0  0  0
  151.6677  139.8991  155.4404 C   0  0  0  0  0  0  0  0  0  0  0  0
  150.6659  140.5962  154.7032 O   0  0  0  0  0  0  0  0  0  0  0  0
  146.9795  142.2206  154.0036 H   0  0  0  0  0  0  0  0  0  0  0  0
  148.3546  142.3419  155.0960 H   0  0  0  0  0  0  0  0  0  0  0  0
  147.1369  141.0912  155.3461 H   0  0  0  0  0  0  0  0  0  0  0  0
  147.7823  140.0378  153.1599 H   0  0  0  0  0  0  0  0  0  0  0  0
  149.0074  141.2573  152.9156 H   0  0  0  0  0  0  0  0  0  0  0  0
  149.0477  139.5326  155.4153 H   0  0  0  0  0  0  0  0  0  0  0  0
  148.9997  137.9751  153.4307 H   0  0  0  0  0  0  0  0  0  0  0  0
  150.3370  138.8255  152.7207 H   0  0  0  0  0  0  0  0  0  0  0  0
  149.0824  136.3031  153.9245 H   0  0  0  0  0  0  0  0  0  0  0  0
  149.8680  134.3698  156.0362 H   0  0  0  0  0  0  0  0  0  0  0  0
  148.2055  134.6799  155.5916 H   0  0  0  0  0  0  0  0  0  0  0  0
  149.9493  133.8655  153.3024 H   0  0  0  0  0  0  0  0  0  0  0  0
  149.8211  132.6507  154.5396 H   0  0  0  0  0  0  0  0  0  0  0  0
  146.5224  133.4790  155.3131 H   0  0  0  0  0  0  0  0  0  0  0  0
  146.0017  131.8960  150.3643 H   0  0  0  0  0  0  0  0  0  0  0  0
  144.6010  132.6981  151.1015 H   0  0  0  0  0  0  0  0  0  0  0  0
  144.9996  131.0220  151.5407 H   0  0  0  0  0  0  0  0  0  0  0  0
  148.2249  132.4924  151.4877 H   0  0  0  0  0  0  0  0  0  0  0  0
  152.8623  138.1022  155.2228 H   0  0  0  0  0  0  0  0  0  0  0  0
  152.5062  138.8894  153.7101 H   0  0  0  0  0  0  0  0  0  0  0  0
  151.2955  139.6539  156.4364 H   0  0  0  0  0  0  0  0  0  0  0  0
  152.5288  140.5540  155.5725 H   0  0  0  0  0  0  0  0  0  0  0  0
  1  2  1  0  0  0  0
  1 20  1  0  0  0  0
  1 21  1  0  0  0  0
  1 22  1  0  0  0  0
  2  3  1  0  0  0  0
  2 23  1  0  0  0  0
  2 24  1  0  0  0  0
  3 19  1  0  0  0  0
  3  4  1  0  0  0  0
  3 25  1  0  0  0  0
  4  5  1  0  0  0  0
  4 26  1  0  0  0  0
  4 27  1  0  0  0  0
  5  6  1  0  0  0  0
  5 17  1  0  0  0  0
  6  7  2  0  0  0  0
  6  8  1  0  0  0  0
  8  9  1  0  0  0  0
  8 28  1  0  0  0  0
  9 10  1  0  0  0  0
  9 29  1  0  0  0  0
  9 30  1  0  0  0  0
 10 11  1  0  0  0  0
 10 31  1  0  0  0  0
 10 32  1  0  0  0  0
 11 16  2  0  0  0  0
 11 12  1  0  0  0  0
 12 13  2  0  0  0  0
 12 33  1  0  0  0  0
 13 14  1  0  0  0  0
 14 15  1  0  0  0  0
 14 16  1  0  0  0  0
 15 34  1  0  0  0  0
 15 35  1  0  0  0  0
 15 36  1  0  0  0  0
 16 37  1  0  0  0  0
 17 18  1  0  0  0  0
 17 38  1  0  0  0  0
 17 39  1  0  0  0  0
 18 19  1  0  0  0  0
 18 40  1  0  0  0  0
 18 41  1  0  0  0  0
M  END
> <s_m_source_file>
AV-unprocessed.smi

> <i_m_source_file_index>
1101

> <i_lp_mmshare_version>
43012

> <i_f3d_flags>
0

> <s_epik_input>
W0NIM11bQ0gyXVtDQEBIXTFbQ0gyXU4oW0NIMl1bQ0gyXU8xKUMoPU8pW05IXVtDSDJdW0NIMl1jMltjSF1ubihbQ0gzXSlbY0hdMg==

> <s_epik_cmdline>
J2VwaWtfcHl0aG9uJywgJy1waCcsICc3LjAnLCAnLXRuJywgJzgnLCAnLW1hJywgJzIwMCcsICctbWV0YWxfYmluZGluZycsICctaW1hZScsICc8aW5maWxlLm1hZT4nLCAnLW9tYWUnLCAnPG91dGZpbGUubWFlPic=

> <r_lp_tautomer_probability>
1

> <r_epik_Ionization_Penalty>
0.000536373

> <r_epik_Ionization_Penalty_Charging>
0

> <r_epik_Ionization_Penalty_Neutral>
0.000536373

> <r_epik_State_Penalty>
-0

> <r_epik_Charging_Adjusted_Penalty>
0

> <i_epik_Tot_Q>
0

> <i_epik_Tot_abs_Q>
0

> <r_epik_Metal_State_Penalty>
-0

> <b_epik_Metal_Only>
0

> <s_lp_Force_Field>
OPLS_2005

> <r_lp_Energy>
24.031

> <b_lp_Chiralities_Consistent>
1

> <s_lp_Variant>
AV-unprocessed.smi:1101-2

> <Gold.Version>
5.8.1

> <Gold.Id.Protein>
6NUR|6NUR_protein|mol2

> <Gold.PLP.Fitness>
46.9184

> <Gold.PLP.PLP>
-37.9432

> <Gold.PLP.part.hbond>
-3.0000

> <Gold.PLP.part.metal>
0.0000

> <Gold.PLP.part.buried>
0.1304

> <Gold.PLP.part.nonpolar>
-34.3002

> <Gold.PLP.part.repulsive>
0.2615

> <Gold.PLP.ligand.clash>
0.0000

> <Gold.PLP.ligand.torsion>
0.9990

> <Gold.PLP.Chemscore.Hbond>
2.6720

> <Gold.PLP.Chemscore.CHOScore>
0.9697

> <Gold.PLP.Chemscore.Metal>
0.0000

> <Gold.Chemscore.Hbonds>
donor molecule, donor type, donor heavy atom, donor atom, acceptor molecule, acceptor atom, score
      L1  H     8    28       P1  7948  0.74
      P1  H  7989  7998       L1    19  0.64
      P1  H 10752 10763       L1     7  0.83
      L1  C    16    37       P1 10747  1.00

> <Gold.PLP.Chemscore.Internal.Correction>
0.0481

> <Gold.Rescore>
     Score         DG    S(hbond)    S(metal)    S(lipo)     H(rot)  DE(clash)    DE(int)     intcor
     16.12     -17.05       1.83        0.00      79.65       1.51       0.15       0.79       ----

> <Gold.Chemscore.Fitness>
16.1158

> <Gold.Chemscore.DG>
-17.0547

> <Gold.Chemscore.ZeroCoef>
-5.4800

> <Gold.Chemscore.Hbond>
1.8297

> <Gold.Chemscore.Metal>
0.0000

> <Gold.Chemscore.Lipo>
79.6512

> <Gold.Chemscore.Internal_Hbond>
0.0000

> <Gold.Chemscore.DEClash>
0.1535

> <Gold.Chemscore.DEInternal>
0.7854

> <Gold.Chemscore.Rot>
1.5062

> <Gold.Chemscore.Internal.Correction>
   9.000000E+99

> <Gold.Chemscore.Hbonds>
donor molecule, donor type, donor heavy atom, donor atom, acceptor molecule, acceptor atom, score
      L1  H     8    28       P1  7948  0.68
      P1  H  7989  7998       L1    19  0.05
      P1  H 10752 10763       L1     7  0.36

> <Gold.Chemscore.Hbond.Weighted>
-6.1113

> <Gold.Chemscore.Metal.Weighted>
-0.0000

> <Gold.Chemscore.Lipo.Weighted>
-9.3192

> <Gold.Chemscore.Internal_Hbond.Weighted>
0.0000

> <Gold.Chemscore.DEClash.Weighted>
0.1535

> <Gold.Chemscore.DEInternal.Weighted>
0.7854

> <Gold.Chemscore.Rot.Weighted>
3.8558

> <Gold.Chemscore.Internal.Correction.Weighted>
   9.000000E+99

> <Gold.Protein.RotatedTorsions>
[ 6907 6896 6895 6894 ] final -144.15 input  -60.11 | X-H torsion
[ 7974 7965 7964 7962 ] final    8.55 input  175.53 | X-H torsion
[ 8008 7997 7996 7995 ] final  -38.92 input   59.86 | X-H torsion
[ 10167 10162 10161 10158 ] final  150.23 input  -65.29 | X-H torsion
[ 10718 10713 10712 10709 ] final  -44.13 input   66.30 | X-H torsion
[ 10763 10752 10751 10750 ] final   85.76 input  -60.55 | X-H torsion
[ 11005 11000 10999 10996 ] final  -98.43 input  -57.11 | X-H torsion

> <Gold.Protein.ActiveResidues>
 VAL166  LYS551  ARG553  GLY616  TRP617  ASP618  TYR619  PRO620  LYS621  CYS622 
 ASP623  PHE694  ASN695  SER759  ASP760  ASP761  ALA762  ILE779  LEU786  VAL792 
 PHE793  MET794  SER795  GLU796  ALA797  LYS798  CYS799  TRP800  GLU811  SER814 

> <Gold.Protein.RotatedAtoms>
  151.1101  133.5179  159.2605 H   0  0  0  0  0  0  0  0  0  0  0  0  # atno 6907 bound_to 6896
  151.1977  135.0429  159.8869 H   0  0  0  0  0  0  0  0  0  0  0  0  # atno 6908 bound_to 6896
  152.5449  134.0933  159.8340 H   0  0  0  0  0  0  0  0  0  0  0  0  # atno 6909 bound_to 6896
  146.2415  139.9916  142.8425 H   0  0  0  0  0  0  0  0  0  0  0  0  # atno 7974 bound_to 7965
  154.4030  140.1565  156.2779 H   0  0  0  0  0  0  0  0  0  0  0  0  # atno 8008 bound_to 7997
  155.8896  140.3439  155.5924 H   0  0  0  0  0  0  0  0  0  0  0  0  # atno 8009 bound_to 7997
  155.7574  140.0813  157.2162 H   0  0  0  0  0  0  0  0  0  0  0  0  # atno 8010 bound_to 7997
  139.4852  144.5539  151.7353 H   0  0  0  0  0  0  0  0  0  0  0  0  # atno 10167 bound_to 10162
  156.2418  130.4180  149.8752 H   0  0  0  0  0  0  0  0  0  0  0  0  # atno 10718 bound_to 10713
  153.1505  135.4605  154.9629 H   0  0  0  0  0  0  0  0  0  0  0  0  # atno 10763 bound_to 10752
  154.7821  135.3192  154.7970 H   0  0  0  0  0  0  0  0  0  0  0  0  # atno 10764 bound_to 10752
  153.8476  135.6924  153.4850 H   0  0  0  0  0  0  0  0  0  0  0  0  # atno 10765 bound_to 10752
  141.1345  133.8245  157.0839 H   0  0  0  0  0  0  0  0  0  0  0  0  # atno 11005 bound_to 11000
  145.1498  140.9617  143.4439 LP  0  0  0  0  0  0  0  0  0  0  0  0  # atno 17320 bound_to 7965
  145.0216  139.3419  143.6069 LP  0  0  0  0  0  0  0  0  0  0  0  0  # atno 17321 bound_to 7965
  140.5097  144.1044  150.5992 LP  0  0  0  0  0  0  0  0  0  0  0  0  # atno 17342 bound_to 10162
  140.3965  143.2725  151.9998 LP  0  0  0  0  0  0  0  0  0  0  0  0  # atno 17343 bound_to 10162
  156.6331  130.8674  151.3499 LP  0  0  0  0  0  0  0  0  0  0  0  0  # atno 17370 bound_to 10713
  157.7178  130.9519  150.1322 LP  0  0  0  0  0  0  0  0  0  0  0  0  # atno 17371 bound_to 10713
  140.0434  134.9842  157.1005 LP  0  0  0  0  0  0  0  0  0  0  0  0  # atno 17394 bound_to 11000
  140.4099  134.1992  155.7163 LP  0  0  0  0  0  0  0  0  0  0  0  0  # atno 17395 bound_to 11000

$$$$
