AV-unprocessed.smi:2243|AV-procd|sdf|9064|dock2
  -GOLD-   2272012273D 1   1.00000     0.00000
 Structure written by MMmdl.
 35 36  0  0  0  0  0  0  0  0  2 V2000
  147.5131  141.8202  155.1158 C   0  0  0  0  0  0  0  0  0  0  0  0
  148.6324  141.1161  154.3293 C   0  0  2  0  0  0  0  0  0  0  0  0
  148.0062  140.1906  153.3839 N   0  0  0  0  0  0  0  0  0  0  0  0
  147.0539  139.2907  153.6757 C   0  0  0  0  0  0  0  0  0  0  0  0
  146.5738  139.1370  154.7992 O   0  0  0  0  0  0  0  0  0  0  0  0
  146.6926  138.5868  152.5921 N   0  0  0  0  0  0  0  0  0  0  0  0
  145.7152  137.5654  152.5605 C   0  0  0  0  0  0  0  0  0  0  0  0
  144.4126  137.7852  152.3878 N   0  3  0  0  0  0  0  0  0  0  0  0
  143.7556  136.5798  152.4095 C   0  0  0  0  0  0  0  0  0  0  0  0
  144.7277  135.6279  152.6035 C   0  0  0  0  0  0  0  0  0  0  0  0
  145.9652  136.2323  152.7003 O   0  0  0  0  0  0  0  0  0  0  0  0
  149.6442  140.3673  155.2377 C   0  0  0  0  0  0  0  0  0  0  0  0
  150.4599  141.3258  156.1296 C   0  0  0  0  0  0  0  0  0  0  0  0
  151.5088  140.5664  156.9584 C   0  0  0  0  0  0  0  0  0  0  0  0
  152.3687  139.8287  156.0992 O   0  0  0  0  0  0  0  0  0  0  0  0
  151.6759  138.8377  155.3514 C   0  0  0  0  0  0  0  0  0  0  0  0
  150.6378  139.5019  154.4327 C   0  0  0  0  0  0  0  0  0  0  0  0
  147.9022  142.6201  155.7450 H   0  0  0  0  0  0  0  0  0  0  0  0
  146.9749  141.1208  155.7563 H   0  0  0  0  0  0  0  0  0  0  0  0
  146.7881  142.2764  154.4405 H   0  0  0  0  0  0  0  0  0  0  0  0
  149.1793  141.8871  153.7837 H   0  0  0  0  0  0  0  0  0  0  0  0
  148.3342  140.2404  152.4302 H   0  0  0  0  0  0  0  0  0  0  0  0
  143.9450  138.6738  152.2586 H   0  0  0  0  0  0  0  0  0  0  0  0
  142.6836  136.5203  152.2871 H   0  0  0  0  0  0  0  0  0  0  0  0
  144.7115  134.5512  152.6906 H   0  0  0  0  0  0  0  0  0  0  0  0
  149.0811  139.7006  155.8928 H   0  0  0  0  0  0  0  0  0  0  0  0
  150.9611  142.0708  155.5103 H   0  0  0  0  0  0  0  0  0  0  0  0
  149.8076  141.8721  156.8102 H   0  0  0  0  0  0  0  0  0  0  0  0
  152.1096  141.2703  157.5346 H   0  0  0  0  0  0  0  0  0  0  0  0
  151.0293  139.8972  157.6746 H   0  0  0  0  0  0  0  0  0  0  0  0
  152.3984  138.2787  154.7564 H   0  0  0  0  0  0  0  0  0  0  0  0
  151.1992  138.1239  156.0253 H   0  0  0  0  0  0  0  0  0  0  0  0
  150.1142  138.7252  153.8756 H   0  0  0  0  0  0  0  0  0  0  0  0
  151.1511  140.1210  153.6957 H   0  0  0  0  0  0  0  0  0  0  0  0
  147.1540  138.7979  151.7197 H   0  0  0  0  0  0  0  0  0  0  0  0
  1  2  1  0  0  0  0
  1 18  1  0  0  0  0
  1 19  1  0  0  0  0
  1 20  1  0  0  0  0
  2  3  1  0  0  0  0
  2 12  1  0  0  0  0
  2 21  1  0  0  0  0
  3 22  1  0  0  0  0
  3  4  1  0  0  0  0
  4  6  1  0  0  0  0
  4  5  2  0  0  0  0
  6  7  1  0  0  0  0
  6 35  1  0  0  0  0
  7 11  1  0  0  0  0
  7  8  2  0  0  0  0
  8 23  1  0  0  0  0
  8  9  1  0  0  0  0
  9 24  1  0  0  0  0
  9 10  2  0  0  0  0
 10 25  1  0  0  0  0
 10 11  1  0  0  0  0
 12 17  1  0  0  0  0
 12 13  1  0  0  0  0
 12 26  1  0  0  0  0
 13 14  1  0  0  0  0
 13 27  1  0  0  0  0
 13 28  1  0  0  0  0
 14 15  1  0  0  0  0
 14 29  1  0  0  0  0
 14 30  1  0  0  0  0
 15 16  1  0  0  0  0
 16 17  1  0  0  0  0
 16 31  1  0  0  0  0
 16 32  1  0  0  0  0
 17 33  1  0  0  0  0
 17 34  1  0  0  0  0
M  CHG  1   8   1
M  END
> <s_m_source_file>
AV-unprocessed.smi

> <i_m_source_file_index>
2243

> <i_lp_mmshare_version>
43012

> <i_f3d_flags>
0

> <s_epik_input>
W0NIMl0xW0NIMl1PW0NIMl1bQ0gyXVtDSF0xW0NASF0oW0NIM10pW05IXUMoPU8pW05IXWMybltjSF1bY0hdbzI=

> <s_epik_cmdline>
J2VwaWtfcHl0aG9uJywgJy1waCcsICc3LjAnLCAnLXRuJywgJzgnLCAnLW1hJywgJzIwMCcsICctbWV0YWxfYmluZGluZycsICctaW1hZScsICc8aW5maWxlLm1hZT4nLCAnLW9tYWUnLCAnPG91dGZpbGUubWFlPic=

> <r_epik_Ionization_Penalty>
6.61405

> <r_epik_Ionization_Penalty_Charging>
6.55981

> <r_epik_Ionization_Penalty_Neutral>
0.0542461

> <r_epik_State_Penalty>
1.79186

> <r_epik_Charging_Adjusted_Penalty>
8.35167

> <i_epik_Tot_Q>
1

> <i_epik_Tot_abs_Q>
1

> <r_epik_Metal_State_Penalty>
1.80655

> <b_epik_Metal_Only>
0

> <s_lp_Force_Field>
OPLS_2005

> <r_lp_Energy>
19.6033

> <b_lp_Chiralities_Consistent>
1

> <s_lp_Variant>
AV-unprocessed.smi:2243-3

> <Gold.Version>
5.8.1

> <Gold.Id.Protein>
6NUR|6NUR_protein|mol2

> <Gold.PLP.Fitness>
39.7501

> <Gold.PLP.PLP>
-29.6478

> <Gold.PLP.part.hbond>
-4.0000

> <Gold.PLP.part.metal>
0.0000

> <Gold.PLP.part.buried>
-2.1051

> <Gold.PLP.part.nonpolar>
-23.3542

> <Gold.PLP.part.repulsive>
0.3921

> <Gold.PLP.ligand.clash>
0.0000

> <Gold.PLP.ligand.torsion>
0.9567

> <Gold.PLP.Chemscore.Hbond>
4.0000

> <Gold.PLP.Chemscore.CHOScore>
0.0000

> <Gold.PLP.Chemscore.Metal>
0.0000

> <Gold.Chemscore.Hbonds>
donor molecule, donor type, donor heavy atom, donor atom, acceptor molecule, acceptor atom, score
      L1  H     3    22       P1  7957  1.00
      L1  H     8    23       P1 10175  2.00
      P1  H  7997  8009       L1    15  1.00

> <Gold.PLP.Chemscore.Internal.Correction>
0.0157

> <Gold.Rescore>
     Score         DG    S(hbond)    S(metal)    S(lipo)     H(rot)  DE(clash)    DE(int)     intcor
     15.73     -17.96       2.85        0.00      54.56       1.33       0.93       1.29       ----

> <Gold.Chemscore.Fitness>
15.7345

> <Gold.Chemscore.DG>
-17.9569

> <Gold.Chemscore.ZeroCoef>
-5.4800

> <Gold.Chemscore.Hbond>
2.8455

> <Gold.Chemscore.Metal>
0.0000

> <Gold.Chemscore.Lipo>
54.5581

> <Gold.Chemscore.Internal_Hbond>
0.0000

> <Gold.Chemscore.DEClash>
0.9337

> <Gold.Chemscore.DEInternal>
1.2887

> <Gold.Chemscore.Rot>
1.3321

> <Gold.Chemscore.Internal.Correction>
   9.000000E+99

> <Gold.Chemscore.Hbonds>
donor molecule, donor type, donor heavy atom, donor atom, acceptor molecule, acceptor atom, score
      L1  H     3    22       P1  7957  0.98
      L1  H     8    23       P1 10175  0.99
      P1  H  7997  8009       L1    15  0.91

> <Gold.Chemscore.Hbond.Weighted>
-9.5039

> <Gold.Chemscore.Metal.Weighted>
-0.0000

> <Gold.Chemscore.Lipo.Weighted>
-6.3833

> <Gold.Chemscore.Internal_Hbond.Weighted>
0.0000

> <Gold.Chemscore.DEClash.Weighted>
0.9337

> <Gold.Chemscore.DEInternal.Weighted>
1.2887

> <Gold.Chemscore.Rot.Weighted>
3.4103

> <Gold.Chemscore.Internal.Correction.Weighted>
   9.000000E+99

> <Gold.Protein.RotatedTorsions>
[ 6907 6896 6895 6894 ] final   61.71 input  -60.11 | X-H torsion
[ 7974 7965 7964 7962 ] final -101.61 input  175.53 | X-H torsion
[ 8008 7997 7996 7995 ] final -158.38 input   59.86 | X-H torsion
[ 10167 10162 10161 10158 ] final  -95.58 input  -65.29 | X-H torsion
[ 10718 10713 10712 10709 ] final  139.68 input   66.30 | X-H torsion
[ 10763 10752 10751 10750 ] final  -59.16 input  -60.55 | X-H torsion
[ 11005 11000 10999 10996 ] final   58.68 input  -57.11 | X-H torsion

> <Gold.Protein.ActiveResidues>
 VAL166  LYS551  ARG553  GLY616  TRP617  ASP618  TYR619  PRO620  LYS621  CYS622 
 ASP623  PHE694  ASN695  SER759  ASP760  ASP761  ALA762  ILE779  LEU786  VAL792 
 PHE793  MET794  SER795  GLU796  ALA797  LYS798  CYS799  TRP800  GLU811  SER814 

> <Gold.Protein.RotatedAtoms>
  152.4112  134.6121  160.0028 H   0  0  0  0  0  0  0  0  0  0  0  0  # atno 6907 bound_to 6896
  151.6298  133.3327  159.3114 H   0  0  0  0  0  0  0  0  0  0  0  0  # atno 6908 bound_to 6896
  150.8002  134.7131  159.6660 H   0  0  0  0  0  0  0  0  0  0  0  0  # atno 6909 bound_to 6896
  145.2794  140.9322  143.2940 H   0  0  0  0  0  0  0  0  0  0  0  0  # atno 7974 bound_to 7965
  155.7467  140.0821  157.2220 H   0  0  0  0  0  0  0  0  0  0  0  0  # atno 8008 bound_to 7997
  154.4016  140.1568  156.2732 H   0  0  0  0  0  0  0  0  0  0  0  0  # atno 8009 bound_to 7997
  155.8970  140.3412  155.6000 H   0  0  0  0  0  0  0  0  0  0  0  0  # atno 8010 bound_to 7997
  140.3027  143.3152  152.0231 H   0  0  0  0  0  0  0  0  0  0  0  0  # atno 10167 bound_to 10162
  157.4117  131.1029  151.0447 H   0  0  0  0  0  0  0  0  0  0  0  0  # atno 10718 bound_to 10713
  154.2494  135.6329  153.5235 H   0  0  0  0  0  0  0  0  0  0  0  0  # atno 10763 bound_to 10752
  152.9915  135.5561  154.5824 H   0  0  0  0  0  0  0  0  0  0  0  0  # atno 10764 bound_to 10752
  154.5348  135.2891  155.1123 H   0  0  0  0  0  0  0  0  0  0  0  0  # atno 10765 bound_to 10752
  140.0360  134.5943  155.9444 H   0  0  0  0  0  0  0  0  0  0  0  0  # atno 11005 bound_to 11000
  144.9266  139.4348  143.6515 LP  0  0  0  0  0  0  0  0  0  0  0  0  # atno 17320 bound_to 7965
  146.3221  139.8155  142.8937 LP  0  0  0  0  0  0  0  0  0  0  0  0  # atno 17321 bound_to 7965
  139.4911  144.6444  151.6810 LP  0  0  0  0  0  0  0  0  0  0  0  0  # atno 17342 bound_to 10162
  140.5637  144.0226  150.6182 LP  0  0  0  0  0  0  0  0  0  0  0  0  # atno 17343 bound_to 10162
  157.1409  130.6142  149.5555 LP  0  0  0  0  0  0  0  0  0  0  0  0  # atno 17370 bound_to 10713
  155.9853  130.4882  150.7023 LP  0  0  0  0  0  0  0  0  0  0  0  0  # atno 17371 bound_to 10713
  141.1857  133.6555  156.5210 LP  0  0  0  0  0  0  0  0  0  0  0  0  # atno 17394 bound_to 11000
  140.4147  134.7240  157.4856 LP  0  0  0  0  0  0  0  0  0  0  0  0  # atno 17395 bound_to 11000

$$$$
