AV-unprocessed.smi:1703|AV-procd|sdf|6874|dock3
  -GOLD-   22720 8 73D 1   1.00000     0.00000
 Structure written by MMmdl.
 50 52  0  0  0  0  0  0  0  0  3 V2000
  144.5759  137.9663  157.7998 C   0  0  0  0  0  0  0  0  0  0  0  0
  144.2506  139.3688  157.2745 C   0  0  1  0  0  0  0  0  0  0  0  0
  144.6205  139.5303  155.7864 C   0  0  0  0  0  0  0  0  0  0  0  0
  144.2262  140.8655  155.2756 N   0  3  2  0  0  0  0  0  0  0  0  0
  145.1497  141.9583  155.6834 C   0  0  0  0  0  0  0  0  0  0  0  0
  146.6284  141.5152  155.6624 C   0  0  2  0  0  0  0  0  0  0  0  0
  147.3768  142.3841  156.4875 O   0  0  0  0  0  0  0  0  0  0  0  0
  147.2682  141.5350  154.2592 C   0  0  0  0  0  0  0  0  0  0  0  0
  148.0791  140.3383  153.9800 N   0  0  0  0  0  0  0  0  0  0  0  0
  147.7950  139.2502  153.2057 C   0  0  0  0  0  0  0  0  0  0  0  0
  146.5445  138.9954  152.4304 C   0  0  0  0  0  0  0  0  0  0  0  0
  146.8050  138.7225  151.0719 O   0  0  0  0  0  0  0  0  0  0  0  0
  148.8659  138.4112  153.2782 N   0  3  0  0  0  0  0  0  0  0  0  0
  149.8428  138.9609  154.1081 C   0  0  0  0  0  0  0  0  0  0  0  0
  151.0929  138.4787  154.4833 C   0  0  0  0  0  0  0  0  0  0  0  0
  151.8490  139.2901  155.3539 C   0  0  0  0  0  0  0  0  0  0  0  0
  151.3561  140.5272  155.8169 C   0  0  0  0  0  0  0  0  0  0  0  0
  150.0871  141.0063  155.4291 C   0  0  0  0  0  0  0  0  0  0  0  0
  149.3440  140.1979  154.5677 C   0  0  0  0  0  0  0  0  0  0  0  0
  142.7910  141.1263  155.5573 C   0  0  0  0  0  0  0  0  0  0  0  0
  142.4473  140.8953  157.0456 C   0  0  1  0  0  0  0  0  0  0  0  0
  140.9438  141.0249  157.3128 C   0  0  0  0  0  0  0  0  0  0  0  0
  142.8516  139.5841  157.4254 O   0  0  0  0  0  0  0  0  0  0  0  0
  145.6403  137.7488  157.7068 H   0  0  0  0  0  0  0  0  0  0  0  0
  144.0288  137.2012  157.2480 H   0  0  0  0  0  0  0  0  0  0  0  0
  144.3088  137.8720  158.8528 H   0  0  0  0  0  0  0  0  0  0  0  0
  144.7956  140.0967  157.8781 H   0  0  0  0  0  0  0  0  0  0  0  0
  145.6858  139.3588  155.6268 H   0  0  0  0  0  0  0  0  0  0  0  0
  144.0995  138.7735  155.1978 H   0  0  0  0  0  0  0  0  0  0  0  0
  144.9938  142.8200  155.0363 H   0  0  0  0  0  0  0  0  0  0  0  0
  144.9060  142.2945  156.6925 H   0  0  0  0  0  0  0  0  0  0  0  0
  146.7251  140.5102  156.0705 H   0  0  0  0  0  0  0  0  0  0  0  0
  147.7697  143.0548  155.9495 H   0  0  0  0  0  0  0  0  0  0  0  0
  146.5139  141.6551  153.4819 H   0  0  0  0  0  0  0  0  0  0  0  0
  147.9316  142.3962  154.1660 H   0  0  0  0  0  0  0  0  0  0  0  0
  145.9971  138.1591  152.8641 H   0  0  0  0  0  0  0  0  0  0  0  0
  145.8964  139.8697  152.4972 H   0  0  0  0  0  0  0  0  0  0  0  0
  145.9811  138.6534  150.6137 H   0  0  0  0  0  0  0  0  0  0  0  0
  151.4718  137.5299  154.1315 H   0  0  0  0  0  0  0  0  0  0  0  0
  152.8253  138.9557  155.6745 H   0  0  0  0  0  0  0  0  0  0  0  0
  151.9637  141.1202  156.4854 H   0  0  0  0  0  0  0  0  0  0  0  0
  149.7256  141.9561  155.7935 H   0  0  0  0  0  0  0  0  0  0  0  0
  142.5069  142.1322  155.2506 H   0  0  0  0  0  0  0  0  0  0  0  0
  142.2022  140.4450  154.9415 H   0  0  0  0  0  0  0  0  0  0  0  0
  142.9648  141.6228  157.6723 H   0  0  0  0  0  0  0  0  0  0  0  0
  140.5828  142.0205  157.0526 H   0  0  0  0  0  0  0  0  0  0  0  0
  140.7186  140.8552  158.3661 H   0  0  0  0  0  0  0  0  0  0  0  0
  140.3745  140.2997  156.7305 H   0  0  0  0  0  0  0  0  0  0  0  0
  144.3179  140.8124  154.2704 H   0  0  0  0  0  0  0  0  0  0  0  0
  148.9164  137.5203  152.8001 H   0  0  0  0  0  0  0  0  0  0  0  0
  1  2  1  0  0  0  0
  1 24  1  0  0  0  0
  1 25  1  0  0  0  0
  1 26  1  0  0  0  0
  2 23  1  0  0  0  0
  2  3  1  0  0  0  0
  2 27  1  0  0  0  0
  3  4  1  0  0  0  0
  3 28  1  0  0  0  0
  3 29  1  0  0  0  0
  4  5  1  0  0  0  0
  4 20  1  0  0  0  0
  4 49  1  0  0  0  0
  5  6  1  0  0  0  0
  5 30  1  0  0  0  0
  5 31  1  0  0  0  0
  6  7  1  0  0  0  0
  6  8  1  0  0  0  0
  6 32  1  0  0  0  0
  7 33  1  0  0  0  0
  8  9  1  0  0  0  0
  8 34  1  0  0  0  0
  8 35  1  0  0  0  0
  9 19  1  0  0  0  0
  9 10  1  0  0  0  0
 10 11  1  0  0  0  0
 10 13  2  0  0  0  0
 11 12  1  0  0  0  0
 11 36  1  0  0  0  0
 11 37  1  0  0  0  0
 12 38  1  0  0  0  0
 13 14  1  0  0  0  0
 13 50  1  0  0  0  0
 14 19  2  0  0  0  0
 14 15  1  0  0  0  0
 15 16  2  0  0  0  0
 15 39  1  0  0  0  0
 16 17  1  0  0  0  0
 16 40  1  0  0  0  0
 17 18  2  0  0  0  0
 17 41  1  0  0  0  0
 18 19  1  0  0  0  0
 18 42  1  0  0  0  0
 20 21  1  0  0  0  0
 20 43  1  0  0  0  0
 20 44  1  0  0  0  0
 21 22  1  0  0  0  0
 21 23  1  0  0  0  0
 21 45  1  0  0  0  0
 22 46  1  0  0  0  0
 22 47  1  0  0  0  0
 22 48  1  0  0  0  0
M  CHG  1   4   1
M  CHG  1  13   1
M  END
> <s_m_source_file>
AV-unprocessed.smi

> <i_m_source_file_index>
1703

> <i_lp_mmshare_version>
43012

> <i_f3d_flags>
0

> <s_epik_input>
W0NIM11bQ0BASF0xW0NIMl1OKFtDSDJdW0NASF0oTzEpW0NIM10pW0NIMl1bQ0BIXShbT0hdKVtDSDJdbihjKG4yKVtDSDJdW09IXSljKGMyMylbY0hdW2NIXVtjSF1bY0hdMw==

> <s_epik_cmdline>
J2VwaWtfcHl0aG9uJywgJy1waCcsICc3LjAnLCAnLXRuJywgJzgnLCAnLW1hJywgJzIwMCcsICctbWV0YWxfYmluZGluZycsICctaW1hZScsICc8aW5maWxlLm1hZT4nLCAnLW9tYWUnLCAnPG91dGZpbGUubWFlPic=

> <r_epik_Ionization_Penalty>
2.22579

> <r_epik_Ionization_Penalty_Charging>
2.22492

> <r_epik_Ionization_Penalty_Neutral>
0.000870007

> <r_epik_State_Penalty>
2.3141

> <r_epik_Charging_Adjusted_Penalty>
4.53902

> <i_epik_Tot_Q>
2

> <i_epik_Tot_abs_Q>
2

> <r_epik_Metal_State_Penalty>
6.36517

> <b_epik_Metal_Only>
0

> <s_lp_Force_Field>
OPLS_2005

> <r_lp_Energy>
32.0601

> <b_lp_Chiralities_Consistent>
1

> <s_lp_Variant>
AV-unprocessed.smi:1703-22

> <Gold.Version>
5.8.1

> <Gold.Id.Protein>
6NUR|6NUR_protein|mol2

> <Gold.PLP.Fitness>
52.5820

> <Gold.PLP.PLP>
-35.3695

> <Gold.PLP.part.hbond>
-6.4339

> <Gold.PLP.part.metal>
0.0000

> <Gold.PLP.part.buried>
0.0960

> <Gold.PLP.part.nonpolar>
-29.4375

> <Gold.PLP.part.repulsive>
0.0663

> <Gold.PLP.ligand.clash>
0.0000

> <Gold.PLP.ligand.torsion>
1.2000

> <Gold.PLP.Chemscore.Hbond>
6.5123

> <Gold.PLP.Chemscore.CHOScore>
0.0000

> <Gold.PLP.Chemscore.Metal>
0.0000

> <Gold.Chemscore.Hbonds>
donor molecule, donor type, donor heavy atom, donor atom, acceptor molecule, acceptor atom, score
      L1  H     4    49       P1 10175  2.00
      L1  H     7    33       P1  8028  1.00
      L1  H    12    38       P1 10171  0.49
      L1  H    13    50       P1  7948  2.00
      P1  H  7954  7966       L1    12  0.96

> <Gold.PLP.Chemscore.Internal.Correction>
0.0758

> <Gold.Rescore>
     Score         DG    S(hbond)    S(metal)    S(lipo)     H(rot)  DE(clash)    DE(int)     intcor
     16.28     -17.56       3.73        0.00      63.20       3.04       0.03       1.24       ----

> <Gold.Chemscore.Fitness>
16.2822

> <Gold.Chemscore.DG>
-17.5559

> <Gold.Chemscore.ZeroCoef>
-5.4800

> <Gold.Chemscore.Hbond>
3.7298

> <Gold.Chemscore.Metal>
0.0000

> <Gold.Chemscore.Lipo>
63.2049

> <Gold.Chemscore.Internal_Hbond>
0.0000

> <Gold.Chemscore.DEClash>
0.0291

> <Gold.Chemscore.DEInternal>
1.2446

> <Gold.Chemscore.Rot>
3.0378

> <Gold.Chemscore.Internal.Correction>
   9.000000E+99

> <Gold.Chemscore.Hbonds>
donor molecule, donor type, donor heavy atom, donor atom, acceptor molecule, acceptor atom, score
      L1  H     4    49       P1 10175  0.95
      L1  H     7    33       P1  8028  0.33
      L1  H    12    38       P1 10171  0.48
      L1  H    13    50       P1  7948  0.97
      P1  H  7954  7966       L1    12  0.50

> <Gold.Chemscore.Hbond.Weighted>
-12.4576

> <Gold.Chemscore.Metal.Weighted>
-0.0000

> <Gold.Chemscore.Lipo.Weighted>
-7.3950

> <Gold.Chemscore.Internal_Hbond.Weighted>
0.0000

> <Gold.Chemscore.DEClash.Weighted>
0.0291

> <Gold.Chemscore.DEInternal.Weighted>
1.2446

> <Gold.Chemscore.Rot.Weighted>
7.7767

> <Gold.Chemscore.Internal.Correction.Weighted>
   9.000000E+99

> <Gold.Protein.RotatedTorsions>
[ 6907 6896 6895 6894 ] final  -59.19 input  -60.11 | X-H torsion
[ 7974 7965 7964 7962 ] final   54.52 input  175.53 | X-H torsion
[ 8008 7997 7996 7995 ] final  177.86 input   59.86 | X-H torsion
[ 10167 10162 10161 10158 ] final   75.37 input  -65.29 | X-H torsion
[ 10718 10713 10712 10709 ] final   84.70 input   66.30 | X-H torsion
[ 10763 10752 10751 10750 ] final  -42.88 input  -60.55 | X-H torsion
[ 11005 11000 10999 10996 ] final   92.40 input  -57.11 | X-H torsion

> <Gold.Protein.ActiveResidues>
 VAL166  LYS551  ARG553  GLY616  TRP617  ASP618  TYR619  PRO620  LYS621  CYS622 
 ASP623  PHE694  ASN695  SER759  ASP760  ASP761  ALA762  ILE779  LEU786  VAL792 
 PHE793  MET794  SER795  GLU796  ALA797  LYS798  CYS799  TRP800  GLU811  SER814 

> <Gold.Protein.RotatedAtoms>
  150.7949  134.7001  159.6544 H   0  0  0  0  0  0  0  0  0  0  0  0  # atno 6907 bound_to 6896
  152.4060  134.6203  160.0058 H   0  0  0  0  0  0  0  0  0  0  0  0  # atno 6908 bound_to 6896
  151.6460  133.3286  159.3177 H   0  0  0  0  0  0  0  0  0  0  0  0  # atno 6909 bound_to 6896
  145.9600  139.4050  143.0254 H   0  0  0  0  0  0  0  0  0  0  0  0  # atno 7974 bound_to 7965
  156.0610  140.1348  156.9941 H   0  0  0  0  0  0  0  0  0  0  0  0  # atno 8008 bound_to 7997
  154.4482  140.0991  156.6588 H   0  0  0  0  0  0  0  0  0  0  0  0  # atno 8009 bound_to 7997
  155.5377  140.3460  155.4442 H   0  0  0  0  0  0  0  0  0  0  0  0  # atno 8010 bound_to 7997
  140.0037  144.5667  150.7716 H   0  0  0  0  0  0  0  0  0  0  0  0  # atno 10167 bound_to 10162
  157.6902  131.0144  150.2712 H   0  0  0  0  0  0  0  0  0  0  0  0  # atno 10718 bound_to 10713
  153.9863  135.6711  153.4752 H   0  0  0  0  0  0  0  0  0  0  0  0  # atno 10763 bound_to 10752
  153.0725  135.4966  154.8331 H   0  0  0  0  0  0  0  0  0  0  0  0  # atno 10764 bound_to 10752
  154.7135  135.3102  154.9122 H   0  0  0  0  0  0  0  0  0  0  0  0  # atno 10765 bound_to 10752
  139.8824  134.8730  156.3567 H   0  0  0  0  0  0  0  0  0  0  0  0  # atno 11005 bound_to 11000
  145.8053  140.9751  143.0977 LP  0  0  0  0  0  0  0  0  0  0  0  0  # atno 17320 bound_to 7965
  144.6813  139.9853  143.7484 LP  0  0  0  0  0  0  0  0  0  0  0  0  # atno 17321 bound_to 7965
  140.7409  143.2811  151.3597 LP  0  0  0  0  0  0  0  0  0  0  0  0  # atno 17342 bound_to 10162
  139.6254  144.0825  152.2429 LP  0  0  0  0  0  0  0  0  0  0  0  0  # atno 17343 bound_to 10162
  156.3274  130.3795  149.7521 LP  0  0  0  0  0  0  0  0  0  0  0  0  # atno 17370 bound_to 10713
  156.5071  130.8155  151.3155 LP  0  0  0  0  0  0  0  0  0  0  0  0  # atno 17371 bound_to 10713
  140.9557  133.7421  156.0332 LP  0  0  0  0  0  0  0  0  0  0  0  0  # atno 17394 bound_to 11000
  140.8051  134.3464  157.5428 LP  0  0  0  0  0  0  0  0  0  0  0  0  # atno 17395 bound_to 11000

$$$$
