#       Name:                AV-unprocessed.smi:1641
#       Creating user name   scv26
#       Creation time:       Fri Mar 27 07:25:24 2020


#       File generated by GOLD software.
#

@<TRIPOS>MOLECULE
AV-unprocessed.smi:1641
    48    49     1
SMALL
NO_CHARGES


@<TRIPOS>ATOM
      1 ****        -2.8915   6.7656   3.3463 C.3            1 S1                 0.0000
      2 ****        -3.0900   5.6787   2.3460 C.2            1 S1                 0.0000
      3 ****        -4.2587   5.0555   2.1762 N.2            1 S1                 0.0000
      4 ****        -4.1934   4.0813   1.1903 N.2            1 S1                 0.0000
      5 ****        -2.9765   3.9735   0.6379 C.2            1 S1                 0.0000
      6 ****        -2.7000   3.0896  -0.3350 N.pl3          1 S1                -1.0000
      7 ****        -2.1480   1.8955  -0.0243 C.2            1 S1                 0.0000
      8 ****        -1.8708   1.4895   1.1067 O.2            1 S1                 0.0000
      9 ****        -1.8927   1.1253  -1.0914 N.am           1 S1                 0.0000
     10 ****        -1.2846  -0.1994  -1.0581 C.3            1 S1                 0.0000
     11 ****         0.2323  -0.1158  -0.7996 C.3            1 S1                 0.0000
     12 ****         0.8850  -1.4479  -0.8165 N.4            1 S1                 1.0000
     13 ****         2.3468  -1.3554  -1.0364 C.3            1 S1                 0.0000
     14 ****         2.9658  -2.7598  -1.1521 C.3            1 S1                 0.0000
     15 ****         4.4916  -2.7055  -1.2868 C.3            1 S1                 0.0000
     16 ****         2.6571  -3.5141   0.0170 O.3            1 S1                 0.0000
     17 ****         1.2629  -3.6518   0.2913 C.3            1 S1                 0.0000
     18 ****         0.5641  -4.5985  -0.7012 C.3            1 S1                 0.0000
     19 ****         0.5992  -2.2642   0.3894 C.3            1 S1                 0.0000
     20 ****        -1.8017   5.1109   1.2976 S.3            1 S1                 0.0000
     21 ****        -2.6512   6.3362   4.3190 H              1 S1                 0.0000
     22 ****        -3.7971   7.3657   3.4400 H              1 S1                 0.0000
     23 ****        -2.0731   7.4166   3.0385 H              1 S1                 0.0000
     24 ****        -2.1400   1.4947  -1.9980 H              1 S1                 0.0000
     25 ****        -1.7905  -0.8021  -0.3036 H              1 S1                 0.0000
     26 ****        -1.4719  -0.6814  -2.0178 H              1 S1                 0.0000
     27 ****         0.6727   0.5078  -1.5789 H              1 S1                 0.0000
     28 ****         0.4459   0.3807   0.1482 H              1 S1                 0.0000
     29 ****         2.5472  -0.7929  -1.9491 H              1 S1                 0.0000
     30 ****         2.8041  -0.8038  -0.2130 H              1 S1                 0.0000
     31 ****         2.5673  -3.2646  -2.0324 H              1 S1                 0.0000
     32 ****         4.7891  -2.1439  -2.1727 H              1 S1                 0.0000
     33 ****         4.9104  -3.7083  -1.3740 H              1 S1                 0.0000
     34 ****         4.9485  -2.2289  -0.4191 H              1 S1                 0.0000
     35 ****         1.1946  -4.1211   1.2731 H              1 S1                 0.0000
     36 ****        -0.4629  -4.7930  -0.3909 H              1 S1                 0.0000
     37 ****         1.0793  -5.5580  -0.7516 H              1 S1                 0.0000
     38 ****         0.5234  -4.1865  -1.7092 H              1 S1                 0.0000
     39 ****         0.9760  -1.7407   1.2696 H              1 S1                 0.0000
     40 ****        -0.4737  -2.3851   0.5342 H              1 S1                 0.0000
     41 ****         0.5068  -1.9442  -1.6106 H              1 S1                 0.0000
     42 ****        -5.0849   5.2663   2.6988 LP             1 S1                 0.0000
     43 ****        -4.9738   3.5176   0.9196 LP             1 S1                 0.0000
     44 ****        -2.9023   3.3147  -1.2881 LP             1 S1                 0.0000
     45 ****        -2.0543   2.0652   1.9035 LP             1 S1                 0.0000
     46 ****        -1.4626   0.5846   1.2270 LP             1 S1                 0.0000
     47 ****         3.0849  -3.0628   0.8001 LP             1 S1                 0.0000
     48 ****         3.0442  -4.4296  -0.0925 LP             1 S1                 0.0000
@<TRIPOS>BOND
    1    1    2 1     
    2    1   21 1     
    3    1   22 1     
    4    1   23 1     
    5    2   20 1     
    6    2    3 2     
    7    3    4 1     
    8    4    5 2     
    9    5    6 1     
   10    5   20 1     
   11    6    7 1     
   12    7    8 2     
   13    7    9 am    
   14    9   10 1     
   15    9   24 1     
   16   10   11 1     
   17   10   25 1     
   18   10   26 1     
   19   11   12 1     
   20   11   27 1     
   21   11   28 1     
   22   12   19 1     
   23   12   13 1     
   24   12   41 1     
   25   13   14 1     
   26   13   29 1     
   27   13   30 1     
   28   14   15 1     
   29   14   16 1     
   30   14   31 1     
   31   15   32 1     
   32   15   33 1     
   33   15   34 1     
   34   16   17 1     
   35   17   18 1     
   36   17   19 1     
   37   17   35 1     
   38   18   36 1     
   39   18   37 1     
   40   18   38 1     
   41   19   39 1     
   42   19   40 1     
   43    3   42 1     
   44    4   43 1     
   45    6   44 1     
   46    8   45 1     
   47    8   46 1     
   48   16   47 1     
   49   16   48 1     
@<TRIPOS>SUBSTRUCTURE
      1 S1             1
@<TRIPOS>SET
LONE_PAIRS      STATIC     ATOMS    <user>   **** ""
7 42 43 44 45 46 47 48
DONOR_HYDROGENS      STATIC     ATOMS    <user>   **** ""
2 24 41
ATOM$BLUE        STATIC     ATOMS    COLORGROUP SYSTEM
7 42 43 44 45 46 47 48
ATOM$RED        STATIC     ATOMS    COLORGROUP SYSTEM
2 24 41
