AV-unprocessed.smi:1957|AV-procd|sdf|7905|dock9
  -GOLD-   2272010 63D 1   1.00000     0.00000
 Structure written by MMmdl.
 42 43  0  0  0  0  0  0  0  0  1 V2000
  156.5735  140.1272  160.2694 C   0  0  0  0  0  0  0  0  0  0  0  0
  155.4509  140.8124  160.7962 O   0  0  0  0  0  0  0  0  0  0  0  0
  154.2444  140.4601  160.1410 C   0  0  0  0  0  0  0  0  0  0  0  0
  153.1243  141.3905  160.6303 C   0  0  0  0  0  0  0  0  0  0  0  0
  152.4145  142.0139  159.5090 N   0  0  0  0  0  0  0  0  0  0  0  0
  151.6995  141.1216  158.7275 N   0  0  0  0  0  0  0  0  0  0  0  0
  151.0194  141.5467  157.7120 C   0  0  0  0  0  0  0  0  0  0  0  0
  150.2343  140.6210  156.8497 C   0  0  0  0  0  0  0  0  0  0  0  0
  150.3372  139.3968  156.9454 O   0  0  0  0  0  0  0  0  0  0  0  0
  149.4170  141.2170  155.9613 N   0  0  0  0  0  0  0  0  0  0  0  0
  148.5861  140.5286  154.9712 C   0  0  1  0  0  0  0  0  0  0  0  0
  148.0321  141.5987  154.0029 C   0  0  0  0  0  0  0  0  0  0  0  0
  146.7613  141.1593  153.2546 C   0  0  0  0  0  0  0  0  0  0  0  0
  146.9527  139.9844  152.2835 C   0  0  0  0  0  0  0  0  0  0  0  0
  147.3936  138.6801  152.9697 C   0  0  0  0  0  0  0  0  0  0  0  0
  148.8112  138.6898  153.3061 N   0  0  0  0  0  0  0  0  0  0  0  0
  149.4294  139.5082  154.1707 C   0  0  0  0  0  0  0  0  0  0  0  0
  150.6503  139.4476  154.3178 O   0  0  0  0  0  0  0  0  0  0  0  0
  150.9937  142.9595  157.3724 C   0  0  0  0  0  0  0  0  0  0  0  0
  151.6938  143.8181  158.1457 C   0  0  0  0  0  0  0  0  0  0  0  0
  152.4679  143.3643  159.3022 C   0  0  0  0  0  0  0  0  0  0  0  0
  153.1064  144.1275  160.0261 O   0  0  0  0  0  0  0  0  0  0  0  0
  157.4716  140.4256  160.8099 H   0  0  0  0  0  0  0  0  0  0  0  0
  156.7204  140.3647  159.2150 H   0  0  0  0  0  0  0  0  0  0  0  0
  156.4616  139.0471  160.3731 H   0  0  0  0  0  0  0  0  0  0  0  0
  154.3647  140.5546  159.0604 H   0  0  0  0  0  0  0  0  0  0  0  0
  153.9971  139.4192  160.3552 H   0  0  0  0  0  0  0  0  0  0  0  0
  152.4272  140.8378  161.2626 H   0  0  0  0  0  0  0  0  0  0  0  0
  153.5511  142.1615  161.2746 H   0  0  0  0  0  0  0  0  0  0  0  0
  149.3964  142.2265  155.9467 H   0  0  0  0  0  0  0  0  0  0  0  0
  147.7651  140.0214  155.4814 H   0  0  0  0  0  0  0  0  0  0  0  0
  147.7716  142.4919  154.5732 H   0  0  0  0  0  0  0  0  0  0  0  0
  148.7971  141.9200  153.2937 H   0  0  0  0  0  0  0  0  0  0  0  0
  145.9852  140.9069  153.9784 H   0  0  0  0  0  0  0  0  0  0  0  0
  146.3764  142.0119  152.6942 H   0  0  0  0  0  0  0  0  0  0  0  0
  146.0026  139.8040  151.7797 H   0  0  0  0  0  0  0  0  0  0  0  0
  147.6597  140.2551  151.4979 H   0  0  0  0  0  0  0  0  0  0  0  0
  146.7903  138.4736  153.8549 H   0  0  0  0  0  0  0  0  0  0  0  0
  147.2328  137.8447  152.2877 H   0  0  0  0  0  0  0  0  0  0  0  0
  149.3906  138.0290  152.8087 H   0  0  0  0  0  0  0  0  0  0  0  0
  150.4307  143.3226  156.5248 H   0  0  0  0  0  0  0  0  0  0  0  0
  151.6826  144.8711  157.9054 H   0  0  0  0  0  0  0  0  0  0  0  0
  1  2  1  0  0  0  0
  1 23  1  0  0  0  0
  1 24  1  0  0  0  0
  1 25  1  0  0  0  0
  2  3  1  0  0  0  0
  3  4  1  0  0  0  0
  3 26  1  0  0  0  0
  3 27  1  0  0  0  0
  4  5  1  0  0  0  0
  4 28  1  0  0  0  0
  4 29  1  0  0  0  0
  5 21  1  0  0  0  0
  5  6  1  0  0  0  0
  6  7  2  0  0  0  0
  7  8  1  0  0  0  0
  7 19  1  0  0  0  0
  8  9  2  0  0  0  0
  8 10  1  0  0  0  0
 10 11  1  0  0  0  0
 10 30  1  0  0  0  0
 11 17  1  0  0  0  0
 11 12  1  0  0  0  0
 11 31  1  0  0  0  0
 12 13  1  0  0  0  0
 12 32  1  0  0  0  0
 12 33  1  0  0  0  0
 13 14  1  0  0  0  0
 13 34  1  0  0  0  0
 13 35  1  0  0  0  0
 14 15  1  0  0  0  0
 14 36  1  0  0  0  0
 14 37  1  0  0  0  0
 15 16  1  0  0  0  0
 15 38  1  0  0  0  0
 15 39  1  0  0  0  0
 16 17  1  0  0  0  0
 16 40  1  0  0  0  0
 17 18  2  0  0  0  0
 19 20  2  0  0  0  0
 19 41  1  0  0  0  0
 20 21  1  0  0  0  0
 20 42  1  0  0  0  0
 21 22  2  0  0  0  0
M  END
> <s_m_source_file>
AV-unprocessed.smi

> <i_m_source_file_index>
1957

> <i_lp_mmshare_version>
43012

> <i_f3d_flags>
0

> <s_epik_input>
W0NIM11PW0NIMl1bQ0gyXW4xbmMoW2NIXVtjSF1jMT1PKUMoPU8pW05IXVtDQEBIXTJbQ0gyXVtDSDJdW0NIMl1bQ0gyXVtOSF1DMj1P

> <s_epik_cmdline>
J2VwaWtfcHl0aG9uJywgJy1waCcsICc3LjAnLCAnLXRuJywgJzgnLCAnLW1hJywgJzIwMCcsICctbWV0YWxfYmluZGluZycsICctaW1hZScsICc8aW5maWxlLm1hZT4nLCAnLW9tYWUnLCAnPG91dGZpbGUubWFlPic=

> <r_lp_tautomer_probability>
1

> <r_epik_Ionization_Penalty>
2.17512e-06

> <r_epik_Ionization_Penalty_Charging>
5.0222e-09

> <r_epik_Ionization_Penalty_Neutral>
2.1701e-06

> <r_epik_State_Penalty>
-0

> <r_epik_Charging_Adjusted_Penalty>
5.0222e-09

> <i_epik_Tot_Q>
0

> <i_epik_Tot_abs_Q>
0

> <r_epik_Metal_State_Penalty>
-0

> <b_epik_Metal_Only>
0

> <s_lp_Force_Field>
OPLS_2005

> <r_lp_Energy>
29.6922

> <b_lp_Chiralities_Consistent>
1

> <s_lp_Variant>
AV-unprocessed.smi:1957-2

> <Gold.Version>
5.8.1

> <Gold.Id.Protein>
6NUR|6NUR_protein|mol2

> <Gold.PLP.Fitness>
39.7786

> <Gold.PLP.PLP>
-36.1252

> <Gold.PLP.part.hbond>
-4.0000

> <Gold.PLP.part.metal>
0.0000

> <Gold.PLP.part.buried>
5.7884

> <Gold.PLP.part.nonpolar>
-37.8336

> <Gold.PLP.part.repulsive>
0.3022

> <Gold.PLP.ligand.clash>
0.3235

> <Gold.PLP.ligand.torsion>
0.5492

> <Gold.PLP.Chemscore.Hbond>
1.6880

> <Gold.PLP.Chemscore.CHOScore>
0.0000

> <Gold.PLP.Chemscore.Metal>
0.0000

> <Gold.Chemscore.Hbonds>
donor molecule, donor type, donor heavy atom, donor atom, acceptor molecule, acceptor atom, score
      L1  H    16    40       P1  7948  0.66
      P1  H  7989  7998       L1    18  1.00

> <Gold.PLP.Chemscore.Internal.Correction>
0.0113

> <Gold.Rescore>
     Score         DG    S(hbond)    S(metal)    S(lipo)     H(rot)  DE(clash)    DE(int)     intcor
     10.70     -16.49       1.68        0.00      85.21       1.78       1.49       4.31       ----

> <Gold.Chemscore.Fitness>
10.6960

> <Gold.Chemscore.DG>
-16.4920

> <Gold.Chemscore.ZeroCoef>
-5.4800

> <Gold.Chemscore.Hbond>
1.6756

> <Gold.Chemscore.Metal>
0.0000

> <Gold.Chemscore.Lipo>
85.2118

> <Gold.Chemscore.Internal_Hbond>
0.0000

> <Gold.Chemscore.DEClash>
1.4857

> <Gold.Chemscore.DEInternal>
4.3103

> <Gold.Chemscore.Rot>
1.7791

> <Gold.Chemscore.Internal.Correction>
   9.000000E+99

> <Gold.Chemscore.Hbonds>
donor molecule, donor type, donor heavy atom, donor atom, acceptor molecule, acceptor atom, score
      L1  H    16    40       P1  7948  0.55
      P1  H  7989  7998       L1    18  0.90

> <Gold.Chemscore.Hbond.Weighted>
-5.5966

> <Gold.Chemscore.Metal.Weighted>
-0.0000

> <Gold.Chemscore.Lipo.Weighted>
-9.9698

> <Gold.Chemscore.Internal_Hbond.Weighted>
0.0000

> <Gold.Chemscore.DEClash.Weighted>
1.4857

> <Gold.Chemscore.DEInternal.Weighted>
4.3103

> <Gold.Chemscore.Rot.Weighted>
4.5544

> <Gold.Chemscore.Internal.Correction.Weighted>
   9.000000E+99

> <Gold.Protein.RotatedTorsions>
[ 6907 6896 6895 6894 ] final  124.53 input  -60.11 | X-H torsion
[ 7974 7965 7964 7962 ] final  -53.19 input  175.53 | X-H torsion
[ 8008 7997 7996 7995 ] final -106.19 input   59.86 | X-H torsion
[ 10167 10162 10161 10158 ] final  160.93 input  -65.29 | X-H torsion
[ 10718 10713 10712 10709 ] final   -6.53 input   66.30 | X-H torsion
[ 10763 10752 10751 10750 ] final  -68.50 input  -60.55 | X-H torsion
[ 11005 11000 10999 10996 ] final  -70.66 input  -57.11 | X-H torsion

> <Gold.Protein.ActiveResidues>
 VAL166  LYS551  ARG553  GLY616  TRP617  ASP618  TYR619  PRO620  LYS621  CYS622 
 ASP623  PHE694  ASN695  SER759  ASP760  ASP761  ALA762  ILE779  LEU786  VAL792 
 PHE793  MET794  SER795  GLU796  ALA797  LYS798  CYS799  TRP800  GLU811  SER814 

> <Gold.Protein.RotatedAtoms>
  152.4070  133.6905  159.6364 H   0  0  0  0  0  0  0  0  0  0  0  0  # atno 6907 bound_to 6896
  150.7954  133.8691  159.3262 H   0  0  0  0  0  0  0  0  0  0  0  0  # atno 6908 bound_to 6896
  151.6443  135.1011  160.0199 H   0  0  0  0  0  0  0  0  0  0  0  0  # atno 6909 bound_to 6896
  145.8996  140.8005  142.9750 H   0  0  0  0  0  0  0  0  0  0  0  0  # atno 7974 bound_to 7965
  154.9109  140.0410  157.1945 H   0  0  0  0  0  0  0  0  0  0  0  0  # atno 8008 bound_to 7997
  154.8349  140.2905  155.5676 H   0  0  0  0  0  0  0  0  0  0  0  0  # atno 8009 bound_to 7997
  156.2989  140.2493  156.3281 H   0  0  0  0  0  0  0  0  0  0  0  0  # atno 8010 bound_to 7997
  139.4844  144.4586  151.8734 H   0  0  0  0  0  0  0  0  0  0  0  0  # atno 10167 bound_to 10162
  156.7305  130.5178  149.5847 H   0  0  0  0  0  0  0  0  0  0  0  0  # atno 10718 bound_to 10713
  154.3900  135.6055  153.5838 H   0  0  0  0  0  0  0  0  0  0  0  0  # atno 10763 bound_to 10752
  152.9787  135.5881  154.4309 H   0  0  0  0  0  0  0  0  0  0  0  0  # atno 10764 bound_to 10752
  154.4092  135.2844  155.2026 H   0  0  0  0  0  0  0  0  0  0  0  0  # atno 10765 bound_to 10752
  141.1578  133.6796  156.6787 H   0  0  0  0  0  0  0  0  0  0  0  0  # atno 11005 bound_to 11000
  144.6735  140.1656  143.7418 LP  0  0  0  0  0  0  0  0  0  0  0  0  # atno 17320 bound_to 7965
  145.8807  139.2321  143.1607 LP  0  0  0  0  0  0  0  0  0  0  0  0  # atno 17321 bound_to 7965
  140.4047  144.2447  150.5891 LP  0  0  0  0  0  0  0  0  0  0  0  0  # atno 17342 bound_to 10162
  140.5023  143.2314  151.8660 LP  0  0  0  0  0  0  0  0  0  0  0  0  # atno 17343 bound_to 10162
  156.1532  130.6324  151.0623 LP  0  0  0  0  0  0  0  0  0  0  0  0  # atno 17370 bound_to 10713
  157.6861  131.0824  150.7239 LP  0  0  0  0  0  0  0  0  0  0  0  0  # atno 17371 bound_to 10713
  140.3119  134.8079  157.4183 LP  0  0  0  0  0  0  0  0  0  0  0  0  # atno 17394 bound_to 11000
  140.1171  134.5269  155.8215 LP  0  0  0  0  0  0  0  0  0  0  0  0  # atno 17395 bound_to 11000

$$$$
