AV-unprocessed.smi:2889|AV-procd|sdf|11114|dock6
  -GOLD-   2272015583D 1   1.00000     0.00000
 Structure written by MMmdl.
 35 36  0  0  0  0  0  0  0  0  2 V2000
  154.3363  140.7090  159.9217 C   0  0  0  0  0  0  0  0  0  0  0  0
  153.3309  141.6858  161.0750 S   0  0  0  0  0  0  0  0  0  0  0  0
  152.9419  143.1605  160.0713 C   0  0  2  0  0  0  0  0  0  0  0  0
  152.1511  144.1998  160.9126 C   0  0  0  0  0  0  0  0  0  0  0  0
  151.8609  145.5020  160.1372 C   0  0  0  0  0  0  0  0  0  0  0  0
  151.1563  145.1706  158.8061 C   0  0  0  0  0  0  0  0  0  0  0  0
  151.9348  144.1298  157.9599 C   0  0  0  0  0  0  0  0  0  0  0  0
  152.2569  142.8139  158.7146 C   0  0  2  0  0  0  0  0  0  0  0  0
  151.0332  142.0513  158.9304 N   0  5  0  0  0  0  0  0  0  0  0  0
  150.8366  140.6139  158.2075 S   0  0  0  0  0  0  0  0  0  0  0  0
  151.6752  139.5572  158.7980 O   0  0  0  0  0  0  0  0  0  0  0  0
  149.4163  140.2964  157.9868 O   0  0  0  0  0  0  0  0  0  0  0  0
  151.5375  140.9723  156.5367 C   0  0  0  0  0  0  0  0  0  0  0  0
  151.6816  139.7057  155.7381 C   0  0  0  0  0  0  0  0  0  0  0  0
  150.8687  139.2384  154.6683 C   0  0  0  0  0  0  0  0  0  0  0  0
  151.4492  138.0533  154.3202 C   0  0  0  0  0  0  0  0  0  0  0  0
  152.5350  137.8095  155.0962 O   0  0  0  0  0  0  0  0  0  0  0  0
  152.6790  138.8727  155.9946 N   0  0  0  0  0  0  0  0  0  0  0  0
  154.6886  139.8018  160.4120 H   0  0  0  0  0  0  0  0  0  0  0  0
  155.2034  141.2811  159.5919 H   0  0  0  0  0  0  0  0  0  0  0  0
  153.7546  140.4189  159.0469 H   0  0  0  0  0  0  0  0  0  0  0  0
  153.9022  143.6233  159.8405 H   0  0  0  0  0  0  0  0  0  0  0  0
  151.2108  143.7691  161.2627 H   0  0  0  0  0  0  0  0  0  0  0  0
  152.7167  144.4428  161.8125 H   0  0  0  0  0  0  0  0  0  0  0  0
  151.2454  146.1728  160.7371 H   0  0  0  0  0  0  0  0  0  0  0  0
  152.7960  146.0262  159.9372 H   0  0  0  0  0  0  0  0  0  0  0  0
  150.1462  144.8093  159.0099 H   0  0  0  0  0  0  0  0  0  0  0  0
  151.0301  146.0856  158.2268 H   0  0  0  0  0  0  0  0  0  0  0  0
  151.3859  143.9173  157.0418 H   0  0  0  0  0  0  0  0  0  0  0  0
  152.8742  144.5824  157.6405 H   0  0  0  0  0  0  0  0  0  0  0  0
  152.9691  142.2453  158.1154 H   0  0  0  0  0  0  0  0  0  0  0  0
  150.8541  141.6554  156.0339 H   0  0  0  0  0  0  0  0  0  0  0  0
  152.4878  141.4925  156.6594 H   0  0  0  0  0  0  0  0  0  0  0  0
  149.9932  139.6972  154.2339 H   0  0  0  0  0  0  0  0  0  0  0  0
  151.2202  137.3058  153.5756 H   0  0  0  0  0  0  0  0  0  0  0  0
  1  2  1  0  0  0  0
  1 19  1  0  0  0  0
  1 20  1  0  0  0  0
  1 21  1  0  0  0  0
  2  3  1  0  0  0  0
  3  8  1  0  0  0  0
  3  4  1  0  0  0  0
  3 22  1  0  0  0  0
  4  5  1  0  0  0  0
  4 23  1  0  0  0  0
  4 24  1  0  0  0  0
  5  6  1  0  0  0  0
  5 25  1  0  0  0  0
  5 26  1  0  0  0  0
  6  7  1  0  0  0  0
  6 27  1  0  0  0  0
  6 28  1  0  0  0  0
  7  8  1  0  0  0  0
  7 29  1  0  0  0  0
  7 30  1  0  0  0  0
  8  9  1  0  0  0  0
  8 31  1  0  0  0  0
  9 10  1  0  0  0  0
 10 11  2  0  0  0  0
 10 12  2  0  0  0  0
 10 13  1  0  0  0  0
 13 14  1  0  0  0  0
 13 32  1  0  0  0  0
 13 33  1  0  0  0  0
 14 18  2  0  0  0  0
 14 15  1  0  0  0  0
 15 16  2  0  0  0  0
 15 34  1  0  0  0  0
 16 17  1  0  0  0  0
 16 35  1  0  0  0  0
 17 18  1  0  0  0  0
M  CHG  1   9  -1
M  END
> <s_m_source_file>
AV-unprocessed.smi

> <i_m_source_file_index>
2889

> <i_lp_mmshare_version>
43012

> <i_f3d_flags>
0

> <s_epik_input>
W0NIM11TW0NAQEhdMVtDSDJdW0NIMl1bQ0gyXVtDSDJdW0NASF0xW05IXVMoPU8pKD1PKVtDSDJdYzJbY0hdW2NIXW9uMg==

> <s_epik_cmdline>
J2VwaWtfcHl0aG9uJywgJy1waCcsICc3LjAnLCAnLXRuJywgJzgnLCAnLW1hJywgJzIwMCcsICctbWV0YWxfYmluZGluZycsICctaW1hZScsICc8aW5maWxlLm1hZT4nLCAnLW9tYWUnLCAnPG91dGZpbGUubWFlPic=

> <r_lp_tautomer_probability>
1

> <r_epik_Ionization_Penalty>
4.65467

> <r_epik_Ionization_Penalty_Charging>
4.65467

> <r_epik_Ionization_Penalty_Neutral>
2.71476e-10

> <r_epik_State_Penalty>
4.65444

> <r_epik_Charging_Adjusted_Penalty>
9.30911

> <i_epik_Tot_Q>
-1

> <i_epik_Tot_abs_Q>
1

> <r_epik_Metal_State_Penalty>
0.901484

> <b_epik_Metal_Only>
1

> <s_lp_Force_Field>
OPLS_2005

> <r_lp_Energy>
12.0464

> <b_lp_Chiralities_Consistent>
1

> <s_lp_Variant>
AV-unprocessed.smi:2889-7

> <Gold.Version>
5.8.1

> <Gold.Id.Protein>
6NUR|6NUR_protein|mol2

> <Gold.PLP.Fitness>
52.2994

> <Gold.PLP.PLP>
-46.6569

> <Gold.PLP.part.hbond>
-2.0000

> <Gold.PLP.part.metal>
0.0000

> <Gold.PLP.part.buried>
-6.3366

> <Gold.PLP.part.nonpolar>
-38.7682

> <Gold.PLP.part.repulsive>
0.0403

> <Gold.PLP.ligand.clash>
0.0000

> <Gold.PLP.ligand.torsion>
0.9708

> <Gold.PLP.Chemscore.Hbond>
1.1747

> <Gold.PLP.Chemscore.CHOScore>
1.0000

> <Gold.PLP.Chemscore.Metal>
0.0000

> <Gold.Chemscore.Hbonds>
donor molecule, donor type, donor heavy atom, donor atom, acceptor molecule, acceptor atom, score
      P1  H  7997  8009       L1    18  0.80
      P1  H 10752 10765       L1    17  0.20
      L1  C    16    35       P1  7949  1.00

> <Gold.PLP.Chemscore.Internal.Correction>
1.0600

> <Gold.Rescore>
     Score         DG    S(hbond)    S(metal)    S(lipo)     H(rot)  DE(clash)    DE(int)     intcor
     18.09     -19.26       0.99        0.00     122.99       1.53       0.01       1.17       ----

> <Gold.Chemscore.Fitness>
18.0870

> <Gold.Chemscore.DG>
-19.2650

> <Gold.Chemscore.ZeroCoef>
-5.4800

> <Gold.Chemscore.Hbond>
0.9928

> <Gold.Chemscore.Metal>
0.0000

> <Gold.Chemscore.Lipo>
122.9865

> <Gold.Chemscore.Internal_Hbond>
0.0000

> <Gold.Chemscore.DEClash>
0.0106

> <Gold.Chemscore.DEInternal>
1.1673

> <Gold.Chemscore.Rot>
1.5314

> <Gold.Chemscore.Internal.Correction>
   9.000000E+99

> <Gold.Chemscore.Hbonds>
donor molecule, donor type, donor heavy atom, donor atom, acceptor molecule, acceptor atom, score
      P1  H  7997  8009       L1    18  0.35
      P1  H 10752 10765       L1    17  0.06

> <Gold.Chemscore.Hbond.Weighted>
-3.3160

> <Gold.Chemscore.Metal.Weighted>
-0.0000

> <Gold.Chemscore.Lipo.Weighted>
-14.3894

> <Gold.Chemscore.Internal_Hbond.Weighted>
0.0000

> <Gold.Chemscore.DEClash.Weighted>
0.0106

> <Gold.Chemscore.DEInternal.Weighted>
1.1673

> <Gold.Chemscore.Rot.Weighted>
3.9205

> <Gold.Chemscore.Internal.Correction.Weighted>
   9.000000E+99

> <Gold.Protein.RotatedTorsions>
[ 6907 6896 6895 6894 ] final -174.45 input  -60.11 | X-H torsion
[ 7974 7965 7964 7962 ] final  169.10 input  175.53 | X-H torsion
[ 8008 7997 7996 7995 ] final -150.64 input   59.86 | X-H torsion
[ 10167 10162 10161 10158 ] final -176.59 input  -65.29 | X-H torsion
[ 10718 10713 10712 10709 ] final  -93.91 input   66.30 | X-H torsion
[ 10763 10752 10751 10750 ] final  176.25 input  -60.55 | X-H torsion
[ 11005 11000 10999 10996 ] final  -14.76 input  -57.11 | X-H torsion

> <Gold.Protein.ActiveResidues>
 VAL166  LYS551  ARG553  GLY616  TRP617  ASP618  TYR619  PRO620  LYS621  CYS622 
 ASP623  PHE694  ASN695  SER759  ASP760  ASP761  ALA762  ILE779  LEU786  VAL792 
 PHE793  MET794  SER795  GLU796  ALA797  LYS798  CYS799  TRP800  GLU811  SER814 

> <Gold.Protein.RotatedAtoms>
  151.5725  133.3388  159.2992 H   0  0  0  0  0  0  0  0  0  0  0  0  # atno 6907 bound_to 6896
  150.8359  134.7635  159.6904 H   0  0  0  0  0  0  0  0  0  0  0  0  # atno 6908 bound_to 6896
  152.4435  134.5548  159.9929 H   0  0  0  0  0  0  0  0  0  0  0  0  # atno 6909 bound_to 6896
  144.7366  139.9005  143.6409 H   0  0  0  0  0  0  0  0  0  0  0  0  # atno 7974 bound_to 7965
  155.6268  140.0687  157.2661 H   0  0  0  0  0  0  0  0  0  0  0  0  # atno 8008 bound_to 7997
  154.4215  140.1774  156.1478 H   0  0  0  0  0  0  0  0  0  0  0  0  # atno 8009 bound_to 7997
  155.9965  140.3340  155.6807 H   0  0  0  0  0  0  0  0  0  0  0  0  # atno 8010 bound_to 7997
  139.5522  144.2080  152.1097 H   0  0  0  0  0  0  0  0  0  0  0  0  # atno 10167 bound_to 10162
  156.0019  130.5046  150.5847 H   0  0  0  0  0  0  0  0  0  0  0  0  # atno 10718 bound_to 10713
  154.4786  135.2774  155.1588 H   0  0  0  0  0  0  0  0  0  0  0  0  # atno 10763 bound_to 10752
  154.3307  135.6190  153.5554 H   0  0  0  0  0  0  0  0  0  0  0  0  # atno 10764 bound_to 10752
  152.9872  135.5765  154.5182 H   0  0  0  0  0  0  0  0  0  0  0  0  # atno 10765 bound_to 10752
  140.7897  133.8298  155.9368 H   0  0  0  0  0  0  0  0  0  0  0  0  # atno 11005 bound_to 11000
  146.1075  139.4076  143.0308 LP  0  0  0  0  0  0  0  0  0  0  0  0  # atno 17320 bound_to 7965
  145.7491  140.9979  143.1260 LP  0  0  0  0  0  0  0  0  0  0  0  0  # atno 17321 bound_to 7965
  140.1577  144.5055  150.6650 LP  0  0  0  0  0  0  0  0  0  0  0  0  # atno 17342 bound_to 10162
  140.6787  143.2317  151.5439 LP  0  0  0  0  0  0  0  0  0  0  0  0  # atno 17343 bound_to 10162
  157.3721  131.0767  151.1549 LP  0  0  0  0  0  0  0  0  0  0  0  0  # atno 17370 bound_to 10713
  157.2299  130.6520  149.5845 LP  0  0  0  0  0  0  0  0  0  0  0  0  # atno 17371 bound_to 10713
  140.9402  134.1911  157.4803 LP  0  0  0  0  0  0  0  0  0  0  0  0  # atno 17394 bound_to 11000
  139.8732  134.9868  156.5342 LP  0  0  0  0  0  0  0  0  0  0  0  0  # atno 17395 bound_to 11000

$$$$
