AV-unprocessed.smi:2746|AV-procd|sdf|10572|dock9
  -GOLD-   2272015 23D 1   1.00000     0.00000
 Structure written by MMmdl.
 38 39  0  0  0  0  0  0  0  0  1 V2000
  150.8515  145.0686  159.6434 C   0  0  0  0  0  0  0  0  0  0  0  0
  151.8526  144.7142  160.4630 C   0  0  0  0  0  0  0  0  0  0  0  0
  152.6638  143.4390  160.3268 C   0  0  1  0  0  0  0  0  0  0  0  0
  152.6733  142.6466  161.6402 C   0  0  0  0  0  0  0  0  0  0  0  0
  152.1203  142.6041  159.2613 N   0  0  0  0  0  0  0  0  0  0  0  0
  152.5892  141.3980  158.8968 C   0  0  0  0  0  0  0  0  0  0  0  0
  153.5630  140.8629  159.4284 O   0  0  0  0  0  0  0  0  0  0  0  0
  151.8730  140.7374  157.7492 C   0  0  0  0  0  0  0  0  0  0  0  0
  150.5052  141.0151  157.5201 C   0  0  0  0  0  0  0  0  0  0  0  0
  149.8515  140.3993  156.4294 C   0  0  0  0  0  0  0  0  0  0  0  0
  148.4990  140.6303  156.1436 N   0  0  0  0  0  0  0  0  0  0  0  0
  147.7800  141.3065  157.2158 C   0  0  0  0  0  0  0  0  0  0  0  0
  146.2854  141.4073  156.8638 C   0  0  0  0  0  0  0  0  0  0  0  0
  146.1327  142.0643  155.6086 O   0  0  0  0  0  0  0  0  0  0  0  0
  146.7781  141.3573  154.5529 C   0  0  0  0  0  0  0  0  0  0  0  0
  148.2852  141.2568  154.8457 C   0  0  0  0  0  0  0  0  0  0  0  0
  150.5946  139.5318  155.6058 C   0  0  0  0  0  0  0  0  0  0  0  0
  151.9522  139.3172  155.9080 C   0  0  0  0  0  0  0  0  0  0  0  0
  152.5807  139.9024  156.9488 N   0  0  0  0  0  0  0  0  0  0  0  0
  150.5581  144.4422  158.8136 H   0  0  0  0  0  0  0  0  0  0  0  0
  150.3114  145.9917  159.7933 H   0  0  0  0  0  0  0  0  0  0  0  0
  152.1174  145.3669  161.2823 H   0  0  0  0  0  0  0  0  0  0  0  0
  153.6955  143.7013  160.0839 H   0  0  0  0  0  0  0  0  0  0  0  0
  153.0973  143.2391  162.4516 H   0  0  0  0  0  0  0  0  0  0  0  0
  153.2741  141.7412  161.5471 H   0  0  0  0  0  0  0  0  0  0  0  0
  151.6661  142.3496  161.9356 H   0  0  0  0  0  0  0  0  0  0  0  0
  151.3230  142.9652  158.7575 H   0  0  0  0  0  0  0  0  0  0  0  0
  149.9637  141.6893  158.1683 H   0  0  0  0  0  0  0  0  0  0  0  0
  147.9082  140.7580  158.1497 H   0  0  0  0  0  0  0  0  0  0  0  0
  148.1907  142.3056  157.3679 H   0  0  0  0  0  0  0  0  0  0  0  0
  145.8270  140.4178  156.8262 H   0  0  0  0  0  0  0  0  0  0  0  0
  145.7559  141.9749  157.6290 H   0  0  0  0  0  0  0  0  0  0  0  0
  146.3365  140.3656  154.4423 H   0  0  0  0  0  0  0  0  0  0  0  0
  146.6110  141.8870  153.6152 H   0  0  0  0  0  0  0  0  0  0  0  0
  148.7308  142.2527  154.8375 H   0  0  0  0  0  0  0  0  0  0  0  0
  148.7799  140.6744  154.0673 H   0  0  0  0  0  0  0  0  0  0  0  0
  150.1366  139.0403  154.7599 H   0  0  0  0  0  0  0  0  0  0  0  0
  152.5503  138.6583  155.2964 H   0  0  0  0  0  0  0  0  0  0  0  0
  1  2  2  0  0  0  0
  1 20  1  0  0  0  0
  1 21  1  0  0  0  0
  2  3  1  0  0  0  0
  2 22  1  0  0  0  0
  3  4  1  0  0  0  0
  3  5  1  0  0  0  0
  3 23  1  0  0  0  0
  4 24  1  0  0  0  0
  4 25  1  0  0  0  0
  4 26  1  0  0  0  0
  5  6  1  0  0  0  0
  5 27  1  0  0  0  0
  6  7  2  0  0  0  0
  6  8  1  0  0  0  0
  8 19  1  0  0  0  0
  8  9  2  0  0  0  0
  9 10  1  0  0  0  0
  9 28  1  0  0  0  0
 10 11  1  0  0  0  0
 10 17  2  0  0  0  0
 11 16  1  0  0  0  0
 11 12  1  0  0  0  0
 12 13  1  0  0  0  0
 12 29  1  0  0  0  0
 12 30  1  0  0  0  0
 13 14  1  0  0  0  0
 13 31  1  0  0  0  0
 13 32  1  0  0  0  0
 14 15  1  0  0  0  0
 15 16  1  0  0  0  0
 15 33  1  0  0  0  0
 15 34  1  0  0  0  0
 16 35  1  0  0  0  0
 16 36  1  0  0  0  0
 17 18  1  0  0  0  0
 17 37  1  0  0  0  0
 18 19  2  0  0  0  0
 18 38  1  0  0  0  0
M  END
> <s_m_source_file>
AV-unprocessed.smi

> <i_m_source_file_index>
2746

> <i_lp_mmshare_version>
43012

> <i_f3d_flags>
0

> <s_epik_input>
W0NIMl09W0NIXVtDQEhdKFtDSDNdKVtOSF1DKD1PKWMxW2NIXWMoW2NIXVtjSF1uMSlOMltDSDJdW0NIMl1PW0NIMl1bQ0gyXTI=

> <s_epik_cmdline>
J2VwaWtfcHl0aG9uJywgJy1waCcsICc3LjAnLCAnLXRuJywgJzgnLCAnLW1hJywgJzIwMCcsICctbWV0YWxfYmluZGluZycsICctaW1hZScsICc8aW5maWxlLm1hZT4nLCAnLW9tYWUnLCAnPG91dGZpbGUubWFlPic=

> <r_lp_tautomer_probability>
1

> <r_epik_Ionization_Penalty>
0.373275

> <r_epik_Ionization_Penalty_Charging>
0

> <r_epik_Ionization_Penalty_Neutral>
0.373275

> <r_epik_State_Penalty>
0.370855

> <r_epik_Charging_Adjusted_Penalty>
0.370855

> <i_epik_Tot_Q>
0

> <i_epik_Tot_abs_Q>
0

> <r_epik_Metal_State_Penalty>
0.225885

> <b_epik_Metal_Only>
0

> <s_lp_Force_Field>
OPLS_2005

> <r_lp_Energy>
21.8565

> <b_lp_Chiralities_Consistent>
1

> <s_lp_Variant>
AV-unprocessed.smi:2746-2

> <Gold.Version>
5.8.1

> <Gold.Id.Protein>
6NUR|6NUR_protein|mol2

> <Gold.PLP.Fitness>
41.7373

> <Gold.PLP.PLP>
-39.6596

> <Gold.PLP.part.hbond>
-1.0000

> <Gold.PLP.part.metal>
0.0000

> <Gold.PLP.part.buried>
-5.1739

> <Gold.PLP.part.nonpolar>
-33.4650

> <Gold.PLP.part.repulsive>
0.3253

> <Gold.PLP.ligand.clash>
0.0000

> <Gold.PLP.ligand.torsion>
0.5254

> <Gold.PLP.Chemscore.Hbond>
1.0000

> <Gold.PLP.Chemscore.CHOScore>
0.0000

> <Gold.PLP.Chemscore.Metal>
0.0000

> <Gold.Chemscore.Hbonds>
donor molecule, donor type, donor heavy atom, donor atom, acceptor molecule, acceptor atom, score
      P1  H  7997  8009       L1    19  1.00

> <Gold.PLP.Chemscore.Internal.Correction>
0.1286

> <Gold.Rescore>
     Score         DG    S(hbond)    S(metal)    S(lipo)     H(rot)  DE(clash)    DE(int)     intcor
     16.54     -17.14       0.89        0.00     102.24       1.27       0.08       0.52       ----

> <Gold.Chemscore.Fitness>
16.5386

> <Gold.Chemscore.DG>
-17.1424

> <Gold.Chemscore.ZeroCoef>
-5.4800

> <Gold.Chemscore.Hbond>
0.8870

> <Gold.Chemscore.Metal>
0.0000

> <Gold.Chemscore.Lipo>
102.2361

> <Gold.Chemscore.Internal_Hbond>
0.0000

> <Gold.Chemscore.DEClash>
0.0805

> <Gold.Chemscore.DEInternal>
0.5233

> <Gold.Chemscore.Rot>
1.2742

> <Gold.Chemscore.Internal.Correction>
   9.000000E+99

> <Gold.Chemscore.Hbonds>
donor molecule, donor type, donor heavy atom, donor atom, acceptor molecule, acceptor atom, score
      P1  H  7997  8009       L1    19  0.60

> <Gold.Chemscore.Hbond.Weighted>
-2.9627

> <Gold.Chemscore.Metal.Weighted>
-0.0000

> <Gold.Chemscore.Lipo.Weighted>
-11.9616

> <Gold.Chemscore.Internal_Hbond.Weighted>
0.0000

> <Gold.Chemscore.DEClash.Weighted>
0.0805

> <Gold.Chemscore.DEInternal.Weighted>
0.5233

> <Gold.Chemscore.Rot.Weighted>
3.2619

> <Gold.Chemscore.Internal.Correction.Weighted>
   9.000000E+99

> <Gold.Protein.RotatedTorsions>
[ 6907 6896 6895 6894 ] final  113.17 input  -60.11 | X-H torsion
[ 7974 7965 7964 7962 ] final  -14.64 input  175.53 | X-H torsion
[ 8008 7997 7996 7995 ] final -169.52 input   59.86 | X-H torsion
[ 10167 10162 10161 10158 ] final  144.62 input  -65.29 | X-H torsion
[ 10718 10713 10712 10709 ] final -137.39 input   66.30 | X-H torsion
[ 10763 10752 10751 10750 ] final -157.80 input  -60.55 | X-H torsion
[ 11005 11000 10999 10996 ] final  -50.71 input  -57.11 | X-H torsion

> <Gold.Protein.ActiveResidues>
 VAL166  LYS551  ARG553  GLY616  TRP617  ASP618  TYR619  PRO620  LYS621  CYS622 
 ASP623  PHE694  ASN695  SER759  ASP760  ASP761  ALA762  ILE779  LEU786  VAL792 
 PHE793  MET794  SER795  GLU796  ALA797  LYS798  CYS799  TRP800  GLU811  SER814 

> <Gold.Protein.RotatedAtoms>
  152.4876  133.8413  159.7153 H   0  0  0  0  0  0  0  0  0  0  0  0  # atno 6907 bound_to 6896
  150.8975  133.7152  159.2894 H   0  0  0  0  0  0  0  0  0  0  0  0  # atno 6908 bound_to 6896
  151.4604  135.1042  159.9775 H   0  0  0  0  0  0  0  0  0  0  0  0  # atno 6909 bound_to 6896
  146.2066  140.3377  142.8405 H   0  0  0  0  0  0  0  0  0  0  0  0  # atno 7974 bound_to 7965
  155.9061  140.1049  157.1314 H   0  0  0  0  0  0  0  0  0  0  0  0  # atno 8008 bound_to 7997
  154.4033  140.1283  156.4562 H   0  0  0  0  0  0  0  0  0  0  0  0  # atno 8009 bound_to 7997
  155.7365  140.3467  155.5086 H   0  0  0  0  0  0  0  0  0  0  0  0  # atno 8010 bound_to 7997
  139.4943  144.5959  151.6584 H   0  0  0  0  0  0  0  0  0  0  0  0  # atno 10167 bound_to 10162
  156.2876  130.7357  151.1373 H   0  0  0  0  0  0  0  0  0  0  0  0  # atno 10718 bound_to 10713
  154.7607  135.3117  154.8384 H   0  0  0  0  0  0  0  0  0  0  0  0  # atno 10763 bound_to 10752
  153.9145  135.6802  153.4754 H   0  0  0  0  0  0  0  0  0  0  0  0  # atno 10764 bound_to 10752
  153.1208  135.4823  154.9123 H   0  0  0  0  0  0  0  0  0  0  0  0  # atno 10765 bound_to 10752
  141.0831  133.6648  156.3771 H   0  0  0  0  0  0  0  0  0  0  0  0  # atno 11005 bound_to 11000
  144.8807  140.7396  143.5988 LP  0  0  0  0  0  0  0  0  0  0  0  0  # atno 17320 bound_to 7965
  145.3298  139.1763  143.4543 LP  0  0  0  0  0  0  0  0  0  0  0  0  # atno 17321 bound_to 7965
  140.5597  144.0290  150.6164 LP  0  0  0  0  0  0  0  0  0  0  0  0  # atno 17342 bound_to 10162
  140.3371  143.3042  152.0627 LP  0  0  0  0  0  0  0  0  0  0  0  0  # atno 17343 bound_to 10162
  157.7333  131.0592  150.5583 LP  0  0  0  0  0  0  0  0  0  0  0  0  # atno 17370 bound_to 10713
  156.5696  130.4276  149.6025 LP  0  0  0  0  0  0  0  0  0  0  0  0  # atno 17371 bound_to 10713
  140.5424  134.6108  157.5383 LP  0  0  0  0  0  0  0  0  0  0  0  0  # atno 17394 bound_to 11000
  139.9647  134.7394  156.0164 LP  0  0  0  0  0  0  0  0  0  0  0  0  # atno 17395 bound_to 11000

$$$$
