AV-unprocessed.smi:2445|AV-procd|sdf|9636|dock7
  -GOLD-   2272013273D 1   1.00000     0.00000
 Structure written by MMmdl.
 40 41  0  0  0  0  0  0  0  0  1 V2000
  150.1645  142.4305  157.8778 C   0  0  0  0  0  0  0  0  0  0  0  0
  150.3921  141.4703  156.7606 C   0  0  0  0  0  0  0  0  0  0  0  0
  149.9874  141.5897  155.4543 C   0  0  0  0  0  0  0  0  0  0  0  0
  150.3657  140.5158  154.6462 N   0  0  0  0  0  0  0  0  0  0  0  0
  151.0503  139.5860  155.3183 C   0  0  0  0  0  0  0  0  0  0  0  0
  151.6243  138.3541  154.6857 C   0  0  1  0  0  0  0  0  0  0  0  0
  153.1518  138.4369  154.5510 C   0  0  0  0  0  0  0  0  0  0  0  0
  151.1473  137.0464  155.3552 C   0  0  0  0  0  0  0  0  0  0  0  0
  150.1544  136.3418  154.5455 N   0  0  0  0  0  0  0  0  0  0  0  0
  149.3695  135.3413  154.9709 C   0  0  0  0  0  0  0  0  0  0  0  0
  149.4308  134.8429  156.0947 O   0  0  0  0  0  0  0  0  0  0  0  0
  148.4940  134.9643  154.0289 N   0  0  0  0  0  0  0  0  0  0  0  0
  147.4544  133.9490  154.2002 C   0  0  1  0  0  0  0  0  0  0  0  0
  146.3861  134.0880  153.1167 C   0  0  0  0  0  0  0  0  0  0  0  0
  146.2228  132.6733  152.5710 C   0  0  0  0  0  0  0  0  0  0  0  0
  147.5092  132.1067  152.7462 O   0  0  0  0  0  0  0  0  0  0  0  0
  147.9663  132.4999  154.0321 C   0  0  1  0  0  0  0  0  0  0  0  0
  149.4802  132.2615  154.1508 C   0  0  0  0  0  0  0  0  0  0  0  0
  151.2658  139.9836  157.0195 S   0  0  0  0  0  0  0  0  0  0  0  0
  149.6626  143.3318  157.5250 H   0  0  0  0  0  0  0  0  0  0  0  0
  151.1108  142.7279  158.3303 H   0  0  0  0  0  0  0  0  0  0  0  0
  149.5444  141.9807  158.6534 H   0  0  0  0  0  0  0  0  0  0  0  0
  149.4317  142.4044  155.0137 H   0  0  0  0  0  0  0  0  0  0  0  0
  151.2365  138.3332  153.6663 H   0  0  0  0  0  0  0  0  0  0  0  0
  153.4487  139.3245  153.9913 H   0  0  0  0  0  0  0  0  0  0  0  0
  153.5479  137.5674  154.0259 H   0  0  0  0  0  0  0  0  0  0  0  0
  153.6337  138.4823  155.5281 H   0  0  0  0  0  0  0  0  0  0  0  0
  151.9950  136.3767  155.5016 H   0  0  0  0  0  0  0  0  0  0  0  0
  150.7530  137.2563  156.3510 H   0  0  0  0  0  0  0  0  0  0  0  0
  150.0272  136.6717  153.6000 H   0  0  0  0  0  0  0  0  0  0  0  0
  148.5278  135.4309  153.1344 H   0  0  0  0  0  0  0  0  0  0  0  0
  146.9864  134.0499  155.1812 H   0  0  0  0  0  0  0  0  0  0  0  0
  145.4490  134.4934  153.4994 H   0  0  0  0  0  0  0  0  0  0  0  0
  146.7258  134.7448  152.3142 H   0  0  0  0  0  0  0  0  0  0  0  0
  145.4930  132.1112  153.1560 H   0  0  0  0  0  0  0  0  0  0  0  0
  145.9128  132.6573  151.5260 H   0  0  0  0  0  0  0  0  0  0  0  0
  147.4575  131.8687  154.7631 H   0  0  0  0  0  0  0  0  0  0  0  0
  149.8511  132.5710  155.1280 H   0  0  0  0  0  0  0  0  0  0  0  0
  150.0350  132.8077  153.3876 H   0  0  0  0  0  0  0  0  0  0  0  0
  149.7131  131.2034  154.0302 H   0  0  0  0  0  0  0  0  0  0  0  0
  1  2  1  0  0  0  0
  1 20  1  0  0  0  0
  1 21  1  0  0  0  0
  1 22  1  0  0  0  0
  2 19  1  0  0  0  0
  2  3  2  0  0  0  0
  3  4  1  0  0  0  0
  3 23  1  0  0  0  0
  4  5  2  0  0  0  0
  5  6  1  0  0  0  0
  5 19  1  0  0  0  0
  6  7  1  0  0  0  0
  6  8  1  0  0  0  0
  6 24  1  0  0  0  0
  7 25  1  0  0  0  0
  7 26  1  0  0  0  0
  7 27  1  0  0  0  0
  8  9  1  0  0  0  0
  8 28  1  0  0  0  0
  8 29  1  0  0  0  0
  9 10  1  0  0  0  0
  9 30  1  0  0  0  0
 10 11  2  0  0  0  0
 10 12  1  0  0  0  0
 12 13  1  0  0  0  0
 12 31  1  0  0  0  0
 13 17  1  0  0  0  0
 13 14  1  0  0  0  0
 13 32  1  0  0  0  0
 14 15  1  0  0  0  0
 14 33  1  0  0  0  0
 14 34  1  0  0  0  0
 15 16  1  0  0  0  0
 15 35  1  0  0  0  0
 15 36  1  0  0  0  0
 16 17  1  0  0  0  0
 17 18  1  0  0  0  0
 17 37  1  0  0  0  0
 18 38  1  0  0  0  0
 18 39  1  0  0  0  0
 18 40  1  0  0  0  0
M  END
> <s_m_source_file>
AV-unprocessed.smi

> <i_m_source_file_index>
2445

> <i_lp_mmshare_version>
43012

> <i_f3d_flags>
0

> <s_epik_input>
W0NIM11jMVtjSF1uYyhzMSlbQ0BIXShbQ0gzXSlbQ0gyXVtOSF1DKD1PKVtOSF1bQ0BASF0yW0NIMl1bQ0gyXU9bQ0BIXTJbQ0gzXQ==

> <s_epik_cmdline>
J2VwaWtfcHl0aG9uJywgJy1waCcsICc3LjAnLCAnLXRuJywgJzgnLCAnLW1hJywgJzIwMCcsICctbWV0YWxfYmluZGluZycsICctaW1hZScsICc8aW5maWxlLm1hZT4nLCAnLW9tYWUnLCAnPG91dGZpbGUubWFlPic=

> <r_epik_Ionization_Penalty>
0.000649483

> <r_epik_Ionization_Penalty_Charging>
0

> <r_epik_Ionization_Penalty_Neutral>
0.000649483

> <r_epik_State_Penalty>
0.000379895

> <r_epik_Charging_Adjusted_Penalty>
0.000379895

> <i_epik_Tot_Q>
0

> <i_epik_Tot_abs_Q>
0

> <r_epik_Metal_State_Penalty>
-0

> <b_epik_Metal_Only>
0

> <s_lp_Force_Field>
OPLS_2005

> <r_lp_Energy>
6.66007

> <b_lp_Chiralities_Consistent>
1

> <s_lp_Variant>
AV-unprocessed.smi:2445-4

> <Gold.Version>
5.8.1

> <Gold.Id.Protein>
6NUR|6NUR_protein|mol2

> <Gold.PLP.Fitness>
40.3985

> <Gold.PLP.PLP>
-31.8788

> <Gold.PLP.part.hbond>
-3.3829

> <Gold.PLP.part.metal>
0.0000

> <Gold.PLP.part.buried>
-3.4549

> <Gold.PLP.part.nonpolar>
-25.6552

> <Gold.PLP.part.repulsive>
0.3117

> <Gold.PLP.ligand.clash>
0.0000

> <Gold.PLP.ligand.torsion>
1.1928

> <Gold.PLP.Chemscore.Hbond>
2.5944

> <Gold.PLP.Chemscore.CHOScore>
1.0000

> <Gold.PLP.Chemscore.Metal>
0.0000

> <Gold.Chemscore.Hbonds>
donor molecule, donor type, donor heavy atom, donor atom, acceptor molecule, acceptor atom, score
      L1  H     9    30       P1  7948  0.72
      L1  H    12    31       P1  7948  1.00
      P1  H  7989  7998       L1     4  0.83
      L1  C     3    23       P1  8028  1.00

> <Gold.PLP.Chemscore.Internal.Correction>
0.1220

> <Gold.Rescore>
     Score         DG    S(hbond)    S(metal)    S(lipo)     H(rot)  DE(clash)    DE(int)     intcor
     14.56     -16.41       1.93        0.00      71.94       1.53       0.36       1.49       ----

> <Gold.Chemscore.Fitness>
14.5576

> <Gold.Chemscore.DG>
-16.4128

> <Gold.Chemscore.ZeroCoef>
-5.4800

> <Gold.Chemscore.Hbond>
1.9279

> <Gold.Chemscore.Metal>
0.0000

> <Gold.Chemscore.Lipo>
71.9399

> <Gold.Chemscore.Internal_Hbond>
0.0000

> <Gold.Chemscore.DEClash>
0.3619

> <Gold.Chemscore.DEInternal>
1.4933

> <Gold.Chemscore.Rot>
1.5325

> <Gold.Chemscore.Internal.Correction>
   9.000000E+99

> <Gold.Chemscore.Hbonds>
donor molecule, donor type, donor heavy atom, donor atom, acceptor molecule, acceptor atom, score
      L1  H     9    30       P1  7948  0.14
      L1  H    12    31       P1  7948  0.90
      P1  H  7989  7998       L1     4  0.12

> <Gold.Chemscore.Hbond.Weighted>
-6.4392

> <Gold.Chemscore.Metal.Weighted>
-0.0000

> <Gold.Chemscore.Lipo.Weighted>
-8.4170

> <Gold.Chemscore.Internal_Hbond.Weighted>
0.0000

> <Gold.Chemscore.DEClash.Weighted>
0.3619

> <Gold.Chemscore.DEInternal.Weighted>
1.4933

> <Gold.Chemscore.Rot.Weighted>
3.9233

> <Gold.Chemscore.Internal.Correction.Weighted>
   9.000000E+99

> <Gold.Protein.RotatedTorsions>
[ 6907 6896 6895 6894 ] final -138.56 input  -60.11 | X-H torsion
[ 7974 7965 7964 7962 ] final   84.53 input  175.53 | X-H torsion
[ 8008 7997 7996 7995 ] final  -95.12 input   59.86 | X-H torsion
[ 10167 10162 10161 10158 ] final   -2.29 input  -65.29 | X-H torsion
[ 10718 10713 10712 10709 ] final  -79.02 input   66.30 | X-H torsion
[ 10763 10752 10751 10750 ] final -112.03 input  -60.55 | X-H torsion
[ 11005 11000 10999 10996 ] final   84.44 input  -57.11 | X-H torsion

> <Gold.Protein.ActiveResidues>
 VAL166  LYS551  ARG553  GLY616  TRP617  ASP618  TYR619  PRO620  LYS621  CYS622 
 ASP623  PHE694  ASN695  SER759  ASP760  ASP761  ALA762  ILE779  LEU786  VAL792 
 PHE793  MET794  SER795  GLU796  ALA797  LYS798  CYS799  TRP800  GLU811  SER814 

> <Gold.Protein.RotatedAtoms>
  151.0366  133.5743  159.2655 H   0  0  0  0  0  0  0  0  0  0  0  0  # atno 6907 bound_to 6896
  151.2804  135.0711  159.9177 H   0  0  0  0  0  0  0  0  0  0  0  0  # atno 6908 bound_to 6896
  152.5356  134.0082  159.7980 H   0  0  0  0  0  0  0  0  0  0  0  0  # atno 6909 bound_to 6896
  145.5976  139.2347  143.2264 H   0  0  0  0  0  0  0  0  0  0  0  0  # atno 7974 bound_to 7965
  154.7573  140.0483  157.0944 H   0  0  0  0  0  0  0  0  0  0  0  0  # atno 8008 bound_to 7997
  154.9982  140.3121  155.4859 H   0  0  0  0  0  0  0  0  0  0  0  0  # atno 8009 bound_to 7997
  156.2897  140.2206  156.5090 H   0  0  0  0  0  0  0  0  0  0  0  0  # atno 8010 bound_to 7997
  140.6845  143.6674  150.8214 H   0  0  0  0  0  0  0  0  0  0  0  0  # atno 10167 bound_to 10162
  156.0103  130.4534  150.3585 H   0  0  0  0  0  0  0  0  0  0  0  0  # atno 10718 bound_to 10713
  154.8329  135.4506  154.1130 H   0  0  0  0  0  0  0  0  0  0  0  0  # atno 10763 bound_to 10752
  153.2387  135.6914  153.7813 H   0  0  0  0  0  0  0  0  0  0  0  0  # atno 10764 bound_to 10752
  153.7169  135.3348  155.3234 H   0  0  0  0  0  0  0  0  0  0  0  0  # atno 10765 bound_to 10752
  139.9000  134.8216  156.2445 H   0  0  0  0  0  0  0  0  0  0  0  0  # atno 11005 bound_to 11000
  146.1601  140.6801  142.9282 LP  0  0  0  0  0  0  0  0  0  0  0  0  # atno 17320 bound_to 7965
  144.7324  140.4710  143.6928 LP  0  0  0  0  0  0  0  0  0  0  0  0  # atno 17321 bound_to 7965
  140.0379  143.5376  152.2731 LP  0  0  0  0  0  0  0  0  0  0  0  0  # atno 17342 bound_to 10162
  139.6193  144.7626  151.2777 LP  0  0  0  0  0  0  0  0  0  0  0  0  # atno 17343 bound_to 10162
  157.1674  131.0360  151.2812 LP  0  0  0  0  0  0  0  0  0  0  0  0  # atno 17370 bound_to 10713
  157.4258  130.7463  149.6950 LP  0  0  0  0  0  0  0  0  0  0  0  0  # atno 17371 bound_to 10713
  141.0263  133.7013  156.1354 LP  0  0  0  0  0  0  0  0  0  0  0  0  # atno 17394 bound_to 11000
  140.7161  134.4409  157.5578 LP  0  0  0  0  0  0  0  0  0  0  0  0  # atno 17395 bound_to 11000

$$$$
