#       Name:                AV-unprocessed.smi:1911
#       Creating user name   scv26
#       Creation time:       Fri Mar 27 09:47:51 2020


#       File generated by GOLD software.
#

@<TRIPOS>MOLECULE
AV-unprocessed.smi:1911
    57    59     1
SMALL
NO_CHARGES


@<TRIPOS>ATOM
      1 ****        -8.0460  -3.9721  -0.6203 N.am           1 S1                 0.0000
      2 ****        -6.9119  -4.2653   0.0209 C.2            1 S1                 0.0000
      3 ****        -6.3786  -5.3698  -0.0607 O.2            1 S1                 0.0000
      4 ****        -6.2817  -3.1566   0.8731 C.3            1 S1                 0.0000
      5 ****        -4.8788  -2.8346   0.5247 N.3            1 S1                 0.0000
      6 ****        -4.3576  -1.8523   1.4813 C.3            1 S1                 0.0000
      7 ****        -2.8620  -1.5916   1.2329 C.3            1 S1                 0.0000
      8 ****        -2.6178  -1.0955  -0.2017 C.3            1 S1                 0.0000
      9 ****        -1.1893  -0.9756  -0.4771 N.am           1 S1                 0.0000
     10 ****        -0.4223   0.0714  -0.1413 C.2            1 S1                 0.0000
     11 ****        -0.8494   1.0652   0.4457 O.2            1 S1                 0.0000
     12 ****         0.8471  -0.1105  -0.5440 N.am           1 S1                 0.0000
     13 ****         1.9623   0.7559  -0.3848 C.ar           1 S1                 0.0000
     14 ****         2.0467   1.7820   0.5849 C.ar           1 S1                 0.0000
     15 ****         3.2158   2.5643   0.6504 C.ar           1 S1                 0.0000
     16 ****         4.2770   2.2969  -0.2467 C.ar           1 S1                 0.0000
     17 ****         5.4596   3.0621  -0.2197 N.pl3          1 S1                 0.0000
     18 ****         6.6207   2.7137  -1.0235 C.3            1 S1                 0.0000
     19 ****         7.6936   3.7182  -0.6064 C.3            1 S1                 0.0000
     20 ****         7.3726   3.9767   0.8660 C.3            1 S1                 0.0000
     21 ****         5.8472   3.8430   0.9469 C.3            1 S1                 0.0000
     22 ****         4.1969   1.3081  -1.1685 N.ar           1 S1                 0.0000
     23 ****         3.0751   0.5607  -1.2265 C.ar           1 S1                 0.0000
     24 ****        -3.2580  -2.0842  -1.1858 C.3            1 S1                 0.0000
     25 ****        -4.7394  -2.3298  -0.8492 C.3            1 S1                 0.0000
     26 ****        -8.4925  -4.6742  -1.1922 H              1 S1                 0.0000
     27 ****        -8.4531  -3.0524  -0.5328 H              1 S1                 0.0000
     28 ****        -6.8909  -2.2526   0.8124 H              1 S1                 0.0000
     29 ****        -6.3284  -3.4910   1.9105 H              1 S1                 0.0000
     30 ****        -4.9199  -0.9191   1.4134 H              1 S1                 0.0000
     31 ****        -4.4836  -2.2243   2.4992 H              1 S1                 0.0000
     32 ****        -2.4943  -0.8592   1.9524 H              1 S1                 0.0000
     33 ****        -2.2996  -2.5095   1.4114 H              1 S1                 0.0000
     34 ****        -3.0955  -0.1223  -0.3317 H              1 S1                 0.0000
     35 ****        -0.7545  -1.7484  -0.9596 H              1 S1                 0.0000
     36 ****         1.0254  -0.9474  -1.0798 H              1 S1                 0.0000
     37 ****         1.2499   1.9794   1.2848 H              1 S1                 0.0000
     38 ****         3.2794   3.3559   1.3819 H              1 S1                 0.0000
     39 ****         6.9337   1.6954  -0.7882 H              1 S1                 0.0000
     40 ****         6.4056   2.7729  -2.0910 H              1 S1                 0.0000
     41 ****         8.7067   3.3482  -0.7657 H              1 S1                 0.0000
     42 ****         7.5769   4.6414  -1.1760 H              1 S1                 0.0000
     43 ****         7.8392   3.2050   1.4796 H              1 S1                 0.0000
     44 ****         7.7315   4.9448   1.2164 H              1 S1                 0.0000
     45 ****         5.3694   4.8216   0.8904 H              1 S1                 0.0000
     46 ****         5.5473   3.3662   1.8808 H              1 S1                 0.0000
     47 ****         3.0660  -0.2173  -1.9762 H              1 S1                 0.0000
     48 ****        -3.1708  -1.7049  -2.2047 H              1 S1                 0.0000
     49 ****        -2.7218  -3.0344  -1.1635 H              1 S1                 0.0000
     50 ****        -5.1327  -3.0463  -1.5702 H              1 S1                 0.0000
     51 ****        -5.3140  -1.4102  -0.9725 H              1 S1                 0.0000
     52 ****        -6.7943  -6.0854  -0.6220 LP             1 S1                 0.0000
     53 ****        -5.5291  -5.5526   0.4342 LP             1 S1                 0.0000
     54 ****        -4.3495  -3.6815   0.5748 LP             1 S1                 0.0000
     55 ****        -1.8157   1.1206   0.6973 LP             1 S1                 0.0000
     56 ****        -0.2302   1.8174   0.6711 LP             1 S1                 0.0000
     57 ****         4.9563   1.1349  -1.7956 LP             1 S1                 0.0000
@<TRIPOS>BOND
    1    1    2 am    
    2    1   26 1     
    3    1   27 1     
    4    2    3 2     
    5    2    4 1     
    6    4    5 1     
    7    4   28 1     
    8    4   29 1     
    9    5   25 1     
   10    5    6 1     
   11    6    7 1     
   12    6   30 1     
   13    6   31 1     
   14    7    8 1     
   15    7   32 1     
   16    7   33 1     
   17    8    9 1     
   18    8   24 1     
   19    8   34 1     
   20    9   10 am    
   21    9   35 1     
   22   10   11 2     
   23   10   12 am    
   24   12   13 1     
   25   12   36 1     
   26   13   23 ar    
   27   13   14 ar    
   28   14   15 ar    
   29   14   37 1     
   30   15   16 ar    
   31   15   38 1     
   32   16   17 1     
   33   16   22 ar    
   34   17   21 1     
   35   17   18 1     
   36   18   19 1     
   37   18   39 1     
   38   18   40 1     
   39   19   20 1     
   40   19   41 1     
   41   19   42 1     
   42   20   21 1     
   43   20   43 1     
   44   20   44 1     
   45   21   45 1     
   46   21   46 1     
   47   22   23 ar    
   48   23   47 1     
   49   24   25 1     
   50   24   48 1     
   51   24   49 1     
   52   25   50 1     
   53   25   51 1     
   54    3   52 1     
   55    3   53 1     
   56    5   54 1     
   57   11   55 1     
   58   11   56 1     
   59   22   57 1     
@<TRIPOS>SUBSTRUCTURE
      1 S1             1
@<TRIPOS>SET
LONE_PAIRS      STATIC     ATOMS    <user>   **** ""
6 52 53 54 55 56 57
DONOR_HYDROGENS      STATIC     ATOMS    <user>   **** ""
4 26 27 35 36
ATOM$BLUE        STATIC     ATOMS    COLORGROUP SYSTEM
6 52 53 54 55 56 57
ATOM$RED        STATIC     ATOMS    COLORGROUP SYSTEM
4 26 27 35 36
