AV-unprocessed.smi:2203|AV-procd|sdf|8936|dock2
  -GOLD-   2272012153D 1   1.00000     0.00000
 Structure written by MMmdl.
 48 49  0  0  0  0  0  0  0  0  1 V2000
  148.5493  140.4324  154.0811 C   0  0  0  0  0  0  0  0  0  0  0  0
  149.8119  140.3529  154.8908 C   0  0  0  0  0  0  0  0  0  0  0  0
  150.0237  141.2440  155.8436 N   0  0  0  0  0  0  0  0  0  0  0  0
  151.2202  140.9123  156.3713 N   0  0  0  0  0  0  0  0  0  0  0  0
  151.7636  141.7195  157.4538 C   0  0  0  0  0  0  0  0  0  0  0  0
  151.0041  143.0478  157.6629 C   0  0  0  0  0  0  0  0  0  0  0  0
  151.9052  144.0869  158.3461 C   0  0  0  0  0  0  0  0  0  0  0  0
  149.6868  142.8723  158.4390 C   0  0  0  0  0  0  0  0  0  0  0  0
  151.7576  139.7953  155.7570 C   0  0  0  0  0  0  0  0  0  0  0  0
  153.0745  139.2089  156.1549 C   0  0  0  0  0  0  0  0  0  0  0  0
  150.8729  139.4059  154.7868 C   0  0  0  0  0  0  0  0  0  0  0  0
  150.9843  138.2502  153.8236 C   0  0  0  0  0  0  0  0  0  0  0  0
  151.0700  136.9285  154.5883 C   0  0  0  0  0  0  0  0  0  0  0  0
  151.8196  136.8265  155.5590 O   0  0  0  0  0  0  0  0  0  0  0  0
  150.3093  135.9212  154.1325 N   0  0  0  0  0  0  0  0  0  0  0  0
  150.2722  134.5750  154.6903 C   0  0  0  0  0  0  0  0  0  0  0  0
  149.7807  133.5524  153.6530 C   0  0  1  0  0  0  0  0  0  0  0  0
  149.7266  132.1183  154.1725 C   0  0  0  0  0  0  0  0  0  0  0  0
  148.6944  131.4586  153.2716 C   0  0  0  0  0  0  0  0  0  0  0  0
  147.9393  132.6349  152.6440 C   0  0  0  0  0  0  0  0  0  0  0  0
  148.4257  133.7935  153.3084 O   0  0  0  0  0  0  0  0  0  0  0  0
  147.8097  139.7180  154.4425 H   0  0  0  0  0  0  0  0  0  0  0  0
  148.7405  140.2113  153.0314 H   0  0  0  0  0  0  0  0  0  0  0  0
  148.1023  141.4260  154.1299 H   0  0  0  0  0  0  0  0  0  0  0  0
  151.7439  141.1314  158.3729 H   0  0  0  0  0  0  0  0  0  0  0  0
  152.8155  141.9133  157.2432 H   0  0  0  0  0  0  0  0  0  0  0  0
  150.7478  143.4439  156.6800 H   0  0  0  0  0  0  0  0  0  0  0  0
  152.1967  143.7620  159.3454 H   0  0  0  0  0  0  0  0  0  0  0  0
  151.3965  145.0464  158.4429 H   0  0  0  0  0  0  0  0  0  0  0  0
  152.8165  144.2558  157.7717 H   0  0  0  0  0  0  0  0  0  0  0  0
  149.8629  142.4349  159.4222 H   0  0  0  0  0  0  0  0  0  0  0  0
  148.9890  142.2260  157.9063 H   0  0  0  0  0  0  0  0  0  0  0  0
  149.1871  143.8302  158.5859 H   0  0  0  0  0  0  0  0  0  0  0  0
  153.2069  138.2146  155.7286 H   0  0  0  0  0  0  0  0  0  0  0  0
  153.1535  139.1134  157.2377 H   0  0  0  0  0  0  0  0  0  0  0  0
  153.8970  139.8337  155.8065 H   0  0  0  0  0  0  0  0  0  0  0  0
  150.1300  138.2084  153.1472 H   0  0  0  0  0  0  0  0  0  0  0  0
  151.8629  138.3508  153.1854 H   0  0  0  0  0  0  0  0  0  0  0  0
  149.7232  136.0966  153.3295 H   0  0  0  0  0  0  0  0  0  0  0  0
  151.2618  134.2975  155.0570 H   0  0  0  0  0  0  0  0  0  0  0  0
  149.6105  134.5798  155.5570 H   0  0  0  0  0  0  0  0  0  0  0  0
  150.3924  133.5922  152.7494 H   0  0  0  0  0  0  0  0  0  0  0  0
  150.6970  131.6219  154.1429 H   0  0  0  0  0  0  0  0  0  0  0  0
  149.3720  132.1043  155.2041 H   0  0  0  0  0  0  0  0  0  0  0  0
  149.1721  130.8569  152.4977 H   0  0  0  0  0  0  0  0  0  0  0  0
  148.0321  130.8072  153.8426 H   0  0  0  0  0  0  0  0  0  0  0  0
  148.1641  132.7102  151.5792 H   0  0  0  0  0  0  0  0  0  0  0  0
  146.8585  132.5467  152.7576 H   0  0  0  0  0  0  0  0  0  0  0  0
  1  2  1  0  0  0  0
  1 22  1  0  0  0  0
  1 23  1  0  0  0  0
  1 24  1  0  0  0  0
  2 11  1  0  0  0  0
  2  3  2  0  0  0  0
  3  4  1  0  0  0  0
  4  5  1  0  0  0  0
  4  9  1  0  0  0  0
  5  6  1  0  0  0  0
  5 25  1  0  0  0  0
  5 26  1  0  0  0  0
  6  7  1  0  0  0  0
  6  8  1  0  0  0  0
  6 27  1  0  0  0  0
  7 28  1  0  0  0  0
  7 29  1  0  0  0  0
  7 30  1  0  0  0  0
  8 31  1  0  0  0  0
  8 32  1  0  0  0  0
  8 33  1  0  0  0  0
  9 10  1  0  0  0  0
  9 11  2  0  0  0  0
 10 34  1  0  0  0  0
 10 35  1  0  0  0  0
 10 36  1  0  0  0  0
 11 12  1  0  0  0  0
 12 13  1  0  0  0  0
 12 37  1  0  0  0  0
 12 38  1  0  0  0  0
 13 14  2  0  0  0  0
 13 15  1  0  0  0  0
 15 16  1  0  0  0  0
 15 39  1  0  0  0  0
 16 17  1  0  0  0  0
 16 40  1  0  0  0  0
 16 41  1  0  0  0  0
 17 21  1  0  0  0  0
 17 18  1  0  0  0  0
 17 42  1  0  0  0  0
 18 19  1  0  0  0  0
 18 43  1  0  0  0  0
 18 44  1  0  0  0  0
 19 20  1  0  0  0  0
 19 45  1  0  0  0  0
 19 46  1  0  0  0  0
 20 21  1  0  0  0  0
 20 47  1  0  0  0  0
 20 48  1  0  0  0  0
M  END
> <s_m_source_file>
AV-unprocessed.smi

> <i_m_source_file_index>
2203

> <i_lp_mmshare_version>
43012

> <i_f3d_flags>
0

> <s_epik_input>
W0NIM11jMW5uKFtDSDJdW0NIXShbQ0gzXSlbQ0gzXSljKFtDSDNdKWMxW0NIMl1DKD1PKVtOSF1bQ0gyXVtDQEBIXTJbQ0gyXVtDSDJdW0NIMl1PMg==

> <s_epik_cmdline>
J2VwaWtfcHl0aG9uJywgJy1waCcsICc3LjAnLCAnLXRuJywgJzgnLCAnLW1hJywgJzIwMCcsICctbWV0YWxfYmluZGluZycsICctaW1hZScsICc8aW5maWxlLm1hZT4nLCAnLW9tYWUnLCAnPG91dGZpbGUubWFlPic=

> <r_lp_tautomer_probability>
1

> <r_epik_Ionization_Penalty>
0.00306713

> <r_epik_Ionization_Penalty_Charging>
0

> <r_epik_Ionization_Penalty_Neutral>
0.00306713

> <r_epik_State_Penalty>
0.00215672

> <r_epik_Charging_Adjusted_Penalty>
0.00215672

> <i_epik_Tot_Q>
0

> <i_epik_Tot_abs_Q>
0

> <r_epik_Metal_State_Penalty>
-0

> <b_epik_Metal_Only>
0

> <s_lp_Force_Field>
OPLS_2005

> <r_lp_Energy>
15.0648

> <b_lp_Chiralities_Consistent>
1

> <s_lp_Variant>
AV-unprocessed.smi:2203-2

> <Gold.Version>
5.8.1

> <Gold.Id.Protein>
6NUR|6NUR_protein|mol2

> <Gold.PLP.Fitness>
44.5376

> <Gold.PLP.PLP>
-39.7970

> <Gold.PLP.part.hbond>
-2.8862

> <Gold.PLP.part.metal>
0.0000

> <Gold.PLP.part.buried>
-0.6734

> <Gold.PLP.part.nonpolar>
-38.1123

> <Gold.PLP.part.repulsive>
0.3388

> <Gold.PLP.ligand.clash>
0.0000

> <Gold.PLP.ligand.torsion>
0.6969

> <Gold.PLP.Chemscore.Hbond>
2.0000

> <Gold.PLP.Chemscore.CHOScore>
0.0000

> <Gold.PLP.Chemscore.Metal>
0.0000

> <Gold.Chemscore.Hbonds>
donor molecule, donor type, donor heavy atom, donor atom, acceptor molecule, acceptor atom, score
      L1  H    15    39       P1  7948  0.80
      P1  H 10752 10764       L1    14  0.99

> <Gold.PLP.Chemscore.Internal.Correction>
0.1344

> <Gold.Rescore>
     Score         DG    S(hbond)    S(metal)    S(lipo)     H(rot)  DE(clash)    DE(int)     intcor
     14.69     -19.18       1.63        0.00     106.25       1.63       2.79       1.70       ----

> <Gold.Chemscore.Fitness>
14.6871

> <Gold.Chemscore.DG>
-19.1798

> <Gold.Chemscore.ZeroCoef>
-5.4800

> <Gold.Chemscore.Hbond>
1.6314

> <Gold.Chemscore.Metal>
0.0000

> <Gold.Chemscore.Lipo>
106.2512

> <Gold.Chemscore.Internal_Hbond>
0.0000

> <Gold.Chemscore.DEClash>
2.7946

> <Gold.Chemscore.DEInternal>
1.6981

> <Gold.Chemscore.Rot>
1.6329

> <Gold.Chemscore.Internal.Correction>
   9.000000E+99

> <Gold.Chemscore.Hbonds>
donor molecule, donor type, donor heavy atom, donor atom, acceptor molecule, acceptor atom, score
      L1  H    15    39       P1  7948  0.12
      P1  H 10752 10764       L1    14  0.42

> <Gold.Chemscore.Hbond.Weighted>
-5.4487

> <Gold.Chemscore.Metal.Weighted>
-0.0000

> <Gold.Chemscore.Lipo.Weighted>
-12.4314

> <Gold.Chemscore.Internal_Hbond.Weighted>
0.0000

> <Gold.Chemscore.DEClash.Weighted>
2.7946

> <Gold.Chemscore.DEInternal.Weighted>
1.6981

> <Gold.Chemscore.Rot.Weighted>
4.1803

> <Gold.Chemscore.Internal.Correction.Weighted>
   9.000000E+99

> <Gold.Protein.RotatedTorsions>
[ 6907 6896 6895 6894 ] final  104.23 input  -60.11 | X-H torsion
[ 7974 7965 7964 7962 ] final  153.55 input  175.53 | X-H torsion
[ 8008 7997 7996 7995 ] final -178.87 input   59.86 | X-H torsion
[ 10167 10162 10161 10158 ] final -134.12 input  -65.29 | X-H torsion
[ 10718 10713 10712 10709 ] final  145.99 input   66.30 | X-H torsion
[ 10763 10752 10751 10750 ] final  -32.03 input  -60.55 | X-H torsion
[ 11005 11000 10999 10996 ] final   44.49 input  -57.11 | X-H torsion

> <Gold.Protein.ActiveResidues>
 VAL166  LYS551  ARG553  GLY616  TRP617  ASP618  TYR619  PRO620  LYS621  CYS622 
 ASP623  PHE694  ASN695  SER759  ASP760  ASP761  ALA762  ILE779  LEU786  VAL792 
 PHE793  MET794  SER795  GLU796  ALA797  LYS798  CYS799  TRP800  GLU811  SER814 

> <Gold.Protein.RotatedAtoms>
  152.5271  133.9707  159.7760 H   0  0  0  0  0  0  0  0  0  0  0  0  # atno 6907 bound_to 6896
  150.9980  133.6076  159.2706 H   0  0  0  0  0  0  0  0  0  0  0  0  # atno 6908 bound_to 6896
  151.3195  135.0821  159.9354 H   0  0  0  0  0  0  0  0  0  0  0  0  # atno 6909 bound_to 6896
  144.8147  139.6815  143.6126 H   0  0  0  0  0  0  0  0  0  0  0  0  # atno 7974 bound_to 7965
  156.0239  140.1267  157.0329 H   0  0  0  0  0  0  0  0  0  0  0  0  # atno 8008 bound_to 7997
  154.4322  140.1063  156.6073 H   0  0  0  0  0  0  0  0  0  0  0  0  # atno 8009 bound_to 7997
  155.5905  140.3469  155.4567 H   0  0  0  0  0  0  0  0  0  0  0  0  # atno 8010 bound_to 7997
  139.8913  143.6719  152.2611 H   0  0  0  0  0  0  0  0  0  0  0  0  # atno 10167 bound_to 10162
  157.3386  131.0932  151.1102 H   0  0  0  0  0  0  0  0  0  0  0  0  # atno 10718 bound_to 10713
  153.8070  135.6885  153.4846 H   0  0  0  0  0  0  0  0  0  0  0  0  # atno 10763 bound_to 10752
  153.1652  135.4564  154.9825 H   0  0  0  0  0  0  0  0  0  0  0  0  # atno 10764 bound_to 10752
  154.7983  135.3327  154.7554 H   0  0  0  0  0  0  0  0  0  0  0  0  # atno 10765 bound_to 10752
  140.1547  134.4417  155.8357 H   0  0  0  0  0  0  0  0  0  0  0  0  # atno 11005 bound_to 11000
  146.2449  139.6078  142.9466 LP  0  0  0  0  0  0  0  0  0  0  0  0  # atno 17320 bound_to 7965
  145.5241  141.0430  143.2419 LP  0  0  0  0  0  0  0  0  0  0  0  0  # atno 17321 bound_to 7965
  139.7107  144.7620  151.1117 LP  0  0  0  0  0  0  0  0  0  0  0  0  # atno 17342 bound_to 10162
  140.7726  143.5335  150.9396 LP  0  0  0  0  0  0  0  0  0  0  0  0  # atno 17343 bound_to 10162
  157.2322  130.6530  149.5854 LP  0  0  0  0  0  0  0  0  0  0  0  0  # atno 17370 bound_to 10713
  155.9704  130.4595  150.6038 LP  0  0  0  0  0  0  0  0  0  0  0  0  # atno 17371 bound_to 10713
  141.2203  133.6887  156.7486 LP  0  0  0  0  0  0  0  0  0  0  0  0  # atno 17394 bound_to 11000
  140.2562  134.8502  157.3715 LP  0  0  0  0  0  0  0  0  0  0  0  0  # atno 17395 bound_to 11000

$$$$
