AV-unprocessed.smi:2747|AV-procd|sdf|10579|dock2
  -GOLD-   2272015 33D 1   1.00000     0.00000
 Structure written by MMmdl.
 23 24  0  0  0  0  0  0  0  0  2 V2000
  149.5933  138.8318  156.5224 O   0  5  0  0  0  0  0  0  0  0  0  0
  150.8708  138.7075  156.2488 C   0  0  2  0  0  0  0  0  0  0  0  0
  151.5165  140.1159  156.3692 C   0  0  0  0  0  0  0  0  0  0  0  0
  152.2235  140.3569  157.6252 N   0  0  0  0  0  0  0  0  0  0  0  0
  153.2248  139.5117  158.0132 N   0  0  0  0  0  0  0  0  0  0  0  0
  153.7215  139.9385  159.1362 N   0  0  0  0  0  0  0  0  0  0  0  0
  153.0431  141.0915  159.4936 C   0  0  0  0  0  0  0  0  0  0  0  0
  153.1769  141.9579  160.6016 C   0  0  0  0  0  0  0  0  0  0  0  0
  152.3439  143.0916  160.7266 C   0  0  0  0  0  0  0  0  0  0  0  0
  152.5397  144.1281  162.0953 Cl  0  0  0  0  0  0  0  0  0  0  0  0
  151.3651  143.3713  159.7424 C   0  0  0  0  0  0  0  0  0  0  0  0
  150.3375  144.7536  159.8801 Cl  0  0  0  0  0  0  0  0  0  0  0  0
  151.2219  142.5166  158.6318 C   0  0  0  0  0  0  0  0  0  0  0  0
  152.0605  141.3939  158.5265 C   0  0  0  0  0  0  0  0  0  0  0  0
  150.9921  138.1558  154.8075 C   0  0  0  0  0  0  0  0  0  0  0  0
  150.6385  136.8697  154.7708 F   0  0  0  0  0  0  0  0  0  0  0  0
  150.2315  138.8428  153.9516 F   0  0  0  0  0  0  0  0  0  0  0  0
  152.2595  138.2408  154.4007 F   0  0  0  0  0  0  0  0  0  0  0  0
  151.4944  138.0519  156.8589 H   0  0  0  0  0  0  0  0  0  0  0  0
  152.2235  140.2693  155.5528 H   0  0  0  0  0  0  0  0  0  0  0  0
  150.7600  140.8939  156.2543 H   0  0  0  0  0  0  0  0  0  0  0  0
  153.9229  141.7512  161.3548 H   0  0  0  0  0  0  0  0  0  0  0  0
  150.4773  142.7140  157.8743 H   0  0  0  0  0  0  0  0  0  0  0  0
  1  2  1  0  0  0  0
  2  3  1  0  0  0  0
  2 15  1  0  0  0  0
  2 19  1  0  0  0  0
  3  4  1  0  0  0  0
  3 20  1  0  0  0  0
  3 21  1  0  0  0  0
  4 14  1  0  0  0  0
  4  5  1  0  0  0  0
  5  6  2  0  0  0  0
  6  7  1  0  0  0  0
  7 14  2  0  0  0  0
  7  8  1  0  0  0  0
  8  9  2  0  0  0  0
  8 22  1  0  0  0  0
  9 10  1  0  0  0  0
  9 11  1  0  0  0  0
 11 12  1  0  0  0  0
 11 13  2  0  0  0  0
 13 14  1  0  0  0  0
 13 23  1  0  0  0  0
 15 16  1  0  0  0  0
 15 17  1  0  0  0  0
 15 18  1  0  0  0  0
M  CHG  1   1  -1
M  END
> <s_m_source_file>
AV-unprocessed.smi

> <i_m_source_file_index>
2747

> <i_lp_mmshare_version>
43012

> <i_f3d_flags>
0

> <s_epik_input>
RkMoRikoRilbQ0BIXShbT0hdKVtDSDJdbihubjEpYyhjMTIpW2NIXWMoQ2wpYyhDbClbY0hdMg==

> <s_epik_cmdline>
J2VwaWtfcHl0aG9uJywgJy1waCcsICc3LjAnLCAnLXRuJywgJzgnLCAnLW1hJywgJzIwMCcsICctbWV0YWxfYmluZGluZycsICctaW1hZScsICc8aW5maWxlLm1hZT4nLCAnLW9tYWUnLCAnPG91dGZpbGUubWFlPic=

> <r_lp_tautomer_probability>
1

> <r_epik_Ionization_Penalty>
1.2724

> <r_epik_Ionization_Penalty_Charging>
1.2724

> <r_epik_Ionization_Penalty_Neutral>
1.57383e-10

> <r_epik_State_Penalty>
1.34397

> <r_epik_Charging_Adjusted_Penalty>
2.61637

> <i_epik_Tot_Q>
-1

> <i_epik_Tot_abs_Q>
1

> <r_epik_Metal_State_Penalty>
1.34397

> <b_epik_Metal_Only>
0

> <s_lp_Force_Field>
OPLS_2005

> <r_lp_Energy>
12.5023

> <b_lp_Chiralities_Consistent>
1

> <s_lp_Variant>
AV-unprocessed.smi:2747-3

> <Gold.Version>
5.8.1

> <Gold.Id.Protein>
6NUR|6NUR_protein|mol2

> <Gold.PLP.Fitness>
38.0262

> <Gold.PLP.PLP>
-36.6406

> <Gold.PLP.part.hbond>
-1.6388

> <Gold.PLP.part.metal>
0.0000

> <Gold.PLP.part.buried>
-4.0543

> <Gold.PLP.part.nonpolar>
-31.9888

> <Gold.PLP.part.repulsive>
0.0000

> <Gold.PLP.ligand.clash>
0.0000

> <Gold.PLP.ligand.torsion>
0.7383

> <Gold.PLP.Chemscore.Hbond>
0.9500

> <Gold.PLP.Chemscore.CHOScore>
0.0000

> <Gold.PLP.Chemscore.Metal>
0.0000

> <Gold.Chemscore.Hbonds>
donor molecule, donor type, donor heavy atom, donor atom, acceptor molecule, acceptor atom, score
      P1  H  7997  8009       L1     5  0.90

> <Gold.PLP.Chemscore.Internal.Correction>
0.0121

> <Gold.Rescore>
     Score         DG    S(hbond)    S(metal)    S(lipo)     H(rot)  DE(clash)    DE(int)     intcor
     12.98     -13.56       0.09        0.00      95.99       1.35       0.06       0.52       ----

> <Gold.Chemscore.Fitness>
12.9825

> <Gold.Chemscore.DG>
-13.5594

> <Gold.Chemscore.ZeroCoef>
-5.4800

> <Gold.Chemscore.Hbond>
0.0892

> <Gold.Chemscore.Metal>
0.0000

> <Gold.Chemscore.Lipo>
95.9891

> <Gold.Chemscore.Internal_Hbond>
0.0000

> <Gold.Chemscore.DEClash>
0.0584

> <Gold.Chemscore.DEInternal>
0.5184

> <Gold.Chemscore.Rot>
1.3474

> <Gold.Chemscore.Internal.Correction>
   9.000000E+99

> <Gold.Chemscore.Hbonds>
donor molecule, donor type, donor heavy atom, donor atom, acceptor molecule, acceptor atom, score
      P1  H  7997  8009       L1     5  0.05

> <Gold.Chemscore.Hbond.Weighted>
-0.2980

> <Gold.Chemscore.Metal.Weighted>
-0.0000

> <Gold.Chemscore.Lipo.Weighted>
-11.2307

> <Gold.Chemscore.Internal_Hbond.Weighted>
0.0000

> <Gold.Chemscore.DEClash.Weighted>
0.0584

> <Gold.Chemscore.DEInternal.Weighted>
0.5184

> <Gold.Chemscore.Rot.Weighted>
3.4494

> <Gold.Chemscore.Internal.Correction.Weighted>
   9.000000E+99

> <Gold.Protein.RotatedTorsions>
[ 6907 6896 6895 6894 ] final  179.58 input  -60.11 | X-H torsion
[ 7974 7965 7964 7962 ] final    2.35 input  175.53 | X-H torsion
[ 8008 7997 7996 7995 ] final  166.40 input   59.86 | X-H torsion
[ 10167 10162 10161 10158 ] final  -16.27 input  -65.29 | X-H torsion
[ 10718 10713 10712 10709 ] final -118.63 input   66.30 | X-H torsion
[ 10763 10752 10751 10750 ] final  102.56 input  -60.55 | X-H torsion
[ 11005 11000 10999 10996 ] final  -58.33 input  -57.11 | X-H torsion

> <Gold.Protein.ActiveResidues>
 VAL166  LYS551  ARG553  GLY616  TRP617  ASP618  TYR619  PRO620  LYS621  CYS622 
 ASP623  PHE694  ASN695  SER759  ASP760  ASP761  ALA762  ILE779  LEU786  VAL792 
 PHE793  MET794  SER795  GLU796  ALA797  LYS798  CYS799  TRP800  GLU811  SER814 

> <Gold.Protein.RotatedAtoms>
  151.6693  133.3314  159.3192 H   0  0  0  0  0  0  0  0  0  0  0  0  # atno 6907 bound_to 6896
  150.7875  134.6876  159.6488 H   0  0  0  0  0  0  0  0  0  0  0  0  # atno 6908 bound_to 6896
  152.3948  134.6386  160.0145 H   0  0  0  0  0  0  0  0  0  0  0  0  # atno 6909 bound_to 6896
  146.2443  140.0850  142.8355 H   0  0  0  0  0  0  0  0  0  0  0  0  # atno 7974 bound_to 7965
  156.1721  140.1644  156.8428 H   0  0  0  0  0  0  0  0  0  0  0  0  # atno 8008 bound_to 7997
  154.5268  140.0766  156.8307 H   0  0  0  0  0  0  0  0  0  0  0  0  # atno 8009 bound_to 7997
  155.3490  140.3389  155.4241 H   0  0  0  0  0  0  0  0  0  0  0  0  # atno 8010 bound_to 7997
  140.7231  143.5133  150.9722 H   0  0  0  0  0  0  0  0  0  0  0  0  # atno 10167 bound_to 10162
  156.1120  130.6256  150.9315 H   0  0  0  0  0  0  0  0  0  0  0  0  # atno 10718 bound_to 10713
  153.3412  135.4006  155.1573 H   0  0  0  0  0  0  0  0  0  0  0  0  # atno 10763 bound_to 10752
  154.8644  135.3634  154.5343 H   0  0  0  0  0  0  0  0  0  0  0  0  # atno 10764 bound_to 10752
  153.5788  135.7077  153.5532 H   0  0  0  0  0  0  0  0  0  0  0  0  # atno 10765 bound_to 10752
  141.1203  133.6612  156.4904 H   0  0  0  0  0  0  0  0  0  0  0  0  # atno 11005 bound_to 11000
  145.0700  140.9148  143.4887 LP  0  0  0  0  0  0  0  0  0  0  0  0  # atno 17320 bound_to 7965
  145.0982  139.2841  143.5700 LP  0  0  0  0  0  0  0  0  0  0  0  0  # atno 17321 bound_to 7965
  139.8848  143.7027  152.3153 LP  0  0  0  0  0  0  0  0  0  0  0  0  # atno 17342 bound_to 10162
  139.7322  144.7580  151.0784 LP  0  0  0  0  0  0  0  0  0  0  0  0  # atno 17343 bound_to 10162
  157.6302  131.0922  150.8456 LP  0  0  0  0  0  0  0  0  0  0  0  0  # atno 17370 bound_to 10713
  156.8565  130.5098  149.5307 LP  0  0  0  0  0  0  0  0  0  0  0  0  # atno 17371 bound_to 10713
  140.4527  134.6913  157.5047 LP  0  0  0  0  0  0  0  0  0  0  0  0  # atno 17394 bound_to 11000
  140.0155  134.6626  155.9317 LP  0  0  0  0  0  0  0  0  0  0  0  0  # atno 17395 bound_to 11000

$$$$
