AV-unprocessed.smi:3334|AV-procd|sdf|12835|dock4
  -GOLD-   2272019213D 1   1.00000     0.00000
 Structure written by MMmdl.
 41 42  0  0  0  0  0  0  0  0  1 V2000
  153.9873  141.1073  160.7246 C   0  0  0  0  0  0  0  0  0  0  0  0
  153.3650  142.5017  160.8834 C   0  0  0  0  0  0  0  0  0  0  0  0
  152.5131  142.6416  162.1532 C   0  0  0  0  0  0  0  0  0  0  0  0
  152.6223  142.9258  159.6557 C   0  0  0  0  0  0  0  0  0  0  0  0
  151.6081  142.2343  159.1279 N   0  0  0  0  0  0  0  0  0  0  0  0
  151.0957  142.8222  157.9666 C   0  0  0  0  0  0  0  0  0  0  0  0
  149.9595  142.1731  157.2283 C   0  0  0  0  0  0  0  0  0  0  0  0
  150.3112  141.7806  155.7826 C   0  0  0  0  0  0  0  0  0  0  0  0
  149.4622  140.6984  155.2998 N   0  0  0  0  0  0  0  0  0  0  0  0
  149.9046  139.5595  154.7503 C   0  0  0  0  0  0  0  0  0  0  0  0
  151.0967  139.3184  154.5602 O   0  0  0  0  0  0  0  0  0  0  0  0
  148.8338  138.5369  154.3575 C   0  0  0  0  0  0  0  0  0  0  0  0
  148.7937  137.3117  155.2932 C   0  0  2  0  0  0  0  0  0  0  0  0
  150.0083  136.4341  155.1348 C   0  0  0  0  0  0  0  0  0  0  0  0
  149.6977  135.1533  154.9468 C   0  0  0  0  0  0  0  0  0  0  0  0
  148.2131  134.9168  154.9422 C   0  0  0  0  0  0  0  0  0  0  0  0
  147.6139  136.3381  155.0283 C   0  0  0  0  0  0  0  0  0  0  0  0
  151.7380  143.9858  157.6243 C   0  0  0  0  0  0  0  0  0  0  0  0
  153.0121  144.3806  158.7450 S   0  0  0  0  0  0  0  0  0  0  0  0
  154.6626  141.0797  159.8690 H   0  0  0  0  0  0  0  0  0  0  0  0
  153.2234  140.3442  160.5719 H   0  0  0  0  0  0  0  0  0  0  0  0
  154.5630  140.8297  161.6080 H   0  0  0  0  0  0  0  0  0  0  0  0
  154.1965  143.1988  160.9947 H   0  0  0  0  0  0  0  0  0  0  0  0
  152.1540  143.6639  162.2742 H   0  0  0  0  0  0  0  0  0  0  0  0
  153.0896  142.3863  163.0426 H   0  0  0  0  0  0  0  0  0  0  0  0
  151.6438  141.9839  162.1215 H   0  0  0  0  0  0  0  0  0  0  0  0
  149.6253  141.2868  157.7692 H   0  0  0  0  0  0  0  0  0  0  0  0
  149.1004  142.8446  157.2108 H   0  0  0  0  0  0  0  0  0  0  0  0
  150.1948  142.6418  155.1238 H   0  0  0  0  0  0  0  0  0  0  0  0
  151.3590  141.4796  155.7321 H   0  0  0  0  0  0  0  0  0  0  0  0
  148.4662  140.8103  155.4250 H   0  0  0  0  0  0  0  0  0  0  0  0
  147.8539  139.0177  154.3369 H   0  0  0  0  0  0  0  0  0  0  0  0
  149.0392  138.2141  153.3364 H   0  0  0  0  0  0  0  0  0  0  0  0
  148.7742  137.6396  156.3335 H   0  0  0  0  0  0  0  0  0  0  0  0
  151.0126  136.8275  155.1896 H   0  0  0  0  0  0  0  0  0  0  0  0
  150.4101  134.3504  154.8259 H   0  0  0  0  0  0  0  0  0  0  0  0
  147.9052  134.3968  154.0348 H   0  0  0  0  0  0  0  0  0  0  0  0
  147.9350  134.3099  155.8043 H   0  0  0  0  0  0  0  0  0  0  0  0
  146.8558  136.4078  155.8093 H   0  0  0  0  0  0  0  0  0  0  0  0
  147.1208  136.5782  154.0854 H   0  0  0  0  0  0  0  0  0  0  0  0
  151.5418  144.6313  156.7811 H   0  0  0  0  0  0  0  0  0  0  0  0
  1  2  1  0  0  0  0
  1 20  1  0  0  0  0
  1 21  1  0  0  0  0
  1 22  1  0  0  0  0
  2  3  1  0  0  0  0
  2  4  1  0  0  0  0
  2 23  1  0  0  0  0
  3 24  1  0  0  0  0
  3 25  1  0  0  0  0
  3 26  1  0  0  0  0
  4 19  1  0  0  0  0
  4  5  2  0  0  0  0
  5  6  1  0  0  0  0
  6  7  1  0  0  0  0
  6 18  2  0  0  0  0
  7  8  1  0  0  0  0
  7 27  1  0  0  0  0
  7 28  1  0  0  0  0
  8  9  1  0  0  0  0
  8 29  1  0  0  0  0
  8 30  1  0  0  0  0
  9 10  1  0  0  0  0
  9 31  1  0  0  0  0
 10 11  2  0  0  0  0
 10 12  1  0  0  0  0
 12 13  1  0  0  0  0
 12 32  1  0  0  0  0
 12 33  1  0  0  0  0
 13 17  1  0  0  0  0
 13 14  1  0  0  0  0
 13 34  1  0  0  0  0
 14 15  2  0  0  0  0
 14 35  1  0  0  0  0
 15 16  1  0  0  0  0
 15 36  1  0  0  0  0
 16 17  1  0  0  0  0
 16 37  1  0  0  0  0
 16 38  1  0  0  0  0
 17 39  1  0  0  0  0
 17 40  1  0  0  0  0
 18 19  1  0  0  0  0
 18 41  1  0  0  0  0
M  END
> <s_m_source_file>
AV-unprocessed.smi

> <i_m_source_file_index>
3334

> <i_lp_mmshare_version>
43012

> <i_f3d_flags>
0

> <s_epik_input>
W0NIM11bQ0hdKFtDSDNdKWMxbmMoW2NIXXMxKVtDSDJdW0NIMl1bTkhdQyg9TylbQ0gyXVtDQEBIXTJbQ0hdPVtDSF1bQ0gyXVtDSDJdMg==

> <s_epik_cmdline>
J2VwaWtfcHl0aG9uJywgJy1waCcsICc3LjAnLCAnLXRuJywgJzgnLCAnLW1hJywgJzIwMCcsICctbWV0YWxfYmluZGluZycsICctaW1hZScsICc8aW5maWxlLm1hZT4nLCAnLW9tYWUnLCAnPG91dGZpbGUubWFlPic=

> <r_epik_Ionization_Penalty>
0.000771592

> <r_epik_Ionization_Penalty_Charging>
0

> <r_epik_Ionization_Penalty_Neutral>
0.000771592

> <r_epik_State_Penalty>
0.000494253

> <r_epik_Charging_Adjusted_Penalty>
0.000494253

> <i_epik_Tot_Q>
0

> <i_epik_Tot_abs_Q>
0

> <r_epik_Metal_State_Penalty>
-0

> <b_epik_Metal_Only>
0

> <s_lp_Force_Field>
OPLS_2005

> <r_lp_Energy>
4.8696

> <b_lp_Chiralities_Consistent>
1

> <s_lp_Variant>
AV-unprocessed.smi:3334-1

> <Gold.Version>
5.8.1

> <Gold.Id.Protein>
6NUR|6NUR_protein|mol2

> <Gold.PLP.Fitness>
47.0020

> <Gold.PLP.PLP>
-41.6891

> <Gold.PLP.part.hbond>
-1.0000

> <Gold.PLP.part.metal>
0.0000

> <Gold.PLP.part.buried>
-4.1599

> <Gold.PLP.part.nonpolar>
-37.3177

> <Gold.PLP.part.repulsive>
0.2170

> <Gold.PLP.ligand.clash>
0.0000

> <Gold.PLP.ligand.torsion>
0.4408

> <Gold.PLP.Chemscore.Hbond>
1.0000

> <Gold.PLP.Chemscore.CHOScore>
0.9988

> <Gold.PLP.Chemscore.Metal>
0.0000

> <Gold.Chemscore.Hbonds>
donor molecule, donor type, donor heavy atom, donor atom, acceptor molecule, acceptor atom, score
      P1  H  7989  7998       L1    11  1.00
      L1  C    18    41       P1  8028  0.17

> <Gold.PLP.Chemscore.Internal.Correction>
0.1980

> <Gold.Rescore>
     Score         DG    S(hbond)    S(metal)    S(lipo)     H(rot)  DE(clash)    DE(int)     intcor
     17.66     -18.74       0.96        0.00     119.17       1.52       0.01       1.07       ----

> <Gold.Chemscore.Fitness>
17.6595

> <Gold.Chemscore.DG>
-18.7393

> <Gold.Chemscore.ZeroCoef>
-5.4800

> <Gold.Chemscore.Hbond>
0.9573

> <Gold.Chemscore.Metal>
0.0000

> <Gold.Chemscore.Lipo>
119.1741

> <Gold.Chemscore.Internal_Hbond>
0.0000

> <Gold.Chemscore.DEClash>
0.0124

> <Gold.Chemscore.DEInternal>
1.0675

> <Gold.Chemscore.Rot>
1.5162

> <Gold.Chemscore.Internal.Correction>
   9.000000E+99

> <Gold.Chemscore.Hbonds>
donor molecule, donor type, donor heavy atom, donor atom, acceptor molecule, acceptor atom, score
      P1  H  7989  7998       L1    11  0.34

> <Gold.Chemscore.Hbond.Weighted>
-3.1975

> <Gold.Chemscore.Metal.Weighted>
-0.0000

> <Gold.Chemscore.Lipo.Weighted>
-13.9434

> <Gold.Chemscore.Internal_Hbond.Weighted>
0.0000

> <Gold.Chemscore.DEClash.Weighted>
0.0124

> <Gold.Chemscore.DEInternal.Weighted>
1.0675

> <Gold.Chemscore.Rot.Weighted>
3.8815

> <Gold.Chemscore.Internal.Correction.Weighted>
   9.000000E+99

> <Gold.Protein.RotatedTorsions>
[ 6907 6896 6895 6894 ] final -163.05 input  -60.11 | X-H torsion
[ 7974 7965 7964 7962 ] final  -59.60 input  175.53 | X-H torsion
[ 8008 7997 7996 7995 ] final  160.75 input   59.86 | X-H torsion
[ 10167 10162 10161 10158 ] final  -47.36 input  -65.29 | X-H torsion
[ 10718 10713 10712 10709 ] final -154.16 input   66.30 | X-H torsion
[ 10763 10752 10751 10750 ] final   90.12 input  -60.55 | X-H torsion
[ 11005 11000 10999 10996 ] final -100.97 input  -57.11 | X-H torsion

> <Gold.Protein.ActiveResidues>
 VAL166  LYS551  ARG553  GLY616  TRP617  ASP618  TYR619  PRO620  LYS621  CYS622 
 ASP623  PHE694  ASN695  SER759  ASP760  ASP761  ALA762  ILE779  LEU786  VAL792 
 PHE793  MET794  SER795  GLU796  ALA797  LYS798  CYS799  TRP800  GLU811  SER814 

> <Gold.Protein.RotatedAtoms>
  151.3899  133.3792  159.2719 H   0  0  0  0  0  0  0  0  0  0  0  0  # atno 6907 bound_to 6896
  150.9513  134.8913  159.7684 H   0  0  0  0  0  0  0  0  0  0  0  0  # atno 6908 bound_to 6896
  152.5113  134.3855  159.9418 H   0  0  0  0  0  0  0  0  0  0  0  0  # atno 6909 bound_to 6896
  145.8255  140.8513  143.0110 H   0  0  0  0  0  0  0  0  0  0  0  0  # atno 7974 bound_to 7965
  156.2151  140.1796  156.7607 H   0  0  0  0  0  0  0  0  0  0  0  0  # atno 8008 bound_to 7997
  154.5779  140.0671  156.9091 H   0  0  0  0  0  0  0  0  0  0  0  0  # atno 8009 bound_to 7997
  155.2554  140.3332  155.4280 H   0  0  0  0  0  0  0  0  0  0  0  0  # atno 8010 bound_to 7997
  140.6778  143.2788  151.3915 H   0  0  0  0  0  0  0  0  0  0  0  0  # atno 10167 bound_to 10162
  156.4956  130.8367  151.2588 H   0  0  0  0  0  0  0  0  0  0  0  0  # atno 10718 bound_to 10713
  153.1942  135.4445  155.0187 H   0  0  0  0  0  0  0  0  0  0  0  0  # atno 10763 bound_to 10752
  154.8109  135.3294  154.7310 H   0  0  0  0  0  0  0  0  0  0  0  0  # atno 10764 bound_to 10752
  153.7761  135.6981  153.4952 H   0  0  0  0  0  0  0  0  0  0  0  0  # atno 10765 bound_to 10752
  141.1249  133.8441  157.1172 H   0  0  0  0  0  0  0  0  0  0  0  0  # atno 11005 bound_to 11000
  144.6744  140.0596  143.7476 LP  0  0  0  0  0  0  0  0  0  0  0  0  # atno 17320 bound_to 7965
  145.9628  139.2813  143.1145 LP  0  0  0  0  0  0  0  0  0  0  0  0  # atno 17321 bound_to 7965
  139.6082  144.1154  152.2271 LP  0  0  0  0  0  0  0  0  0  0  0  0  # atno 17342 bound_to 10162
  140.0559  144.5895  150.7300 LP  0  0  0  0  0  0  0  0  0  0  0  0  # atno 17343 bound_to 10162
  157.7469  130.9999  150.2905 LP  0  0  0  0  0  0  0  0  0  0  0  0  # atno 17370 bound_to 10713
  156.3383  130.3811  149.7431 LP  0  0  0  0  0  0  0  0  0  0  0  0  # atno 17371 bound_to 10713
  140.0239  134.9933  157.0647 LP  0  0  0  0  0  0  0  0  0  0  0  0  # atno 17394 bound_to 11000
  140.4394  134.1697  155.7173 LP  0  0  0  0  0  0  0  0  0  0  0  0  # atno 17395 bound_to 11000

$$$$
