AV-unprocessed.smi:1950|AV-procd|sdf|7880|dock6
  -GOLD-   2272010 33D 1   1.00000     0.00000
 Structure written by MMmdl.
 32 33  0  0  0  0  0  0  0  0  2 V2000
  151.0323  141.0778  158.3399 C   0  0  0  0  0  0  0  0  0  0  0  0
  152.0157  140.3266  157.4396 C   0  0  0  0  0  0  0  0  0  0  0  0
  153.0701  139.9327  157.9387 O   0  0  0  0  0  0  0  0  0  0  0  0
  151.6990  140.1209  156.1384 N   0  0  0  0  0  0  0  0  0  0  0  0
  152.5539  139.3536  155.2246 C   0  0  0  0  0  0  0  0  0  0  0  0
  151.8538  138.0261  154.8812 C   0  0  0  0  0  0  0  0  0  0  0  0
  150.4479  138.2677  154.2918 C   0  0  0  0  0  0  0  0  0  0  0  0
  149.7524  136.9920  154.1438 N   0  0  0  0  0  0  0  0  0  0  0  0
  149.6911  136.0142  155.0595 C   0  0  0  0  0  0  0  0  0  0  0  0
  150.2625  136.1491  156.1440 O   0  0  0  0  0  0  0  0  0  0  0  0
  148.9710  134.9404  154.6620 N   0  5  0  0  0  0  0  0  0  0  0  0
  149.4601  133.7014  154.8354 C   0  0  0  0  0  0  0  0  0  0  0  0
  150.2953  133.3937  155.8407 N   0  0  0  0  0  0  0  0  0  0  0  0
  150.6876  132.0620  155.8368 N   0  0  0  0  0  0  0  0  0  0  0  0
  150.1408  131.3975  154.8193 C   0  0  0  0  0  0  0  0  0  0  0  0
  149.1014  132.3388  153.7709 S   0  0  0  0  0  0  0  0  0  0  0  0
  149.6297  139.2386  155.1737 C   0  0  0  0  0  0  0  0  0  0  0  0
  150.4350  140.5090  155.4995 C   0  0  0  0  0  0  0  0  0  0  0  0
  150.0690  140.5682  158.3717 H   0  0  0  0  0  0  0  0  0  0  0  0
  150.8838  142.0973  157.9830 H   0  0  0  0  0  0  0  0  0  0  0  0
  151.4122  141.1343  159.3605 H   0  0  0  0  0  0  0  0  0  0  0  0
  152.7240  139.9336  154.3164 H   0  0  0  0  0  0  0  0  0  0  0  0
  153.5431  139.1534  155.6383 H   0  0  0  0  0  0  0  0  0  0  0  0
  152.4613  137.4564  154.1771 H   0  0  0  0  0  0  0  0  0  0  0  0
  151.7773  137.4195  155.7850 H   0  0  0  0  0  0  0  0  0  0  0  0
  150.5774  138.7207  153.3071 H   0  0  0  0  0  0  0  0  0  0  0  0
  149.2713  136.8353  153.2703 H   0  0  0  0  0  0  0  0  0  0  0  0
  150.3539  130.3478  154.6832 H   0  0  0  0  0  0  0  0  0  0  0  0
  148.6993  139.5089  154.6731 H   0  0  0  0  0  0  0  0  0  0  0  0
  149.3469  138.7444  156.1045 H   0  0  0  0  0  0  0  0  0  0  0  0
  149.8296  141.1853  156.1009 H   0  0  0  0  0  0  0  0  0  0  0  0
  150.6525  141.0550  154.5805 H   0  0  0  0  0  0  0  0  0  0  0  0
  1  2  1  0  0  0  0
  1 19  1  0  0  0  0
  1 20  1  0  0  0  0
  1 21  1  0  0  0  0
  2  3  2  0  0  0  0
  2  4  1  0  0  0  0
  4 18  1  0  0  0  0
  4  5  1  0  0  0  0
  5  6  1  0  0  0  0
  5 22  1  0  0  0  0
  5 23  1  0  0  0  0
  6  7  1  0  0  0  0
  6 24  1  0  0  0  0
  6 25  1  0  0  0  0
  7  8  1  0  0  0  0
  7 17  1  0  0  0  0
  7 26  1  0  0  0  0
  8  9  1  0  0  0  0
  8 27  1  0  0  0  0
  9 10  2  0  0  0  0
  9 11  1  0  0  0  0
 11 12  1  0  0  0  0
 12 16  1  0  0  0  0
 12 13  2  0  0  0  0
 13 14  1  0  0  0  0
 14 15  2  0  0  0  0
 15 16  1  0  0  0  0
 15 28  1  0  0  0  0
 17 18  1  0  0  0  0
 17 29  1  0  0  0  0
 17 30  1  0  0  0  0
 18 31  1  0  0  0  0
 18 32  1  0  0  0  0
M  CHG  1  11  -1
M  END
> <s_m_source_file>
AV-unprocessed.smi

> <i_m_source_file_index>
1950

> <i_lp_mmshare_version>
43012

> <i_f3d_flags>
0

> <s_epik_input>
W0NIM11DKD1PKU4xW0NIMl1bQ0gyXVtDSF0oW0NIMl1bQ0gyXTEpW05IXUMoPU8pW05IXWMybm5bY0hdczI=

> <s_epik_cmdline>
J2VwaWtfcHl0aG9uJywgJy1waCcsICc3LjAnLCAnLXRuJywgJzgnLCAnLW1hJywgJzIwMCcsICctbWV0YWxfYmluZGluZycsICctaW1hZScsICc8aW5maWxlLm1hZT4nLCAnLW9tYWUnLCAnPG91dGZpbGUubWFlPic=

> <r_lp_tautomer_probability>
1

> <r_epik_Ionization_Penalty>
3.45176

> <r_epik_Ionization_Penalty_Charging>
3.40771

> <r_epik_Ionization_Penalty_Neutral>
0.0440522

> <r_epik_State_Penalty>
3.40583

> <r_epik_Charging_Adjusted_Penalty>
6.81354

> <i_epik_Tot_Q>
-1

> <i_epik_Tot_abs_Q>
1

> <r_epik_Metal_State_Penalty>
0.49593

> <b_epik_Metal_Only>
1

> <s_lp_Force_Field>
OPLS_2005

> <r_lp_Energy>
20.3266

> <b_lp_Chiralities_Consistent>
1

> <s_lp_Variant>
AV-unprocessed.smi:1950-2

> <Gold.Version>
5.8.1

> <Gold.Id.Protein>
6NUR|6NUR_protein|mol2

> <Gold.PLP.Fitness>
34.1100

> <Gold.PLP.PLP>
-29.6857

> <Gold.PLP.part.hbond>
-2.4920

> <Gold.PLP.part.metal>
0.0000

> <Gold.PLP.part.buried>
-2.0408

> <Gold.PLP.part.nonpolar>
-25.7109

> <Gold.PLP.part.repulsive>
0.5517

> <Gold.PLP.ligand.clash>
0.0000

> <Gold.PLP.ligand.torsion>
0.7959

> <Gold.PLP.Chemscore.Hbond>
2.0000

> <Gold.PLP.Chemscore.CHOScore>
0.0000

> <Gold.PLP.Chemscore.Metal>
0.0000

> <Gold.Chemscore.Hbonds>
donor molecule, donor type, donor heavy atom, donor atom, acceptor molecule, acceptor atom, score
      L1  H     8    27       P1  7948  1.00
      P1  H  7997  8010       L1     3  1.00

> <Gold.PLP.Chemscore.Internal.Correction>
0.0162

> <Gold.Rescore>
     Score         DG    S(hbond)    S(metal)    S(lipo)     H(rot)  DE(clash)    DE(int)     intcor
     12.00     -15.37       1.96        0.00      50.42       1.00       0.04       3.33       ----

> <Gold.Chemscore.Fitness>
11.9985

> <Gold.Chemscore.DG>
-15.3693

> <Gold.Chemscore.ZeroCoef>
-5.4800

> <Gold.Chemscore.Hbond>
1.9610

> <Gold.Chemscore.Metal>
0.0000

> <Gold.Chemscore.Lipo>
50.4225

> <Gold.Chemscore.Internal_Hbond>
0.0000

> <Gold.Chemscore.DEClash>
0.0423

> <Gold.Chemscore.DEInternal>
3.3285

> <Gold.Chemscore.Rot>
1.0000

> <Gold.Chemscore.Internal.Correction>
   9.000000E+99

> <Gold.Chemscore.Hbonds>
donor molecule, donor type, donor heavy atom, donor atom, acceptor molecule, acceptor atom, score
      L1  H     8    27       P1  7948  0.91
      P1  H  7997  8010       L1     3  0.94

> <Gold.Chemscore.Hbond.Weighted>
-6.5499

> <Gold.Chemscore.Metal.Weighted>
-0.0000

> <Gold.Chemscore.Lipo.Weighted>
-5.8994

> <Gold.Chemscore.Internal_Hbond.Weighted>
0.0000

> <Gold.Chemscore.DEClash.Weighted>
0.0423

> <Gold.Chemscore.DEInternal.Weighted>
3.3285

> <Gold.Chemscore.Rot.Weighted>
2.5600

> <Gold.Chemscore.Internal.Correction.Weighted>
   9.000000E+99

> <Gold.Protein.RotatedTorsions>
[ 6907 6896 6895 6894 ] final -136.91 input  -60.11 | X-H torsion
[ 7974 7965 7964 7962 ] final  148.38 input  175.53 | X-H torsion
[ 8008 7997 7996 7995 ] final   37.62 input   59.86 | X-H torsion
[ 10167 10162 10161 10158 ] final  115.32 input  -65.29 | X-H torsion
[ 10718 10713 10712 10709 ] final  -66.94 input   66.30 | X-H torsion
[ 10763 10752 10751 10750 ] final  -12.79 input  -60.55 | X-H torsion
[ 11005 11000 10999 10996 ] final  118.73 input  -57.11 | X-H torsion

> <Gold.Protein.ActiveResidues>
 VAL166  LYS551  ARG553  GLY616  TRP617  ASP618  TYR619  PRO620  LYS621  CYS622 
 ASP623  PHE694  ASN695  SER759  ASP760  ASP761  ALA762  ILE779  LEU786  VAL792 
 PHE793  MET794  SER795  GLU796  ALA797  LYS798  CYS799  TRP800  GLU811  SER814 

> <Gold.Protein.RotatedAtoms>
  151.0159  133.5922  159.2676 H   0  0  0  0  0  0  0  0  0  0  0  0  # atno 6907 bound_to 6896
  151.3057  135.0780  159.9264 H   0  0  0  0  0  0  0  0  0  0  0  0  # atno 6908 bound_to 6896
  152.5311  133.9832  159.7870 H   0  0  0  0  0  0  0  0  0  0  0  0  # atno 6909 bound_to 6896
  144.8518  139.6147  143.5970 H   0  0  0  0  0  0  0  0  0  0  0  0  # atno 7974 bound_to 7965
  155.2068  140.3320  155.4335 H   0  0  0  0  0  0  0  0  0  0  0  0  # atno 8008 bound_to 7997
  156.2386  140.1884  156.7101 H   0  0  0  0  0  0  0  0  0  0  0  0  # atno 8009 bound_to 7997
  154.6104  140.0610  156.9472 H   0  0  0  0  0  0  0  0  0  0  0  0  # atno 8010 bound_to 7997
  139.6326  144.7116  151.2401 H   0  0  0  0  0  0  0  0  0  0  0  0  # atno 10167 bound_to 10162
  156.0584  130.4270  150.1782 H   0  0  0  0  0  0  0  0  0  0  0  0  # atno 10718 bound_to 10713
  153.5037  135.7017  153.5818 H   0  0  0  0  0  0  0  0  0  0  0  0  # atno 10763 bound_to 10752
  153.3938  135.3889  155.1941 H   0  0  0  0  0  0  0  0  0  0  0  0  # atno 10764 bound_to 10752
  154.8708  135.3865  154.4510 H   0  0  0  0  0  0  0  0  0  0  0  0  # atno 10765 bound_to 10752
  139.9120  134.9623  156.7548 H   0  0  0  0  0  0  0  0  0  0  0  0  # atno 11005 bound_to 11000
  146.2791  139.6830  142.9242 LP  0  0  0  0  0  0  0  0  0  0  0  0  # atno 17320 bound_to 7965
  145.4485  141.0427  143.2818 LP  0  0  0  0  0  0  0  0  0  0  0  0  # atno 17321 bound_to 7965
  140.7447  143.6454  150.8297 LP  0  0  0  0  0  0  0  0  0  0  0  0  # atno 17342 bound_to 10162
  140.0081  143.5672  152.2850 LP  0  0  0  0  0  0  0  0  0  0  0  0  # atno 17343 bound_to 10162
  156.9854  130.9877  151.3427 LP  0  0  0  0  0  0  0  0  0  0  0  0  # atno 17370 bound_to 10713
  157.5574  130.8223  149.8221 LP  0  0  0  0  0  0  0  0  0  0  0  0  # atno 17371 bound_to 10713
  140.6745  133.9530  155.7875 LP  0  0  0  0  0  0  0  0  0  0  0  0  # atno 17394 bound_to 11000
  141.0554  134.0424  157.3729 LP  0  0  0  0  0  0  0  0  0  0  0  0  # atno 17395 bound_to 11000

$$$$
