AV-unprocessed.smi:938|AV-procd|sdf|4217|dock9
  -GOLD-   22720 2123D 1   1.00000     0.00000
 Structure written by MMmdl.
 42 43  0  0  0  0  0  0  0  0  1 V2000
  154.1585  135.0499  164.1657 C   0  0  0  0  0  0  0  0  0  0  0  0
  155.0535  135.5147  163.0095 C   0  0  0  0  0  0  0  0  0  0  0  0
  156.4697  135.8652  163.4862 C   0  0  0  0  0  0  0  0  0  0  0  0
  154.4503  136.6775  162.3644 N   0  0  0  0  0  0  0  0  0  0  0  0
  154.0194  136.7463  161.0924 C   0  0  0  0  0  0  0  0  0  0  0  0
  154.0970  135.8082  160.2978 O   0  0  0  0  0  0  0  0  0  0  0  0
  153.4535  138.0745  160.6637 C   0  0  0  0  0  0  0  0  0  0  0  0
  153.8056  139.2523  161.3589 C   0  0  0  0  0  0  0  0  0  0  0  0
  153.2570  140.4669  160.9139 C   0  0  0  0  0  0  0  0  0  0  0  0
  152.3938  140.4252  159.8029 C   0  0  0  0  0  0  0  0  0  0  0  0
  151.8233  141.6158  159.3326 N   0  0  0  0  0  0  0  0  0  0  0  0
  150.9339  141.4231  158.1964 C   0  0  0  0  0  0  0  0  0  0  0  0
  150.2281  142.7443  157.8575 C   0  0  0  0  0  0  0  0  0  0  0  0
  151.1938  143.7728  157.6401 O   0  0  0  0  0  0  0  0  0  0  0  0
  152.1001  144.0027  158.7259 C   0  0  0  0  0  0  0  0  0  0  0  0
  153.1374  145.0028  158.1921 C   0  0  0  0  0  0  0  0  0  0  0  0
  151.3683  144.6270  159.9335 C   0  0  0  0  0  0  0  0  0  0  0  0
  152.7989  142.6727  159.0953 C   0  0  0  0  0  0  0  0  0  0  0  0
  152.0938  139.2641  159.1704 N   0  0  0  0  0  0  0  0  0  0  0  0
  152.6180  138.1091  159.5937 N   0  0  0  0  0  0  0  0  0  0  0  0
  154.5740  134.1672  164.6526 H   0  0  0  0  0  0  0  0  0  0  0  0
  153.1614  134.7896  163.8089 H   0  0  0  0  0  0  0  0  0  0  0  0
  154.0497  135.8278  164.9222 H   0  0  0  0  0  0  0  0  0  0  0  0
  155.1337  134.6887  162.3011 H   0  0  0  0  0  0  0  0  0  0  0  0
  156.9491  135.0058  163.9557 H   0  0  0  0  0  0  0  0  0  0  0  0
  156.4549  136.6770  164.2144 H   0  0  0  0  0  0  0  0  0  0  0  0
  157.0989  136.1774  162.6518 H   0  0  0  0  0  0  0  0  0  0  0  0
  154.3486  137.5072  162.9315 H   0  0  0  0  0  0  0  0  0  0  0  0
  154.4727  139.2339  162.2084 H   0  0  0  0  0  0  0  0  0  0  0  0
  153.4907  141.3977  161.4100 H   0  0  0  0  0  0  0  0  0  0  0  0
  151.5061  141.0777  157.3341 H   0  0  0  0  0  0  0  0  0  0  0  0
  150.1976  140.6520  158.4262 H   0  0  0  0  0  0  0  0  0  0  0  0
  149.6345  142.6261  156.9511 H   0  0  0  0  0  0  0  0  0  0  0  0
  149.5320  143.0289  158.6465 H   0  0  0  0  0  0  0  0  0  0  0  0
  153.8886  145.2365  158.9473 H   0  0  0  0  0  0  0  0  0  0  0  0
  152.6656  145.9392  157.8926 H   0  0  0  0  0  0  0  0  0  0  0  0
  153.6581  144.6056  157.3201 H   0  0  0  0  0  0  0  0  0  0  0  0
  152.0751  144.9081  160.7146 H   0  0  0  0  0  0  0  0  0  0  0  0
  150.6526  143.9417  160.3868 H   0  0  0  0  0  0  0  0  0  0  0  0
  150.8248  145.5262  159.6421 H   0  0  0  0  0  0  0  0  0  0  0  0
  153.4253  142.8066  159.9785 H   0  0  0  0  0  0  0  0  0  0  0  0
  153.4599  142.3655  158.2829 H   0  0  0  0  0  0  0  0  0  0  0  0
  1  2  1  0  0  0  0
  1 21  1  0  0  0  0
  1 22  1  0  0  0  0
  1 23  1  0  0  0  0
  2  3  1  0  0  0  0
  2  4  1  0  0  0  0
  2 24  1  0  0  0  0
  3 25  1  0  0  0  0
  3 26  1  0  0  0  0
  3 27  1  0  0  0  0
  4  5  1  0  0  0  0
  4 28  1  0  0  0  0
  5  6  2  0  0  0  0
  5  7  1  0  0  0  0
  7 20  1  0  0  0  0
  7  8  2  0  0  0  0
  8  9  1  0  0  0  0
  8 29  1  0  0  0  0
  9 10  2  0  0  0  0
  9 30  1  0  0  0  0
 10 11  1  0  0  0  0
 10 19  1  0  0  0  0
 11 18  1  0  0  0  0
 11 12  1  0  0  0  0
 12 13  1  0  0  0  0
 12 31  1  0  0  0  0
 12 32  1  0  0  0  0
 13 14  1  0  0  0  0
 13 33  1  0  0  0  0
 13 34  1  0  0  0  0
 14 15  1  0  0  0  0
 15 16  1  0  0  0  0
 15 17  1  0  0  0  0
 15 18  1  0  0  0  0
 16 35  1  0  0  0  0
 16 36  1  0  0  0  0
 16 37  1  0  0  0  0
 17 38  1  0  0  0  0
 17 39  1  0  0  0  0
 17 40  1  0  0  0  0
 18 41  1  0  0  0  0
 18 42  1  0  0  0  0
 19 20  2  0  0  0  0
M  END
> <s_m_source_file>
AV-unprocessed.smi

> <i_m_source_file_index>
938

> <i_lp_mmshare_version>
43012

> <i_f3d_flags>
0

> <s_epik_input>
W0NIM11bQ0hdKFtDSDNdKVtOSF1DKD1PKWMxW2NIXVtjSF1jKG5uMSlOKFtDSDJdMilbQ0gyXVtDSDJdT0MyKFtDSDNdKVtDSDNd

> <s_epik_cmdline>
J2VwaWtfcHl0aG9uJywgJy1waCcsICc3LjAnLCAnLXRuJywgJzgnLCAnLW1hJywgJzIwMCcsICctbWV0YWxfYmluZGluZycsICctaW1hZScsICc8aW5maWxlLm1hZT4nLCAnLW9tYWUnLCAnPG91dGZpbGUubWFlPic=

> <r_lp_tautomer_probability>
1

> <r_epik_Ionization_Penalty>
1.44833e-06

> <r_epik_Ionization_Penalty_Charging>
0

> <r_epik_Ionization_Penalty_Neutral>
1.44833e-06

> <r_epik_State_Penalty>
-0

> <r_epik_Charging_Adjusted_Penalty>
0

> <i_epik_Tot_Q>
0

> <i_epik_Tot_abs_Q>
0

> <r_epik_Metal_State_Penalty>
-0

> <b_epik_Metal_Only>
0

> <s_lp_Force_Field>
OPLS_2005

> <r_lp_Energy>
32.4644

> <b_lp_Chiralities_Consistent>
1

> <s_lp_Variant>
AV-unprocessed.smi:938-1

> <Gold.Version>
5.8.1

> <Gold.Id.Protein>
6NUR|6NUR_protein|mol2

> <Gold.PLP.Fitness>
33.3665

> <Gold.PLP.PLP>
-30.8668

> <Gold.PLP.part.hbond>
-0.9698

> <Gold.PLP.part.metal>
0.0000

> <Gold.PLP.part.buried>
-6.2025

> <Gold.PLP.part.nonpolar>
-24.8003

> <Gold.PLP.part.repulsive>
0.4115

> <Gold.PLP.ligand.clash>
0.0000

> <Gold.PLP.ligand.torsion>
0.3000

> <Gold.PLP.Chemscore.Hbond>
1.0000

> <Gold.PLP.Chemscore.CHOScore>
0.0000

> <Gold.PLP.Chemscore.Metal>
0.0000

> <Gold.Chemscore.Hbonds>
donor molecule, donor type, donor heavy atom, donor atom, acceptor molecule, acceptor atom, score
      P1  H  6896  6909       L1     6  1.00

> <Gold.PLP.Chemscore.Internal.Correction>
0.0997

> <Gold.Rescore>
     Score         DG    S(hbond)    S(metal)    S(lipo)     H(rot)  DE(clash)    DE(int)     intcor
     16.67     -17.20       1.00        0.00      97.38       1.17       0.16       0.38       ----

> <Gold.Chemscore.Fitness>
16.6672

> <Gold.Chemscore.DG>
-17.2045

> <Gold.Chemscore.ZeroCoef>
-5.4800

> <Gold.Chemscore.Hbond>
0.9996

> <Gold.Chemscore.Metal>
0.0000

> <Gold.Chemscore.Lipo>
97.3792

> <Gold.Chemscore.Internal_Hbond>
0.0000

> <Gold.Chemscore.DEClash>
0.1599

> <Gold.Chemscore.DEInternal>
0.3773

> <Gold.Chemscore.Rot>
1.1749

> <Gold.Chemscore.Internal.Correction>
   9.000000E+99

> <Gold.Chemscore.Hbonds>
donor molecule, donor type, donor heavy atom, donor atom, acceptor molecule, acceptor atom, score
      P1  H  6896  6909       L1     6  0.90

> <Gold.Chemscore.Hbond.Weighted>
-3.3387

> <Gold.Chemscore.Metal.Weighted>
-0.0000

> <Gold.Chemscore.Lipo.Weighted>
-11.3934

> <Gold.Chemscore.Internal_Hbond.Weighted>
0.0000

> <Gold.Chemscore.DEClash.Weighted>
0.1599

> <Gold.Chemscore.DEInternal.Weighted>
0.3773

> <Gold.Chemscore.Rot.Weighted>
3.0076

> <Gold.Chemscore.Internal.Correction.Weighted>
   9.000000E+99

> <Gold.Protein.RotatedTorsions>
[ 6907 6896 6895 6894 ] final -179.59 input  -60.11 | X-H torsion
[ 7974 7965 7964 7962 ] final   37.90 input  175.53 | X-H torsion
[ 8008 7997 7996 7995 ] final  -35.75 input   59.86 | X-H torsion
[ 10167 10162 10161 10158 ] final -173.86 input  -65.29 | X-H torsion
[ 10718 10713 10712 10709 ] final -171.94 input   66.30 | X-H torsion
[ 10763 10752 10751 10750 ] final   83.83 input  -60.55 | X-H torsion
[ 11005 11000 10999 10996 ] final -132.91 input  -57.11 | X-H torsion

> <Gold.Protein.ActiveResidues>
 VAL166  LYS551  ARG553  GLY616  TRP617  ASP618  TYR619  PRO620  LYS621  CYS622 
 ASP623  PHE694  ASN695  SER759  ASP760  ASP761  ALA762  ILE779  LEU786  VAL792 
 PHE793  MET794  SER795  GLU796  ALA797  LYS798  CYS799  TRP800  GLU811  SER814 

> <Gold.Protein.RotatedAtoms>
  151.6558  133.3319  159.3162 H   0  0  0  0  0  0  0  0  0  0  0  0  # atno 6907 bound_to 6896
  150.7937  134.6985  159.6546 H   0  0  0  0  0  0  0  0  0  0  0  0  # atno 6908 bound_to 6896
  152.4021  134.6272  160.0117 H   0  0  0  0  0  0  0  0  0  0  0  0  # atno 6909 bound_to 6896
  146.1103  139.5838  142.9356 H   0  0  0  0  0  0  0  0  0  0  0  0  # atno 7974 bound_to 7965
  154.4088  140.1649  156.2262 H   0  0  0  0  0  0  0  0  0  0  0  0  # atno 8008 bound_to 7997
  155.9321  140.3414  155.6235 H   0  0  0  0  0  0  0  0  0  0  0  0  # atno 8009 bound_to 7997
  155.7093  140.0754  157.2368 H   0  0  0  0  0  0  0  0  0  0  0  0  # atno 8010 bound_to 7997
  139.5665  144.1743  152.1320 H   0  0  0  0  0  0  0  0  0  0  0  0  # atno 10167 bound_to 10162
  156.7482  130.9368  151.3113 H   0  0  0  0  0  0  0  0  0  0  0  0  # atno 10718 bound_to 10713
  153.1326  135.4676  154.9373 H   0  0  0  0  0  0  0  0  0  0  0  0  # atno 10763 bound_to 10752
  154.7678  135.3150  154.8253 H   0  0  0  0  0  0  0  0  0  0  0  0  # atno 10764 bound_to 10752
  153.8792  135.6896  153.4822 H   0  0  0  0  0  0  0  0  0  0  0  0  # atno 10765 bound_to 10752
  140.9128  134.1545  157.4376 H   0  0  0  0  0  0  0  0  0  0  0  0  # atno 11005 bound_to 11000
  145.5677  141.0397  143.2191 LP  0  0  0  0  0  0  0  0  0  0  0  0  # atno 17320 bound_to 7965
  144.7506  139.7205  143.7275 LP  0  0  0  0  0  0  0  0  0  0  0  0  # atno 17321 bound_to 7965
  140.1267  144.5325  150.6828 LP  0  0  0  0  0  0  0  0  0  0  0  0  # atno 17342 bound_to 10162
  140.6949  143.2398  151.5029 LP  0  0  0  0  0  0  0  0  0  0  0  0  # atno 17343 bound_to 10162
  157.6789  130.9120  150.0217 LP  0  0  0  0  0  0  0  0  0  0  0  0  # atno 17370 bound_to 10713
  156.1419  130.3642  149.9569 LP  0  0  0  0  0  0  0  0  0  0  0  0  # atno 17371 bound_to 10713
  139.8760  134.9942  156.5683 LP  0  0  0  0  0  0  0  0  0  0  0  0  # atno 17394 bound_to 11000
  140.8088  133.8446  155.8791 LP  0  0  0  0  0  0  0  0  0  0  0  0  # atno 17395 bound_to 11000

$$$$
