AV-unprocessed.smi:13|AV-procd|sdf|74|dock10
  -GOLD-   2262015203D 1   1.00000     0.00000
 Structure written by MMmdl.
 54 58  0  0  0  0  0  0  0  0  1 V2000
  147.0197  130.2046  161.6533 C   0  0  0  0  0  0  0  0  0  0  0  0
  148.2272  130.8579  160.9670 C   0  0  0  0  0  0  0  0  0  0  0  0
  149.4276  130.6331  161.8863 C   0  0  0  0  0  0  0  0  0  0  0  0
  148.4281  130.4565  159.4976 C   0  0  0  0  0  0  0  0  0  0  0  0
  147.7348  131.6814  159.1404 N   0  0  0  0  0  0  0  0  0  0  0  0
  148.2248  132.2921  157.9492 C   0  0  0  0  0  0  0  0  0  0  0  0
  149.4959  132.7713  157.8813 N   0  0  0  0  0  0  0  0  0  0  0  0
  149.9563  133.3546  156.7714 C   0  0  0  0  0  0  0  0  0  0  0  0
  149.3229  133.5654  155.6175 N   0  0  0  0  0  0  0  0  0  0  0  0
  148.0449  133.0953  155.6694 C   0  0  0  0  0  0  0  0  0  0  0  0
  147.4252  132.4600  156.7829 C   0  0  0  0  0  0  0  0  0  0  0  0
  146.1117  132.1332  156.4675 N   0  0  0  0  0  0  0  0  0  0  0  0
  145.9652  132.5465  155.2386 C   0  0  0  0  0  0  0  0  0  0  0  0
  147.0806  133.1253  154.6764 N   0  0  0  0  0  0  0  0  0  0  0  0
  147.2024  133.6650  153.3304 C   0  0  0  0  0  0  0  0  0  0  0  0
  146.8260  132.6550  152.2186 C   0  0  2  0  0  0  0  0  0  0  0  0
  147.7161  131.5552  152.2745 O   0  0  0  0  0  0  0  0  0  0  0  0
  146.8880  133.2757  150.8210 C   0  0  0  0  0  0  0  0  0  0  0  0
  145.4252  133.3791  150.4065 C   0  0  0  0  0  0  0  0  0  0  0  0
  144.8523  132.2287  151.0016 O   0  0  0  0  0  0  0  0  0  0  0  0
  145.3772  132.1367  152.3181 C   0  0  0  0  0  0  0  0  0  0  0  0
  148.0606  132.2971  160.4224 C   0  0  1  0  0  0  0  0  0  0  0  0
  146.9535  133.2281  160.9304 C   0  0  1  0  0  0  0  0  0  0  0  0
  147.2324  133.8122  162.3164 C   0  0  0  0  0  0  0  0  0  0  0  0
  146.4253  135.0893  162.2856 C   0  0  0  0  0  0  0  0  0  0  0  0
  146.6407  135.5527  160.8499 C   0  0  0  0  0  0  0  0  0  0  0  0
  146.8185  134.3666  160.0818 O   0  0  0  0  0  0  0  0  0  0  0  0
  147.1566  129.1275  161.7538 H   0  0  0  0  0  0  0  0  0  0  0  0
  146.1011  130.3554  161.0856 H   0  0  0  0  0  0  0  0  0  0  0  0
  146.8535  130.6042  162.6533 H   0  0  0  0  0  0  0  0  0  0  0  0
  150.3420  131.0421  161.4558 H   0  0  0  0  0  0  0  0  0  0  0  0
  149.6031  129.5719  162.0648 H   0  0  0  0  0  0  0  0  0  0  0  0
  149.2847  131.1136  162.8547 H   0  0  0  0  0  0  0  0  0  0  0  0
  149.4745  130.4524  159.1860 H   0  0  0  0  0  0  0  0  0  0  0  0
  147.9031  129.5497  159.1958 H   0  0  0  0  0  0  0  0  0  0  0  0
  150.9780  133.7023  156.8153 H   0  0  0  0  0  0  0  0  0  0  0  0
  145.0322  132.4359  154.7057 H   0  0  0  0  0  0  0  0  0  0  0  0
  146.5704  134.5513  153.2613 H   0  0  0  0  0  0  0  0  0  0  0  0
  148.2275  134.0120  153.1934 H   0  0  0  0  0  0  0  0  0  0  0  0
  147.9795  131.3376  151.3934 H   0  0  0  0  0  0  0  0  0  0  0  0
  147.3945  134.2413  150.7954 H   0  0  0  0  0  0  0  0  0  0  0  0
  147.4080  132.6179  150.1225 H   0  0  0  0  0  0  0  0  0  0  0  0
  144.9622  134.2775  150.8182 H   0  0  0  0  0  0  0  0  0  0  0  0
  145.2922  133.3842  149.3247 H   0  0  0  0  0  0  0  0  0  0  0  0
  145.3007  131.1219  152.7106 H   0  0  0  0  0  0  0  0  0  0  0  0
  144.7715  132.7817  152.9552 H   0  0  0  0  0  0  0  0  0  0  0  0
  149.0358  132.7870  160.3878 H   0  0  0  0  0  0  0  0  0  0  0  0
  145.9882  132.7196  160.9505 H   0  0  0  0  0  0  0  0  0  0  0  0
  146.9405  133.1494  163.1304 H   0  0  0  0  0  0  0  0  0  0  0  0
  148.2927  134.0440  162.4281 H   0  0  0  0  0  0  0  0  0  0  0  0
  145.3705  134.8706  162.4576 H   0  0  0  0  0  0  0  0  0  0  0  0
  146.7500  135.8225  163.0243 H   0  0  0  0  0  0  0  0  0  0  0  0
  145.8084  136.1489  160.4751 H   0  0  0  0  0  0  0  0  0  0  0  0
  147.5490  136.1516  160.7741 H   0  0  0  0  0  0  0  0  0  0  0  0
  1  2  1  0  0  0  0
  1 28  1  0  0  0  0
  1 29  1  0  0  0  0
  1 30  1  0  0  0  0
  2 22  1  0  0  0  0
  2  3  1  0  0  0  0
  2  4  1  0  0  0  0
  3 31  1  0  0  0  0
  3 32  1  0  0  0  0
  3 33  1  0  0  0  0
  4  5  1  0  0  0  0
  4 34  1  0  0  0  0
  4 35  1  0  0  0  0
  5  6  1  0  0  0  0
  5 22  1  0  0  0  0
  6 11  1  0  0  0  0
  6  7  2  0  0  0  0
  7  8  1  0  0  0  0
  8  9  2  0  0  0  0
  8 36  1  0  0  0  0
  9 10  1  0  0  0  0
 10 14  1  0  0  0  0
 10 11  2  0  0  0  0
 11 12  1  0  0  0  0
 12 13  2  0  0  0  0
 13 14  1  0  0  0  0
 13 37  1  0  0  0  0
 14 15  1  0  0  0  0
 15 16  1  0  0  0  0
 15 38  1  0  0  0  0
 15 39  1  0  0  0  0
 16 21  1  0  0  0  0
 16 17  1  0  0  0  0
 16 18  1  0  0  0  0
 17 40  1  0  0  0  0
 18 19  1  0  0  0  0
 18 41  1  0  0  0  0
 18 42  1  0  0  0  0
 19 20  1  0  0  0  0
 19 43  1  0  0  0  0
 19 44  1  0  0  0  0
 20 21  1  0  0  0  0
 21 45  1  0  0  0  0
 21 46  1  0  0  0  0
 22 23  1  0  0  0  0
 22 47  1  0  0  0  0
 23 27  1  0  0  0  0
 23 24  1  0  0  0  0
 23 48  1  0  0  0  0
 24 25  1  0  0  0  0
 24 49  1  0  0  0  0
 24 50  1  0  0  0  0
 25 26  1  0  0  0  0
 25 51  1  0  0  0  0
 25 52  1  0  0  0  0
 26 27  1  0  0  0  0
 26 53  1  0  0  0  0
 26 54  1  0  0  0  0
M  END
> <s_m_source_file>
AV-unprocessed.smi

> <i_m_source_file_index>
13

> <i_lp_mmshare_version>
43012

> <i_f3d_flags>
0

> <s_epik_input>
TzFbQ0gyXVtDSDJdW0NIMl1bQ0BIXTFbQ0BASF0yTihbQ0gyXUMyKFtDSDNdKVtDSDNdKWMobltjSF1uMyljKGMzNCluW2NIXW40W0NIMl1bQ0BAXTUoW09IXSlbQ0gyXVtDSDJdT1tDSDJdNQ==

> <s_epik_cmdline>
J2VwaWtfcHl0aG9uJywgJy1waCcsICc3LjAnLCAnLXRuJywgJzgnLCAnLW1hJywgJzIwMCcsICctbWV0YWxfYmluZGluZycsICctaW1hZScsICc8aW5maWxlLm1hZT4nLCAnLW9tYWUnLCAnPG91dGZpbGUubWFlPic=

> <r_lp_tautomer_probability>
1

> <r_epik_Ionization_Penalty>
0.00202764

> <r_epik_Ionization_Penalty_Charging>
0

> <r_epik_Ionization_Penalty_Neutral>
0.00202764

> <r_epik_State_Penalty>
0.00134017

> <r_epik_Charging_Adjusted_Penalty>
0.00134017

> <i_epik_Tot_Q>
0

> <i_epik_Tot_abs_Q>
0

> <r_epik_Metal_State_Penalty>
-0

> <b_epik_Metal_Only>
0

> <s_lp_Force_Field>
OPLS_2005

> <r_lp_Energy>
62.8076

> <b_lp_Chiralities_Consistent>
1

> <s_lp_Variant>
AV-unprocessed.smi:13-6

> <Gold.Version>
5.8.1

> <Gold.Id.Protein>
6NUR|6NUR_protein|mol2

> <Gold.PLP.Fitness>
40.0339

> <Gold.PLP.PLP>
-31.4079

> <Gold.PLP.part.hbond>
-1.9800

> <Gold.PLP.part.metal>
0.0000

> <Gold.PLP.part.buried>
-5.8865

> <Gold.PLP.part.nonpolar>
-24.3593

> <Gold.PLP.part.repulsive>
0.2300

> <Gold.PLP.ligand.clash>
0.0000

> <Gold.PLP.ligand.torsion>
0.3898

> <Gold.PLP.Chemscore.Hbond>
2.0000

> <Gold.PLP.Chemscore.CHOScore>
1.0000

> <Gold.PLP.Chemscore.Metal>
0.0000

> <Gold.Chemscore.Hbonds>
donor molecule, donor type, donor heavy atom, donor atom, acceptor molecule, acceptor atom, score
      L1  H    17    40       P1 10747  1.00
      P1  H  6896  6907       L1     7  0.64
      L1  C    13    37       P1 10957  1.00

> <Gold.PLP.Chemscore.Internal.Correction>
0.4056

> <Gold.Rescore>
     Score         DG    S(hbond)    S(metal)    S(lipo)     H(rot)  DE(clash)    DE(int)     intcor
     12.62     -14.46       1.54        0.00      83.21       2.30       0.37       1.46       ----

> <Gold.Chemscore.Fitness>
12.6215

> <Gold.Chemscore.DG>
-14.4570

> <Gold.Chemscore.ZeroCoef>
-5.4800

> <Gold.Chemscore.Hbond>
1.5353

> <Gold.Chemscore.Metal>
0.0000

> <Gold.Chemscore.Lipo>
83.2136

> <Gold.Chemscore.Internal_Hbond>
0.0000

> <Gold.Chemscore.DEClash>
0.3749

> <Gold.Chemscore.DEInternal>
1.4606

> <Gold.Chemscore.Rot>
2.2996

> <Gold.Chemscore.Internal.Correction>
   9.000000E+99

> <Gold.Chemscore.Hbonds>
donor molecule, donor type, donor heavy atom, donor atom, acceptor molecule, acceptor atom, score
      L1  H    17    40       P1 10747  0.95
      P1  H  6896  6907       L1     7  0.11

> <Gold.Chemscore.Hbond.Weighted>
-5.1280

> <Gold.Chemscore.Metal.Weighted>
-0.0000

> <Gold.Chemscore.Lipo.Weighted>
-9.7360

> <Gold.Chemscore.Internal_Hbond.Weighted>
0.0000

> <Gold.Chemscore.DEClash.Weighted>
0.3749

> <Gold.Chemscore.DEInternal.Weighted>
1.4606

> <Gold.Chemscore.Rot.Weighted>
5.8869

> <Gold.Chemscore.Internal.Correction.Weighted>
   9.000000E+99

> <Gold.Protein.RotatedTorsions>
[ 6907 6896 6895 6894 ] final -128.39 input  -60.11 | X-H torsion
[ 7974 7965 7964 7962 ] final  -23.27 input  175.53 | X-H torsion
[ 8008 7997 7996 7995 ] final  -93.27 input   59.86 | X-H torsion
[ 10167 10162 10161 10158 ] final  -20.05 input  -65.29 | X-H torsion
[ 10718 10713 10712 10709 ] final  137.95 input   66.30 | X-H torsion
[ 10763 10752 10751 10750 ] final  -27.14 input  -60.55 | X-H torsion
[ 11005 11000 10999 10996 ] final   58.07 input  -57.11 | X-H torsion

> <Gold.Protein.ActiveResidues>
 VAL166  LYS551  ARG553  GLY616  TRP617  ASP618  TYR619  PRO620  LYS621  CYS622 
 ASP623  PHE694  ASN695  SER759  ASP760  ASP761  ALA762  ILE779  LEU786  VAL792 
 PHE793  MET794  SER795  GLU796  ALA797  LYS798  CYS799  TRP800  GLU811  SER814 

> <Gold.Protein.RotatedAtoms>
  150.9174  133.6922  159.2839 H   0  0  0  0  0  0  0  0  0  0  0  0  # atno 6907 bound_to 6896
  151.4388  135.1016  159.9674 H   0  0  0  0  0  0  0  0  0  0  0  0  # atno 6908 bound_to 6896
  152.4962  133.8587  159.7294 H   0  0  0  0  0  0  0  0  0  0  0  0  # atno 6909 bound_to 6896
  146.1626  140.4593  142.8565 H   0  0  0  0  0  0  0  0  0  0  0  0  # atno 7974 bound_to 7965
  154.7335  140.0500  157.0748 H   0  0  0  0  0  0  0  0  0  0  0  0  # atno 8008 bound_to 7997
  155.0271  140.3153  155.4753 H   0  0  0  0  0  0  0  0  0  0  0  0  # atno 8009 bound_to 7997
  156.2847  140.2156  156.5391 H   0  0  0  0  0  0  0  0  0  0  0  0  # atno 8010 bound_to 7997
  140.7273  143.4760  151.0182 H   0  0  0  0  0  0  0  0  0  0  0  0  # atno 10167 bound_to 10162
  157.4306  131.1048  151.0254 H   0  0  0  0  0  0  0  0  0  0  0  0  # atno 10718 bound_to 10713
  153.7273  135.6941  153.4998 H   0  0  0  0  0  0  0  0  0  0  0  0  # atno 10763 bound_to 10752
  153.2161  135.4386  155.0435 H   0  0  0  0  0  0  0  0  0  0  0  0  # atno 10764 bound_to 10752
  154.8265  135.3449  154.6804 H   0  0  0  0  0  0  0  0  0  0  0  0  # atno 10765 bound_to 10752
  140.0405  134.5880  155.9388 H   0  0  0  0  0  0  0  0  0  0  0  0  # atno 11005 bound_to 11000
  144.8048  140.6279  143.6454 LP  0  0  0  0  0  0  0  0  0  0  0  0  # atno 17320 bound_to 7965
  145.4549  139.1519  143.3898 LP  0  0  0  0  0  0  0  0  0  0  0  0  # atno 17321 bound_to 7965
  139.8455  143.7507  152.3179 LP  0  0  0  0  0  0  0  0  0  0  0  0  # atno 17342 bound_to 10162
  139.7671  144.7488  151.0279 LP  0  0  0  0  0  0  0  0  0  0  0  0  # atno 17343 bound_to 10162
  157.1152  130.6038  149.5491 LP  0  0  0  0  0  0  0  0  0  0  0  0  # atno 17370 bound_to 10713
  155.9912  130.4965  150.7288 LP  0  0  0  0  0  0  0  0  0  0  0  0  # atno 17371 bound_to 10713
  141.1880  133.6561  156.5307 LP  0  0  0  0  0  0  0  0  0  0  0  0  # atno 17394 bound_to 11000
  140.4077  134.7300  157.4817 LP  0  0  0  0  0  0  0  0  0  0  0  0  # atno 17395 bound_to 11000

$$$$
