AV-unprocessed.smi:249|AV-procd|sdf|1915|dock1
  -GOLD-   2262021 13D 1   1.00000     0.00000
 Structure written by MMmdl.
 64 67  0  0  0  0  0  0  0  0  2 V2000
  148.0682  142.2958  158.2744 C   0  0  0  0  0  0  0  0  0  0  0  0
  147.0089  142.3220  157.1606 C   0  0  0  0  0  0  0  0  0  0  0  0
  147.5348  141.8840  155.8351 N   0  3  1  0  0  0  0  0  0  0  0  0
  148.4107  140.6835  155.9648 C   0  0  0  0  0  0  0  0  0  0  0  0
  149.0275  140.2625  154.6217 C   0  0  0  0  0  0  0  0  0  0  0  0
  147.9418  139.9605  153.5753 C   0  0  1  0  0  0  0  0  0  0  0  0
  147.1574  138.7608  153.9117 N   0  0  0  0  0  0  0  0  0  0  0  0
  147.7757  137.7829  154.8014 C   0  0  0  0  0  0  0  0  0  0  0  0
  146.5687  138.1386  152.8661 C   0  0  0  0  0  0  0  0  0  0  0  0
  146.7701  138.6678  151.6346 N   0  0  0  0  0  0  0  0  0  0  0  0
  146.2200  138.0888  150.5629 C   0  0  0  0  0  0  0  0  0  0  0  0
  145.4507  136.9992  150.5048 N   0  0  0  0  0  0  0  0  0  0  0  0
  145.2414  136.4715  151.7453 C   0  0  0  0  0  0  0  0  0  0  0  0
  145.7585  136.9738  152.9716 C   0  0  0  0  0  0  0  0  0  0  0  0
  145.3363  136.1767  154.0287 N   0  0  0  0  0  0  0  0  0  0  0  0
  144.6116  135.2525  153.4586 C   0  0  0  0  0  0  0  0  0  0  0  0
  144.5070  135.3504  152.0895 N   0  0  0  0  0  0  0  0  0  0  0  0
  143.7650  134.4608  151.2125 C   0  0  0  0  0  0  0  0  0  0  0  0
  144.6111  133.9131  150.0354 C   0  0  2  0  0  0  0  0  0  0  0  0
  143.7049  133.3363  148.9175 C   0  0  0  0  0  0  0  0  0  0  0  0
  143.3090  134.3326  147.9986 O   0  0  0  0  0  0  0  0  0  0  0  0
  145.6422  132.8741  150.5560 C   0  0  2  0  0  0  0  0  0  0  0  0
  145.0330  131.5547  151.0240 C   0  0  0  0  0  0  0  0  0  0  0  0
  145.9797  131.0532  152.1186 C   0  0  0  0  0  0  0  0  0  0  0  0
  146.9735  132.0582  152.2640 O   0  0  0  0  0  0  0  0  0  0  0  0
  146.4345  133.2833  151.7988 C   0  0  0  0  0  0  0  0  0  0  0  0
  147.0917  141.2433  153.4490 C   0  0  0  0  0  0  0  0  0  0  0  0
  146.4722  141.6913  154.7942 C   0  0  2  0  0  0  0  0  0  0  0  0
  145.6314  142.9609  154.5439 C   0  0  0  0  0  0  0  0  0  0  0  0
  147.6764  142.7571  159.1812 H   0  0  0  0  0  0  0  0  0  0  0  0
  148.9606  142.8513  157.9839 H   0  0  0  0  0  0  0  0  0  0  0  0
  148.3681  141.2833  158.5422 H   0  0  0  0  0  0  0  0  0  0  0  0
  146.1471  141.7138  157.4386 H   0  0  0  0  0  0  0  0  0  0  0  0
  146.6563  143.3491  157.1136 H   0  0  0  0  0  0  0  0  0  0  0  0
  149.2293  140.8833  156.6541 H   0  0  0  0  0  0  0  0  0  0  0  0
  147.8381  139.8585  156.3915 H   0  0  0  0  0  0  0  0  0  0  0  0
  149.6671  141.0671  154.2561 H   0  0  0  0  0  0  0  0  0  0  0  0
  149.6894  139.4077  154.7610 H   0  0  0  0  0  0  0  0  0  0  0  0
  148.4352  139.7750  152.6206 H   0  0  0  0  0  0  0  0  0  0  0  0
  147.2536  136.8245  154.7820 H   0  0  0  0  0  0  0  0  0  0  0  0
  147.7528  138.1416  155.8302 H   0  0  0  0  0  0  0  0  0  0  0  0
  148.8152  137.6081  154.5219 H   0  0  0  0  0  0  0  0  0  0  0  0
  146.4257  138.5664  149.6161 H   0  0  0  0  0  0  0  0  0  0  0  0
  144.1321  134.4662  154.0237 H   0  0  0  0  0  0  0  0  0  0  0  0
  143.3861  133.6480  151.8316 H   0  0  0  0  0  0  0  0  0  0  0  0
  142.8901  134.9893  150.8318 H   0  0  0  0  0  0  0  0  0  0  0  0
  145.1617  134.7571  149.6161 H   0  0  0  0  0  0  0  0  0  0  0  0
  144.2093  132.5271  148.3885 H   0  0  0  0  0  0  0  0  0  0  0  0
  142.7838  132.9186  149.3214 H   0  0  0  0  0  0  0  0  0  0  0  0
  144.0843  134.7101  147.6114 H   0  0  0  0  0  0  0  0  0  0  0  0
  146.3587  132.6541  149.7627 H   0  0  0  0  0  0  0  0  0  0  0  0
  144.0396  131.7113  151.4466 H   0  0  0  0  0  0  0  0  0  0  0  0
  144.9382  130.8384  150.2072 H   0  0  0  0  0  0  0  0  0  0  0  0
  145.4464  130.9235  153.0613 H   0  0  0  0  0  0  0  0  0  0  0  0
  146.4442  130.1021  151.8577 H   0  0  0  0  0  0  0  0  0  0  0  0
  147.2307  133.9952  151.5805 H   0  0  0  0  0  0  0  0  0  0  0  0
  145.7835  133.7110  152.5634 H   0  0  0  0  0  0  0  0  0  0  0  0
  147.7259  142.0454  153.0682 H   0  0  0  0  0  0  0  0  0  0  0  0
  146.3137  141.1190  152.6951 H   0  0  0  0  0  0  0  0  0  0  0  0
  145.7985  140.9079  155.1443 H   0  0  0  0  0  0  0  0  0  0  0  0
  144.9872  142.8346  153.6731 H   0  0  0  0  0  0  0  0  0  0  0  0
  146.2653  143.8287  154.3585 H   0  0  0  0  0  0  0  0  0  0  0  0
  144.9655  143.1932  155.3740 H   0  0  0  0  0  0  0  0  0  0  0  0
  148.1209  142.6341  155.4977 H   0  0  0  0  0  0  0  0  0  0  0  0
  1  2  1  0  0  0  0
  1 30  1  0  0  0  0
  1 31  1  0  0  0  0
  1 32  1  0  0  0  0
  2  3  1  0  0  0  0
  2 33  1  0  0  0  0
  2 34  1  0  0  0  0
  3 28  1  0  0  0  0
  3  4  1  0  0  0  0
  3 64  1  0  0  0  0
  4  5  1  0  0  0  0
  4 35  1  0  0  0  0
  4 36  1  0  0  0  0
  5  6  1  0  0  0  0
  5 37  1  0  0  0  0
  5 38  1  0  0  0  0
  6  7  1  0  0  0  0
  6 27  1  0  0  0  0
  6 39  1  0  0  0  0
  7  8  1  0  0  0  0
  7  9  1  0  0  0  0
  8 40  1  0  0  0  0
  8 41  1  0  0  0  0
  8 42  1  0  0  0  0
  9 14  1  0  0  0  0
  9 10  2  0  0  0  0
 10 11  1  0  0  0  0
 11 12  2  0  0  0  0
 11 43  1  0  0  0  0
 12 13  1  0  0  0  0
 13 17  1  0  0  0  0
 13 14  2  0  0  0  0
 14 15  1  0  0  0  0
 15 16  2  0  0  0  0
 16 17  1  0  0  0  0
 16 44  1  0  0  0  0
 17 18  1  0  0  0  0
 18 19  1  0  0  0  0
 18 45  1  0  0  0  0
 18 46  1  0  0  0  0
 19 20  1  0  0  0  0
 19 22  1  0  0  0  0
 19 47  1  0  0  0  0
 20 21  1  0  0  0  0
 20 48  1  0  0  0  0
 20 49  1  0  0  0  0
 21 50  1  0  0  0  0
 22 26  1  0  0  0  0
 22 23  1  0  0  0  0
 22 51  1  0  0  0  0
 23 24  1  0  0  0  0
 23 52  1  0  0  0  0
 23 53  1  0  0  0  0
 24 25  1  0  0  0  0
 24 54  1  0  0  0  0
 24 55  1  0  0  0  0
 25 26  1  0  0  0  0
 26 56  1  0  0  0  0
 26 57  1  0  0  0  0
 27 28  1  0  0  0  0
 27 58  1  0  0  0  0
 27 59  1  0  0  0  0
 28 29  1  0  0  0  0
 28 60  1  0  0  0  0
 29 61  1  0  0  0  0
 29 62  1  0  0  0  0
 29 63  1  0  0  0  0
M  CHG  1   3   1
M  END
> <s_m_source_file>
AV-unprocessed.smi

> <i_m_source_file_index>
249

> <i_lp_mmshare_version>
43012

> <i_f3d_flags>
0

> <s_epik_input>
W0NIM11bQ0gyXU4xW0NIMl1bQ0gyXVtDQEhdKFtDSDJdW0NASF0xW0NIM10pTihbQ0gzXSljKG5bY0hdbjIpYyhjMjMpbltjSF1uM1tDSDJdW0NASF0oW0NIMl1bT0hdKVtDQEBIXTRbQ0gyXVtDSDJdT1tDSDJdNA==

> <s_epik_cmdline>
J2VwaWtfcHl0aG9uJywgJy1waCcsICc3LjAnLCAnLXRuJywgJzgnLCAnLW1hJywgJzIwMCcsICctbWV0YWxfYmluZGluZycsICctaW1hZScsICc8aW5maWxlLm1hZT4nLCAnLW9tYWUnLCAnPG91dGZpbGUubWFlPic=

> <r_lp_tautomer_probability>
1

> <r_epik_Ionization_Penalty>
0.00294688

> <r_epik_Ionization_Penalty_Charging>
0.00169971

> <r_epik_Ionization_Penalty_Neutral>
0.00124717

> <r_epik_State_Penalty>
-0

> <r_epik_Charging_Adjusted_Penalty>
0.00169971

> <i_epik_Tot_Q>
1

> <i_epik_Tot_abs_Q>
1

> <r_epik_Metal_State_Penalty>
-0

> <b_epik_Metal_Only>
0

> <s_lp_Force_Field>
OPLS_2005

> <r_lp_Energy>
57.0606

> <b_lp_Chiralities_Consistent>
1

> <s_lp_Variant>
AV-unprocessed.smi:249-18

> <Gold.Version>
5.8.1

> <Gold.Id.Protein>
6NUR|6NUR_protein|mol2

> <Gold.PLP.Fitness>
47.5182

> <Gold.PLP.PLP>
-38.2527

> <Gold.PLP.part.hbond>
-4.1253

> <Gold.PLP.part.metal>
0.0000

> <Gold.PLP.part.buried>
0.2291

> <Gold.PLP.part.nonpolar>
-39.1330

> <Gold.PLP.part.repulsive>
5.5991

> <Gold.PLP.ligand.clash>
0.0000

> <Gold.PLP.ligand.torsion>
1.6652

> <Gold.PLP.Chemscore.Hbond>
4.0000

> <Gold.PLP.Chemscore.CHOScore>
0.0000

> <Gold.PLP.Chemscore.Metal>
0.0000

> <Gold.Chemscore.Hbonds>
donor molecule, donor type, donor heavy atom, donor atom, acceptor molecule, acceptor atom, score
      L1  H     3    64       P1  8028  1.11
      L1  H    21    50       P1  7921  0.96
      P1  H 10192 10197       L1    21  1.00

> <Gold.PLP.Chemscore.Internal.Correction>
0.5960

> <Gold.Rescore>
     Score         DG    S(hbond)    S(metal)    S(lipo)     H(rot)  DE(clash)    DE(int)     intcor
      9.26     -18.76       2.74        0.00      98.61       2.90       5.90       3.60       ----

> <Gold.Chemscore.Fitness>
9.2620

> <Gold.Chemscore.DG>
-18.7554

> <Gold.Chemscore.ZeroCoef>
-5.4800

> <Gold.Chemscore.Hbond>
2.7435

> <Gold.Chemscore.Metal>
0.0000

> <Gold.Chemscore.Lipo>
98.6124

> <Gold.Chemscore.Internal_Hbond>
0.0000

> <Gold.Chemscore.DEClash>
5.8966

> <Gold.Chemscore.DEInternal>
3.5969

> <Gold.Chemscore.Rot>
2.9006

> <Gold.Chemscore.Internal.Correction>
   9.000000E+99

> <Gold.Chemscore.Hbonds>
donor molecule, donor type, donor heavy atom, donor atom, acceptor molecule, acceptor atom, score
      L1  H     3    64       P1  8028  0.51
      L1  H    21    50       P1  7921  0.87
      P1  H 10192 10197       L1    21  0.35

> <Gold.Chemscore.Hbond.Weighted>
-9.1634

> <Gold.Chemscore.Metal.Weighted>
-0.0000

> <Gold.Chemscore.Lipo.Weighted>
-11.5376

> <Gold.Chemscore.Internal_Hbond.Weighted>
0.0000

> <Gold.Chemscore.DEClash.Weighted>
5.8966

> <Gold.Chemscore.DEInternal.Weighted>
3.5969

> <Gold.Chemscore.Rot.Weighted>
7.4256

> <Gold.Chemscore.Internal.Correction.Weighted>
   9.000000E+99

> <Gold.Protein.RotatedTorsions>
[ 6907 6896 6895 6894 ] final   32.67 input  -60.11 | X-H torsion
[ 7974 7965 7964 7962 ] final  132.21 input  175.53 | X-H torsion
[ 8008 7997 7996 7995 ] final -152.10 input   59.86 | X-H torsion
[ 10167 10162 10161 10158 ] final  160.98 input  -65.29 | X-H torsion
[ 10718 10713 10712 10709 ] final -109.50 input   66.30 | X-H torsion
[ 10763 10752 10751 10750 ] final   -0.49 input  -60.55 | X-H torsion
[ 11005 11000 10999 10996 ] final   43.47 input  -57.11 | X-H torsion

> <Gold.Protein.ActiveResidues>
 VAL166  LYS551  ARG553  GLY616  TRP617  ASP618  TYR619  PRO620  LYS621  CYS622 
 ASP623  PHE694  ASN695  SER759  ASP760  ASP761  ALA762  ILE779  LEU786  VAL792 
 PHE793  MET794  SER795  GLU796  ALA797  LYS798  CYS799  TRP800  GLU811  SER814 

> <Gold.Protein.RotatedAtoms>
  152.0777  134.9492  160.0573 H   0  0  0  0  0  0  0  0  0  0  0  0  # atno 6907 bound_to 6896
  152.0793  133.4140  159.4502 H   0  0  0  0  0  0  0  0  0  0  0  0  # atno 6908 bound_to 6896
  150.6836  134.2921  159.4714 H   0  0  0  0  0  0  0  0  0  0  0  0  # atno 6909 bound_to 6896
  144.9992  139.4329  143.5301 H   0  0  0  0  0  0  0  0  0  0  0  0  # atno 7974 bound_to 7965
  155.6498  140.0711  157.2590 H   0  0  0  0  0  0  0  0  0  0  0  0  # atno 8008 bound_to 7997
  154.4165  140.1735  156.1713 H   0  0  0  0  0  0  0  0  0  0  0  0  # atno 8009 bound_to 7997
  155.9786  140.3356  155.6645 H   0  0  0  0  0  0  0  0  0  0  0  0  # atno 8010 bound_to 7997
  139.4845  144.4581  151.8741 H   0  0  0  0  0  0  0  0  0  0  0  0  # atno 10167 bound_to 10162
  156.0540  130.5767  150.8109 H   0  0  0  0  0  0  0  0  0  0  0  0  # atno 10718 bound_to 10713
  153.3326  135.6976  153.6935 H   0  0  0  0  0  0  0  0  0  0  0  0  # atno 10763 bound_to 10752
  153.5731  135.3512  155.2846 H   0  0  0  0  0  0  0  0  0  0  0  0  # atno 10764 bound_to 10752
  154.8621  135.4277  154.2519 H   0  0  0  0  0  0  0  0  0  0  0  0  # atno 10765 bound_to 10752
  140.1641  134.4304  155.8298 H   0  0  0  0  0  0  0  0  0  0  0  0  # atno 11005 bound_to 11000
  146.3448  139.9370  142.8746 LP  0  0  0  0  0  0  0  0  0  0  0  0  # atno 17320 bound_to 7965
  145.2177  140.9922  143.4063 LP  0  0  0  0  0  0  0  0  0  0  0  0  # atno 17321 bound_to 7965
  140.4042  144.2453  150.5891 LP  0  0  0  0  0  0  0  0  0  0  0  0  # atno 17342 bound_to 10162
  140.5028  143.2313  151.8653 LP  0  0  0  0  0  0  0  0  0  0  0  0  # atno 17343 bound_to 10162
  157.5494  131.0943  150.9717 LP  0  0  0  0  0  0  0  0  0  0  0  0  # atno 17370 bound_to 10713
  156.9980  130.5589  149.5309 LP  0  0  0  0  0  0  0  0  0  0  0  0  # atno 17371 bound_to 10713
  141.2212  133.6926  156.7647 LP  0  0  0  0  0  0  0  0  0  0  0  0  # atno 17394 bound_to 11000
  140.2454  134.8581  157.3615 LP  0  0  0  0  0  0  0  0  0  0  0  0  # atno 17395 bound_to 11000

$$$$
