#       Name:                AV-unprocessed.smi:1428
#       Creating user name   scv26
#       Creation time:       Fri Mar 27 05:47:00 2020


#       File generated by GOLD software.
#

@<TRIPOS>MOLECULE
AV-unprocessed.smi:1428
    51    52     1
SMALL
NO_CHARGES


@<TRIPOS>ATOM
      1 ****        -3.9635  -3.2174   1.2414 C.3            1 S1                 0.0000
      2 ****        -3.2870  -1.9650   1.2465 O.3            1 S1                 0.0000
      3 ****        -4.0417  -0.8078   1.2846 C.ar           1 S1                 0.0000
      4 ****        -5.3936  -0.9190   1.3113 N.ar           1 S1                 0.0000
      5 ****        -6.1305   0.2100   1.3527 C.ar           1 S1                 0.0000
      6 ****        -5.5656   1.4981   1.3776 C.ar           1 S1                 0.0000
      7 ****        -4.1638   1.6163   1.3496 C.ar           1 S1                 0.0000
      8 ****        -3.3768   0.4406   1.2889 C.ar           1 S1                 0.0000
      9 ****        -1.9551   0.4429   1.2709 N.am           1 S1                 0.0000
     10 ****        -1.1252   1.4132   0.8532 C.2            1 S1                 0.0000
     11 ****        -1.4709   2.5157   0.4300 O.2            1 S1                 0.0000
     12 ****         0.1542   1.0199   0.9318 N.am           1 S1                 0.0000
     13 ****         1.3116   1.8203   0.5335 C.3            1 S1                 0.0000
     14 ****         1.4816   1.8601  -0.9986 C.3            1 S1                 0.0000
     15 ****         1.9300   0.5006  -1.5620 C.3            1 S1                 0.0000
     16 ****         3.1853   0.0396  -0.9108 N.4            1 S1                 1.0000
     17 ****         3.7345  -1.2005  -1.5171 C.3            1 S1                 0.0000
     18 ****         4.4419  -0.9511  -2.8531 C.2            1 S1                 0.0000
     19 ****         4.5785  -1.9998  -3.6677 N.am           1 S1                 0.0000
     20 ****         4.8733   0.1639  -3.1413 O.2            1 S1                 0.0000
     21 ****         3.0277  -0.0714   0.5620 C.3            1 S1                 0.0000
     22 ****         2.5944   1.2705   1.1813 C.3            1 S1                 0.0000
     23 ****        -3.2297  -4.0230   1.2201 H              1 S1                 0.0000
     24 ****        -4.5975  -3.3244   0.3602 H              1 S1                 0.0000
     25 ****        -4.5707  -3.3473   2.1384 H              1 S1                 0.0000
     26 ****        -7.2027   0.0822   1.3736 H              1 S1                 0.0000
     27 ****        -6.1933   2.3757   1.4218 H              1 S1                 0.0000
     28 ****        -3.7235   2.6005   1.3891 H              1 S1                 0.0000
     29 ****        -1.5228  -0.4346   1.5209 H              1 S1                 0.0000
     30 ****         0.3409   0.0975   1.2972 H              1 S1                 0.0000
     31 ****         1.1567   2.8376   0.8981 H              1 S1                 0.0000
     32 ****         0.5574   2.1784  -1.4819 H              1 S1                 0.0000
     33 ****         2.2273   2.6139  -1.2550 H              1 S1                 0.0000
     34 ****         1.1469  -0.2454  -1.4183 H              1 S1                 0.0000
     35 ****         2.0773   0.5946  -2.6381 H              1 S1                 0.0000
     36 ****         4.4786  -1.6370  -0.8492 H              1 S1                 0.0000
     37 ****         2.9432  -1.9434  -1.6331 H              1 S1                 0.0000
     38 ****         5.0339  -1.8925  -4.5629 H              1 S1                 0.0000
     39 ****         4.2212  -2.9021  -3.3870 H              1 S1                 0.0000
     40 ****         2.3004  -0.8511   0.7936 H              1 S1                 0.0000
     41 ****         3.9730  -0.3794   1.0104 H              1 S1                 0.0000
     42 ****         3.3983   1.9966   1.0517 H              1 S1                 0.0000
     43 ****         2.4580   1.1606   2.2579 H              1 S1                 0.0000
     44 ****         3.8788   0.7573  -1.0688 H              1 S1                 0.0000
     45 ****        -2.7301  -1.9269   0.4168 LP             1 S1                 0.0000
     46 ****        -2.6906  -1.9549   2.0491 LP             1 S1                 0.0000
     47 ****        -5.8335  -1.8170   1.3005 LP             1 S1                 0.0000
     48 ****        -2.4419   2.7487   0.3764 LP             1 S1                 0.0000
     49 ****        -0.7809   3.1787   0.1397 LP             1 S1                 0.0000
     50 ****         4.7645   0.9233  -2.4998 LP             1 S1                 0.0000
     51 ****         5.3328   0.3112  -4.0172 LP             1 S1                 0.0000
@<TRIPOS>BOND
    1    1    2 1     
    2    1   23 1     
    3    1   24 1     
    4    1   25 1     
    5    2    3 1     
    6    3    8 ar    
    7    3    4 ar    
    8    4    5 ar    
    9    5    6 ar    
   10    5   26 1     
   11    6    7 ar    
   12    6   27 1     
   13    7    8 ar    
   14    7   28 1     
   15    8    9 1     
   16    9   10 am    
   17    9   29 1     
   18   10   11 2     
   19   10   12 am    
   20   12   13 1     
   21   12   30 1     
   22   13   22 1     
   23   13   14 1     
   24   13   31 1     
   25   14   15 1     
   26   14   32 1     
   27   14   33 1     
   28   15   16 1     
   29   15   34 1     
   30   15   35 1     
   31   16   17 1     
   32   16   21 1     
   33   16   44 1     
   34   17   18 1     
   35   17   36 1     
   36   17   37 1     
   37   18   19 am    
   38   18   20 2     
   39   19   38 1     
   40   19   39 1     
   41   21   22 1     
   42   21   40 1     
   43   21   41 1     
   44   22   42 1     
   45   22   43 1     
   46    2   45 1     
   47    2   46 1     
   48    4   47 1     
   49   11   48 1     
   50   11   49 1     
   51   20   50 1     
   52   20   51 1     
@<TRIPOS>SUBSTRUCTURE
      1 S1             1
@<TRIPOS>SET
LONE_PAIRS      STATIC     ATOMS    <user>   **** ""
7 45 46 47 48 49 50 51
DONOR_HYDROGENS      STATIC     ATOMS    <user>   **** ""
5 29 30 44 38 39
ATOM$BLUE        STATIC     ATOMS    COLORGROUP SYSTEM
7 45 46 47 48 49 50 51
ATOM$RED        STATIC     ATOMS    COLORGROUP SYSTEM
5 29 30 44 38 39
