AV-unprocessed.smi:38|AV-procd|sdf|338|dock1
  -GOLD-   2262016173D 1   1.00000     0.00000
 Structure written by MMmdl.
 28 29  0  0  0  0  0  0  0  0  1 V2000
  153.0869  136.7427  159.3371 O   0  0  0  0  0  0  0  0  0  0  0  0
  152.5154  137.3113  158.4088 C   0  0  0  0  0  0  0  0  0  0  0  0
  153.2521  137.8157  157.3330 N   0  0  0  0  0  0  0  0  0  0  0  0
  152.7204  138.4762  156.2236 C   0  0  0  0  0  0  0  0  0  0  0  0
  153.4703  138.8935  155.3423 O   0  0  0  0  0  0  0  0  0  0  0  0
  151.3174  138.6381  156.1818 N   0  0  0  0  0  0  0  0  0  0  0  0
  150.6805  139.3393  155.0042 C   0  0  2  0  0  0  0  0  0  0  0  0
  150.1876  140.7348  155.4006 C   0  0  0  0  0  0  0  0  0  0  0  0
  148.8716  140.8336  154.6551 C   0  0  1  0  0  0  0  0  0  0  0  0
  149.0770  141.3285  153.3452 O   0  0  0  0  0  0  0  0  0  0  0  0
  148.3885  139.3760  154.6604 C   0  0  1  0  0  0  0  0  0  0  0  0
  147.3838  138.9706  153.5680 C   0  0  0  0  0  0  0  0  0  0  0  0
  148.0633  138.6415  152.3750 O   0  0  0  0  0  0  0  0  0  0  0  0
  149.5778  138.5944  154.5754 O   0  0  0  0  0  0  0  0  0  0  0  0
  150.5472  138.1654  157.2358 C   0  0  0  0  0  0  0  0  0  0  0  0
  151.0755  137.5302  158.3084 C   0  0  0  0  0  0  0  0  0  0  0  0
  150.2655  137.1025  159.2917 F   0  0  0  0  0  0  0  0  0  0  0  0
  154.2543  137.6957  157.3634 H   0  0  0  0  0  0  0  0  0  0  0  0
  151.4013  139.3532  154.1852 H   0  0  0  0  0  0  0  0  0  0  0  0
  148.1675  141.4936  155.1632 H   0  0  0  0  0  0  0  0  0  0  0  0
  147.9470  139.1690  155.6363 H   0  0  0  0  0  0  0  0  0  0  0  0
  150.0074  140.7697  156.4762 H   0  0  0  0  0  0  0  0  0  0  0  0
  150.9157  141.5046  155.1418 H   0  0  0  0  0  0  0  0  0  0  0  0
  149.1618  140.5928  152.7577 H   0  0  0  0  0  0  0  0  0  0  0  0
  146.7631  138.1318  153.8834 H   0  0  0  0  0  0  0  0  0  0  0  0
  146.7099  139.8015  153.3585 H   0  0  0  0  0  0  0  0  0  0  0  0
  148.4746  137.7980  152.4869 H   0  0  0  0  0  0  0  0  0  0  0  0
  149.4774  138.3079  157.2149 H   0  0  0  0  0  0  0  0  0  0  0  0
  1  2  2  0  0  0  0
  2 16  1  0  0  0  0
  2  3  1  0  0  0  0
  3 18  1  0  0  0  0
  3  4  1  0  0  0  0
  4  5  2  0  0  0  0
  4  6  1  0  0  0  0
  6  7  1  0  0  0  0
  6 15  1  0  0  0  0
  7 19  1  0  0  0  0
  7 14  1  0  0  0  0
  7  8  1  0  0  0  0
  8  9  1  0  0  0  0
  8 22  1  0  0  0  0
  8 23  1  0  0  0  0
  9 20  1  0  0  0  0
  9 10  1  0  0  0  0
  9 11  1  0  0  0  0
 10 24  1  0  0  0  0
 11 21  1  0  0  0  0
 11 12  1  0  0  0  0
 11 14  1  0  0  0  0
 12 13  1  0  0  0  0
 12 25  1  0  0  0  0
 12 26  1  0  0  0  0
 13 27  1  0  0  0  0
 15 16  2  0  0  0  0
 15 28  1  0  0  0  0
 16 17  1  0  0  0  0
M  END
> <s_m_source_file>
AV-unprocessed.smi

> <i_m_source_file_index>
38

> <i_lp_mmshare_version>
43012

> <i_f3d_flags>
0

> <s_epik_input>
Tz1jMVtuSF1jKD1PKW4oW2NIXWMxRilbQ0BIXTJbQ0gyXVtDQEhdKFtPSF0pW0NASF0oTzIpW0NIMl1bT0hd

> <s_epik_cmdline>
J2VwaWtfcHl0aG9uJywgJy1waCcsICc3LjAnLCAnLXRuJywgJzgnLCAnLW1hJywgJzIwMCcsICctbWV0YWxfYmluZGluZycsICctaW1hZScsICc8aW5maWxlLm1hZT4nLCAnLW9tYWUnLCAnPG91dGZpbGUubWFlPic=

> <r_lp_tautomer_probability>
0.999537

> <r_epik_Ionization_Penalty>
0.0357432

> <r_epik_Ionization_Penalty_Charging>
0.0357431

> <r_epik_Ionization_Penalty_Neutral>
1.19946e-07

> <r_epik_State_Penalty>
0.0298169

> <r_epik_Charging_Adjusted_Penalty>
0.06556

> <i_epik_Tot_Q>
0

> <i_epik_Tot_abs_Q>
0

> <r_epik_Metal_State_Penalty>
2.348

> <b_epik_Metal_Only>
0

> <s_epik_Chemistry_Notes>
This compound contains an acetal/aminal-like group ( X-CH(R)-Y where X, Y are N, S, or O) that may be acid/base labile, releasing an aldehyde.

> <s_lp_Force_Field>
OPLS_2005

> <r_lp_Energy>
29.3981

> <b_lp_Chiralities_Consistent>
1

> <s_lp_Variant>
AV-unprocessed.smi:38-4

> <Gold.Version>
5.8.1

> <Gold.Id.Protein>
6NUR|6NUR_protein|mol2

> <Gold.PLP.Fitness>
39.3705

> <Gold.PLP.PLP>
-25.6809

> <Gold.PLP.part.hbond>
-5.9990

> <Gold.PLP.part.metal>
0.0000

> <Gold.PLP.part.buried>
-3.1010

> <Gold.PLP.part.nonpolar>
-16.1423

> <Gold.PLP.part.repulsive>
0.3195

> <Gold.PLP.ligand.clash>
0.0000

> <Gold.PLP.ligand.torsion>
0.5484

> <Gold.PLP.Chemscore.Hbond>
4.9280

> <Gold.PLP.Chemscore.CHOScore>
0.0000

> <Gold.PLP.Chemscore.Metal>
0.0000

> <Gold.Chemscore.Hbonds>
donor molecule, donor type, donor heavy atom, donor atom, acceptor molecule, acceptor atom, score
      L1  H    10    24       P1  7957  0.93
      L1  H    13    27       P1  7948  1.00
      P1  H  6896  6909       L1     1  0.71
      P1  H  7997  8009       L1     5  1.00
      P1  H  8011  8017       L1    10  0.74

> <Gold.PLP.Chemscore.Internal.Correction>
0.0023

> <Gold.Rescore>
     Score         DG    S(hbond)    S(metal)    S(lipo)     H(rot)  DE(clash)    DE(int)     intcor
     14.69     -15.33       4.10        0.00      30.79       2.91       0.10       0.53       ----

> <Gold.Chemscore.Fitness>
14.6923

> <Gold.Chemscore.DG>
-15.3258

> <Gold.Chemscore.ZeroCoef>
-5.4800

> <Gold.Chemscore.Hbond>
4.1029

> <Gold.Chemscore.Metal>
0.0000

> <Gold.Chemscore.Lipo>
30.7877

> <Gold.Chemscore.Internal_Hbond>
0.0000

> <Gold.Chemscore.DEClash>
0.1002

> <Gold.Chemscore.DEInternal>
0.5333

> <Gold.Chemscore.Rot>
2.9141

> <Gold.Chemscore.Internal.Correction>
   9.000000E+99

> <Gold.Chemscore.Hbonds>
donor molecule, donor type, donor heavy atom, donor atom, acceptor molecule, acceptor atom, score
      L1  H    10    24       P1  7957  0.90
      L1  H    13    27       P1  7948  0.94
      P1  H  6896  6909       L1     1  0.47
      P1  H  7997  8009       L1     5  0.70
      P1  H  8011  8017       L1    10  0.09

> <Gold.Chemscore.Hbond.Weighted>
-13.7037

> <Gold.Chemscore.Metal.Weighted>
-0.0000

> <Gold.Chemscore.Lipo.Weighted>
-3.6022

> <Gold.Chemscore.Internal_Hbond.Weighted>
0.0000

> <Gold.Chemscore.DEClash.Weighted>
0.1002

> <Gold.Chemscore.DEInternal.Weighted>
0.5333

> <Gold.Chemscore.Rot.Weighted>
7.4601

> <Gold.Chemscore.Internal.Correction.Weighted>
   9.000000E+99

> <Gold.Protein.RotatedTorsions>
[ 6907 6896 6895 6894 ] final  136.78 input  -60.11 | X-H torsion
[ 7974 7965 7964 7962 ] final -123.78 input  175.53 | X-H torsion
[ 8008 7997 7996 7995 ] final -139.56 input   59.86 | X-H torsion
[ 10167 10162 10161 10158 ] final  143.18 input  -65.29 | X-H torsion
[ 10718 10713 10712 10709 ] final -126.11 input   66.30 | X-H torsion
[ 10763 10752 10751 10750 ] final -179.29 input  -60.55 | X-H torsion
[ 11005 11000 10999 10996 ] final  167.53 input  -57.11 | X-H torsion

> <Gold.Protein.ActiveResidues>
 VAL166  LYS551  ARG553  GLY616  TRP617  ASP618  TYR619  PRO620  LYS621  CYS622 
 ASP623  PHE694  ASN695  SER759  ASP760  ASP761  ALA762  ILE779  LEU786  VAL792 
 PHE793  MET794  SER795  GLU796  ALA797  LYS798  CYS799  TRP800  GLU811  SER814 

> <Gold.Protein.RotatedAtoms>
  152.2855  133.5511  159.5524 H   0  0  0  0  0  0  0  0  0  0  0  0  # atno 6907 bound_to 6896
  150.7213  134.0503  159.3805 H   0  0  0  0  0  0  0  0  0  0  0  0  # atno 6908 bound_to 6896
  151.8411  135.0590  160.0499 H   0  0  0  0  0  0  0  0  0  0  0  0  # atno 6909 bound_to 6896
  145.0150  140.7939  143.4415 H   0  0  0  0  0  0  0  0  0  0  0  0  # atno 7974 bound_to 7965
  155.4469  140.0536  157.3005 H   0  0  0  0  0  0  0  0  0  0  0  0  # atno 8008 bound_to 7997
  154.4794  140.2075  155.9756 H   0  0  0  0  0  0  0  0  0  0  0  0  # atno 8009 bound_to 7997
  156.1182  140.3193  155.8175 H   0  0  0  0  0  0  0  0  0  0  0  0  # atno 8010 bound_to 7997
  139.4976  144.6058  151.6382 H   0  0  0  0  0  0  0  0  0  0  0  0  # atno 10167 bound_to 10162
  156.1736  130.6684  151.0212 H   0  0  0  0  0  0  0  0  0  0  0  0  # atno 10718 bound_to 10713
  154.5370  135.2803  155.1130 H   0  0  0  0  0  0  0  0  0  0  0  0  # atno 10763 bound_to 10752
  154.2627  135.6318  153.5284 H   0  0  0  0  0  0  0  0  0  0  0  0  # atno 10764 bound_to 10752
  152.9970  135.5609  154.5899 H   0  0  0  0  0  0  0  0  0  0  0  0  # atno 10765 bound_to 10752
  140.2778  134.7775  157.3732 H   0  0  0  0  0  0  0  0  0  0  0  0  # atno 11005 bound_to 11000
  145.1971  139.2271  143.5212 LP  0  0  0  0  0  0  0  0  0  0  0  0  # atno 17320 bound_to 7965
  146.3476  140.1781  142.8589 LP  0  0  0  0  0  0  0  0  0  0  0  0  # atno 17321 bound_to 7965
  140.5719  144.0094  150.6221 LP  0  0  0  0  0  0  0  0  0  0  0  0  # atno 17342 bound_to 10162
  140.3214  143.3134  152.0780 LP  0  0  0  0  0  0  0  0  0  0  0  0  # atno 17343 bound_to 10162
  157.6820  131.0835  150.7345 LP  0  0  0  0  0  0  0  0  0  0  0  0  # atno 17370 bound_to 10713
  156.7404  130.4737  149.5479 LP  0  0  0  0  0  0  0  0  0  0  0  0  # atno 17371 bound_to 10713
  140.1312  134.5093  155.8104 LP  0  0  0  0  0  0  0  0  0  0  0  0  # atno 17394 bound_to 11000
  141.2167  133.6790  156.7042 LP  0  0  0  0  0  0  0  0  0  0  0  0  # atno 17395 bound_to 11000

$$$$
