AV-unprocessed.smi:853|AV-procd|sdf|3953|dock5
  -GOLD-   22720 1423D 1   1.00000     0.00000
 Structure written by MMmdl.
 49 51  0  0  0  0  0  0  0  0  1 V2000
  144.8727  132.4116  149.3122 C   0  0  0  0  0  0  0  0  0  0  0  0
  144.4765  132.7177  150.7584 C   0  0  0  0  0  0  0  0  0  0  0  0
  144.3993  131.7763  151.5481 O   0  0  0  0  0  0  0  0  0  0  0  0
  144.2287  133.9995  151.1205 N   0  0  0  0  0  0  0  0  0  0  0  0
  143.9109  134.3873  152.4997 C   0  0  0  0  0  0  0  0  0  0  0  0
  145.1045  135.1626  153.0855 C   0  0  0  0  0  0  0  0  0  0  0  0
  145.4698  136.3801  152.2094 C   0  0  0  0  0  0  0  0  0  0  0  0
  146.7117  136.9756  152.6933 N   0  0  0  0  0  0  0  0  0  0  0  0
  146.8000  137.9274  153.6331 C   0  0  0  0  0  0  0  0  0  0  0  0
  145.8213  138.4213  154.1925 O   0  0  0  0  0  0  0  0  0  0  0  0
  148.0810  138.2687  153.8550 N   0  0  0  0  0  0  0  0  0  0  0  0
  148.6076  139.2022  154.7886 C   0  0  0  0  0  0  0  0  0  0  0  0
  148.0949  139.4141  156.0899 C   0  0  0  0  0  0  0  0  0  0  0  0
  148.7248  140.3551  156.9267 C   0  0  0  0  0  0  0  0  0  0  0  0
  149.8586  141.0546  156.4497 C   0  0  0  0  0  0  0  0  0  0  0  0
  150.5179  142.0031  157.2569 N   0  0  0  0  0  0  0  0  0  0  0  0
  151.2084  143.1472  156.6815 C   0  0  0  0  0  0  0  0  0  0  0  0
  151.9072  143.8127  157.8658 C   0  0  0  0  0  0  0  0  0  0  0  0
  152.2454  142.6315  158.7749 C   0  0  0  0  0  0  0  0  0  0  0  0
  151.1000  141.6395  158.5422 C   0  0  0  0  0  0  0  0  0  0  0  0
  150.3485  140.8488  155.2041 N   0  0  0  0  0  0  0  0  0  0  0  0
  149.7414  139.9462  154.4059 C   0  0  0  0  0  0  0  0  0  0  0  0
  145.5983  135.9854  150.7198 C   0  0  0  0  0  0  0  0  0  0  0  0
  144.3785  135.1727  150.2506 C   0  0  0  0  0  0  0  0  0  0  0  0
  145.7807  132.9488  149.0369 H   0  0  0  0  0  0  0  0  0  0  0  0
  144.0726  132.6901  148.6258 H   0  0  0  0  0  0  0  0  0  0  0  0
  145.0655  131.3460  149.1838 H   0  0  0  0  0  0  0  0  0  0  0  0
  143.0177  135.0139  152.5031 H   0  0  0  0  0  0  0  0  0  0  0  0
  143.6755  133.5329  153.1358 H   0  0  0  0  0  0  0  0  0  0  0  0
  144.8742  135.4876  154.1008 H   0  0  0  0  0  0  0  0  0  0  0  0
  145.9610  134.4907  153.1626 H   0  0  0  0  0  0  0  0  0  0  0  0
  144.6621  137.1087  152.3040 H   0  0  0  0  0  0  0  0  0  0  0  0
  147.5682  136.6333  152.2829 H   0  0  0  0  0  0  0  0  0  0  0  0
  148.7648  137.8271  153.2579 H   0  0  0  0  0  0  0  0  0  0  0  0
  147.2445  138.8711  156.4709 H   0  0  0  0  0  0  0  0  0  0  0  0
  148.3300  140.5261  157.9170 H   0  0  0  0  0  0  0  0  0  0  0  0
  151.9392  142.8013  155.9489 H   0  0  0  0  0  0  0  0  0  0  0  0
  150.5169  143.8292  156.1857 H   0  0  0  0  0  0  0  0  0  0  0  0
  152.7835  144.3910  157.5720 H   0  0  0  0  0  0  0  0  0  0  0  0
  151.2137  144.4831  158.3753 H   0  0  0  0  0  0  0  0  0  0  0  0
  153.1866  142.1839  158.4524 H   0  0  0  0  0  0  0  0  0  0  0  0
  152.3520  142.9164  159.8220 H   0  0  0  0  0  0  0  0  0  0  0  0
  150.3373  141.7412  159.3147 H   0  0  0  0  0  0  0  0  0  0  0  0
  151.4676  140.6128  158.5549 H   0  0  0  0  0  0  0  0  0  0  0  0
  150.1778  139.8161  153.4263 H   0  0  0  0  0  0  0  0  0  0  0  0
  145.7080  136.8774  150.1019 H   0  0  0  0  0  0  0  0  0  0  0  0
  146.5018  135.3923  150.5698 H   0  0  0  0  0  0  0  0  0  0  0  0
  144.4826  134.9247  149.1954 H   0  0  0  0  0  0  0  0  0  0  0  0
  143.4775  135.7842  150.3167 H   0  0  0  0  0  0  0  0  0  0  0  0
  1  2  1  0  0  0  0
  1 25  1  0  0  0  0
  1 26  1  0  0  0  0
  1 27  1  0  0  0  0
  2  3  2  0  0  0  0
  2  4  1  0  0  0  0
  4 24  1  0  0  0  0
  4  5  1  0  0  0  0
  5  6  1  0  0  0  0
  5 28  1  0  0  0  0
  5 29  1  0  0  0  0
  6  7  1  0  0  0  0
  6 30  1  0  0  0  0
  6 31  1  0  0  0  0
  7  8  1  0  0  0  0
  7 23  1  0  0  0  0
  7 32  1  0  0  0  0
  8  9  1  0  0  0  0
  8 33  1  0  0  0  0
  9 10  2  0  0  0  0
  9 11  1  0  0  0  0
 11 12  1  0  0  0  0
 11 34  1  0  0  0  0
 12 22  1  0  0  0  0
 12 13  2  0  0  0  0
 13 14  1  0  0  0  0
 13 35  1  0  0  0  0
 14 15  2  0  0  0  0
 14 36  1  0  0  0  0
 15 16  1  0  0  0  0
 15 21  1  0  0  0  0
 16 20  1  0  0  0  0
 16 17  1  0  0  0  0
 17 18  1  0  0  0  0
 17 37  1  0  0  0  0
 17 38  1  0  0  0  0
 18 19  1  0  0  0  0
 18 39  1  0  0  0  0
 18 40  1  0  0  0  0
 19 20  1  0  0  0  0
 19 41  1  0  0  0  0
 19 42  1  0  0  0  0
 20 43  1  0  0  0  0
 20 44  1  0  0  0  0
 21 22  2  0  0  0  0
 22 45  1  0  0  0  0
 23 24  1  0  0  0  0
 23 46  1  0  0  0  0
 23 47  1  0  0  0  0
 24 48  1  0  0  0  0
 24 49  1  0  0  0  0
M  END
> <s_m_source_file>
AV-unprocessed.smi

> <i_m_source_file_index>
853

> <i_lp_mmshare_version>
43012

> <i_f3d_flags>
0

> <s_epik_input>
W0NIM11DKD1PKU4xW0NIMl1bQ0gyXVtDSF0oW0NIMl1bQ0gyXTEpW05IXUMoPU8pW05IXWMyW2NIXVtjSF1jKG5bY0hdMilOM1tDSDJdW0NIMl1bQ0gyXVtDSDJdMw==

> <s_epik_cmdline>
J2VwaWtfcHl0aG9uJywgJy1waCcsICc3LjAnLCAnLXRuJywgJzgnLCAnLW1hJywgJzIwMCcsICctbWV0YWxfYmluZGluZycsICctaW1hZScsICc8aW5maWxlLm1hZT4nLCAnLW9tYWUnLCAnPG91dGZpbGUubWFlPic=

> <r_lp_tautomer_probability>
1

> <r_epik_Ionization_Penalty>
0.102256

> <r_epik_Ionization_Penalty_Charging>
0

> <r_epik_Ionization_Penalty_Neutral>
0.102256

> <r_epik_State_Penalty>
0.0916633

> <r_epik_Charging_Adjusted_Penalty>
0.0916633

> <i_epik_Tot_Q>
0

> <i_epik_Tot_abs_Q>
0

> <r_epik_Metal_State_Penalty>
0.078099

> <b_epik_Metal_Only>
0

> <s_lp_Force_Field>
OPLS_2005

> <r_lp_Energy>
47.0227

> <b_lp_Chiralities_Consistent>
1

> <s_lp_Variant>
AV-unprocessed.smi:853-1

> <Gold.Version>
5.8.1

> <Gold.Id.Protein>
6NUR|6NUR_protein|mol2

> <Gold.PLP.Fitness>
43.7078

> <Gold.PLP.PLP>
-38.4478

> <Gold.PLP.part.hbond>
-2.8803

> <Gold.PLP.part.metal>
0.0000

> <Gold.PLP.part.buried>
-2.7673

> <Gold.PLP.part.nonpolar>
-32.3065

> <Gold.PLP.part.repulsive>
0.4144

> <Gold.PLP.ligand.clash>
0.0000

> <Gold.PLP.ligand.torsion>
1.3751

> <Gold.PLP.Chemscore.Hbond>
1.5990

> <Gold.PLP.Chemscore.CHOScore>
1.0000

> <Gold.PLP.Chemscore.Metal>
0.0000

> <Gold.Chemscore.Hbonds>
donor molecule, donor type, donor heavy atom, donor atom, acceptor molecule, acceptor atom, score
      L1  H     8    33       P1  7948  0.91
      L1  H    11    34       P1  7948  0.68
      L1  C    22    45       P1  7957  1.00

> <Gold.PLP.Chemscore.Internal.Correction>
0.2131

> <Gold.Rescore>
     Score         DG    S(hbond)    S(metal)    S(lipo)     H(rot)  DE(clash)    DE(int)     intcor
     17.12     -19.79       1.74        0.00      94.53       1.00       1.31       1.36       ----

> <Gold.Chemscore.Fitness>
17.1220

> <Gold.Chemscore.DG>
-19.7855

> <Gold.Chemscore.ZeroCoef>
-5.4800

> <Gold.Chemscore.Hbond>
1.7381

> <Gold.Chemscore.Metal>
0.0000

> <Gold.Chemscore.Lipo>
94.5329

> <Gold.Chemscore.Internal_Hbond>
0.0000

> <Gold.Chemscore.DEClash>
1.3054

> <Gold.Chemscore.DEInternal>
1.3581

> <Gold.Chemscore.Rot>
1.0000

> <Gold.Chemscore.Internal.Correction>
   9.000000E+99

> <Gold.Chemscore.Hbonds>
donor molecule, donor type, donor heavy atom, donor atom, acceptor molecule, acceptor atom, score
      L1  H     8    33       P1  7948  0.87
      L1  H    11    34       P1  7948  0.65

> <Gold.Chemscore.Hbond.Weighted>
-5.8051

> <Gold.Chemscore.Metal.Weighted>
-0.0000

> <Gold.Chemscore.Lipo.Weighted>
-11.0604

> <Gold.Chemscore.Internal_Hbond.Weighted>
0.0000

> <Gold.Chemscore.DEClash.Weighted>
1.3054

> <Gold.Chemscore.DEInternal.Weighted>
1.3581

> <Gold.Chemscore.Rot.Weighted>
2.5600

> <Gold.Chemscore.Internal.Correction.Weighted>
   9.000000E+99

> <Gold.Protein.RotatedTorsions>
[ 6907 6896 6895 6894 ] final -134.31 input  -60.11 | X-H torsion
[ 7974 7965 7964 7962 ] final  112.65 input  175.53 | X-H torsion
[ 8008 7997 7996 7995 ] final -154.01 input   59.86 | X-H torsion
[ 10167 10162 10161 10158 ] final  -30.42 input  -65.29 | X-H torsion
[ 10718 10713 10712 10709 ] final -114.52 input   66.30 | X-H torsion
[ 10763 10752 10751 10750 ] final -142.50 input  -60.55 | X-H torsion
[ 11005 11000 10999 10996 ] final   40.25 input  -57.11 | X-H torsion

> <Gold.Protein.ActiveResidues>
 VAL166  LYS551  ARG553  GLY616  TRP617  ASP618  TYR619  PRO620  LYS621  CYS622 
 ASP623  PHE694  ASN695  SER759  ASP760  ASP761  ALA762  ILE779  LEU786  VAL792 
 PHE793  MET794  SER795  GLU796  ALA797  LYS798  CYS799  TRP800  GLU811  SER814 

> <Gold.Protein.RotatedAtoms>
  150.9844  133.6213  159.2717 H   0  0  0  0  0  0  0  0  0  0  0  0  # atno 6907 bound_to 6896
  151.3456  135.0872  159.9395 H   0  0  0  0  0  0  0  0  0  0  0  0  # atno 6908 bound_to 6896
  152.5226  133.9447  159.7697 H   0  0  0  0  0  0  0  0  0  0  0  0  # atno 6909 bound_to 6896
  145.2268  139.2837  143.4189 H   0  0  0  0  0  0  0  0  0  0  0  0  # atno 7974 bound_to 7965
  155.6797  140.0743  157.2489 H   0  0  0  0  0  0  0  0  0  0  0  0  # atno 8008 bound_to 7997
  154.4108  140.1684  156.2021 H   0  0  0  0  0  0  0  0  0  0  0  0  # atno 8009 bound_to 7997
  155.9545  140.3374  155.6440 H   0  0  0  0  0  0  0  0  0  0  0  0  # atno 8010 bound_to 7997
  140.7249  143.3850  151.1531 H   0  0  0  0  0  0  0  0  0  0  0  0  # atno 10167 bound_to 10162
  156.0835  130.6031  150.8786 H   0  0  0  0  0  0  0  0  0  0  0  0  # atno 10718 bound_to 10713
  154.8506  135.3494  154.6038 H   0  0  0  0  0  0  0  0  0  0  0  0  # atno 10763 bound_to 10752
  153.6647  135.6988  153.5171 H   0  0  0  0  0  0  0  0  0  0  0  0  # atno 10764 bound_to 10752
  153.2790  135.4269  155.1017 H   0  0  0  0  0  0  0  0  0  0  0  0  # atno 10765 bound_to 10752
  140.1949  134.3941  155.8126 H   0  0  0  0  0  0  0  0  0  0  0  0  # atno 11005 bound_to 11000
  146.3362  140.2591  142.8601 LP  0  0  0  0  0  0  0  0  0  0  0  0  # atno 17320 bound_to 7965
  144.9713  140.8371  143.5453 LP  0  0  0  0  0  0  0  0  0  0  0  0  # atno 17321 bound_to 7965
  139.7446  143.8872  152.3060 LP  0  0  0  0  0  0  0  0  0  0  0  0  # atno 17342 bound_to 10162
  139.8705  144.7071  150.8993 LP  0  0  0  0  0  0  0  0  0  0  0  0  # atno 17343 bound_to 10162
  157.5961  131.0943  150.9038 LP  0  0  0  0  0  0  0  0  0  0  0  0  # atno 17370 bound_to 10713
  156.9204  130.5313  149.5279 LP  0  0  0  0  0  0  0  0  0  0  0  0  # atno 17371 bound_to 10713
  141.2227  133.7065  156.8159 LP  0  0  0  0  0  0  0  0  0  0  0  0  # atno 17394 bound_to 11000
  140.2118  134.8822  157.3283 LP  0  0  0  0  0  0  0  0  0  0  0  0  # atno 17395 bound_to 11000

$$$$
