AV-unprocessed.smi:1666|AV-procd|sdf|6672|dock5
  -GOLD-   22720 7383D 1   1.00000     0.00000
 Structure written by MMmdl.
 40 41  0  0  0  0  0  0  0  0  2 V2000
  147.7163  132.9486  152.2961 C   0  0  0  0  0  0  0  0  0  0  0  0
  146.3317  132.9164  151.6691 C   0  0  0  0  0  0  0  0  0  0  0  0
  145.7167  131.6715  151.4180 C   0  0  0  0  0  0  0  0  0  0  0  0
  144.4366  131.6433  150.8389 C   0  0  0  0  0  0  0  0  0  0  0  0
  143.8216  132.8693  150.5329 C   0  0  0  0  0  0  0  0  0  0  0  0
  144.4017  134.0635  150.7695 N   0  0  0  0  0  0  0  0  0  0  0  0
  145.6370  134.1082  151.3291 C   0  0  0  0  0  0  0  0  0  0  0  0
  146.3095  135.3316  151.6066 N   0  0  0  0  0  0  0  0  0  0  0  0
  145.7762  136.5398  151.8601 C   0  0  0  0  0  0  0  0  0  0  0  0
  144.5724  136.7963  151.9028 O   0  0  0  0  0  0  0  0  0  0  0  0
  146.7304  137.4596  152.0639 N   0  0  0  0  0  0  0  0  0  0  0  0
  146.4784  138.8647  152.3606 C   0  0  0  0  0  0  0  0  0  0  0  0
  146.6639  139.1658  153.8602 C   0  0  0  0  0  0  0  0  0  0  0  0
  146.0351  140.4482  154.2621 N   0  3  0  0  0  0  0  0  0  0  0  0
  145.6526  140.4640  155.6944 C   0  0  0  0  0  0  0  0  0  0  0  0
  144.9646  141.7914  156.0553 C   0  0  0  0  0  0  0  0  0  0  0  0
  145.8287  142.8764  155.7427 O   0  0  0  0  0  0  0  0  0  0  0  0
  146.1347  142.9288  154.3550 C   0  0  0  0  0  0  0  0  0  0  0  0
  146.8595  141.6386  153.9353 C   0  0  0  0  0  0  0  0  0  0  0  0
  148.0969  131.9416  152.4697 H   0  0  0  0  0  0  0  0  0  0  0  0
  147.6889  133.4662  153.2553 H   0  0  0  0  0  0  0  0  0  0  0  0
  148.4205  133.4644  151.6428 H   0  0  0  0  0  0  0  0  0  0  0  0
  146.2175  130.7470  151.6653 H   0  0  0  0  0  0  0  0  0  0  0  0
  143.9391  130.7068  150.6347 H   0  0  0  0  0  0  0  0  0  0  0  0
  142.8385  132.8932  150.0866 H   0  0  0  0  0  0  0  0  0  0  0  0
  147.3170  135.2772  151.6103 H   0  0  0  0  0  0  0  0  0  0  0  0
  147.6955  137.1670  152.0125 H   0  0  0  0  0  0  0  0  0  0  0  0
  147.1324  139.4814  151.7436 H   0  0  0  0  0  0  0  0  0  0  0  0
  145.4569  139.0974  152.0585 H   0  0  0  0  0  0  0  0  0  0  0  0
  146.2087  138.3514  154.4261 H   0  0  0  0  0  0  0  0  0  0  0  0
  147.7201  139.1767  154.1339 H   0  0  0  0  0  0  0  0  0  0  0  0
  144.9791  139.6332  155.9082 H   0  0  0  0  0  0  0  0  0  0  0  0
  146.5414  140.3240  156.3118 H   0  0  0  0  0  0  0  0  0  0  0  0
  144.0183  141.8983  155.5223 H   0  0  0  0  0  0  0  0  0  0  0  0
  144.7349  141.8185  157.1206 H   0  0  0  0  0  0  0  0  0  0  0  0
  145.2221  143.0702  153.7734 H   0  0  0  0  0  0  0  0  0  0  0  0
  146.7697  143.7946  154.1666 H   0  0  0  0  0  0  0  0  0  0  0  0
  147.8205  141.5706  154.4479 H   0  0  0  0  0  0  0  0  0  0  0  0
  147.0709  141.6774  152.8673 H   0  0  0  0  0  0  0  0  0  0  0  0
  145.1755  140.5276  153.7374 H   0  0  0  0  0  0  0  0  0  0  0  0
  1  2  1  0  0  0  0
  1 20  1  0  0  0  0
  1 21  1  0  0  0  0
  1 22  1  0  0  0  0
  2  7  1  0  0  0  0
  2  3  2  0  0  0  0
  3  4  1  0  0  0  0
  3 23  1  0  0  0  0
  4  5  2  0  0  0  0
  4 24  1  0  0  0  0
  5  6  1  0  0  0  0
  5 25  1  0  0  0  0
  6  7  2  0  0  0  0
  7  8  1  0  0  0  0
  8  9  1  0  0  0  0
  8 26  1  0  0  0  0
  9 10  2  0  0  0  0
  9 11  1  0  0  0  0
 11 12  1  0  0  0  0
 11 27  1  0  0  0  0
 12 13  1  0  0  0  0
 12 28  1  0  0  0  0
 12 29  1  0  0  0  0
 13 14  1  0  0  0  0
 13 30  1  0  0  0  0
 13 31  1  0  0  0  0
 14 19  1  0  0  0  0
 14 15  1  0  0  0  0
 14 40  1  0  0  0  0
 15 16  1  0  0  0  0
 15 32  1  0  0  0  0
 15 33  1  0  0  0  0
 16 17  1  0  0  0  0
 16 34  1  0  0  0  0
 16 35  1  0  0  0  0
 17 18  1  0  0  0  0
 18 19  1  0  0  0  0
 18 36  1  0  0  0  0
 18 37  1  0  0  0  0
 19 38  1  0  0  0  0
 19 39  1  0  0  0  0
M  CHG  1  14   1
M  END
> <s_m_source_file>
AV-unprocessed.smi

> <i_m_source_file_index>
1666

> <i_lp_mmshare_version>
43012

> <i_f3d_flags>
0

> <s_epik_input>
W0NIM11jMVtjSF1bY0hdW2NIXW5jMVtOSF1DKD1PKVtOSF1bQ0gyXVtDSDJdTjJbQ0gyXVtDSDJdT1tDSDJdW0NIMl0y

> <s_epik_cmdline>
J2VwaWtfcHl0aG9uJywgJy1waCcsICc3LjAnLCAnLXRuJywgJzgnLCAnLW1hJywgJzIwMCcsICctbWV0YWxfYmluZGluZycsICctaW1hZScsICc8aW5maWxlLm1hZT4nLCAnLW9tYWUnLCAnPG91dGZpbGUubWFlPic=

> <r_epik_Ionization_Penalty>
0.602573

> <r_epik_Ionization_Penalty_Charging>
0.602531

> <r_epik_Ionization_Penalty_Neutral>
4.20806e-05

> <r_epik_State_Penalty>
0.617039

> <r_epik_Charging_Adjusted_Penalty>
1.21957

> <i_epik_Tot_Q>
1

> <i_epik_Tot_abs_Q>
1

> <r_epik_Metal_State_Penalty>
0.617042

> <b_epik_Metal_Only>
0

> <s_lp_Force_Field>
OPLS_2005

> <r_lp_Energy>
16.3818

> <b_lp_Chiralities_Consistent>
1

> <s_lp_Variant>
AV-unprocessed.smi:1666-2

> <Gold.Version>
5.8.1

> <Gold.Id.Protein>
6NUR|6NUR_protein|mol2

> <Gold.PLP.Fitness>
46.7251

> <Gold.PLP.PLP>
-33.0631

> <Gold.PLP.part.hbond>
-2.9495

> <Gold.PLP.part.metal>
0.0000

> <Gold.PLP.part.buried>
-6.2086

> <Gold.PLP.part.nonpolar>
-26.7887

> <Gold.PLP.part.repulsive>
2.2514

> <Gold.PLP.ligand.clash>
0.0000

> <Gold.PLP.ligand.torsion>
0.5951

> <Gold.PLP.Chemscore.Hbond>
3.9440

> <Gold.PLP.Chemscore.CHOScore>
0.9999

> <Gold.PLP.Chemscore.Metal>
0.0000

> <Gold.Chemscore.Hbonds>
donor molecule, donor type, donor heavy atom, donor atom, acceptor molecule, acceptor atom, score
      L1  H     8    26       P1  7948  0.94
      L1  H    11    27       P1  7948  1.00
      L1  H    14    40       P1 10175  2.00
      L1  C     5    25       P1 10186  1.00

> <Gold.PLP.Chemscore.Internal.Correction>
0.0205

> <Gold.Rescore>
     Score         DG    S(hbond)    S(metal)    S(lipo)     H(rot)  DE(clash)    DE(int)     intcor
     17.12     -19.24       2.89        0.00      68.73       1.54       0.52       1.60       ----

> <Gold.Chemscore.Fitness>
17.1215

> <Gold.Chemscore.DG>
-19.2405

> <Gold.Chemscore.ZeroCoef>
-5.4800

> <Gold.Chemscore.Hbond>
2.8913

> <Gold.Chemscore.Metal>
0.0000

> <Gold.Chemscore.Lipo>
68.7273

> <Gold.Chemscore.Internal_Hbond>
0.0000

> <Gold.Chemscore.DEClash>
0.5216

> <Gold.Chemscore.DEInternal>
1.5974

> <Gold.Chemscore.Rot>
1.5381

> <Gold.Chemscore.Internal.Correction>
   9.000000E+99

> <Gold.Chemscore.Hbonds>
donor molecule, donor type, donor heavy atom, donor atom, acceptor molecule, acceptor atom, score
      L1  H     8    26       P1  7948  0.84
      L1  H    11    27       P1  7948  0.95
      L1  H    14    40       P1 10175  0.98

> <Gold.Chemscore.Hbond.Weighted>
-9.6569

> <Gold.Chemscore.Metal.Weighted>
-0.0000

> <Gold.Chemscore.Lipo.Weighted>
-8.0411

> <Gold.Chemscore.Internal_Hbond.Weighted>
0.0000

> <Gold.Chemscore.DEClash.Weighted>
0.5216

> <Gold.Chemscore.DEInternal.Weighted>
1.5974

> <Gold.Chemscore.Rot.Weighted>
3.9375

> <Gold.Chemscore.Internal.Correction.Weighted>
   9.000000E+99

> <Gold.Protein.RotatedTorsions>
[ 6907 6896 6895 6894 ] final  -23.41 input  -60.11 | X-H torsion
[ 7974 7965 7964 7962 ] final   -3.56 input  175.53 | X-H torsion
[ 8008 7997 7996 7995 ] final  -34.39 input   59.86 | X-H torsion
[ 10167 10162 10161 10158 ] final  -34.26 input  -65.29 | X-H torsion
[ 10718 10713 10712 10709 ] final   27.53 input   66.30 | X-H torsion
[ 10763 10752 10751 10750 ] final   80.43 input  -60.55 | X-H torsion
[ 11005 11000 10999 10996 ] final  115.60 input  -57.11 | X-H torsion

> <Gold.Protein.ActiveResidues>
 VAL166  LYS551  ARG553  GLY616  TRP617  ASP618  TYR619  PRO620  LYS621  CYS622 
 ASP623  PHE694  ASN695  SER759  ASP760  ASP761  ALA762  ILE779  LEU786  VAL792 
 PHE793  MET794  SER795  GLU796  ALA797  LYS798  CYS799  TRP800  GLU811  SER814 

> <Gold.Protein.RotatedAtoms>
  151.2044  135.0456  159.8885 H   0  0  0  0  0  0  0  0  0  0  0  0  # atno 6907 bound_to 6896
  152.5430  134.0814  159.8247 H   0  0  0  0  0  0  0  0  0  0  0  0  # atno 6908 bound_to 6896
  151.0959  133.5233  159.2644 H   0  0  0  0  0  0  0  0  0  0  0  0  # atno 6909 bound_to 6896
  146.2387  140.1739  142.8332 H   0  0  0  0  0  0  0  0  0  0  0  0  # atno 7974 bound_to 7965
  154.4122  140.1685  156.2042 H   0  0  0  0  0  0  0  0  0  0  0  0  # atno 8008 bound_to 7997
  155.9498  140.3402  155.6375 H   0  0  0  0  0  0  0  0  0  0  0  0  # atno 8009 bound_to 7997
  155.6884  140.0731  157.2448 H   0  0  0  0  0  0  0  0  0  0  0  0  # atno 8010 bound_to 7997
  140.7189  143.3561  151.2057 H   0  0  0  0  0  0  0  0  0  0  0  0  # atno 10167 bound_to 10162
  157.2214  130.6980  149.6272 H   0  0  0  0  0  0  0  0  0  0  0  0  # atno 10718 bound_to 10713
  153.1033  135.4803  154.8905 H   0  0  0  0  0  0  0  0  0  0  0  0  # atno 10763 bound_to 10752
  154.7402  135.3080  154.8743 H   0  0  0  0  0  0  0  0  0  0  0  0  # atno 10764 bound_to 10752
  153.9354  135.6840  153.4798 H   0  0  0  0  0  0  0  0  0  0  0  0  # atno 10765 bound_to 10752
  139.9015  134.9586  156.7070 H   0  0  0  0  0  0  0  0  0  0  0  0  # atno 11005 bound_to 11000
  144.9989  140.8614  143.5294 LP  0  0  0  0  0  0  0  0  0  0  0  0  # atno 17320 bound_to 7965
  145.1756  139.2380  143.5319 LP  0  0  0  0  0  0  0  0  0  0  0  0  # atno 17321 bound_to 7965
  139.7103  143.9388  152.2944 LP  0  0  0  0  0  0  0  0  0  0  0  0  # atno 17342 bound_to 10162
  139.9111  144.6856  150.8561 LP  0  0  0  0  0  0  0  0  0  0  0  0  # atno 17343 bound_to 10162
  155.9682  130.4518  150.5751 LP  0  0  0  0  0  0  0  0  0  0  0  0  # atno 17370 bound_to 10713
  157.3572  131.0743  151.1666 LP  0  0  0  0  0  0  0  0  0  0  0  0  # atno 17371 bound_to 10713
  140.7105  133.9227  155.8081 LP  0  0  0  0  0  0  0  0  0  0  0  0  # atno 17394 bound_to 11000
  141.0303  134.0765  157.4021 LP  0  0  0  0  0  0  0  0  0  0  0  0  # atno 17395 bound_to 11000

$$$$
