AV-unprocessed.smi:2855|AV-procd|sdf|10989|dock6
  -GOLD-   2272015443D 1   1.00000     0.00000
 Structure written by MMmdl.
 46 47  0  0  0  0  0  0  0  0  2 V2000
  144.9616  130.4559  151.0845 C   0  0  0  0  0  0  0  0  0  0  0  0
  144.9269  131.9381  151.4828 C   0  0  2  0  0  0  0  0  0  0  0  0
  144.6156  132.8393  150.2765 C   0  0  0  0  0  0  0  0  0  0  0  0
  144.5733  134.3208  150.6794 C   0  0  0  0  0  0  0  0  0  0  0  0
  145.8930  134.7807  151.3441 C   0  0  1  0  0  0  0  0  0  0  0  0
  145.9110  136.3028  151.6802 C   0  0  0  0  0  0  0  0  0  0  0  0
  144.7917  136.7477  152.6395 C   0  0  0  0  0  0  0  0  0  0  0  0
  145.9250  137.1835  150.4188 C   0  0  0  0  0  0  0  0  0  0  0  0
  146.2281  133.8603  152.5522 C   0  0  2  0  0  0  0  0  0  0  0  0
  147.5317  134.1947  153.1248 N   0  0  0  0  0  0  0  0  0  0  0  0
  148.1257  133.5751  154.1566 C   0  0  0  0  0  0  0  0  0  0  0  0
  147.6224  132.6247  154.7574 O   0  0  0  0  0  0  0  0  0  0  0  0
  149.4878  134.1477  154.5739 C   0  0  0  0  0  0  0  0  0  0  0  0
  150.2943  133.2208  155.3846 N   0  0  0  0  0  0  0  0  0  0  0  0
  150.4413  131.9045  154.9125 C   0  0  0  0  0  0  0  0  0  0  0  0
  151.1621  130.9854  155.5826 C   0  0  0  0  0  0  0  0  0  0  0  0
  151.8001  131.3850  156.8307 C   0  0  0  0  0  0  0  0  0  0  0  0
  152.4563  130.5571  157.4598 O   0  0  0  0  0  0  0  0  0  0  0  0
  151.6342  132.6759  157.2434 N   0  5  0  0  0  0  0  0  0  0  0  0
  150.9013  133.6013  156.5491 C   0  0  0  0  0  0  0  0  0  0  0  0
  150.7685  134.7624  156.9371 O   0  0  0  0  0  0  0  0  0  0  0  0
  146.2475  132.3750  152.1402 C   0  0  0  0  0  0  0  0  0  0  0  0
  145.7452  130.2600  150.3517 H   0  0  0  0  0  0  0  0  0  0  0  0
  144.0122  130.1438  150.6486 H   0  0  0  0  0  0  0  0  0  0  0  0
  145.1501  129.8218  151.9514 H   0  0  0  0  0  0  0  0  0  0  0  0
  144.1275  132.0637  152.2146 H   0  0  0  0  0  0  0  0  0  0  0  0
  145.3674  132.6936  149.4995 H   0  0  0  0  0  0  0  0  0  0  0  0
  143.6589  132.5553  149.8367 H   0  0  0  0  0  0  0  0  0  0  0  0
  144.3627  134.9157  149.7915 H   0  0  0  0  0  0  0  0  0  0  0  0
  143.7361  134.4758  151.3602 H   0  0  0  0  0  0  0  0  0  0  0  0
  146.6843  134.6211  150.6093 H   0  0  0  0  0  0  0  0  0  0  0  0
  146.8535  136.5171  152.1837 H   0  0  0  0  0  0  0  0  0  0  0  0
  143.8050  136.6342  152.1912 H   0  0  0  0  0  0  0  0  0  0  0  0
  144.9071  137.7983  152.9064 H   0  0  0  0  0  0  0  0  0  0  0  0
  144.8051  136.1809  153.5696 H   0  0  0  0  0  0  0  0  0  0  0  0
  144.9820  137.1323  149.8749 H   0  0  0  0  0  0  0  0  0  0  0  0
  146.7227  136.8872  149.7372 H   0  0  0  0  0  0  0  0  0  0  0  0
  146.0914  138.2295  150.6782 H   0  0  0  0  0  0  0  0  0  0  0  0
  145.4458  133.9741  153.3039 H   0  0  0  0  0  0  0  0  0  0  0  0
  148.0250  134.9659  152.6993 H   0  0  0  0  0  0  0  0  0  0  0  0
  150.0360  134.4503  153.6800 H   0  0  0  0  0  0  0  0  0  0  0  0
  149.3143  135.0714  155.1279 H   0  0  0  0  0  0  0  0  0  0  0  0
  149.9424  131.6937  153.9781 H   0  0  0  0  0  0  0  0  0  0  0  0
  151.2678  129.9792  155.2045 H   0  0  0  0  0  0  0  0  0  0  0  0
  146.4409  131.7559  153.0177 H   0  0  0  0  0  0  0  0  0  0  0  0
  147.0736  132.1951  151.4503 H   0  0  0  0  0  0  0  0  0  0  0  0
  1  2  1  0  0  0  0
  1 23  1  0  0  0  0
  1 24  1  0  0  0  0
  1 25  1  0  0  0  0
  2 22  1  0  0  0  0
  2  3  1  0  0  0  0
  2 26  1  0  0  0  0
  3  4  1  0  0  0  0
  3 27  1  0  0  0  0
  3 28  1  0  0  0  0
  4  5  1  0  0  0  0
  4 29  1  0  0  0  0
  4 30  1  0  0  0  0
  5  6  1  0  0  0  0
  5  9  1  0  0  0  0
  5 31  1  0  0  0  0
  6  7  1  0  0  0  0
  6  8  1  0  0  0  0
  6 32  1  0  0  0  0
  7 33  1  0  0  0  0
  7 34  1  0  0  0  0
  7 35  1  0  0  0  0
  8 36  1  0  0  0  0
  8 37  1  0  0  0  0
  8 38  1  0  0  0  0
  9 10  1  0  0  0  0
  9 22  1  0  0  0  0
  9 39  1  0  0  0  0
 10 11  1  0  0  0  0
 10 40  1  0  0  0  0
 11 12  2  0  0  0  0
 11 13  1  0  0  0  0
 13 14  1  0  0  0  0
 13 41  1  0  0  0  0
 13 42  1  0  0  0  0
 14 20  1  0  0  0  0
 14 15  1  0  0  0  0
 15 16  2  0  0  0  0
 15 43  1  0  0  0  0
 16 17  1  0  0  0  0
 16 44  1  0  0  0  0
 17 18  2  0  0  0  0
 17 19  1  0  0  0  0
 19 20  1  0  0  0  0
 20 21  2  0  0  0  0
 22 45  1  0  0  0  0
 22 46  1  0  0  0  0
M  CHG  1  19  -1
M  END
> <s_m_source_file>
AV-unprocessed.smi

> <i_m_source_file_index>
2855

> <i_lp_mmshare_version>
43012

> <i_f3d_flags>
0

> <s_epik_input>
W0NIM11bQ0BASF0xW0NIMl1bQ0gyXVtDQEBIXShbQ0hdKFtDSDNdKVtDSDNdKVtDQEhdKFtDSDJdMSlbTkhdQyg9TylbQ0gyXW4yW2NIXVtjSF1jKD1PKVtuSF1jMj1P

> <s_epik_cmdline>
J2VwaWtfcHl0aG9uJywgJy1waCcsICc3LjAnLCAnLXRuJywgJzgnLCAnLW1hJywgJzIwMCcsICctbWV0YWxfYmluZGluZycsICctaW1hZScsICc8aW5maWxlLm1hZT4nLCAnLW9tYWUnLCAnPG91dGZpbGUubWFlPic=

> <r_lp_tautomer_probability>
0.999537

> <r_epik_Ionization_Penalty>
3.12102

> <r_epik_Ionization_Penalty_Charging>
2.9581e-08

> <r_epik_Ionization_Penalty_Neutral>
3.12102

> <r_epik_State_Penalty>
3.12011

> <r_epik_Charging_Adjusted_Penalty>
3.12011

> <i_epik_Tot_Q>
-1

> <i_epik_Tot_abs_Q>
1

> <r_epik_Metal_State_Penalty>
0.463583

> <b_epik_Metal_Only>
1

> <s_lp_Force_Field>
OPLS_2005

> <r_lp_Energy>
24.0282

> <b_lp_Chiralities_Consistent>
1

> <s_lp_Variant>
AV-unprocessed.smi:2855-13

> <Gold.Version>
5.8.1

> <Gold.Id.Protein>
6NUR|6NUR_protein|mol2

> <Gold.PLP.Fitness>
42.0189

> <Gold.PLP.PLP>
-33.9451

> <Gold.PLP.part.hbond>
-2.7396

> <Gold.PLP.part.metal>
0.0000

> <Gold.PLP.part.buried>
-0.1013

> <Gold.PLP.part.nonpolar>
-31.1241

> <Gold.PLP.part.repulsive>
0.0084

> <Gold.PLP.ligand.clash>
0.0000

> <Gold.PLP.ligand.torsion>
0.4693

> <Gold.PLP.Chemscore.Hbond>
2.9840

> <Gold.PLP.Chemscore.CHOScore>
0.0000

> <Gold.PLP.Chemscore.Metal>
0.0000

> <Gold.Chemscore.Hbonds>
donor molecule, donor type, donor heavy atom, donor atom, acceptor molecule, acceptor atom, score
      L1  H    10    40       P1  7948  1.00
      P1  H  6896  6908       L1    19  1.71

> <Gold.PLP.Chemscore.Internal.Correction>
0.0605

> <Gold.Rescore>
     Score         DG    S(hbond)    S(metal)    S(lipo)     H(rot)  DE(clash)    DE(int)     intcor
     13.03     -16.43       1.68        0.00      85.11       1.81       1.97       1.43       ----

> <Gold.Chemscore.Fitness>
13.0268

> <Gold.Chemscore.DG>
-16.4263

> <Gold.Chemscore.ZeroCoef>
-5.4800

> <Gold.Chemscore.Hbond>
1.6830

> <Gold.Chemscore.Metal>
0.0000

> <Gold.Chemscore.Lipo>
85.1148

> <Gold.Chemscore.Internal_Hbond>
0.0000

> <Gold.Chemscore.DEClash>
1.9693

> <Gold.Chemscore.DEInternal>
1.4301

> <Gold.Chemscore.Rot>
1.8100

> <Gold.Chemscore.Internal.Correction>
   9.000000E+99

> <Gold.Chemscore.Hbonds>
donor molecule, donor type, donor heavy atom, donor atom, acceptor molecule, acceptor atom, score
      L1  H    10    40       P1  7948  0.91
      P1  H  6896  6908       L1    19  0.31

> <Gold.Chemscore.Hbond.Weighted>
-5.6213

> <Gold.Chemscore.Metal.Weighted>
-0.0000

> <Gold.Chemscore.Lipo.Weighted>
-9.9584

> <Gold.Chemscore.Internal_Hbond.Weighted>
0.0000

> <Gold.Chemscore.DEClash.Weighted>
1.9693

> <Gold.Chemscore.DEInternal.Weighted>
1.4301

> <Gold.Chemscore.Rot.Weighted>
4.6335

> <Gold.Chemscore.Internal.Correction.Weighted>
   9.000000E+99

> <Gold.Protein.RotatedTorsions>
[ 6907 6896 6895 6894 ] final   70.68 input  -60.11 | X-H torsion
[ 7974 7965 7964 7962 ] final   97.98 input  175.53 | X-H torsion
[ 8008 7997 7996 7995 ] final  151.19 input   59.86 | X-H torsion
[ 10167 10162 10161 10158 ] final   -0.96 input  -65.29 | X-H torsion
[ 10718 10713 10712 10709 ] final  168.71 input   66.30 | X-H torsion
[ 10763 10752 10751 10750 ] final -152.01 input  -60.55 | X-H torsion
[ 11005 11000 10999 10996 ] final   92.33 input  -57.11 | X-H torsion

> <Gold.Protein.ActiveResidues>
 VAL166  LYS551  ARG553  GLY616  TRP617  ASP618  TYR619  PRO620  LYS621  CYS622 
 ASP623  PHE694  ASN695  SER759  ASP760  ASP761  ALA762  ILE779  LEU786  VAL792 
 PHE793  MET794  SER795  GLU796  ALA797  LYS798  CYS799  TRP800  GLU811  SER814 

> <Gold.Protein.RotatedAtoms>
  152.4764  134.4832  159.9671 H   0  0  0  0  0  0  0  0  0  0  0  0  # atno 6907 bound_to 6896
  151.4847  133.3532  159.2851 H   0  0  0  0  0  0  0  0  0  0  0  0  # atno 6908 bound_to 6896
  150.8806  134.8223  159.7283 H   0  0  0  0  0  0  0  0  0  0  0  0  # atno 6909 bound_to 6896
  145.4183  139.2324  143.3210 H   0  0  0  0  0  0  0  0  0  0  0  0  # atno 7974 bound_to 7965
  156.2684  140.2054  156.6136 H   0  0  0  0  0  0  0  0  0  0  0  0  # atno 8008 bound_to 7997
  154.6812  140.0540  157.0292 H   0  0  0  0  0  0  0  0  0  0  0  0  # atno 8009 bound_to 7997
  155.0998  140.3205  155.4553 H   0  0  0  0  0  0  0  0  0  0  0  0  # atno 8010 bound_to 7997
  140.6790  143.6832  150.8088 H   0  0  0  0  0  0  0  0  0  0  0  0  # atno 10167 bound_to 10162
  157.0331  131.0265  151.2738 H   0  0  0  0  0  0  0  0  0  0  0  0  # atno 10718 bound_to 10713
  154.8021  135.3246  154.7523 H   0  0  0  0  0  0  0  0  0  0  0  0  # atno 10763 bound_to 10752
  153.8188  135.6889  153.4834 H   0  0  0  0  0  0  0  0  0  0  0  0  # atno 10764 bound_to 10752
  153.1745  135.4610  154.9890 H   0  0  0  0  0  0  0  0  0  0  0  0  # atno 10765 bound_to 10752
  139.8825  134.8726  156.3557 H   0  0  0  0  0  0  0  0  0  0  0  0  # atno 11005 bound_to 11000
  146.2670  140.4904  142.8830 LP  0  0  0  0  0  0  0  0  0  0  0  0  # atno 17320 bound_to 7965
  144.8262  140.6633  143.6320 LP  0  0  0  0  0  0  0  0  0  0  0  0  # atno 17321 bound_to 7965
  140.0529  143.5231  152.2665 LP  0  0  0  0  0  0  0  0  0  0  0  0  # atno 17342 bound_to 10162
  139.6100  144.7606  151.2974 LP  0  0  0  0  0  0  0  0  0  0  0  0  # atno 17343 bound_to 10162
  157.5162  130.7969  149.7759 LP  0  0  0  0  0  0  0  0  0  0  0  0  # atno 17370 bound_to 10713
  156.0063  130.3854  150.2421 LP  0  0  0  0  0  0  0  0  0  0  0  0  # atno 17371 bound_to 10713
  140.9564  133.7417  156.0341 LP  0  0  0  0  0  0  0  0  0  0  0  0  # atno 17394 bound_to 11000
  140.8044  134.3472  157.5430 LP  0  0  0  0  0  0  0  0  0  0  0  0  # atno 17395 bound_to 11000

$$$$
