AV-unprocessed.smi:960|AV-procd|sdf|4272|dock8
  -GOLD-   22720 2183D 1   1.00000     0.00000
 Structure written by MMmdl.
 46 47  0  0  0  0  0  0  0  0  2 V2000
  143.7965  132.3969  149.4807 C   0  0  0  0  0  0  0  0  0  0  0  0
  144.7735  132.1701  150.3740 C   0  0  0  0  0  0  0  0  0  0  0  0
  144.9048  130.8419  151.0984 C   0  0  0  0  0  0  0  0  0  0  0  0
  145.8280  133.2202  150.6896 C   0  0  0  0  0  0  0  0  0  0  0  0
  145.3725  134.2274  151.6845 N   0  3  2  0  0  0  0  0  0  0  0  0
  145.4443  135.6042  151.1287 C   0  0  0  0  0  0  0  0  0  0  0  0
  144.8532  136.6431  152.0987 C   0  0  0  0  0  0  0  0  0  0  0  0
  145.5260  136.5872  153.4796 C   0  0  2  0  0  0  0  0  0  0  0  0
  146.8975  137.0909  153.4044 N   0  0  0  0  0  0  0  0  0  0  0  0
  147.3677  138.1582  154.0655 C   0  0  0  0  0  0  0  0  0  0  0  0
  146.6807  138.8540  154.8121 O   0  0  0  0  0  0  0  0  0  0  0  0
  148.6639  138.3721  153.7928 N   0  0  0  0  0  0  0  0  0  0  0  0
  149.4940  139.3810  154.3428 C   0  0  0  0  0  0  0  0  0  0  0  0
  150.8656  139.3185  154.7285 C   0  0  0  0  0  0  0  0  0  0  0  0
  151.8572  138.1896  154.6768 C   0  0  0  0  0  0  0  0  0  0  0  0
  151.2662  140.5049  155.1611 N   0  0  0  0  0  0  0  0  0  0  0  0
  150.1705  141.3722  155.0336 O   0  0  0  0  0  0  0  0  0  0  0  0
  149.1197  140.6802  154.5218 C   0  0  0  0  0  0  0  0  0  0  0  0
  147.8573  141.4395  154.2900 C   0  0  0  0  0  0  0  0  0  0  0  0
  145.4720  135.1424  154.0117 C   0  0  0  0  0  0  0  0  0  0  0  0
  146.0487  134.1297  153.0062 C   0  0  0  0  0  0  0  0  0  0  0  0
  143.0576  131.6422  149.2524 H   0  0  0  0  0  0  0  0  0  0  0  0
  143.7203  133.3419  148.9628 H   0  0  0  0  0  0  0  0  0  0  0  0
  145.8381  130.3545  150.8154 H   0  0  0  0  0  0  0  0  0  0  0  0
  144.0852  130.1690  150.8442 H   0  0  0  0  0  0  0  0  0  0  0  0
  144.9088  130.9724  152.1795 H   0  0  0  0  0  0  0  0  0  0  0  0
  146.7483  132.7407  151.0269 H   0  0  0  0  0  0  0  0  0  0  0  0
  146.0708  133.7312  149.7565 H   0  0  0  0  0  0  0  0  0  0  0  0
  146.4825  135.8491  150.8987 H   0  0  0  0  0  0  0  0  0  0  0  0
  144.8963  135.6476  150.1866 H   0  0  0  0  0  0  0  0  0  0  0  0
  144.9409  137.6446  151.6753 H   0  0  0  0  0  0  0  0  0  0  0  0
  143.7846  136.4559  152.2124 H   0  0  0  0  0  0  0  0  0  0  0  0
  144.9667  137.2353  154.1570 H   0  0  0  0  0  0  0  0  0  0  0  0
  147.5349  136.5917  152.8016 H   0  0  0  0  0  0  0  0  0  0  0  0
  149.0766  137.8095  153.0634 H   0  0  0  0  0  0  0  0  0  0  0  0
  151.6585  137.5273  153.8344 H   0  0  0  0  0  0  0  0  0  0  0  0
  151.8209  137.5952  155.5898 H   0  0  0  0  0  0  0  0  0  0  0  0
  152.8770  138.5590  154.5635 H   0  0  0  0  0  0  0  0  0  0  0  0
  147.1399  140.8456  153.7239 H   0  0  0  0  0  0  0  0  0  0  0  0
  148.0537  142.3542  153.7305 H   0  0  0  0  0  0  0  0  0  0  0  0
  147.3945  141.7148  155.2376 H   0  0  0  0  0  0  0  0  0  0  0  0
  145.9962  135.0614  154.9646 H   0  0  0  0  0  0  0  0  0  0  0  0
  144.4340  134.8806  154.2212 H   0  0  0  0  0  0  0  0  0  0  0  0
  145.9114  133.1338  153.4243 H   0  0  0  0  0  0  0  0  0  0  0  0
  147.1222  134.2816  152.8830 H   0  0  0  0  0  0  0  0  0  0  0  0
  144.3937  134.0389  151.8493 H   0  0  0  0  0  0  0  0  0  0  0  0
  1  2  2  0  0  0  0
  1 22  1  0  0  0  0
  1 23  1  0  0  0  0
  2  3  1  0  0  0  0
  2  4  1  0  0  0  0
  3 24  1  0  0  0  0
  3 25  1  0  0  0  0
  3 26  1  0  0  0  0
  4  5  1  0  0  0  0
  4 27  1  0  0  0  0
  4 28  1  0  0  0  0
  5 21  1  0  0  0  0
  5  6  1  0  0  0  0
  5 46  1  0  0  0  0
  6  7  1  0  0  0  0
  6 29  1  0  0  0  0
  6 30  1  0  0  0  0
  7  8  1  0  0  0  0
  7 31  1  0  0  0  0
  7 32  1  0  0  0  0
  8  9  1  0  0  0  0
  8 20  1  0  0  0  0
  8 33  1  0  0  0  0
  9 10  1  0  0  0  0
  9 34  1  0  0  0  0
 10 11  2  0  0  0  0
 10 12  1  0  0  0  0
 12 13  1  0  0  0  0
 12 35  1  0  0  0  0
 13 18  2  0  0  0  0
 13 14  1  0  0  0  0
 14 15  1  0  0  0  0
 14 16  2  0  0  0  0
 15 36  1  0  0  0  0
 15 37  1  0  0  0  0
 15 38  1  0  0  0  0
 16 17  1  0  0  0  0
 17 18  1  0  0  0  0
 18 19  1  0  0  0  0
 19 39  1  0  0  0  0
 19 40  1  0  0  0  0
 19 41  1  0  0  0  0
 20 21  1  0  0  0  0
 20 42  1  0  0  0  0
 20 43  1  0  0  0  0
 21 44  1  0  0  0  0
 21 45  1  0  0  0  0
M  CHG  1   5   1
M  END
> <s_m_source_file>
AV-unprocessed.smi

> <i_m_source_file_index>
960

> <i_lp_mmshare_version>
43012

> <i_f3d_flags>
0

> <s_epik_input>
W0NIMl09QyhbQ0gzXSlbQ0gyXU4xW0NIMl1bQ0gyXVtDSF0oW0NIMl1bQ0gyXTEpW05IXUMoPU8pW05IXWMyYyhbQ0gzXSlub2MyW0NIM10=

> <s_epik_cmdline>
J2VwaWtfcHl0aG9uJywgJy1waCcsICc3LjAnLCAnLXRuJywgJzgnLCAnLW1hJywgJzIwMCcsICctbWV0YWxfYmluZGluZycsICctaW1hZScsICc8aW5maWxlLm1hZT4nLCAnLW9tYWUnLCAnPG91dGZpbGUubWFlPic=

> <r_epik_Ionization_Penalty>
0.01938

> <r_epik_Ionization_Penalty_Charging>
0.0193505

> <r_epik_Ionization_Penalty_Neutral>
2.94909e-05

> <r_epik_State_Penalty>
0.0154499

> <r_epik_Charging_Adjusted_Penalty>
0.0348004

> <i_epik_Tot_Q>
1

> <i_epik_Tot_abs_Q>
1

> <r_epik_Metal_State_Penalty>
0.0154499

> <b_epik_Metal_Only>
0

> <s_lp_Force_Field>
OPLS_2005

> <r_lp_Energy>
21.0262

> <b_lp_Chiralities_Consistent>
1

> <s_lp_Variant>
AV-unprocessed.smi:960-2

> <Gold.Version>
5.8.1

> <Gold.Id.Protein>
6NUR|6NUR_protein|mol2

> <Gold.PLP.Fitness>
42.3254

> <Gold.PLP.PLP>
-38.2640

> <Gold.PLP.part.hbond>
-4.2110

> <Gold.PLP.part.metal>
0.0000

> <Gold.PLP.part.buried>
-3.9382

> <Gold.PLP.part.nonpolar>
-30.5482

> <Gold.PLP.part.repulsive>
0.2679

> <Gold.PLP.ligand.clash>
0.0000

> <Gold.PLP.ligand.torsion>
1.3598

> <Gold.PLP.Chemscore.Hbond>
2.1322

> <Gold.PLP.Chemscore.CHOScore>
0.0000

> <Gold.PLP.Chemscore.Metal>
0.0000

> <Gold.Chemscore.Hbonds>
donor molecule, donor type, donor heavy atom, donor atom, acceptor molecule, acceptor atom, score
      L1  H     9    34       P1  7948  1.00
      L1  H    12    35       P1  7948  1.00
      P1  H  7989  7998       L1    16  0.11

> <Gold.PLP.Chemscore.Internal.Correction>
0.3845

> <Gold.Rescore>
     Score         DG    S(hbond)    S(metal)    S(lipo)     H(rot)  DE(clash)    DE(int)     intcor
     18.04     -19.69       1.91        0.00      96.49       1.35       0.10       1.55       ----

> <Gold.Chemscore.Fitness>
18.0398

> <Gold.Chemscore.DG>
-19.6942

> <Gold.Chemscore.ZeroCoef>
-5.4800

> <Gold.Chemscore.Hbond>
1.9088

> <Gold.Chemscore.Metal>
0.0000

> <Gold.Chemscore.Lipo>
96.4922

> <Gold.Chemscore.Internal_Hbond>
0.0000

> <Gold.Chemscore.DEClash>
0.1047

> <Gold.Chemscore.DEInternal>
1.5498

> <Gold.Chemscore.Rot>
1.3480

> <Gold.Chemscore.Internal.Correction>
   9.000000E+99

> <Gold.Chemscore.Hbonds>
donor molecule, donor type, donor heavy atom, donor atom, acceptor molecule, acceptor atom, score
      L1  H     9    34       P1  7948  1.00
      L1  H    12    35       P1  7948  0.93

> <Gold.Chemscore.Hbond.Weighted>
-6.3755

> <Gold.Chemscore.Metal.Weighted>
-0.0000

> <Gold.Chemscore.Lipo.Weighted>
-11.2896

> <Gold.Chemscore.Internal_Hbond.Weighted>
0.0000

> <Gold.Chemscore.DEClash.Weighted>
0.1047

> <Gold.Chemscore.DEInternal.Weighted>
1.5498

> <Gold.Chemscore.Rot.Weighted>
3.4509

> <Gold.Chemscore.Internal.Correction.Weighted>
   9.000000E+99

> <Gold.Protein.RotatedTorsions>
[ 6907 6896 6895 6894 ] final -104.19 input  -60.11 | X-H torsion
[ 7974 7965 7964 7962 ] final  -15.80 input  175.53 | X-H torsion
[ 8008 7997 7996 7995 ] final   98.85 input   59.86 | X-H torsion
[ 10167 10162 10161 10158 ] final  -42.48 input  -65.29 | X-H torsion
[ 10718 10713 10712 10709 ] final   82.44 input   66.30 | X-H torsion
[ 10763 10752 10751 10750 ] final -143.02 input  -60.55 | X-H torsion
[ 11005 11000 10999 10996 ] final  -66.31 input  -57.11 | X-H torsion

> <Gold.Protein.ActiveResidues>
 VAL166  LYS551  ARG553  GLY616  TRP617  ASP618  TYR619  PRO620  LYS621  CYS622 
 ASP623  PHE694  ASN695  SER759  ASP760  ASP761  ALA762  ILE779  LEU786  VAL792 
 PHE793  MET794  SER795  GLU796  ALA797  LYS798  CYS799  TRP800  GLU811  SER814 

> <Gold.Protein.RotatedAtoms>
  150.7275  134.0315  159.3734 H   0  0  0  0  0  0  0  0  0  0  0  0  # atno 6907 bound_to 6896
  151.8285  135.0627  160.0443 H   0  0  0  0  0  0  0  0  0  0  0  0  # atno 6908 bound_to 6896
  152.2951  133.5564  159.5619 H   0  0  0  0  0  0  0  0  0  0  0  0  # atno 6909 bound_to 6896
  146.2016  140.3544  142.8421 H   0  0  0  0  0  0  0  0  0  0  0  0  # atno 7974 bound_to 7965
  156.1046  140.3237  155.7988 H   0  0  0  0  0  0  0  0  0  0  0  0  # atno 8008 bound_to 7997
  155.4778  140.0551  157.2988 H   0  0  0  0  0  0  0  0  0  0  0  0  # atno 8009 bound_to 7997
  154.4719  140.2015  155.9988 H   0  0  0  0  0  0  0  0  0  0  0  0  # atno 8010 bound_to 7997
  140.6968  143.3035  151.3215 H   0  0  0  0  0  0  0  0  0  0  0  0  # atno 10167 bound_to 10162
  157.6857  131.0048  150.2376 H   0  0  0  0  0  0  0  0  0  0  0  0  # atno 10718 bound_to 10713
  154.8486  135.3479  154.6121 H   0  0  0  0  0  0  0  0  0  0  0  0  # atno 10763 bound_to 10752
  153.6730  135.6984  153.5146 H   0  0  0  0  0  0  0  0  0  0  0  0  # atno 10764 bound_to 10752
  153.2728  135.4287  155.0960 H   0  0  0  0  0  0  0  0  0  0  0  0  # atno 10765 bound_to 10752
  141.1478  133.6697  156.6119 H   0  0  0  0  0  0  0  0  0  0  0  0  # atno 11005 bound_to 11000
  144.8696  140.7254  143.6055 LP  0  0  0  0  0  0  0  0  0  0  0  0  # atno 17320 bound_to 7965
  145.3464  139.1718  143.4458 LP  0  0  0  0  0  0  0  0  0  0  0  0  # atno 17321 bound_to 7965
  139.6433  144.0499  152.2571 LP  0  0  0  0  0  0  0  0  0  0  0  0  # atno 17342 bound_to 10162
  140.0011  144.6292  150.7729 LP  0  0  0  0  0  0  0  0  0  0  0  0  # atno 17343 bound_to 10162
  156.2996  130.3756  149.7763 LP  0  0  0  0  0  0  0  0  0  0  0  0  # atno 17370 bound_to 10713
  156.5397  130.8294  151.3265 LP  0  0  0  0  0  0  0  0  0  0  0  0  # atno 17371 bound_to 10713
  140.3607  134.7689  157.4532 LP  0  0  0  0  0  0  0  0  0  0  0  0  # atno 17394 bound_to 11000
  140.0787  134.5761  155.8564 LP  0  0  0  0  0  0  0  0  0  0  0  0  # atno 17395 bound_to 11000

$$$$
