AV-unprocessed.smi:1717|AV-procd|sdf|6921|dock3
  -GOLD-   22720 8123D 1   1.00000     0.00000
 Structure written by MMmdl.
 40 41  0  0  0  0  0  0  0  0  3 V2000
  151.8346  140.2335  157.0114 C   0  0  0  0  0  0  0  0  0  0  0  0
  152.8346  139.1958  156.7879 N   0  5  0  0  0  0  0  0  0  0  0  0
  152.7293  138.2497  155.8165 C   0  0  0  0  0  0  0  0  0  0  0  0
  153.2955  137.1591  155.6886 O   0  0  0  0  0  0  0  0  0  0  0  0
  151.7037  138.6603  154.7535 C   0  0  0  0  0  0  0  0  0  0  0  0
  150.3333  138.3116  155.2040 N   0  3  2  0  0  0  0  0  0  0  0  0
  150.1324  136.8448  155.3148 C   0  0  0  0  0  0  0  0  0  0  0  0
  148.7619  136.5169  155.9329 C   0  0  0  0  0  0  0  0  0  0  0  0
  147.6028  137.1676  155.1519 C   0  0  2  0  0  0  0  0  0  0  0  0
  147.3930  136.5307  153.8518 N   0  0  0  0  0  0  0  0  0  0  0  0
  146.3076  135.8251  153.5023 C   0  0  0  0  0  0  0  0  0  0  0  0
  145.3641  135.6085  154.2625 O   0  0  0  0  0  0  0  0  0  0  0  0
  146.3890  135.3992  152.2315 N   0  0  0  0  0  0  0  0  0  0  0  0
  145.4298  134.6341  151.5216 C   0  0  0  0  0  0  0  0  0  0  0  0
  145.4077  133.2325  151.2599 C   0  0  0  0  0  0  0  0  0  0  0  0
  144.3376  132.8932  150.5548 N   0  0  0  0  0  0  0  0  0  0  0  0
  143.6802  134.0591  150.3635 N   0  0  0  0  0  0  0  0  0  0  0  0
  144.3105  135.1429  150.9335 C   0  0  0  0  0  0  0  0  0  0  0  0
  147.8716  138.6725  154.9787 C   0  0  0  0  0  0  0  0  0  0  0  0
  149.2655  138.9489  154.3870 C   0  0  0  0  0  0  0  0  0  0  0  0
  142.8130  134.0975  149.8470 H   0  0  0  0  0  0  0  0  0  0  0  0
  152.1033  140.8823  157.8449 H   0  0  0  0  0  0  0  0  0  0  0  0
  150.8517  139.8227  157.2437 H   0  0  0  0  0  0  0  0  0  0  0  0
  151.7092  140.8824  156.1440 H   0  0  0  0  0  0  0  0  0  0  0  0
  151.7631  139.7185  154.4896 H   0  0  0  0  0  0  0  0  0  0  0  0
  151.9506  138.1043  153.8480 H   0  0  0  0  0  0  0  0  0  0  0  0
  150.2262  136.3867  154.3288 H   0  0  0  0  0  0  0  0  0  0  0  0
  150.9148  136.4126  155.9395 H   0  0  0  0  0  0  0  0  0  0  0  0
  148.6278  135.4364  155.9946 H   0  0  0  0  0  0  0  0  0  0  0  0
  148.7433  136.8793  156.9615 H   0  0  0  0  0  0  0  0  0  0  0  0
  146.6835  137.0553  155.7299 H   0  0  0  0  0  0  0  0  0  0  0  0
  148.1170  136.6582  153.1602 H   0  0  0  0  0  0  0  0  0  0  0  0
  147.2150  135.6597  151.7134 H   0  0  0  0  0  0  0  0  0  0  0  0
  146.1087  132.4622  151.5442 H   0  0  0  0  0  0  0  0  0  0  0  0
  143.9175  136.1470  150.8717 H   0  0  0  0  0  0  0  0  0  0  0  0
  147.1017  139.1264  154.3533 H   0  0  0  0  0  0  0  0  0  0  0  0
  147.7979  139.1623  155.9506 H   0  0  0  0  0  0  0  0  0  0  0  0
  149.4180  140.0272  154.3396 H   0  0  0  0  0  0  0  0  0  0  0  0
  149.3227  138.5814  153.3614 H   0  0  0  0  0  0  0  0  0  0  0  0
  150.2507  138.6830  156.1397 H   0  0  0  0  0  0  0  0  0  0  0  0
  1  2  1  0  0  0  0
  1 22  1  0  0  0  0
  1 23  1  0  0  0  0
  1 24  1  0  0  0  0
  2  3  1  0  0  0  0
  3  4  2  0  0  0  0
  3  5  1  0  0  0  0
  5  6  1  0  0  0  0
  5 25  1  0  0  0  0
  5 26  1  0  0  0  0
  6 20  1  0  0  0  0
  6  7  1  0  0  0  0
  6 40  1  0  0  0  0
  7  8  1  0  0  0  0
  7 27  1  0  0  0  0
  7 28  1  0  0  0  0
  8  9  1  0  0  0  0
  8 29  1  0  0  0  0
  8 30  1  0  0  0  0
  9 10  1  0  0  0  0
  9 19  1  0  0  0  0
  9 31  1  0  0  0  0
 10 11  1  0  0  0  0
 10 32  1  0  0  0  0
 11 12  2  0  0  0  0
 11 13  1  0  0  0  0
 13 14  1  0  0  0  0
 13 33  1  0  0  0  0
 14 18  2  0  0  0  0
 14 15  1  0  0  0  0
 15 16  2  0  0  0  0
 15 34  1  0  0  0  0
 16 17  1  0  0  0  0
 17 21  1  0  0  0  0
 17 18  1  0  0  0  0
 18 35  1  0  0  0  0
 19 20  1  0  0  0  0
 19 36  1  0  0  0  0
 19 37  1  0  0  0  0
 20 38  1  0  0  0  0
 20 39  1  0  0  0  0
M  CHG  1   2  -1
M  CHG  1   6   1
M  END
> <s_m_source_file>
AV-unprocessed.smi

> <i_m_source_file_index>
1717

> <i_lp_mmshare_version>
43012

> <i_f3d_flags>
0

> <s_epik_input>
W0NIM11bTkhdQyg9TylbQ0gyXU4xW0NIMl1bQ0gyXVtDSF0oW0NIMl1bQ0gyXTEpW05IXUMoPU8pW05IXWMyW2NIXW5bbkhdW2NIXTI=

> <s_epik_cmdline>
J2VwaWtfcHl0aG9uJywgJy1waCcsICc3LjAnLCAnLXRuJywgJzgnLCAnLW1hJywgJzIwMCcsICctbWV0YWxfYmluZGluZycsICctaW1hZScsICc8aW5maWxlLm1hZT4nLCAnLW9tYWUnLCAnPG91dGZpbGUubWFlPic=

> <r_lp_tautomer_probability>
0.5

> <r_epik_Ionization_Penalty>
6.1395

> <r_epik_Ionization_Penalty_Charging>
6.13946

> <r_epik_Ionization_Penalty_Neutral>
4.21226e-05

> <r_epik_State_Penalty>
6.9595

> <r_epik_Charging_Adjusted_Penalty>
13.099

> <i_epik_Tot_Q>
0

> <i_epik_Tot_abs_Q>
2

> <r_epik_Metal_State_Penalty>
2.89141

> <b_epik_Metal_Only>
1

> <s_lp_Force_Field>
OPLS_2005

> <r_lp_Energy>
13.1948

> <b_lp_Chiralities_Consistent>
1

> <s_lp_Variant>
AV-unprocessed.smi:1717-5

> <Gold.Version>
5.8.1

> <Gold.Id.Protein>
6NUR|6NUR_protein|mol2

> <Gold.PLP.Fitness>
42.3091

> <Gold.PLP.PLP>
-25.3914

> <Gold.PLP.part.hbond>
-4.9636

> <Gold.PLP.part.metal>
0.0000

> <Gold.PLP.part.buried>
-4.0837

> <Gold.PLP.part.nonpolar>
-16.8007

> <Gold.PLP.part.repulsive>
0.2992

> <Gold.PLP.ligand.clash>
0.0000

> <Gold.PLP.ligand.torsion>
1.2166

> <Gold.PLP.Chemscore.Hbond>
5.4320

> <Gold.PLP.Chemscore.CHOScore>
1.0000

> <Gold.PLP.Chemscore.Metal>
0.0000

> <Gold.Chemscore.Hbonds>
donor molecule, donor type, donor heavy atom, donor atom, acceptor molecule, acceptor atom, score
      L1  H    10    32       P1  7948  1.00
      L1  H    13    33       P1  7948  0.93
      L1  H    17    21       P1 10186  1.00
      P1  H  7997  8009       L1     2  2.00
      P1  H 10752 10763       L1     4  0.35
      L1  C    18    35       P1 10171  0.71

> <Gold.PLP.Chemscore.Internal.Correction>
0.0549

> <Gold.Rescore>
     Score         DG    S(hbond)    S(metal)    S(lipo)     H(rot)  DE(clash)    DE(int)     intcor
     17.89     -19.92       4.15        0.00      43.27       1.75       0.01       2.01       ----

> <Gold.Chemscore.Fitness>
17.8862

> <Gold.Chemscore.DG>
-19.9152

> <Gold.Chemscore.ZeroCoef>
-5.4800

> <Gold.Chemscore.Hbond>
4.1511

> <Gold.Chemscore.Metal>
0.0000

> <Gold.Chemscore.Lipo>
43.2669

> <Gold.Chemscore.Internal_Hbond>
0.0000

> <Gold.Chemscore.DEClash>
0.0149

> <Gold.Chemscore.DEInternal>
2.0142

> <Gold.Chemscore.Rot>
1.7546

> <Gold.Chemscore.Internal.Correction>
   9.000000E+99

> <Gold.Chemscore.Hbonds>
donor molecule, donor type, donor heavy atom, donor atom, acceptor molecule, acceptor atom, score
      L1  H    10    32       P1  7948  0.96
      L1  H    13    33       P1  7948  0.89
      L1  H    17    21       P1 10186  0.99
      P1  H  7997  8009       L1     2  0.27
      P1  H 10752 10763       L1     4  0.34

> <Gold.Chemscore.Hbond.Weighted>
-13.8647

> <Gold.Chemscore.Metal.Weighted>
-0.0000

> <Gold.Chemscore.Lipo.Weighted>
-5.0622

> <Gold.Chemscore.Internal_Hbond.Weighted>
0.0000

> <Gold.Chemscore.DEClash.Weighted>
0.0149

> <Gold.Chemscore.DEInternal.Weighted>
2.0142

> <Gold.Chemscore.Rot.Weighted>
4.4917

> <Gold.Chemscore.Internal.Correction.Weighted>
   9.000000E+99

> <Gold.Protein.RotatedTorsions>
[ 6907 6896 6895 6894 ] final   25.94 input  -60.11 | X-H torsion
[ 7974 7965 7964 7962 ] final    0.09 input  175.53 | X-H torsion
[ 8008 7997 7996 7995 ] final -169.84 input   59.86 | X-H torsion
[ 10167 10162 10161 10158 ] final -118.30 input  -65.29 | X-H torsion
[ 10718 10713 10712 10709 ] final  -24.69 input   66.30 | X-H torsion
[ 10763 10752 10751 10750 ] final  108.67 input  -60.55 | X-H torsion
[ 11005 11000 10999 10996 ] final -114.31 input  -57.11 | X-H torsion

> <Gold.Protein.ActiveResidues>
 VAL166  LYS551  ARG553  GLY616  TRP617  ASP618  TYR619  PRO620  LYS621  CYS622 
 ASP623  PHE694  ASN695  SER759  ASP760  ASP761  ALA762  ILE779  LEU786  VAL792 
 PHE793  MET794  SER795  GLU796  ALA797  LYS798  CYS799  TRP800  GLU811  SER814 

> <Gold.Protein.RotatedAtoms>
  151.9801  135.0033  160.0556 H   0  0  0  0  0  0  0  0  0  0  0  0  # atno 6907 bound_to 6896
  152.1704  133.4635  159.4914 H   0  0  0  0  0  0  0  0  0  0  0  0  # atno 6908 bound_to 6896
  150.6901  134.1878  159.4316 H   0  0  0  0  0  0  0  0  0  0  0  0  # atno 6909 bound_to 6896
  146.2431  140.1190  142.8341 H   0  0  0  0  0  0  0  0  0  0  0  0  # atno 7974 bound_to 7965
  155.9104  140.1056  157.1284 H   0  0  0  0  0  0  0  0  0  0  0  0  # atno 8008 bound_to 7997
  154.4038  140.1275  156.4614 H   0  0  0  0  0  0  0  0  0  0  0  0  # atno 8009 bound_to 7997
  155.7317  140.3468  155.5065 H   0  0  0  0  0  0  0  0  0  0  0  0  # atno 8010 bound_to 7997
  140.0590  143.4986  152.2042 H   0  0  0  0  0  0  0  0  0  0  0  0  # atno 10167 bound_to 10162
  156.4743  130.4531  149.6850 H   0  0  0  0  0  0  0  0  0  0  0  0  # atno 10718 bound_to 10713
  153.4239  135.3804  155.2129 H   0  0  0  0  0  0  0  0  0  0  0  0  # atno 10763 bound_to 10752
  154.8746  135.3824  154.4350 H   0  0  0  0  0  0  0  0  0  0  0  0  # atno 10764 bound_to 10752
  153.4873  135.7088  153.5966 H   0  0  0  0  0  0  0  0  0  0  0  0  # atno 10765 bound_to 10752
  141.0560  133.9612  157.2753 H   0  0  0  0  0  0  0  0  0  0  0  0  # atno 11005 bound_to 11000
  145.0422  140.8954  143.5045 LP  0  0  0  0  0  0  0  0  0  0  0  0  # atno 17320 bound_to 7965
  145.1273  139.2654  143.5557 LP  0  0  0  0  0  0  0  0  0  0  0  0  # atno 17321 bound_to 7965
  139.5906  144.7548  151.3411 LP  0  0  0  0  0  0  0  0  0  0  0  0  # atno 17342 bound_to 10162
  140.7181  143.7211  150.7695 LP  0  0  0  0  0  0  0  0  0  0  0  0  # atno 17343 bound_to 10162
  156.3586  130.7470  151.2439 LP  0  0  0  0  0  0  0  0  0  0  0  0  # atno 17370 bound_to 10713
  157.7489  131.0356  150.4373 LP  0  0  0  0  0  0  0  0  0  0  0  0  # atno 17371 bound_to 10713
  139.9390  135.0193  156.8649 LP  0  0  0  0  0  0  0  0  0  0  0  0  # atno 17394 bound_to 11000
  140.5963  134.0214  155.7519 LP  0  0  0  0  0  0  0  0  0  0  0  0  # atno 17395 bound_to 11000

$$$$
