AV-unprocessed.smi:1644|AV-procd|sdf|6590|dock5
  -GOLD-   22720 7283D 1   1.00000     0.00000
 Structure written by MMmdl.
 50 52  0  0  0  0  0  0  0  0  2 V2000
  145.5442  134.5053  162.5132 C   0  0  0  0  0  0  0  0  0  0  0  0
  147.0534  134.3481  162.3001 C   0  0  0  0  0  0  0  0  0  0  0  0
  147.4034  133.9607  160.8487 C   0  0  0  0  0  0  0  0  0  0  0  0
  147.3018  135.0964  159.8048 C   0  0  2  0  0  0  0  0  0  0  0  0
  147.8972  134.7562  158.5278 N   0  0  0  0  0  0  0  0  0  0  0  0
  148.8607  135.6141  158.1672 C   0  0  0  0  0  0  0  0  0  0  0  0
  149.5044  135.5589  157.1203 O   0  0  0  0  0  0  0  0  0  0  0  0
  148.9920  136.5382  159.1371 N   0  0  0  0  0  0  0  0  0  0  0  0
  149.9486  137.6482  159.0955 C   0  0  0  0  0  0  0  0  0  0  0  0
  149.7352  138.5393  157.8554 C   0  0  1  0  0  0  0  0  0  0  0  0
  148.7406  139.5014  158.1485 O   0  0  0  0  0  0  0  0  0  0  0  0
  151.0242  139.2855  157.4606 C   0  0  0  0  0  0  0  0  0  0  0  0
  150.8207  140.7330  157.3250 N   0  0  0  0  0  0  0  0  0  0  0  0
  150.2062  141.4451  156.3421 C   0  0  0  0  0  0  0  0  0  0  0  0
  150.2853  142.7622  156.6807 N   0  3  0  0  0  0  0  0  0  0  0  0
  150.9608  142.8915  157.8967 C   0  0  0  0  0  0  0  0  0  0  0  0
  151.2889  144.0167  158.6436 C   0  0  0  0  0  0  0  0  0  0  0  0
  151.9912  143.8068  159.8522 C   0  0  0  0  0  0  0  0  0  0  0  0
  152.3659  145.0155  160.6930 C   0  0  0  0  0  0  0  0  0  0  0  0
  152.3420  142.4982  160.2756 C   0  0  0  0  0  0  0  0  0  0  0  0
  153.1002  142.2839  161.5746 C   0  0  0  0  0  0  0  0  0  0  0  0
  151.9975  141.3665  159.5029 C   0  0  0  0  0  0  0  0  0  0  0  0
  151.3062  141.5922  158.3153 C   0  0  0  0  0  0  0  0  0  0  0  0
  148.1263  136.3268  160.1364 C   0  0  0  0  0  0  0  0  0  0  0  0
  147.9883  136.9957  161.1602 O   0  0  0  0  0  0  0  0  0  0  0  0
  145.3238  134.7784  163.5453 H   0  0  0  0  0  0  0  0  0  0  0  0
  145.0162  133.5767  162.2946 H   0  0  0  0  0  0  0  0  0  0  0  0
  145.1353  135.2840  161.8687 H   0  0  0  0  0  0  0  0  0  0  0  0
  147.5445  135.2835  162.5694 H   0  0  0  0  0  0  0  0  0  0  0  0
  147.4304  133.5920  162.9893 H   0  0  0  0  0  0  0  0  0  0  0  0
  148.4202  133.5667  160.8284 H   0  0  0  0  0  0  0  0  0  0  0  0
  146.7631  133.1352  160.5347 H   0  0  0  0  0  0  0  0  0  0  0  0
  146.2616  135.3884  159.6555 H   0  0  0  0  0  0  0  0  0  0  0  0
  147.5970  133.9666  157.9744 H   0  0  0  0  0  0  0  0  0  0  0  0
  149.9186  138.2383  160.0138 H   0  0  0  0  0  0  0  0  0  0  0  0
  150.9518  137.2190  159.0694 H   0  0  0  0  0  0  0  0  0  0  0  0
  149.3991  137.9366  157.0109 H   0  0  0  0  0  0  0  0  0  0  0  0
  148.1067  139.5021  157.4473 H   0  0  0  0  0  0  0  0  0  0  0  0
  151.8031  139.1271  158.2081 H   0  0  0  0  0  0  0  0  0  0  0  0
  151.4200  138.9096  156.5162 H   0  0  0  0  0  0  0  0  0  0  0  0
  149.7440  141.0388  155.4539 H   0  0  0  0  0  0  0  0  0  0  0  0
  151.0199  145.0097  158.3141 H   0  0  0  0  0  0  0  0  0  0  0  0
  151.9215  144.9446  161.6860 H   0  0  0  0  0  0  0  0  0  0  0  0
  152.0163  145.9428  160.2379 H   0  0  0  0  0  0  0  0  0  0  0  0
  153.4483  145.0849  160.8016 H   0  0  0  0  0  0  0  0  0  0  0  0
  153.2973  141.2262  161.7519 H   0  0  0  0  0  0  0  0  0  0  0  0
  152.5254  142.6618  162.4203 H   0  0  0  0  0  0  0  0  0  0  0  0
  154.0599  142.8008  161.5480 H   0  0  0  0  0  0  0  0  0  0  0  0
  152.2643  140.3699  159.8232 H   0  0  0  0  0  0  0  0  0  0  0  0
  149.9068  143.5149  156.1200 H   0  0  0  0  0  0  0  0  0  0  0  0
  1  2  1  0  0  0  0
  1 26  1  0  0  0  0
  1 27  1  0  0  0  0
  1 28  1  0  0  0  0
  2  3  1  0  0  0  0
  2 29  1  0  0  0  0
  2 30  1  0  0  0  0
  3  4  1  0  0  0  0
  3 31  1  0  0  0  0
  3 32  1  0  0  0  0
  4 24  1  0  0  0  0
  4  5  1  0  0  0  0
  4 33  1  0  0  0  0
  5  6  1  0  0  0  0
  5 34  1  0  0  0  0
  6  7  2  0  0  0  0
  6  8  1  0  0  0  0
  8  9  1  0  0  0  0
  8 24  1  0  0  0  0
  9 10  1  0  0  0  0
  9 35  1  0  0  0  0
  9 36  1  0  0  0  0
 10 11  1  0  0  0  0
 10 12  1  0  0  0  0
 10 37  1  0  0  0  0
 11 38  1  0  0  0  0
 12 13  1  0  0  0  0
 12 39  1  0  0  0  0
 12 40  1  0  0  0  0
 13 23  1  0  0  0  0
 13 14  1  0  0  0  0
 14 15  2  0  0  0  0
 14 41  1  0  0  0  0
 15 16  1  0  0  0  0
 15 50  1  0  0  0  0
 16 23  2  0  0  0  0
 16 17  1  0  0  0  0
 17 18  2  0  0  0  0
 17 42  1  0  0  0  0
 18 19  1  0  0  0  0
 18 20  1  0  0  0  0
 19 43  1  0  0  0  0
 19 44  1  0  0  0  0
 19 45  1  0  0  0  0
 20 21  1  0  0  0  0
 20 22  2  0  0  0  0
 21 46  1  0  0  0  0
 21 47  1  0  0  0  0
 21 48  1  0  0  0  0
 22 23  1  0  0  0  0
 22 49  1  0  0  0  0
 24 25  2  0  0  0  0
M  CHG  1  15   1
M  END
> <s_m_source_file>
AV-unprocessed.smi

> <i_m_source_file_index>
1644

> <i_lp_mmshare_version>
43012

> <i_f3d_flags>
0

> <s_epik_input>
W0NIM11bQ0gyXVtDSDJdW0NAQEhdMVtOSF1DKD1PKU4oQzE9TylbQ0gyXVtDQEhdKFtPSF0pW0NIMl1uKFtjSF1uMiljKGMyMylbY0hdYyhbQ0gzXSljKFtjSF0zKVtDSDNd

> <s_epik_cmdline>
J2VwaWtfcHl0aG9uJywgJy1waCcsICc3LjAnLCAnLXRuJywgJzgnLCAnLW1hJywgJzIwMCcsICctbWV0YWxfYmluZGluZycsICctaW1hZScsICc8aW5maWxlLm1hZT4nLCAnLW9tYWUnLCAnPG91dGZpbGUubWFlPic=

> <r_lp_tautomer_probability>
1

> <r_epik_Ionization_Penalty>
1.06742

> <r_epik_Ionization_Penalty_Charging>
1.06736

> <r_epik_Ionization_Penalty_Neutral>
5.56132e-05

> <r_epik_State_Penalty>
1.12163

> <r_epik_Charging_Adjusted_Penalty>
2.18899

> <i_epik_Tot_Q>
1

> <i_epik_Tot_abs_Q>
1

> <r_epik_Metal_State_Penalty>
1.26636

> <b_epik_Metal_Only>
0

> <s_lp_Force_Field>
OPLS_2005

> <r_lp_Energy>
29.5634

> <b_lp_Chiralities_Consistent>
1

> <s_lp_Variant>
AV-unprocessed.smi:1644-7

> <Gold.Version>
5.8.1

> <Gold.Id.Protein>
6NUR|6NUR_protein|mol2

> <Gold.PLP.Fitness>
58.6783

> <Gold.PLP.PLP>
-49.9788

> <Gold.PLP.part.hbond>
-3.4726

> <Gold.PLP.part.metal>
0.0000

> <Gold.PLP.part.buried>
-6.2065

> <Gold.PLP.part.nonpolar>
-41.2315

> <Gold.PLP.part.repulsive>
0.1387

> <Gold.PLP.ligand.clash>
0.0000

> <Gold.PLP.ligand.torsion>
1.2803

> <Gold.PLP.Chemscore.Hbond>
3.7200

> <Gold.PLP.Chemscore.CHOScore>
0.0000

> <Gold.PLP.Chemscore.Metal>
0.0000

> <Gold.Chemscore.Hbonds>
donor molecule, donor type, donor heavy atom, donor atom, acceptor molecule, acceptor atom, score
      L1  H    15    50       P1  8028  2.00
      P1  H  6931  6943       L1    25  1.00
      P1  H  6934  6947       L1    25  0.45

> <Gold.PLP.Chemscore.Internal.Correction>
0.1001

> <Gold.Rescore>
     Score         DG    S(hbond)    S(metal)    S(lipo)     H(rot)  DE(clash)    DE(int)     intcor
     18.42     -20.69       2.68        0.00     114.76       2.80       0.03       2.24       ----

> <Gold.Chemscore.Fitness>
18.4168

> <Gold.Chemscore.DG>
-20.6911

> <Gold.Chemscore.ZeroCoef>
-5.4800

> <Gold.Chemscore.Hbond>
2.6774

> <Gold.Chemscore.Metal>
0.0000

> <Gold.Chemscore.Lipo>
114.7584

> <Gold.Chemscore.Internal_Hbond>
0.0000

> <Gold.Chemscore.DEClash>
0.0310

> <Gold.Chemscore.DEInternal>
2.2434

> <Gold.Chemscore.Rot>
2.7961

> <Gold.Chemscore.Internal.Correction>
   9.000000E+99

> <Gold.Chemscore.Hbonds>
donor molecule, donor type, donor heavy atom, donor atom, acceptor molecule, acceptor atom, score
      L1  H    15    50       P1  8028  0.99
      P1  H  6931  6943       L1    25  0.98
      P1  H  6934  6947       L1    25  0.43

> <Gold.Chemscore.Hbond.Weighted>
-8.9424

> <Gold.Chemscore.Metal.Weighted>
-0.0000

> <Gold.Chemscore.Lipo.Weighted>
-13.4267

> <Gold.Chemscore.Internal_Hbond.Weighted>
0.0000

> <Gold.Chemscore.DEClash.Weighted>
0.0310

> <Gold.Chemscore.DEInternal.Weighted>
2.2434

> <Gold.Chemscore.Rot.Weighted>
7.1580

> <Gold.Chemscore.Internal.Correction.Weighted>
   9.000000E+99

> <Gold.Protein.RotatedTorsions>
[ 6907 6896 6895 6894 ] final   12.02 input  -60.11 | X-H torsion
[ 7974 7965 7964 7962 ] final  -47.28 input  175.53 | X-H torsion
[ 8008 7997 7996 7995 ] final -147.75 input   59.86 | X-H torsion
[ 10167 10162 10161 10158 ] final  154.99 input  -65.29 | X-H torsion
[ 10718 10713 10712 10709 ] final  -92.50 input   66.30 | X-H torsion
[ 10763 10752 10751 10750 ] final  -43.14 input  -60.55 | X-H torsion
[ 11005 11000 10999 10996 ] final  -95.48 input  -57.11 | X-H torsion

> <Gold.Protein.ActiveResidues>
 VAL166  LYS551  ARG553  GLY616  TRP617  ASP618  TYR619  PRO620  LYS621  CYS622 
 ASP623  PHE694  ASN695  SER759  ASP760  ASP761  ALA762  ILE779  LEU786  VAL792 
 PHE793  MET794  SER795  GLU796  ALA797  LYS798  CYS799  TRP800  GLU811  SER814 

> <Gold.Protein.RotatedAtoms>
  151.7636  135.0804  160.0349 H   0  0  0  0  0  0  0  0  0  0  0  0  # atno 6907 bound_to 6896
  152.3336  133.5982  159.5835 H   0  0  0  0  0  0  0  0  0  0  0  0  # atno 6908 bound_to 6896
  150.7437  133.9746  159.3598 H   0  0  0  0  0  0  0  0  0  0  0  0  # atno 6909 bound_to 6896
  145.9632  140.7458  142.9447 H   0  0  0  0  0  0  0  0  0  0  0  0  # atno 7974 bound_to 7965
  155.5806  140.0643  157.2784 H   0  0  0  0  0  0  0  0  0  0  0  0  # atno 8008 bound_to 7997
  154.4333  140.1852  156.1019 H   0  0  0  0  0  0  0  0  0  0  0  0  # atno 8009 bound_to 7997
  156.0307  140.3306  155.7141 H   0  0  0  0  0  0  0  0  0  0  0  0  # atno 8010 bound_to 7997
  139.4822  144.5138  151.7983 H   0  0  0  0  0  0  0  0  0  0  0  0  # atno 10167 bound_to 10162
  156.0003  130.4989  150.5634 H   0  0  0  0  0  0  0  0  0  0  0  0  # atno 10718 bound_to 10713
  153.9906  135.6706  153.4754 H   0  0  0  0  0  0  0  0  0  0  0  0  # atno 10763 bound_to 10752
  153.0706  135.4976  154.8294 H   0  0  0  0  0  0  0  0  0  0  0  0  # atno 10764 bound_to 10752
  154.7111  135.3097  154.9158 H   0  0  0  0  0  0  0  0  0  0  0  0  # atno 10765 bound_to 10752
  141.1440  133.8029  157.0441 H   0  0  0  0  0  0  0  0  0  0  0  0  # atno 11005 bound_to 11000
  144.6820  140.2626  143.7317 LP  0  0  0  0  0  0  0  0  0  0  0  0  # atno 17320 bound_to 7965
  145.8010  139.1964  143.2048 LP  0  0  0  0  0  0  0  0  0  0  0  0  # atno 17321 bound_to 7965
  140.4645  144.1675  150.5910 LP  0  0  0  0  0  0  0  0  0  0  0  0  # atno 17342 bound_to 10162
  140.4449  143.2511  151.9424 LP  0  0  0  0  0  0  0  0  0  0  0  0  # atno 17343 bound_to 10162
  157.3540  131.0738  151.1690 LP  0  0  0  0  0  0  0  0  0  0  0  0  # atno 17370 bound_to 10713
  157.2497  130.6608  149.5926 LP  0  0  0  0  0  0  0  0  0  0  0  0  # atno 17371 bound_to 10713
  140.0674  134.9721  157.1408 LP  0  0  0  0  0  0  0  0  0  0  0  0  # atno 17394 bound_to 11000
  140.3761  134.2338  155.7174 LP  0  0  0  0  0  0  0  0  0  0  0  0  # atno 17395 bound_to 11000

$$$$
