#       Name:                AV-unprocessed.smi:446
#       Creating user name   scv26
#       Creation time:       Thu Mar 26 22:59:08 2020


#       File generated by GOLD software.
#

@<TRIPOS>MOLECULE
AV-unprocessed.smi:446
    38    40     1
SMALL
NO_CHARGES


@<TRIPOS>ATOM
      1 ****        -1.1374   1.1834  -2.8974 C.3            1 S1                 0.0000
      2 ****        -1.2850   1.6375  -1.4840 C.2            1 S1                 0.0000
      3 ****        -1.7421   2.8547  -1.0757 N.pl3          1 S1                 1.0000
      4 ****        -1.7452   2.9144   0.3188 C.ar           1 S1                 0.0000
      5 ****        -2.1226   3.9354   1.1856 C.ar           1 S1                 0.0000
      6 ****        -2.0024   3.6707   2.5657 C.ar           1 S1                 0.0000
      7 ****        -1.5209   2.4319   3.0362 C.ar           1 S1                 0.0000
      8 ****        -1.1401   1.4048   2.1477 C.ar           1 S1                 0.0000
      9 ****        -1.2649   1.6727   0.7843 C.ar           1 S1                 0.0000
     10 ****        -0.9933   0.9177  -0.3635 N.pl3          1 S1                 0.0000
     11 ****        -0.4706  -0.4519  -0.2318 C.3            1 S1                 0.0000
     12 ****         1.0665  -0.5231  -0.3309 C.3            1 S1                 0.0000
     13 ****         1.6591   0.2811   0.6709 O.3            1 S1                 0.0000
     14 ****         1.5531  -1.9626  -0.2757 C.ar           1 S1                 0.0000
     15 ****         1.6421  -2.6456   0.9578 C.ar           1 S1                 0.0000
     16 ****         2.0831  -3.9826   0.9987 C.ar           1 S1                 0.0000
     17 ****         2.4356  -4.6454  -0.1925 C.ar           1 S1                 0.0000
     18 ****         2.8590  -5.9308  -0.1527 F              1 S1                 0.0000
     19 ****         2.3454  -3.9709  -1.4251 C.ar           1 S1                 0.0000
     20 ****         1.9046  -2.6337  -1.4669 C.ar           1 S1                 0.0000
     21 ****        -1.4351   1.9731  -3.5876 H              1 S1                 0.0000
     22 ****        -1.7648   0.3104  -3.0785 H              1 S1                 0.0000
     23 ****        -0.1005   0.9165  -3.1018 H              1 S1                 0.0000
     24 ****        -2.4901   4.8859   0.8274 H              1 S1                 0.0000
     25 ****        -2.2842   4.4334   3.2772 H              1 S1                 0.0000
     26 ****        -1.4405   2.2654   4.1007 H              1 S1                 0.0000
     27 ****        -0.7659   0.4629   2.5203 H              1 S1                 0.0000
     28 ****        -0.8286  -0.8867   0.7015 H              1 S1                 0.0000
     29 ****        -0.9190  -1.0442  -1.0302 H              1 S1                 0.0000
     30 ****         1.3742  -0.0983  -1.2872 H              1 S1                 0.0000
     31 ****         2.5943   0.2879   0.5335 H              1 S1                 0.0000
     32 ****         1.3700  -2.1480   1.8772 H              1 S1                 0.0000
     33 ****         2.1491  -4.5005   1.9441 H              1 S1                 0.0000
     34 ****         2.6130  -4.4799  -2.3394 H              1 S1                 0.0000
     35 ****         1.8358  -2.1267  -2.4183 H              1 S1                 0.0000
     36 ****        -2.0311   3.5902  -1.7077 H              1 S1                 0.0000
     37 ****         1.4530  -0.0971   1.5734 LP             1 S1                 0.0000
     38 ****         1.3021   1.2133   0.6107 LP             1 S1                 0.0000
@<TRIPOS>BOND
    1    1    2 1     
    2    1   21 1     
    3    1   22 1     
    4    1   23 1     
    5    2   10 1     
    6    2    3 2     
    7    3    4 1     
    8    3   36 1     
    9    4    9 ar    
   10    4    5 ar    
   11    5    6 ar    
   12    5   24 1     
   13    6    7 ar    
   14    6   25 1     
   15    7    8 ar    
   16    7   26 1     
   17    8    9 ar    
   18    8   27 1     
   19    9   10 1     
   20   10   11 1     
   21   11   12 1     
   22   11   28 1     
   23   11   29 1     
   24   12   13 1     
   25   12   14 1     
   26   12   30 1     
   27   13   31 1     
   28   14   20 ar    
   29   14   15 ar    
   30   15   16 ar    
   31   15   32 1     
   32   16   17 ar    
   33   16   33 1     
   34   17   18 1     
   35   17   19 ar    
   36   19   20 ar    
   37   19   34 1     
   38   20   35 1     
   39   13   37 1     
   40   13   38 1     
@<TRIPOS>SUBSTRUCTURE
      1 S1             1
@<TRIPOS>SET
LONE_PAIRS      STATIC     ATOMS    <user>   **** ""
2 37 38
DONOR_HYDROGENS      STATIC     ATOMS    <user>   **** ""
2 36 31
ATOM$BLUE        STATIC     ATOMS    COLORGROUP SYSTEM
2 37 38
ATOM$RED        STATIC     ATOMS    COLORGROUP SYSTEM
2 36 31
