#       Name:                AV-unprocessed.smi:2221
#       Creating user name   scv26
#       Creation time:       Fri Mar 27 12:19:36 2020


#       File generated by GOLD software.
#

@<TRIPOS>MOLECULE
AV-unprocessed.smi:2221
    57    58     1
SMALL
NO_CHARGES


@<TRIPOS>ATOM
      1 ****        -5.2318   6.3076  -2.3579 C.3            1 S1                 0.0000
      2 ****        -4.7714   5.2425  -1.3849 C.ar           1 S1                 0.0000
      3 ****        -5.1815   5.2777  -0.0387 C.ar           1 S1                 0.0000
      4 ****        -4.7211   4.2637   0.8235 C.ar           1 S1                 0.0000
      5 ****        -5.1288   4.2395   2.2816 C.3            1 S1                 0.0000
      6 ****        -3.9093   3.2643   0.4177 N.ar           1 S1                 0.0000
      7 ****        -3.5058   3.2208  -0.8763 C.ar           1 S1                 0.0000
      8 ****        -2.6516   2.2150  -1.4015 N.am           1 S1                 0.0000
      9 ****        -2.1004   1.1725  -0.7550 C.2            1 S1                 0.0000
     10 ****        -2.2537   0.9114   0.4388 O.2            1 S1                 0.0000
     11 ****        -1.3439   0.4342  -1.5800 N.am           1 S1                 0.0000
     12 ****        -0.6056  -0.7607  -1.1906 C.3            1 S1                 0.0000
     13 ****         0.7173  -0.3938  -0.4897 C.3            1 S1                 0.0000
     14 ****         1.4307  -1.5741  -0.0024 N.3            1 S1                 0.0000
     15 ****         2.4603  -1.1421   0.9470 C.3            1 S1                 0.0000
     16 ****         3.1687  -2.3603   1.5645 C.3            1 S1                 0.0000
     17 ****         3.8181  -3.2212   0.4628 C.3            1 S1                 0.0000
     18 ****         4.5359  -4.4275   0.9684 N.4            1 S1                 1.0000
     19 ****         3.7530  -5.3034   1.8739 C.3            1 S1                 0.0000
     20 ****         5.8706  -4.1134   1.5278 C.3            1 S1                 0.0000
     21 ****         2.7523  -3.5760  -0.5882 C.3            1 S1                 0.0000
     22 ****         2.0568  -2.3059  -1.1095 C.3            1 S1                 0.0000
     23 ****        -3.9213   4.1998  -1.8069 C.ar           1 S1                 0.0000
     24 ****        -6.2555   6.6127  -2.1388 H              1 S1                 0.0000
     25 ****        -5.2007   5.9393  -3.3836 H              1 S1                 0.0000
     26 ****        -4.5889   7.1849  -2.2876 H              1 S1                 0.0000
     27 ****        -5.8322   6.0607   0.3224 H              1 S1                 0.0000
     28 ****        -5.4582   5.2249   2.6124 H              1 S1                 0.0000
     29 ****        -4.2927   3.9339   2.9118 H              1 S1                 0.0000
     30 ****        -5.9475   3.5354   2.4314 H              1 S1                 0.0000
     31 ****        -2.4333   2.3008  -2.3829 H              1 S1                 0.0000
     32 ****        -1.2729   0.7188  -2.5460 H              1 S1                 0.0000
     33 ****        -1.2231  -1.3860  -0.5430 H              1 S1                 0.0000
     34 ****        -0.4250  -1.3343  -2.0985 H              1 S1                 0.0000
     35 ****         1.3582   0.1929  -1.1500 H              1 S1                 0.0000
     36 ****         0.4804   0.2463   0.3617 H              1 S1                 0.0000
     37 ****         3.1819  -0.4912   0.4504 H              1 S1                 0.0000
     38 ****         2.0012  -0.5584   1.7459 H              1 S1                 0.0000
     39 ****         3.9197  -2.0200   2.2775 H              1 S1                 0.0000
     40 ****         2.4372  -2.9373   2.1309 H              1 S1                 0.0000
     41 ****         4.5576  -2.6029  -0.0491 H              1 S1                 0.0000
     42 ****         3.5758  -4.8259   2.8382 H              1 S1                 0.0000
     43 ****         4.2968  -6.2298   2.0612 H              1 S1                 0.0000
     44 ****         2.7909  -5.5773   1.4426 H              1 S1                 0.0000
     45 ****         5.7891  -3.5140   2.4352 H              1 S1                 0.0000
     46 ****         6.4779  -3.5648   0.8069 H              1 S1                 0.0000
     47 ****         6.4067  -5.0302   1.7754 H              1 S1                 0.0000
     48 ****         3.2115  -4.1090  -1.4211 H              1 S1                 0.0000
     49 ****         1.9979  -4.2427  -0.1709 H              1 S1                 0.0000
     50 ****         1.3080  -2.6010  -1.8429 H              1 S1                 0.0000
     51 ****         2.7732  -1.6650  -1.6261 H              1 S1                 0.0000
     52 ****        -3.5919   4.1529  -2.8350 H              1 S1                 0.0000
     53 ****         4.7224  -4.9838   0.1461 H              1 S1                 0.0000
     54 ****        -3.6087   2.5634   1.0645 LP             1 S1                 0.0000
     55 ****        -2.8280   1.4985   1.0093 LP             1 S1                 0.0000
     56 ****        -1.8039   0.1123   0.8376 LP             1 S1                 0.0000
     57 ****         0.7789  -2.1868   0.4446 LP             1 S1                 0.0000
@<TRIPOS>BOND
    1    1    2 1     
    2    1   24 1     
    3    1   25 1     
    4    1   26 1     
    5    2   23 ar    
    6    2    3 ar    
    7    3    4 ar    
    8    3   27 1     
    9    4    5 1     
   10    4    6 ar    
   11    5   28 1     
   12    5   29 1     
   13    5   30 1     
   14    6    7 ar    
   15    7    8 1     
   16    7   23 ar    
   17    8    9 am    
   18    8   31 1     
   19    9   10 2     
   20    9   11 am    
   21   11   12 1     
   22   11   32 1     
   23   12   13 1     
   24   12   33 1     
   25   12   34 1     
   26   13   14 1     
   27   13   35 1     
   28   13   36 1     
   29   14   22 1     
   30   14   15 1     
   31   15   16 1     
   32   15   37 1     
   33   15   38 1     
   34   16   17 1     
   35   16   39 1     
   36   16   40 1     
   37   17   18 1     
   38   17   21 1     
   39   17   41 1     
   40   18   19 1     
   41   18   20 1     
   42   18   53 1     
   43   19   42 1     
   44   19   43 1     
   45   19   44 1     
   46   20   45 1     
   47   20   46 1     
   48   20   47 1     
   49   21   22 1     
   50   21   48 1     
   51   21   49 1     
   52   22   50 1     
   53   22   51 1     
   54   23   52 1     
   55    6   54 1     
   56   10   55 1     
   57   10   56 1     
   58   14   57 1     
@<TRIPOS>SUBSTRUCTURE
      1 S1             1
@<TRIPOS>SET
LONE_PAIRS      STATIC     ATOMS    <user>   **** ""
4 54 55 56 57
DONOR_HYDROGENS      STATIC     ATOMS    <user>   **** ""
3 31 32 53
ATOM$BLUE        STATIC     ATOMS    COLORGROUP SYSTEM
4 54 55 56 57
ATOM$RED        STATIC     ATOMS    COLORGROUP SYSTEM
3 31 32 53
