#       Name:                AV-unprocessed.smi:2093
#       Creating user name   scv26
#       Creation time:       Fri Mar 27 11:27:25 2020


#       File generated by GOLD software.
#

@<TRIPOS>MOLECULE
AV-unprocessed.smi:2093
    36    37     1
SMALL
NO_CHARGES


@<TRIPOS>ATOM
      1 ****        -2.2164  -1.5003  -1.6000 C.3            1 S1                 0.0000
      2 ****        -1.3992  -0.6431  -0.6225 C.3            1 S1                 0.0000
      3 ****         0.0029  -0.6646  -1.0393 N.am           1 S1                 0.0000
      4 ****         0.8373   0.3833  -1.1120 C.2            1 S1                 0.0000
      5 ****         0.4424   1.5122  -0.8115 O.2            1 S1                 0.0000
      6 ****         2.0835   0.0548  -1.5222 N.pl3          1 S1                -1.0000
      7 ****         3.0285   1.0034  -1.6281 C.2            1 S1                 0.0000
      8 ****         3.3815   1.5540  -2.7954 N.2            1 S1                 0.0000
      9 ****         4.3887   2.5129  -2.6748 C.2            1 S1                 0.0000
     10 ****         4.8191   2.6907  -1.3867 C.2            1 S1                 0.0000
     11 ****         3.9662   1.6529  -0.2799 S.3            1 S1                 0.0000
     12 ****        -1.5374  -1.1427   0.8310 C.3            1 S1                 0.0000
     13 ****        -0.7570  -0.3361   1.8714 C.3            1 S1                 0.0000
     14 ****        -1.5143  -0.6581   3.1384 C.3            1 S1                 0.0000
     15 ****        -2.9559  -0.6864   2.6402 C.3            1 S1                 0.0000
     16 ****        -2.8936  -1.0618   1.2661 O.3            1 S1                 0.0000
     17 ****        -3.2772  -1.4819  -1.3496 H              1 S1                 0.0000
     18 ****        -1.8887  -2.5403  -1.5861 H              1 S1                 0.0000
     19 ****        -2.1156  -1.1326  -2.6218 H              1 S1                 0.0000
     20 ****        -1.7889   0.3746  -0.6774 H              1 S1                 0.0000
     21 ****         0.3809  -1.5647  -1.2960 H              1 S1                 0.0000
     22 ****         4.7414   3.0194  -3.5607 H              1 S1                 0.0000
     23 ****         5.5816   3.3627  -1.0231 H              1 S1                 0.0000
     24 ****        -1.2324  -2.1887   0.8967 H              1 S1                 0.0000
     25 ****         0.2971  -0.6107   1.9221 H              1 S1                 0.0000
     26 ****        -0.8228   0.7322   1.6594 H              1 S1                 0.0000
     27 ****        -1.2230  -1.6425   3.5070 H              1 S1                 0.0000
     28 ****        -1.3510   0.0688   3.9344 H              1 S1                 0.0000
     29 ****        -3.5768  -1.3753   3.2130 H              1 S1                 0.0000
     30 ****        -3.4021   0.3065   2.7062 H              1 S1                 0.0000
     31 ****        -0.5021   1.6485  -0.5126 LP             1 S1                 0.0000
     32 ****         1.0667   2.2915  -0.8666 LP             1 S1                 0.0000
     33 ****         2.3015  -0.8949  -1.7468 LP             1 S1                 0.0000
     34 ****         2.9645   1.3031  -3.6689 LP             1 S1                 0.0000
     35 ****        -3.3306  -1.9535   1.1485 LP             1 S1                 0.0000
     36 ****        -3.3753  -0.3793   0.7164 LP             1 S1                 0.0000
@<TRIPOS>BOND
    1    1    2 1     
    2    1   17 1     
    3    1   18 1     
    4    1   19 1     
    5    2    3 1     
    6    2   12 1     
    7    2   20 1     
    8    3    4 am    
    9    3   21 1     
   10    4    5 2     
   11    4    6 1     
   12    6    7 1     
   13    7   11 1     
   14    7    8 2     
   15    8    9 1     
   16    9   10 2     
   17    9   22 1     
   18   10   11 1     
   19   10   23 1     
   20   12   16 1     
   21   12   13 1     
   22   12   24 1     
   23   13   14 1     
   24   13   25 1     
   25   13   26 1     
   26   14   15 1     
   27   14   27 1     
   28   14   28 1     
   29   15   16 1     
   30   15   29 1     
   31   15   30 1     
   32    5   31 1     
   33    5   32 1     
   34    6   33 1     
   35    8   34 1     
   36   16   35 1     
   37   16   36 1     
@<TRIPOS>SUBSTRUCTURE
      1 S1             1
@<TRIPOS>SET
LONE_PAIRS      STATIC     ATOMS    <user>   **** ""
6 31 32 33 34 35 36
DONOR_HYDROGENS      STATIC     ATOMS    <user>   **** ""
1 21
ATOM$BLUE        STATIC     ATOMS    COLORGROUP SYSTEM
6 31 32 33 34 35 36
ATOM$RED        STATIC     ATOMS    COLORGROUP SYSTEM
1 21
