AV-unprocessed.smi:3246|AV-procd|sdf|12411|dock4
  -GOLD-   2272018293D 1   1.00000     0.00000
 Structure written by MMmdl.
 36 37  0  0  0  0  0  0  0  0  2 V2000
  153.2361  139.8682  158.2130 O   0  0  0  0  0  0  0  0  0  0  0  0
  152.3529  140.5592  158.7199 C   0  0  0  0  0  0  0  0  0  0  0  0
  152.6927  141.4144  159.9519 C   0  0  0  0  0  0  0  0  0  0  0  0
  152.4620  142.8526  159.7922 N   0  0  0  0  0  0  0  0  0  0  0  0
  152.2073  143.4198  158.4780 C   0  0  0  0  0  0  0  0  0  0  0  0
  151.8013  144.8763  158.7444 C   0  0  0  0  0  0  0  0  0  0  0  0
  152.1914  145.1585  160.1994 C   0  0  0  0  0  0  0  0  0  0  0  0
  152.4744  143.7761  160.7617 C   0  0  0  0  0  0  0  0  0  0  0  0
  152.6748  143.5690  161.9573 O   0  0  0  0  0  0  0  0  0  0  0  0
  151.0999  140.6016  158.2348 N   0  0  0  0  0  0  0  0  0  0  0  0
  150.6220  139.8515  157.0802 C   0  0  0  0  0  0  0  0  0  0  0  0
  150.3096  140.7801  155.8957 C   0  0  0  0  0  0  0  0  0  0  0  0
  149.1770  140.2503  155.0386 C   0  0  0  0  0  0  0  0  0  0  0  0
  148.0919  141.0817  154.6830 C   0  0  0  0  0  0  0  0  0  0  0  0
  147.0518  140.5579  153.8869 C   0  0  0  0  0  0  0  0  0  0  0  0
  147.1205  139.2142  153.4646 C   0  0  0  0  0  0  0  0  0  0  0  0
  148.1738  138.4486  153.8260 N   0  3  0  0  0  0  0  0  0  0  0  0
  149.1893  138.9126  154.5871 C   0  0  0  0  0  0  0  0  0  0  0  0
  152.1150  141.0460  160.8011 H   0  0  0  0  0  0  0  0  0  0  0  0
  153.7406  141.2484  160.2049 H   0  0  0  0  0  0  0  0  0  0  0  0
  153.1193  143.3707  157.8816 H   0  0  0  0  0  0  0  0  0  0  0  0
  151.4243  142.8711  157.9527 H   0  0  0  0  0  0  0  0  0  0  0  0
  152.2874  145.5632  158.0508 H   0  0  0  0  0  0  0  0  0  0  0  0
  150.7238  144.9935  158.6209 H   0  0  0  0  0  0  0  0  0  0  0  0
  153.0946  145.7665  160.2592 H   0  0  0  0  0  0  0  0  0  0  0  0
  151.3942  145.6582  160.7507 H   0  0  0  0  0  0  0  0  0  0  0  0
  150.4294  141.1904  158.7079 H   0  0  0  0  0  0  0  0  0  0  0  0
  151.3589  139.0987  156.7944 H   0  0  0  0  0  0  0  0  0  0  0  0
  149.7237  139.3092  157.3764 H   0  0  0  0  0  0  0  0  0  0  0  0
  150.0491  141.7752  156.2590 H   0  0  0  0  0  0  0  0  0  0  0  0
  151.1933  140.9048  155.2681 H   0  0  0  0  0  0  0  0  0  0  0  0
  148.0546  142.1088  155.0162 H   0  0  0  0  0  0  0  0  0  0  0  0
  146.2139  141.1782  153.6043 H   0  0  0  0  0  0  0  0  0  0  0  0
  146.3704  138.7322  152.8544 H   0  0  0  0  0  0  0  0  0  0  0  0
  149.9743  138.2045  154.8111 H   0  0  0  0  0  0  0  0  0  0  0  0
  148.2038  137.4784  153.5105 H   0  0  0  0  0  0  0  0  0  0  0  0
  1  2  2  0  0  0  0
  2  3  1  0  0  0  0
  2 10  1  0  0  0  0
  3  4  1  0  0  0  0
  3 19  1  0  0  0  0
  3 20  1  0  0  0  0
  4  8  1  0  0  0  0
  4  5  1  0  0  0  0
  5  6  1  0  0  0  0
  5 21  1  0  0  0  0
  5 22  1  0  0  0  0
  6  7  1  0  0  0  0
  6 23  1  0  0  0  0
  6 24  1  0  0  0  0
  7  8  1  0  0  0  0
  7 25  1  0  0  0  0
  7 26  1  0  0  0  0
  8  9  2  0  0  0  0
 10 11  1  0  0  0  0
 10 27  1  0  0  0  0
 11 12  1  0  0  0  0
 11 28  1  0  0  0  0
 11 29  1  0  0  0  0
 12 13  1  0  0  0  0
 12 30  1  0  0  0  0
 12 31  1  0  0  0  0
 13 18  1  0  0  0  0
 13 14  2  0  0  0  0
 14 15  1  0  0  0  0
 14 32  1  0  0  0  0
 15 16  2  0  0  0  0
 15 33  1  0  0  0  0
 16 17  1  0  0  0  0
 16 34  1  0  0  0  0
 17 18  2  0  0  0  0
 17 36  1  0  0  0  0
 18 35  1  0  0  0  0
M  CHG  1  17   1
M  END
> <s_m_source_file>
AV-unprocessed.smi

> <i_m_source_file_index>
3246

> <i_lp_mmshare_version>
43012

> <i_f3d_flags>
0

> <s_epik_input>
Tz1DMVtDSDJdW0NIMl1bQ0gyXU4xW0NIMl1DKD1PKVtOSF1bQ0gyXVtDSDJdYzJbY0hdW2NIXVtjSF1uW2NIXTI=

> <s_epik_cmdline>
J2VwaWtfcHl0aG9uJywgJy1waCcsICc3LjAnLCAnLXRuJywgJzgnLCAnLW1hJywgJzIwMCcsICctbWV0YWxfYmluZGluZycsICctaW1hZScsICc8aW5maWxlLm1hZT4nLCAnLW9tYWUnLCAnPG91dGZpbGUubWFlPic=

> <r_epik_Ionization_Penalty>
2.27275

> <r_epik_Ionization_Penalty_Charging>
2.27275

> <r_epik_Ionization_Penalty_Neutral>
5.87859e-08

> <r_epik_State_Penalty>
2.42145

> <r_epik_Charging_Adjusted_Penalty>
4.69419

> <i_epik_Tot_Q>
1

> <i_epik_Tot_abs_Q>
1

> <r_epik_Metal_State_Penalty>
2.43419

> <b_epik_Metal_Only>
0

> <s_lp_Force_Field>
OPLS_2005

> <r_lp_Energy>
18.8936

> <b_lp_Chiralities_Consistent>
1

> <s_lp_Variant>
AV-unprocessed.smi:3246-2

> <Gold.Version>
5.8.1

> <Gold.Id.Protein>
6NUR|6NUR_protein|mol2

> <Gold.PLP.Fitness>
52.4556

> <Gold.PLP.PLP>
-44.3679

> <Gold.PLP.part.hbond>
-3.0000

> <Gold.PLP.part.metal>
0.0000

> <Gold.PLP.part.buried>
-3.3017

> <Gold.PLP.part.nonpolar>
-38.5936

> <Gold.PLP.part.repulsive>
0.3152

> <Gold.PLP.ligand.clash>
0.0000

> <Gold.PLP.ligand.torsion>
0.4641

> <Gold.PLP.Chemscore.Hbond>
3.0000

> <Gold.PLP.Chemscore.CHOScore>
0.0000

> <Gold.PLP.Chemscore.Metal>
0.0000

> <Gold.Chemscore.Hbonds>
donor molecule, donor type, donor heavy atom, donor atom, acceptor molecule, acceptor atom, score
      L1  H    17    36       P1  7948  0.98
      P1  H  7997  8010       L1     1  1.00

> <Gold.PLP.Chemscore.Internal.Correction>
0.0158

> <Gold.Rescore>
     Score         DG    S(hbond)    S(metal)    S(lipo)     H(rot)  DE(clash)    DE(int)     intcor
     17.07     -17.73       1.99        0.00      90.59       1.96       0.26       0.39       ----

> <Gold.Chemscore.Fitness>
17.0687

> <Gold.Chemscore.DG>
-17.7254

> <Gold.Chemscore.ZeroCoef>
-5.4800

> <Gold.Chemscore.Hbond>
1.9937

> <Gold.Chemscore.Metal>
0.0000

> <Gold.Chemscore.Lipo>
90.5851

> <Gold.Chemscore.Internal_Hbond>
0.0000

> <Gold.Chemscore.DEClash>
0.2617

> <Gold.Chemscore.DEInternal>
0.3950

> <Gold.Chemscore.Rot>
1.9579

> <Gold.Chemscore.Internal.Correction>
   9.000000E+99

> <Gold.Chemscore.Hbonds>
donor molecule, donor type, donor heavy atom, donor atom, acceptor molecule, acceptor atom, score
      L1  H    17    36       P1  7948  0.49
      P1  H  7997  8010       L1     1  0.96

> <Gold.Chemscore.Hbond.Weighted>
-6.6590

> <Gold.Chemscore.Metal.Weighted>
-0.0000

> <Gold.Chemscore.Lipo.Weighted>
-10.5985

> <Gold.Chemscore.Internal_Hbond.Weighted>
0.0000

> <Gold.Chemscore.DEClash.Weighted>
0.2617

> <Gold.Chemscore.DEInternal.Weighted>
0.3950

> <Gold.Chemscore.Rot.Weighted>
5.0121

> <Gold.Chemscore.Internal.Correction.Weighted>
   9.000000E+99

> <Gold.Protein.RotatedTorsions>
[ 6907 6896 6895 6894 ] final  101.58 input  -60.11 | X-H torsion
[ 7974 7965 7964 7962 ] final -110.66 input  175.53 | X-H torsion
[ 8008 7997 7996 7995 ] final   46.13 input   59.86 | X-H torsion
[ 10167 10162 10161 10158 ] final -153.76 input  -65.29 | X-H torsion
[ 10718 10713 10712 10709 ] final -128.25 input   66.30 | X-H torsion
[ 10763 10752 10751 10750 ] final   30.82 input  -60.55 | X-H torsion
[ 11005 11000 10999 10996 ] final    5.93 input  -57.11 | X-H torsion

> <Gold.Protein.ActiveResidues>
 VAL166  LYS551  ARG553  GLY616  TRP617  ASP618  TYR619  PRO620  LYS621  CYS622 
 ASP623  PHE694  ASN695  SER759  ASP760  ASP761  ALA762  ILE779  LEU786  VAL792 
 PHE793  MET794  SER795  GLU796  ALA797  LYS798  CYS799  TRP800  GLU811  SER814 

> <Gold.Protein.RotatedAtoms>
  152.5346  134.0104  159.7935 H   0  0  0  0  0  0  0  0  0  0  0  0  # atno 6907 bound_to 6896
  151.0307  133.5785  159.2668 H   0  0  0  0  0  0  0  0  0  0  0  0  # atno 6908 bound_to 6896
  151.2790  135.0715  159.9216 H   0  0  0  0  0  0  0  0  0  0  0  0  # atno 6909 bound_to 6896
  145.1655  140.8900  143.3565 H   0  0  0  0  0  0  0  0  0  0  0  0  # atno 7974 bound_to 7965
  155.3473  140.3411  155.4239 H   0  0  0  0  0  0  0  0  0  0  0  0  # atno 8008 bound_to 7997
  156.1782  140.1655  156.8359 H   0  0  0  0  0  0  0  0  0  0  0  0  # atno 8009 bound_to 7997
  154.5305  140.0746  156.8318 H   0  0  0  0  0  0  0  0  0  0  0  0  # atno 8010 bound_to 7997
  139.7070  143.9170  152.2452 H   0  0  0  0  0  0  0  0  0  0  0  0  # atno 10167 bound_to 10162
  156.1933  130.6810  151.0451 H   0  0  0  0  0  0  0  0  0  0  0  0  # atno 10718 bound_to 10713
  153.0350  135.6454  154.1104 H   0  0  0  0  0  0  0  0  0  0  0  0  # atno 10763 bound_to 10752
  154.0820  135.2872  155.3290 H   0  0  0  0  0  0  0  0  0  0  0  0  # atno 10764 bound_to 10752
  154.6523  135.5421  153.7981 H   0  0  0  0  0  0  0  0  0  0  0  0  # atno 10765 bound_to 10752
  140.5651  134.0155  155.7987 H   0  0  0  0  0  0  0  0  0  0  0  0  # atno 11005 bound_to 11000
  145.0286  139.3360  143.6036 LP  0  0  0  0  0  0  0  0  0  0  0  0  # atno 17320 bound_to 7965
  146.3476  139.9615  142.8717 LP  0  0  0  0  0  0  0  0  0  0  0  0  # atno 17321 bound_to 7965
  139.9028  144.6901  150.8646 LP  0  0  0  0  0  0  0  0  0  0  0  0  # atno 17342 bound_to 10162
  140.7724  143.3501  151.2032 LP  0  0  0  0  0  0  0  0  0  0  0  0  # atno 17343 bound_to 10162
  157.6942  131.0799  150.7017 LP  0  0  0  0  0  0  0  0  0  0  0  0  # atno 17370 bound_to 10713
  156.7074  130.4641  149.5556 LP  0  0  0  0  0  0  0  0  0  0  0  0  # atno 17371 bound_to 10713
  141.1090  133.9646  157.2944 LP  0  0  0  0  0  0  0  0  0  0  0  0  # atno 17394 bound_to 11000
  139.9388  135.0193  156.8644 LP  0  0  0  0  0  0  0  0  0  0  0  0  # atno 17395 bound_to 11000

$$$$
