AV-unprocessed.smi:3250|AV-procd|sdf|12433|dock1
  -GOLD-   2272018323D 1   1.00000     0.00000
 Structure written by MMmdl.
 40 41  0  0  0  0  0  0  0  0  3 V2000
  143.7731  132.6726  149.0627 C   0  0  0  0  0  0  0  0  0  0  0  0
  144.4633  133.9548  149.5490 C   0  0  0  0  0  0  0  0  0  0  0  0
  143.7867  134.5564  150.7292 N   0  3  1  0  0  0  0  0  0  0  0  0
  143.9965  133.7912  151.9825 C   0  0  0  0  0  0  0  0  0  0  0  0
  145.3906  134.0656  152.5743 C   0  0  0  0  0  0  0  0  0  0  0  0
  145.5491  135.4635  152.7845 O   0  0  0  0  0  0  0  0  0  0  0  0
  145.4705  136.2139  151.5760 C   0  0  2  0  0  0  0  0  0  0  0  0
  145.7147  137.6907  151.9180 C   0  0  0  0  0  0  0  0  0  0  0  0
  147.0356  137.8983  152.4925 N   0  0  0  0  0  0  0  0  0  0  0  0
  147.4156  139.0504  153.1554 C   0  0  0  0  0  0  0  0  0  0  0  0
  146.5051  140.0284  153.2707 N   0  3  0  0  0  0  0  0  0  0  0  0
  146.8285  141.1774  153.9136 C   0  0  0  0  0  0  0  0  0  0  0  0
  148.1134  141.3489  154.4590 C   0  0  0  0  0  0  0  0  0  0  0  0
  149.0193  140.2872  154.3004 C   0  0  0  0  0  0  0  0  0  0  0  0
  150.2966  140.4020  154.8091 O   0  0  0  0  0  0  0  0  0  0  0  0
  150.5441  141.3988  155.7948 C   0  0  0  0  0  0  0  0  0  0  0  0
  148.6563  139.1539  153.6534 N   0  0  0  0  0  0  0  0  0  0  0  0
  144.0743  135.9976  150.9506 C   0  0  0  0  0  0  0  0  0  0  0  0
  144.3565  132.2028  148.2705 H   0  0  0  0  0  0  0  0  0  0  0  0
  142.7808  132.8680  148.6570 H   0  0  0  0  0  0  0  0  0  0  0  0
  143.6720  131.9476  149.8710 H   0  0  0  0  0  0  0  0  0  0  0  0
  145.4849  133.6919  149.8261 H   0  0  0  0  0  0  0  0  0  0  0  0
  144.5455  134.6740  148.7342 H   0  0  0  0  0  0  0  0  0  0  0  0
  143.2347  134.0949  152.7017 H   0  0  0  0  0  0  0  0  0  0  0  0
  143.8488  132.7239  151.8138 H   0  0  0  0  0  0  0  0  0  0  0  0
  145.4975  133.5533  153.5305 H   0  0  0  0  0  0  0  0  0  0  0  0
  146.1806  133.6882  151.9237 H   0  0  0  0  0  0  0  0  0  0  0  0
  146.2445  135.8802  150.8832 H   0  0  0  0  0  0  0  0  0  0  0  0
  145.6396  138.2950  151.0131 H   0  0  0  0  0  0  0  0  0  0  0  0
  144.9511  138.0510  152.6086 H   0  0  0  0  0  0  0  0  0  0  0  0
  147.7240  137.1664  152.3921 H   0  0  0  0  0  0  0  0  0  0  0  0
  146.0480  141.9221  153.9700 H   0  0  0  0  0  0  0  0  0  0  0  0
  148.3917  142.2567  154.9744 H   0  0  0  0  0  0  0  0  0  0  0  0
  151.5890  141.3512  156.1017 H   0  0  0  0  0  0  0  0  0  0  0  0
  149.9317  141.2406  156.6839 H   0  0  0  0  0  0  0  0  0  0  0  0
  150.3587  142.4009  155.4056 H   0  0  0  0  0  0  0  0  0  0  0  0
  143.9728  136.5630  150.0253 H   0  0  0  0  0  0  0  0  0  0  0  0
  143.3128  136.3903  151.6260 H   0  0  0  0  0  0  0  0  0  0  0  0
  142.7991  134.4865  150.5274 H   0  0  0  0  0  0  0  0  0  0  0  0
  145.5684  139.9218  152.8807 H   0  0  0  0  0  0  0  0  0  0  0  0
  1  2  1  0  0  0  0
  1 19  1  0  0  0  0
  1 20  1  0  0  0  0
  1 21  1  0  0  0  0
  2  3  1  0  0  0  0
  2 22  1  0  0  0  0
  2 23  1  0  0  0  0
  3 18  1  0  0  0  0
  3  4  1  0  0  0  0
  3 39  1  0  0  0  0
  4  5  1  0  0  0  0
  4 24  1  0  0  0  0
  4 25  1  0  0  0  0
  5  6  1  0  0  0  0
  5 26  1  0  0  0  0
  5 27  1  0  0  0  0
  6  7  1  0  0  0  0
  7  8  1  0  0  0  0
  7 18  1  0  0  0  0
  7 28  1  0  0  0  0
  8  9  1  0  0  0  0
  8 29  1  0  0  0  0
  8 30  1  0  0  0  0
  9 10  1  0  0  0  0
  9 31  1  0  0  0  0
 10 17  1  0  0  0  0
 10 11  2  0  0  0  0
 11 12  1  0  0  0  0
 11 40  1  0  0  0  0
 12 13  2  0  0  0  0
 12 32  1  0  0  0  0
 13 14  1  0  0  0  0
 13 33  1  0  0  0  0
 14 15  1  0  0  0  0
 14 17  2  0  0  0  0
 15 16  1  0  0  0  0
 16 34  1  0  0  0  0
 16 35  1  0  0  0  0
 16 36  1  0  0  0  0
 18 37  1  0  0  0  0
 18 38  1  0  0  0  0
M  CHG  1   3   1
M  CHG  1  11   1
M  END
> <s_m_source_file>
AV-unprocessed.smi

> <i_m_source_file_index>
3250

> <i_lp_mmshare_version>
43012

> <i_f3d_flags>
0

> <s_epik_input>
W0NIM11bQ0gyXU4xW0NIMl1bQ0gyXU9bQ0BIXShbQ0gyXTEpW0NIMl1bTkhdYzJuW2NIXVtjSF1jKG4yKU9bQ0gzXQ==

> <s_epik_cmdline>
J2VwaWtfcHl0aG9uJywgJy1waCcsICc3LjAnLCAnLXRuJywgJzgnLCAnLW1hJywgJzIwMCcsICctbWV0YWxfYmluZGluZycsICctaW1hZScsICc8aW5maWxlLm1hZT4nLCAnLW9tYWUnLCAnPG91dGZpbGUubWFlPic=

> <r_lp_tautomer_probability>
0.999985

> <r_epik_Ionization_Penalty>
2.24691

> <r_epik_Ionization_Penalty_Charging>
2.24686

> <r_epik_Ionization_Penalty_Neutral>
4.52111e-05

> <r_epik_State_Penalty>
2.24709

> <r_epik_Charging_Adjusted_Penalty>
4.49395

> <i_epik_Tot_Q>
2

> <i_epik_Tot_abs_Q>
2

> <r_epik_Metal_State_Penalty>
2.26327

> <b_epik_Metal_Only>
0

> <s_lp_Force_Field>
OPLS_2005

> <r_lp_Energy>
20.5595

> <b_lp_Chiralities_Consistent>
1

> <s_lp_Variant>
AV-unprocessed.smi:3250-9

> <Gold.Version>
5.8.1

> <Gold.Id.Protein>
6NUR|6NUR_protein|mol2

> <Gold.PLP.Fitness>
48.5874

> <Gold.PLP.PLP>
-28.6670

> <Gold.PLP.part.hbond>
-4.0000

> <Gold.PLP.part.metal>
0.0000

> <Gold.PLP.part.buried>
1.6582

> <Gold.PLP.part.nonpolar>
-28.3338

> <Gold.PLP.part.repulsive>
2.0292

> <Gold.PLP.ligand.clash>
0.0000

> <Gold.PLP.ligand.torsion>
0.4744

> <Gold.PLP.Chemscore.Hbond>
6.9500

> <Gold.PLP.Chemscore.CHOScore>
0.0000

> <Gold.PLP.Chemscore.Metal>
0.0000

> <Gold.Chemscore.Hbonds>
donor molecule, donor type, donor heavy atom, donor atom, acceptor molecule, acceptor atom, score
      L1  H     3    39       P1 10186  1.98
      L1  H     9    31       P1  7948  2.00
      L1  H    11    40       P1 10175  2.00
      P1  H  7989  7998       L1    15  1.00

> <Gold.PLP.Chemscore.Internal.Correction>
0.0192

> <Gold.Rescore>
     Score         DG    S(hbond)    S(metal)    S(lipo)     H(rot)  DE(clash)    DE(int)     intcor
     15.50     -19.29       3.07        0.00      68.74       1.75       3.16       0.63       ----

> <Gold.Chemscore.Fitness>
15.5043

> <Gold.Chemscore.DG>
-19.2917

> <Gold.Chemscore.ZeroCoef>
-5.4800

> <Gold.Chemscore.Hbond>
3.0708

> <Gold.Chemscore.Metal>
0.0000

> <Gold.Chemscore.Lipo>
68.7421

> <Gold.Chemscore.Internal_Hbond>
0.0000

> <Gold.Chemscore.DEClash>
3.1573

> <Gold.Chemscore.DEInternal>
0.6301

> <Gold.Chemscore.Rot>
1.7530

> <Gold.Chemscore.Internal.Correction>
   9.000000E+99

> <Gold.Chemscore.Hbonds>
donor molecule, donor type, donor heavy atom, donor atom, acceptor molecule, acceptor atom, score
      L1  H     3    39       P1 10186  0.41
      L1  H     9    31       P1  7948  0.99
      L1  H    11    40       P1 10175  0.94
      P1  H  7989  7998       L1    15  0.21

> <Gold.Chemscore.Hbond.Weighted>
-10.2565

> <Gold.Chemscore.Metal.Weighted>
-0.0000

> <Gold.Chemscore.Lipo.Weighted>
-8.0428

> <Gold.Chemscore.Internal_Hbond.Weighted>
0.0000

> <Gold.Chemscore.DEClash.Weighted>
3.1573

> <Gold.Chemscore.DEInternal.Weighted>
0.6301

> <Gold.Chemscore.Rot.Weighted>
4.4876

> <Gold.Chemscore.Internal.Correction.Weighted>
   9.000000E+99

> <Gold.Protein.RotatedTorsions>
[ 6907 6896 6895 6894 ] final   36.04 input  -60.11 | X-H torsion
[ 7974 7965 7964 7962 ] final  -60.26 input  175.53 | X-H torsion
[ 8008 7997 7996 7995 ] final  -28.18 input   59.86 | X-H torsion
[ 10167 10162 10161 10158 ] final   65.31 input  -65.29 | X-H torsion
[ 10718 10713 10712 10709 ] final  162.28 input   66.30 | X-H torsion
[ 10763 10752 10751 10750 ] final -145.76 input  -60.55 | X-H torsion
[ 11005 11000 10999 10996 ] final -121.18 input  -57.11 | X-H torsion

> <Gold.Protein.ActiveResidues>
 VAL166  LYS551  ARG553  GLY616  TRP617  ASP618  TYR619  PRO620  LYS621  CYS622 
 ASP623  PHE694  ASN695  SER759  ASP760  ASP761  ALA762  ILE779  LEU786  VAL792 
 PHE793  MET794  SER795  GLU796  ALA797  LYS798  CYS799  TRP800  GLU811  SER814 

> <Gold.Protein.RotatedAtoms>
  152.1244  134.9182  160.0561 H   0  0  0  0  0  0  0  0  0  0  0  0  # atno 6907 bound_to 6896
  152.0310  133.3932  159.4305 H   0  0  0  0  0  0  0  0  0  0  0  0  # atno 6908 bound_to 6896
  150.6851  134.3442  159.4924 H   0  0  0  0  0  0  0  0  0  0  0  0  # atno 6909 bound_to 6896
  145.8176  140.8560  143.0149 H   0  0  0  0  0  0  0  0  0  0  0  0  # atno 7974 bound_to 7965
  154.4344  140.1852  156.1049 H   0  0  0  0  0  0  0  0  0  0  0  0  # atno 8008 bound_to 7997
  156.0263  140.3335  155.7067 H   0  0  0  0  0  0  0  0  0  0  0  0  # atno 8009 bound_to 7997
  155.5903  140.0630  157.2751 H   0  0  0  0  0  0  0  0  0  0  0  0  # atno 8010 bound_to 7997
  140.1127  144.4803  150.6968 H   0  0  0  0  0  0  0  0  0  0  0  0  # atno 10167 bound_to 10162
  157.1247  131.0501  151.2399 H   0  0  0  0  0  0  0  0  0  0  0  0  # atno 10718 bound_to 10713
  154.8368  135.3404  154.6555 H   0  0  0  0  0  0  0  0  0  0  0  0  # atno 10763 bound_to 10752
  153.7169  135.6960  153.5027 H   0  0  0  0  0  0  0  0  0  0  0  0  # atno 10764 bound_to 10752
  153.2410  135.4384  155.0651 H   0  0  0  0  0  0  0  0  0  0  0  0  # atno 10765 bound_to 10752
  141.0089  134.0294  157.3440 H   0  0  0  0  0  0  0  0  0  0  0  0  # atno 11005 bound_to 11000
  144.6751  140.0487  143.7479 LP  0  0  0  0  0  0  0  0  0  0  0  0  # atno 17320 bound_to 7965
  145.9710  139.2869  143.1099 LP  0  0  0  0  0  0  0  0  0  0  0  0  # atno 17321 bound_to 7965
  140.6917  143.2379  151.5114 LP  0  0  0  0  0  0  0  0  0  0  0  0  # atno 17342 bound_to 10162
  139.5611  144.2155  152.1692 LP  0  0  0  0  0  0  0  0  0  0  0  0  # atno 17343 bound_to 10162
  157.4445  130.7563  149.7098 LP  0  0  0  0  0  0  0  0  0  0  0  0  # atno 17370 bound_to 10713
  155.9821  130.4013  150.3437 LP  0  0  0  0  0  0  0  0  0  0  0  0  # atno 17371 bound_to 10713
  139.9078  135.0184  156.7564 LP  0  0  0  0  0  0  0  0  0  0  0  0  # atno 17394 bound_to 11000
  140.6767  133.9511  155.7887 LP  0  0  0  0  0  0  0  0  0  0  0  0  # atno 17395 bound_to 11000

$$$$
