AV-unprocessed.smi:2706|AV-procd|sdf|10452|dock6
  -GOLD-   2272014493D 1   1.00000     0.00000
 Structure written by MMmdl.
 43 46  0  0  0  0  0  0  0  0  1 V2000
  151.8925  145.2765  160.9068 C   0  0  0  0  0  0  0  0  0  0  0  0
  151.6728  144.2891  159.8548 N   0  0  0  0  0  0  0  0  0  0  0  0
  150.5794  144.6077  158.9438 C   0  0  0  0  0  0  0  0  0  0  0  0
  152.4047  143.1063  159.7347 C   0  0  0  0  0  0  0  0  0  0  0  0
  153.3849  142.8013  160.6144 C   0  0  0  0  0  0  0  0  0  0  0  0
  154.1276  141.5654  160.4764 C   0  0  0  0  0  0  0  0  0  0  0  0
  153.8689  140.7037  159.4734 C   0  0  0  0  0  0  0  0  0  0  0  0
  152.8395  140.9928  158.4928 C   0  0  0  0  0  0  0  0  0  0  0  0
  152.5918  140.1457  157.5334 N   0  0  0  0  0  0  0  0  0  0  0  0
  151.6982  140.4054  156.4944 C   0  0  0  0  0  0  0  0  0  0  0  0
  151.9859  140.2203  155.3124 O   0  0  0  0  0  0  0  0  0  0  0  0
  150.5302  140.9817  156.8468 N   0  0  0  0  0  0  0  0  0  0  0  0
  149.4807  141.3610  155.9575 C   0  0  2  0  0  0  0  0  0  0  0  0
  148.1601  140.6323  156.0932 C   0  0  1  0  0  0  0  0  0  0  0  0
  146.8362  140.9990  155.4267 C   0  0  1  0  0  0  0  0  0  0  0  0
  146.9225  142.3716  154.7267 C   0  0  0  0  0  0  0  0  0  0  0  0
  147.8482  142.0756  153.5255 C   0  0  0  0  0  0  0  0  0  0  0  0
  148.1619  140.5764  153.7088 C   0  0  2  0  0  0  0  0  0  0  0  0
  146.8201  140.0631  154.2222 C   0  0  0  0  0  0  0  0  0  0  0  0
  149.0716  140.3431  154.9127 C   0  0  1  0  0  0  0  0  0  0  0  0
  152.1452  142.1999  158.7027 N   0  0  0  0  0  0  0  0  0  0  0  0
  152.8471  145.7816  160.7573 H   0  0  0  0  0  0  0  0  0  0  0  0
  151.9063  144.7953  161.8851 H   0  0  0  0  0  0  0  0  0  0  0  0
  151.1100  146.0353  160.9295 H   0  0  0  0  0  0  0  0  0  0  0  0
  149.6768  144.0711  159.2373 H   0  0  0  0  0  0  0  0  0  0  0  0
  150.8296  144.3235  157.9220 H   0  0  0  0  0  0  0  0  0  0  0  0
  150.3554  145.6748  158.9348 H   0  0  0  0  0  0  0  0  0  0  0  0
  153.6386  143.4602  161.4312 H   0  0  0  0  0  0  0  0  0  0  0  0
  154.8997  141.3292  161.1936 H   0  0  0  0  0  0  0  0  0  0  0  0
  154.4548  139.7971  159.4242 H   0  0  0  0  0  0  0  0  0  0  0  0
  150.3760  141.1616  157.8284 H   0  0  0  0  0  0  0  0  0  0  0  0
  149.4546  142.4090  155.6695 H   0  0  0  0  0  0  0  0  0  0  0  0
  148.0917  139.8424  156.8395 H   0  0  0  0  0  0  0  0  0  0  0  0
  145.9884  140.8924  156.1039 H   0  0  0  0  0  0  0  0  0  0  0  0
  145.9388  142.6900  154.3793 H   0  0  0  0  0  0  0  0  0  0  0  0
  147.3072  143.1538  155.3817 H   0  0  0  0  0  0  0  0  0  0  0  0
  147.3195  142.2468  152.5870 H   0  0  0  0  0  0  0  0  0  0  0  0
  148.7462  142.6939  153.5129 H   0  0  0  0  0  0  0  0  0  0  0  0
  148.5312  140.0820  152.8098 H   0  0  0  0  0  0  0  0  0  0  0  0
  146.8400  139.0068  154.4963 H   0  0  0  0  0  0  0  0  0  0  0  0
  145.9888  140.2409  153.5372 H   0  0  0  0  0  0  0  0  0  0  0  0
  149.5614  139.3711  154.9301 H   0  0  0  0  0  0  0  0  0  0  0  0
  151.3949  142.4625  158.0801 H   0  0  0  0  0  0  0  0  0  0  0  0
  1  2  1  0  0  0  0
  1 22  1  0  0  0  0
  1 23  1  0  0  0  0
  1 24  1  0  0  0  0
  2  3  1  0  0  0  0
  2  4  1  0  0  0  0
  3 25  1  0  0  0  0
  3 26  1  0  0  0  0
  3 27  1  0  0  0  0
  4 21  1  0  0  0  0
  4  5  2  0  0  0  0
  5  6  1  0  0  0  0
  5 28  1  0  0  0  0
  6  7  2  0  0  0  0
  6 29  1  0  0  0  0
  7  8  1  0  0  0  0
  7 30  1  0  0  0  0
  8  9  2  0  0  0  0
  8 21  1  0  0  0  0
  9 10  1  0  0  0  0
 10 11  2  0  0  0  0
 10 12  1  0  0  0  0
 12 13  1  0  0  0  0
 12 31  1  0  0  0  0
 13 20  1  0  0  0  0
 13 14  1  0  0  0  0
 13 32  1  0  0  0  0
 14 20  1  0  0  0  0
 14 15  1  0  0  0  0
 14 33  1  0  0  0  0
 15 19  1  0  0  0  0
 15 16  1  0  0  0  0
 15 34  1  0  0  0  0
 16 17  1  0  0  0  0
 16 35  1  0  0  0  0
 16 36  1  0  0  0  0
 17 18  1  0  0  0  0
 17 37  1  0  0  0  0
 17 38  1  0  0  0  0
 18 19  1  0  0  0  0
 18 20  1  0  0  0  0
 18 39  1  0  0  0  0
 19 40  1  0  0  0  0
 19 41  1  0  0  0  0
 20 42  1  0  0  0  0
 21 43  1  0  0  0  0
M  END
> <s_m_source_file>
AV-unprocessed.smi

> <i_m_source_file_index>
2706

> <i_lp_mmshare_version>
43012

> <i_f3d_flags>
0

> <s_epik_input>
W0NIM11OKFtDSDNdKWMxW2NIXVtjSF1bY0hdYyhuMSlbTkhdQyg9TylbTkhdW0NASF0yW0NAQEhdM1tDQEBIXShbQ0gyXTQpW0NIMl1bQ0gyXVtDQEBIXTRbQ0BIXTIz

> <s_epik_cmdline>
J2VwaWtfcHl0aG9uJywgJy1waCcsICc3LjAnLCAnLXRuJywgJzgnLCAnLW1hJywgJzIwMCcsICctbWV0YWxfYmluZGluZycsICctaW1hZScsICc8aW5maWxlLm1hZT4nLCAnLW9tYWUnLCAnPG91dGZpbGUubWFlPic=

> <r_lp_tautomer_probability>
0.999994

> <r_epik_Ionization_Penalty>
2.07242

> <r_epik_Ionization_Penalty_Charging>
2.07242

> <r_epik_Ionization_Penalty_Neutral>
9.73808e-07

> <r_epik_State_Penalty>
3.96009

> <r_epik_Charging_Adjusted_Penalty>
6.03251

> <i_epik_Tot_Q>
0

> <i_epik_Tot_abs_Q>
0

> <r_epik_Metal_State_Penalty>
3.98849

> <b_epik_Metal_Only>
1

> <s_lp_Force_Field>
OPLS_2005

> <r_lp_Energy>
91.2091

> <b_lp_Chiralities_Consistent>
1

> <s_lp_Variant>
AV-unprocessed.smi:2706-9

> <Gold.Version>
5.8.1

> <Gold.Id.Protein>
6NUR|6NUR_protein|mol2

> <Gold.PLP.Fitness>
42.1730

> <Gold.PLP.PLP>
-37.9560

> <Gold.PLP.part.hbond>
-2.0000

> <Gold.PLP.part.metal>
0.0000

> <Gold.PLP.part.buried>
-2.1806

> <Gold.PLP.part.nonpolar>
-31.7155

> <Gold.PLP.part.repulsive>
0.1189

> <Gold.PLP.ligand.clash>
0.0000

> <Gold.PLP.ligand.torsion>
0.4806

> <Gold.PLP.Chemscore.Hbond>
1.7119

> <Gold.PLP.Chemscore.CHOScore>
0.0000

> <Gold.PLP.Chemscore.Metal>
0.0000

> <Gold.Chemscore.Hbonds>
donor molecule, donor type, donor heavy atom, donor atom, acceptor molecule, acceptor atom, score
      P1  H  7989  7998       L1    11  0.77
      P1  H  7997  8009       L1     9  1.00

> <Gold.PLP.Chemscore.Internal.Correction>
0.0423

> <Gold.Rescore>
     Score         DG    S(hbond)    S(metal)    S(lipo)     H(rot)  DE(clash)    DE(int)     intcor
     12.70     -16.36       0.86        0.00      90.34       1.00       0.46       3.20       ----

> <Gold.Chemscore.Fitness>
12.6993

> <Gold.Chemscore.DG>
-16.3638

> <Gold.Chemscore.ZeroCoef>
-5.4800

> <Gold.Chemscore.Hbond>
0.8603

> <Gold.Chemscore.Metal>
0.0000

> <Gold.Chemscore.Lipo>
90.3443

> <Gold.Chemscore.Internal_Hbond>
0.0000

> <Gold.Chemscore.DEClash>
0.4609

> <Gold.Chemscore.DEInternal>
3.2036

> <Gold.Chemscore.Rot>
1.0000

> <Gold.Chemscore.Internal.Correction>
   9.000000E+99

> <Gold.Chemscore.Hbonds>
donor molecule, donor type, donor heavy atom, donor atom, acceptor molecule, acceptor atom, score
      P1  H  7989  7998       L1    11  0.75
      P1  H  7997  8009       L1     9  0.11

> <Gold.Chemscore.Hbond.Weighted>
-2.8736

> <Gold.Chemscore.Metal.Weighted>
-0.0000

> <Gold.Chemscore.Lipo.Weighted>
-10.5703

> <Gold.Chemscore.Internal_Hbond.Weighted>
0.0000

> <Gold.Chemscore.DEClash.Weighted>
0.4609

> <Gold.Chemscore.DEInternal.Weighted>
3.2036

> <Gold.Chemscore.Rot.Weighted>
2.5600

> <Gold.Chemscore.Internal.Correction.Weighted>
   9.000000E+99

> <Gold.Protein.RotatedTorsions>
[ 6907 6896 6895 6894 ] final -114.10 input  -60.11 | X-H torsion
[ 7974 7965 7964 7962 ] final   95.49 input  175.53 | X-H torsion
[ 8008 7997 7996 7995 ] final -179.35 input   59.86 | X-H torsion
[ 10167 10162 10161 10158 ] final  -58.61 input  -65.29 | X-H torsion
[ 10718 10713 10712 10709 ] final    7.89 input   66.30 | X-H torsion
[ 10763 10752 10751 10750 ] final  124.55 input  -60.55 | X-H torsion
[ 11005 11000 10999 10996 ] final -149.04 input  -57.11 | X-H torsion

> <Gold.Protein.ActiveResidues>
 VAL166  LYS551  ARG553  GLY616  TRP617  ASP618  TYR619  PRO620  LYS621  CYS622 
 ASP623  PHE694  ASN695  SER759  ASP760  ASP761  ALA762  ILE779  LEU786  VAL792 
 PHE793  MET794  SER795  GLU796  ALA797  LYS798  CYS799  TRP800  GLU811  SER814 

> <Gold.Protein.RotatedAtoms>
  150.7877  133.8850  159.3296 H   0  0  0  0  0  0  0  0  0  0  0  0  # atno 6907 bound_to 6896
  151.6696  135.0976  160.0205 H   0  0  0  0  0  0  0  0  0  0  0  0  # atno 6908 bound_to 6896
  152.3944  133.6687  159.6300 H   0  0  0  0  0  0  0  0  0  0  0  0  # atno 6909 bound_to 6896
  145.4515  139.2293  143.3037 H   0  0  0  0  0  0  0  0  0  0  0  0  # atno 7974 bound_to 7965
  156.0295  140.1279  157.0273 H   0  0  0  0  0  0  0  0  0  0  0  0  # atno 8008 bound_to 7997
  154.4344  140.1052  156.6149 H   0  0  0  0  0  0  0  0  0  0  0  0  # atno 8009 bound_to 7997
  155.5828  140.3468  155.4547 H   0  0  0  0  0  0  0  0  0  0  0  0  # atno 8010 bound_to 7997
  140.6187  143.2411  151.5535 H   0  0  0  0  0  0  0  0  0  0  0  0  # atno 10167 bound_to 10162
  156.9436  130.5870  149.5653 H   0  0  0  0  0  0  0  0  0  0  0  0  # atno 10718 bound_to 10713
  153.6632  135.3343  155.3133 H   0  0  0  0  0  0  0  0  0  0  0  0  # atno 10763 bound_to 10752
  154.8509  135.4368  154.1782 H   0  0  0  0  0  0  0  0  0  0  0  0  # atno 10764 bound_to 10752
  153.2754  135.7004  153.7514 H   0  0  0  0  0  0  0  0  0  0  0  0  # atno 10765 bound_to 10752
  140.7549  134.3364  157.5116 H   0  0  0  0  0  0  0  0  0  0  0  0  # atno 11005 bound_to 11000
  146.2501  140.5275  142.8897 LP  0  0  0  0  0  0  0  0  0  0  0  0  # atno 17320 bound_to 7965
  144.8058  140.6297  143.6448 LP  0  0  0  0  0  0  0  0  0  0  0  0  # atno 17321 bound_to 7965
  139.5420  144.2623  152.1369 LP  0  0  0  0  0  0  0  0  0  0  0  0  # atno 17342 bound_to 10162
  140.1838  144.4819  150.6514 LP  0  0  0  0  0  0  0  0  0  0  0  0  # atno 17343 bound_to 10162
  156.0393  130.5478  150.8732 LP  0  0  0  0  0  0  0  0  0  0  0  0  # atno 17370 bound_to 10713
  157.5769  131.0946  150.9332 LP  0  0  0  0  0  0  0  0  0  0  0  0  # atno 17371 bound_to 10713
  139.8781  134.9166  156.3158 LP  0  0  0  0  0  0  0  0  0  0  0  0  # atno 17394 bound_to 11000
  140.9716  133.7323  156.0543 LP  0  0  0  0  0  0  0  0  0  0  0  0  # atno 17395 bound_to 11000

$$$$
