AV-unprocessed.smi:2397|AV-procd|sdf|9495|dock7
  -GOLD-   2272013123D 1   1.00000     0.00000
 Structure written by MMmdl.
 37 38  0  0  0  0  0  0  0  0  2 V2000
  146.0631  141.9043  155.3312 C   0  0  0  0  0  0  0  0  0  0  0  0
  147.3581  141.8069  154.5102 C   0  0  0  0  0  0  0  0  0  0  0  0
  147.2116  140.9293  153.2578 C   0  0  0  0  0  0  0  0  0  0  0  0
  148.5405  141.3813  155.3680 C   0  0  0  0  0  0  0  0  0  0  0  0
  149.4975  142.2782  155.6535 N   0  3  0  0  0  0  0  0  0  0  0  0
  150.5505  141.9135  156.4244 C   0  0  0  0  0  0  0  0  0  0  0  0
  150.6432  140.6036  156.9301 C   0  0  0  0  0  0  0  0  0  0  0  0
  149.6044  139.7119  156.6004 C   0  0  0  0  0  0  0  0  0  0  0  0
  149.6365  138.3810  157.0706 N   0  0  0  0  0  0  0  0  0  0  0  0
  149.5424  138.3506  158.5299 C   0  0  0  0  0  0  0  0  0  0  0  0
  149.4201  136.9102  159.0448 C   0  0  0  0  0  0  0  0  0  0  0  0
  150.5250  136.1564  158.5695 O   0  0  0  0  0  0  0  0  0  0  0  0
  150.5221  136.0697  157.1506 C   0  0  0  0  0  0  0  0  0  0  0  0
  150.6583  137.4733  156.5130 C   0  0  1  0  0  0  0  0  0  0  0  0
  150.6424  137.2902  154.9808 C   0  0  0  0  0  0  0  0  0  0  0  0
  149.5552  137.6761  154.3045 N   0  0  0  0  0  0  0  0  0  0  0  0
  151.6222  136.8161  154.4110 O   0  0  0  0  0  0  0  0  0  0  0  0
  148.5799  140.1198  155.8173 N   0  0  0  0  0  0  0  0  0  0  0  0
  146.1812  142.5920  156.1691 H   0  0  0  0  0  0  0  0  0  0  0  0
  145.7726  140.9337  155.7354 H   0  0  0  0  0  0  0  0  0  0  0  0
  145.2369  142.2682  154.7199 H   0  0  0  0  0  0  0  0  0  0  0  0
  147.5714  142.8160  154.1534 H   0  0  0  0  0  0  0  0  0  0  0  0
  148.1250  140.9397  152.6623 H   0  0  0  0  0  0  0  0  0  0  0  0
  146.3999  141.2847  152.6223 H   0  0  0  0  0  0  0  0  0  0  0  0
  146.9959  139.8930  153.5200 H   0  0  0  0  0  0  0  0  0  0  0  0
  151.2833  142.6838  156.6145 H   0  0  0  0  0  0  0  0  0  0  0  0
  151.4748  140.3015  157.5504 H   0  0  0  0  0  0  0  0  0  0  0  0
  150.4303  138.8198  158.9578 H   0  0  0  0  0  0  0  0  0  0  0  0
  148.6820  138.9232  158.8777 H   0  0  0  0  0  0  0  0  0  0  0  0
  149.4263  136.8989  160.1348 H   0  0  0  0  0  0  0  0  0  0  0  0
  148.4808  136.4549  158.7261 H   0  0  0  0  0  0  0  0  0  0  0  0
  151.3540  135.4318  156.8492 H   0  0  0  0  0  0  0  0  0  0  0  0
  149.6092  135.5708  156.8187 H   0  0  0  0  0  0  0  0  0  0  0  0
  151.6398  137.8639  156.7889 H   0  0  0  0  0  0  0  0  0  0  0  0
  149.5284  137.5864  153.2993 H   0  0  0  0  0  0  0  0  0  0  0  0
  148.7723  138.0760  154.8019 H   0  0  0  0  0  0  0  0  0  0  0  0
  149.4396  143.2324  155.2966 H   0  0  0  0  0  0  0  0  0  0  0  0
  1  2  1  0  0  0  0
  1 19  1  0  0  0  0
  1 20  1  0  0  0  0
  1 21  1  0  0  0  0
  2  3  1  0  0  0  0
  2  4  1  0  0  0  0
  2 22  1  0  0  0  0
  3 23  1  0  0  0  0
  3 24  1  0  0  0  0
  3 25  1  0  0  0  0
  4 18  1  0  0  0  0
  4  5  2  0  0  0  0
  5  6  1  0  0  0  0
  5 37  1  0  0  0  0
  6  7  2  0  0  0  0
  6 26  1  0  0  0  0
  7  8  1  0  0  0  0
  7 27  1  0  0  0  0
  8  9  1  0  0  0  0
  8 18  2  0  0  0  0
  9 14  1  0  0  0  0
  9 10  1  0  0  0  0
 10 11  1  0  0  0  0
 10 28  1  0  0  0  0
 10 29  1  0  0  0  0
 11 12  1  0  0  0  0
 11 30  1  0  0  0  0
 11 31  1  0  0  0  0
 12 13  1  0  0  0  0
 13 14  1  0  0  0  0
 13 32  1  0  0  0  0
 13 33  1  0  0  0  0
 14 15  1  0  0  0  0
 14 34  1  0  0  0  0
 15 16  1  0  0  0  0
 15 17  2  0  0  0  0
 16 35  1  0  0  0  0
 16 36  1  0  0  0  0
M  CHG  1   5   1
M  END
> <s_m_source_file>
AV-unprocessed.smi

> <i_m_source_file_index>
2397

> <i_lp_mmshare_version>
43012

> <i_f3d_flags>
0

> <s_epik_input>
W0NIM11bQ0hdKFtDSDNdKWMxbltjSF1bY0hdYyhuMSlOMltDSDJdW0NIMl1PW0NIMl1bQ0BIXTJDKD1PKVtOSDJd

> <s_epik_cmdline>
J2VwaWtfcHl0aG9uJywgJy1waCcsICc3LjAnLCAnLXRuJywgJzgnLCAnLW1hJywgJzIwMCcsICctbWV0YWxfYmluZGluZycsICctaW1hZScsICc8aW5maWxlLm1hZT4nLCAnLW9tYWUnLCAnPG91dGZpbGUubWFlPic=

> <r_lp_tautomer_probability>
0.999336

> <r_epik_Ionization_Penalty>
1.74009

> <r_epik_Ionization_Penalty_Charging>
1.74009

> <r_epik_Ionization_Penalty_Neutral>
2.46902e-07

> <r_epik_State_Penalty>
1.8491

> <r_epik_Charging_Adjusted_Penalty>
3.5892

> <i_epik_Tot_Q>
1

> <i_epik_Tot_abs_Q>
1

> <r_epik_Metal_State_Penalty>
1.87997

> <b_epik_Metal_Only>
0

> <s_lp_Force_Field>
OPLS_2005

> <r_lp_Energy>
12.3684

> <b_lp_Chiralities_Consistent>
1

> <s_lp_Variant>
AV-unprocessed.smi:2397-3

> <Gold.Version>
5.8.1

> <Gold.Id.Protein>
6NUR|6NUR_protein|mol2

> <Gold.PLP.Fitness>
37.0250

> <Gold.PLP.PLP>
-24.5054

> <Gold.PLP.part.hbond>
-3.9174

> <Gold.PLP.part.metal>
0.0000

> <Gold.PLP.part.buried>
-6.1261

> <Gold.PLP.part.nonpolar>
-16.7606

> <Gold.PLP.part.repulsive>
0.8241

> <Gold.PLP.ligand.clash>
0.0000

> <Gold.PLP.ligand.torsion>
0.5834

> <Gold.PLP.Chemscore.Hbond>
4.4720

> <Gold.PLP.Chemscore.CHOScore>
0.0000

> <Gold.PLP.Chemscore.Metal>
0.0000

> <Gold.Chemscore.Hbonds>
donor molecule, donor type, donor heavy atom, donor atom, acceptor molecule, acceptor atom, score
      L1  H     5    37       P1  8028  1.76
      L1  H    16    35       P1  7948  0.82
      P1  H  6896  6908       L1    12  0.91
      P1  H 10752 10763       L1    17  1.00

> <Gold.PLP.Chemscore.Internal.Correction>
0.2704

> <Gold.Rescore>
     Score         DG    S(hbond)    S(metal)    S(lipo)     H(rot)  DE(clash)    DE(int)     intcor
     17.80     -18.53       3.80        0.00      41.78       1.77       0.02       0.71       ----

> <Gold.Chemscore.Fitness>
17.7965

> <Gold.Chemscore.DG>
-18.5264

> <Gold.Chemscore.ZeroCoef>
-5.4800

> <Gold.Chemscore.Hbond>
3.8007

> <Gold.Chemscore.Metal>
0.0000

> <Gold.Chemscore.Lipo>
41.7755

> <Gold.Chemscore.Internal_Hbond>
0.0000

> <Gold.Chemscore.DEClash>
0.0174

> <Gold.Chemscore.DEInternal>
0.7125

> <Gold.Chemscore.Rot>
1.7717

> <Gold.Chemscore.Internal.Correction>
   9.000000E+99

> <Gold.Chemscore.Hbonds>
donor molecule, donor type, donor heavy atom, donor atom, acceptor molecule, acceptor atom, score
      L1  H     5    37       P1  8028  0.86
      L1  H    16    35       P1  7948  0.67
      P1  H  6896  6908       L1    12  0.67
      P1  H 10752 10763       L1    17  1.00

> <Gold.Chemscore.Hbond.Weighted>
-12.6944

> <Gold.Chemscore.Metal.Weighted>
-0.0000

> <Gold.Chemscore.Lipo.Weighted>
-4.8877

> <Gold.Chemscore.Internal_Hbond.Weighted>
0.0000

> <Gold.Chemscore.DEClash.Weighted>
0.0174

> <Gold.Chemscore.DEInternal.Weighted>
0.7125

> <Gold.Chemscore.Rot.Weighted>
4.5357

> <Gold.Chemscore.Internal.Correction.Weighted>
   9.000000E+99

> <Gold.Protein.RotatedTorsions>
[ 6907 6896 6895 6894 ] final -163.46 input  -60.11 | X-H torsion
[ 7974 7965 7964 7962 ] final    4.33 input  175.53 | X-H torsion
[ 8008 7997 7996 7995 ] final  118.73 input   59.86 | X-H torsion
[ 10167 10162 10161 10158 ] final  174.76 input  -65.29 | X-H torsion
[ 10718 10713 10712 10709 ] final  -25.62 input   66.30 | X-H torsion
[ 10763 10752 10751 10750 ] final   49.62 input  -60.55 | X-H torsion
[ 11005 11000 10999 10996 ] final   81.17 input  -57.11 | X-H torsion

> <Gold.Protein.ActiveResidues>
 VAL166  LYS551  ARG553  GLY616  TRP617  ASP618  TYR619  PRO620  LYS621  CYS622 
 ASP623  PHE694  ASN695  SER759  ASP760  ASP761  ALA762  ILE779  LEU786  VAL792 
 PHE793  MET794  SER795  GLU796  ALA797  LYS798  CYS799  TRP800  GLU811  SER814 

> <Gold.Protein.RotatedAtoms>
  151.3964  133.3772  159.2726 H   0  0  0  0  0  0  0  0  0  0  0  0  # atno 6907 bound_to 6896
  150.9466  134.8871  159.7656 H   0  0  0  0  0  0  0  0  0  0  0  0  # atno 6908 bound_to 6896
  152.5094  134.3917  159.9438 H   0  0  0  0  0  0  0  0  0  0  0  0  # atno 6909 bound_to 6896
  146.2444  140.0550  142.8372 H   0  0  0  0  0  0  0  0  0  0  0  0  # atno 7974 bound_to 7965
  156.2561  140.2868  156.0881 H   0  0  0  0  0  0  0  0  0  0  0  0  # atno 8008 bound_to 7997
  155.1493  140.0397  157.2834 H   0  0  0  0  0  0  0  0  0  0  0  0  # atno 8009 bound_to 7997
  154.6472  140.2536  155.7261 H   0  0  0  0  0  0  0  0  0  0  0  0  # atno 8010 bound_to 7997
  139.5153  144.3109  152.0292 H   0  0  0  0  0  0  0  0  0  0  0  0  # atno 10167 bound_to 10162
  156.4619  130.4506  149.6923 H   0  0  0  0  0  0  0  0  0  0  0  0  # atno 10718 bound_to 10713
  152.9786  135.5906  154.4118 H   0  0  0  0  0  0  0  0  0  0  0  0  # atno 10763 bound_to 10752
  154.3752  135.2767  155.2245 H   0  0  0  0  0  0  0  0  0  0  0  0  # atno 10764 bound_to 10752
  154.4183  135.6065  153.6049 H   0  0  0  0  0  0  0  0  0  0  0  0  # atno 10765 bound_to 10752
  139.9107  134.7976  156.2006 H   0  0  0  0  0  0  0  0  0  0  0  0  # atno 11005 bound_to 11000
  145.0950  140.9309  143.4746 LP  0  0  0  0  0  0  0  0  0  0  0  0  # atno 17320 bound_to 7965
  145.0731  139.3016  143.5822 LP  0  0  0  0  0  0  0  0  0  0  0  0  # atno 17321 bound_to 7965
  140.2553  144.4125  150.6206 LP  0  0  0  0  0  0  0  0  0  0  0  0  # atno 17342 bound_to 10162
  140.6195  143.2175  151.6722 LP  0  0  0  0  0  0  0  0  0  0  0  0  # atno 17343 bound_to 10162
  156.3707  130.7529  151.2512 LP  0  0  0  0  0  0  0  0  0  0  0  0  # atno 17370 bound_to 10713
  157.7497  131.0324  150.4224 LP  0  0  0  0  0  0  0  0  0  0  0  0  # atno 17371 bound_to 10713
  141.0527  133.6880  156.1802 LP  0  0  0  0  0  0  0  0  0  0  0  0  # atno 17394 bound_to 11000
  140.6785  134.4792  157.5588 LP  0  0  0  0  0  0  0  0  0  0  0  0  # atno 17395 bound_to 11000

$$$$
