AV-unprocessed.smi:992|AV-procd|sdf|4334|dock2
  -GOLD-   22720 2233D 1   1.00000     0.00000
 Structure written by MMmdl.
 33 34  0  0  0  0  0  0  0  0  2 V2000
  151.9655  145.2025  158.8939 C   0  0  0  0  0  0  0  0  0  0  0  0
  151.2245  143.9984  159.5020 C   0  0  1  0  0  0  0  0  0  0  0  0
  150.5481  143.0943  158.4518 C   0  0  0  0  0  0  0  0  0  0  0  0
  151.5378  142.2874  157.7500 N   0  0  0  0  0  0  0  0  0  0  0  0
  150.9875  141.5265  156.7103 C   0  0  0  0  0  0  0  0  0  0  0  0
  151.3224  140.1726  156.4719 C   0  0  0  0  0  0  0  0  0  0  0  0
  150.7161  139.4894  155.3972 C   0  0  0  0  0  0  0  0  0  0  0  0
  149.7873  140.1700  154.5821 C   0  0  0  0  0  0  0  0  0  0  0  0
  149.1749  139.5205  153.5121 N   0  0  0  0  0  0  0  0  0  0  0  0
  149.4878  141.5183  154.8654 C   0  0  0  0  0  0  0  0  0  0  0  0
  150.0901  142.1368  155.9046 N   0  3  0  0  0  0  0  0  0  0  0  0
  152.3670  141.5104  158.6601 C   0  0  0  0  0  0  0  0  0  0  0  0
  153.0591  142.4452  159.6678 C   0  0  2  0  0  0  0  0  0  0  0  0
  153.8609  141.6656  160.7152 C   0  0  0  0  0  0  0  0  0  0  0  0
  152.0711  143.2177  160.3503 O   0  0  0  0  0  0  0  0  0  0  0  0
  151.2734  145.8494  158.3542 H   0  0  0  0  0  0  0  0  0  0  0  0
  152.7413  144.9013  158.1906 H   0  0  0  0  0  0  0  0  0  0  0  0
  152.4354  145.8024  159.6736 H   0  0  0  0  0  0  0  0  0  0  0  0
  150.4414  144.4034  160.1436 H   0  0  0  0  0  0  0  0  0  0  0  0
  149.8360  142.4337  158.9486 H   0  0  0  0  0  0  0  0  0  0  0  0
  149.9808  143.6967  157.7409 H   0  0  0  0  0  0  0  0  0  0  0  0
  152.0340  139.6592  157.1019 H   0  0  0  0  0  0  0  0  0  0  0  0
  150.9637  138.4557  155.2039 H   0  0  0  0  0  0  0  0  0  0  0  0
  149.3773  138.5551  153.2935 H   0  0  0  0  0  0  0  0  0  0  0  0
  148.4748  139.9778  152.9453 H   0  0  0  0  0  0  0  0  0  0  0  0
  148.7910  142.1191  154.2986 H   0  0  0  0  0  0  0  0  0  0  0  0
  151.7512  140.7828  159.1902 H   0  0  0  0  0  0  0  0  0  0  0  0
  153.1126  140.9512  158.0931 H   0  0  0  0  0  0  0  0  0  0  0  0
  153.7462  143.1082  159.1414 H   0  0  0  0  0  0  0  0  0  0  0  0
  154.6372  141.0613  160.2451 H   0  0  0  0  0  0  0  0  0  0  0  0
  153.2178  140.9979  161.2891 H   0  0  0  0  0  0  0  0  0  0  0  0
  154.3475  142.3437  161.4170 H   0  0  0  0  0  0  0  0  0  0  0  0
  149.8574  143.1131  156.0884 H   0  0  0  0  0  0  0  0  0  0  0  0
  1  2  1  0  0  0  0
  1 16  1  0  0  0  0
  1 17  1  0  0  0  0
  1 18  1  0  0  0  0
  2 15  1  0  0  0  0
  2  3  1  0  0  0  0
  2 19  1  0  0  0  0
  3  4  1  0  0  0  0
  3 20  1  0  0  0  0
  3 21  1  0  0  0  0
  4  5  1  0  0  0  0
  4 12  1  0  0  0  0
  5 11  1  0  0  0  0
  5  6  2  0  0  0  0
  6  7  1  0  0  0  0
  6 22  1  0  0  0  0
  7  8  2  0  0  0  0
  7 23  1  0  0  0  0
  8  9  1  0  0  0  0
  8 10  1  0  0  0  0
  9 24  1  0  0  0  0
  9 25  1  0  0  0  0
 10 11  2  0  0  0  0
 10 26  1  0  0  0  0
 11 33  1  0  0  0  0
 12 13  1  0  0  0  0
 12 27  1  0  0  0  0
 12 28  1  0  0  0  0
 13 14  1  0  0  0  0
 13 15  1  0  0  0  0
 13 29  1  0  0  0  0
 14 30  1  0  0  0  0
 14 31  1  0  0  0  0
 14 32  1  0  0  0  0
M  CHG  1  11   1
M  END
> <s_m_source_file>
AV-unprocessed.smi

> <i_m_source_file_index>
992

> <i_lp_mmshare_version>
43012

> <i_f3d_flags>
0

> <s_epik_input>
W0NIM11bQ0BASF0xW0NIMl1OKFtDSDJdW0NASF0oTzEpW0NIM10pYzJbY0hdW2NIXWMoW05IMl0pW2NIXW4y

> <s_epik_cmdline>
J2VwaWtfcHl0aG9uJywgJy1waCcsICc3LjAnLCAnLXRuJywgJzgnLCAnLW1hJywgJzIwMCcsICctbWV0YWxfYmluZGluZycsICctaW1hZScsICc8aW5maWxlLm1hZT4nLCAnLW9tYWUnLCAnPG91dGZpbGUubWFlPic=

> <r_lp_tautomer_probability>
0.999846

> <r_epik_Ionization_Penalty>
2.28753

> <r_epik_Ionization_Penalty_Charging>
2.28753

> <r_epik_Ionization_Penalty_Neutral>
1.09395e-07

> <r_epik_State_Penalty>
2.43729

> <r_epik_Charging_Adjusted_Penalty>
4.72482

> <i_epik_Tot_Q>
1

> <i_epik_Tot_abs_Q>
1

> <r_epik_Metal_State_Penalty>
6.52028

> <b_epik_Metal_Only>
0

> <s_lp_Force_Field>
OPLS_2005

> <r_lp_Energy>
28.0905

> <b_lp_Chiralities_Consistent>
1

> <s_lp_Variant>
AV-unprocessed.smi:992-6

> <Gold.Version>
5.8.1

> <Gold.Id.Protein>
6NUR|6NUR_protein|mol2

> <Gold.PLP.Fitness>
40.9870

> <Gold.PLP.PLP>
-35.4239

> <Gold.PLP.part.hbond>
-1.6611

> <Gold.PLP.part.metal>
0.0000

> <Gold.PLP.part.buried>
-4.3811

> <Gold.PLP.part.nonpolar>
-29.6965

> <Gold.PLP.part.repulsive>
0.3504

> <Gold.PLP.ligand.clash>
0.0000

> <Gold.PLP.ligand.torsion>
0.2638

> <Gold.PLP.Chemscore.Hbond>
2.0000

> <Gold.PLP.Chemscore.CHOScore>
0.0000

> <Gold.PLP.Chemscore.Metal>
0.0000

> <Gold.Chemscore.Hbonds>
donor molecule, donor type, donor heavy atom, donor atom, acceptor molecule, acceptor atom, score
      L1  H    11    33       P1  8028  2.00

> <Gold.PLP.Chemscore.Internal.Correction>
0.0908

> <Gold.Rescore>
     Score         DG    S(hbond)    S(metal)    S(lipo)     H(rot)  DE(clash)    DE(int)     intcor
     16.78     -17.11       1.10        0.00      89.98       1.00       0.22       0.11       ----

> <Gold.Chemscore.Fitness>
16.7800

> <Gold.Chemscore.DG>
-17.1055

> <Gold.Chemscore.ZeroCoef>
-5.4800

> <Gold.Chemscore.Hbond>
1.0952

> <Gold.Chemscore.Metal>
0.0000

> <Gold.Chemscore.Lipo>
89.9782

> <Gold.Chemscore.Internal_Hbond>
0.0000

> <Gold.Chemscore.DEClash>
0.2169

> <Gold.Chemscore.DEInternal>
0.1086

> <Gold.Chemscore.Rot>
1.0000

> <Gold.Chemscore.Internal.Correction>
   9.000000E+99

> <Gold.Chemscore.Hbonds>
donor molecule, donor type, donor heavy atom, donor atom, acceptor molecule, acceptor atom, score
      L1  H     9    25       P1  7957  0.02
      L1  H    11    33       P1  8028  0.95

> <Gold.Chemscore.Hbond.Weighted>
-3.6580

> <Gold.Chemscore.Metal.Weighted>
-0.0000

> <Gold.Chemscore.Lipo.Weighted>
-10.5275

> <Gold.Chemscore.Internal_Hbond.Weighted>
0.0000

> <Gold.Chemscore.DEClash.Weighted>
0.2169

> <Gold.Chemscore.DEInternal.Weighted>
0.1086

> <Gold.Chemscore.Rot.Weighted>
2.5600

> <Gold.Chemscore.Internal.Correction.Weighted>
   9.000000E+99

> <Gold.Protein.RotatedTorsions>
[ 6907 6896 6895 6894 ] final -144.99 input  -60.11 | X-H torsion
[ 7974 7965 7964 7962 ] final   23.70 input  175.53 | X-H torsion
[ 8008 7997 7996 7995 ] final  129.65 input   59.86 | X-H torsion
[ 10167 10162 10161 10158 ] final   52.83 input  -65.29 | X-H torsion
[ 10718 10713 10712 10709 ] final   72.29 input   66.30 | X-H torsion
[ 10763 10752 10751 10750 ] final  155.04 input  -60.55 | X-H torsion
[ 11005 11000 10999 10996 ] final  101.67 input  -57.11 | X-H torsion

> <Gold.Protein.ActiveResidues>
 VAL166  LYS551  ARG553  GLY616  TRP617  ASP618  TYR619  PRO620  LYS621  CYS622 
 ASP623  PHE694  ASN695  SER759  ASP760  ASP761  ALA762  ILE779  LEU786  VAL792 
 PHE793  MET794  SER795  GLU796  ALA797  LYS798  CYS799  TRP800  GLU811  SER814 

> <Gold.Protein.RotatedAtoms>
  151.1215  133.5100  159.2601 H   0  0  0  0  0  0  0  0  0  0  0  0  # atno 6907 bound_to 6896
  151.1856  135.0379  159.8821 H   0  0  0  0  0  0  0  0  0  0  0  0  # atno 6908 bound_to 6896
  152.5456  134.1062  159.8392 H   0  0  0  0  0  0  0  0  0  0  0  0  # atno 6909 bound_to 6896
  146.1972  139.7707  142.8788 H   0  0  0  0  0  0  0  0  0  0  0  0  # atno 7974 bound_to 7965
  156.2940  140.2615  156.2634 H   0  0  0  0  0  0  0  0  0  0  0  0  # atno 8008 bound_to 7997
  154.9766  140.0390  157.2277 H   0  0  0  0  0  0  0  0  0  0  0  0  # atno 8009 bound_to 7997
  154.7810  140.2795  155.6069 H   0  0  0  0  0  0  0  0  0  0  0  0  # atno 8010 bound_to 7997
  140.2473  144.3518  150.6360 H   0  0  0  0  0  0  0  0  0  0  0  0  # atno 10167 bound_to 10162
  157.6494  130.9571  150.0908 H   0  0  0  0  0  0  0  0  0  0  0  0  # atno 10718 bound_to 10713
  154.1620  135.2809  155.3106 H   0  0  0  0  0  0  0  0  0  0  0  0  # atno 10763 bound_to 10752
  154.6140  135.5489  153.7507 H   0  0  0  0  0  0  0  0  0  0  0  0  # atno 10764 bound_to 10752
  153.0190  135.6422  154.1761 H   0  0  0  0  0  0  0  0  0  0  0  0  # atno 10765 bound_to 10752
  139.8774  134.9193  156.4942 H   0  0  0  0  0  0  0  0  0  0  0  0  # atno 11005 bound_to 11000
  145.3605  141.0325  143.3287 LP  0  0  0  0  0  0  0  0  0  0  0  0  # atno 17320 bound_to 7965
  144.8605  139.5184  143.6814 LP  0  0  0  0  0  0  0  0  0  0  0  0  # atno 17321 bound_to 7965
  140.6068  143.2168  151.6965 LP  0  0  0  0  0  0  0  0  0  0  0  0  # atno 17342 bound_to 10162
  139.5058  144.3706  152.0474 LP  0  0  0  0  0  0  0  0  0  0  0  0  # atno 17343 bound_to 10162
  156.1858  130.3652  149.8975 LP  0  0  0  0  0  0  0  0  0  0  0  0  # atno 17370 bound_to 10713
  156.6916  130.8898  151.3589 LP  0  0  0  0  0  0  0  0  0  0  0  0  # atno 17371 bound_to 10713
  140.8636  133.8041  155.9291 LP  0  0  0  0  0  0  0  0  0  0  0  0  # atno 17394 bound_to 11000
  140.9024  134.2362  157.5034 LP  0  0  0  0  0  0  0  0  0  0  0  0  # atno 17395 bound_to 11000

$$$$
