AV-unprocessed.smi:1667|AV-procd|sdf|6680|dock4
  -GOLD-   22720 7393D 1   1.00000     0.00000
 Structure written by MMmdl.
 46 48  0  0  0  0  0  0  0  0  2 V2000
  146.1411  134.0898  151.5260 C   0  0  0  0  0  0  0  0  0  0  0  0
  146.0495  134.3422  153.0265 C   0  0  0  0  0  0  0  0  0  0  0  0
  145.1521  133.8220  153.6862 O   0  0  0  0  0  0  0  0  0  0  0  0
  146.9899  135.1402  153.5551 N   0  0  0  0  0  0  0  0  0  0  0  0
  147.0665  135.5512  154.9560 C   0  0  2  0  0  0  0  0  0  0  0  0
  145.7683  136.2771  155.3367 C   0  0  0  0  0  0  0  0  0  0  0  0
  148.2577  136.4172  155.2601 C   0  0  0  0  0  0  0  0  0  0  0  0
  149.1724  136.8759  154.3568 N   0  3  0  0  0  0  0  0  0  0  0  0
  150.1182  137.6734  154.9991 C   0  0  0  0  0  0  0  0  0  0  0  0
  151.2288  138.3486  154.5024 C   0  0  0  0  0  0  0  0  0  0  0  0
  151.9867  139.0895  155.4329 C   0  0  0  0  0  0  0  0  0  0  0  0
  151.6288  139.1412  156.7957 C   0  0  0  0  0  0  0  0  0  0  0  0
  150.5005  138.4517  157.2867 C   0  0  0  0  0  0  0  0  0  0  0  0
  149.7603  137.7161  156.3612 C   0  0  0  0  0  0  0  0  0  0  0  0
  148.6133  136.9226  156.4788 N   0  0  0  0  0  0  0  0  0  0  0  0
  147.9806  136.7763  157.8002 C   0  0  0  0  0  0  0  0  0  0  0  0
  148.0574  135.3412  158.3615 C   0  0  1  0  0  0  0  0  0  0  0  0
  149.3642  134.8572  158.1338 O   0  0  0  0  0  0  0  0  0  0  0  0
  147.6674  135.2556  159.8297 C   0  0  0  0  0  0  0  0  0  0  0  0
  148.2963  136.0780  160.7905 C   0  0  0  0  0  0  0  0  0  0  0  0
  147.9379  135.9837  162.1493 C   0  0  0  0  0  0  0  0  0  0  0  0
  146.9535  135.0629  162.5560 C   0  0  0  0  0  0  0  0  0  0  0  0
  146.3212  134.2422  161.6021 C   0  0  0  0  0  0  0  0  0  0  0  0
  145.3695  133.3611  161.9908 F   0  0  0  0  0  0  0  0  0  0  0  0
  146.6743  134.3415  160.2423 C   0  0  0  0  0  0  0  0  0  0  0  0
  147.1408  134.6462  155.5597 H   0  0  0  0  0  0  0  0  0  0  0  0
  147.1609  133.8309  151.2395 H   0  0  0  0  0  0  0  0  0  0  0  0
  145.8418  134.9812  150.9743 H   0  0  0  0  0  0  0  0  0  0  0  0
  145.4862  133.2688  151.2312 H   0  0  0  0  0  0  0  0  0  0  0  0
  147.6881  135.5208  152.9326 H   0  0  0  0  0  0  0  0  0  0  0  0
  145.7577  136.5450  156.3933 H   0  0  0  0  0  0  0  0  0  0  0  0
  144.8971  135.6480  155.1511 H   0  0  0  0  0  0  0  0  0  0  0  0
  145.6443  137.1959  154.7621 H   0  0  0  0  0  0  0  0  0  0  0  0
  151.5020  138.3138  153.4580 H   0  0  0  0  0  0  0  0  0  0  0  0
  152.8578  139.6312  155.0939 H   0  0  0  0  0  0  0  0  0  0  0  0
  152.2312  139.7225  157.4787 H   0  0  0  0  0  0  0  0  0  0  0  0
  150.2340  138.4999  158.3324 H   0  0  0  0  0  0  0  0  0  0  0  0
  148.4670  137.4804  158.4773 H   0  0  0  0  0  0  0  0  0  0  0  0
  146.9427  137.0993  157.7217 H   0  0  0  0  0  0  0  0  0  0  0  0
  147.3927  134.6922  157.7912 H   0  0  0  0  0  0  0  0  0  0  0  0
  149.8712  135.5432  157.7268 H   0  0  0  0  0  0  0  0  0  0  0  0
  149.0552  136.7846  160.4873 H   0  0  0  0  0  0  0  0  0  0  0  0
  148.4201  136.6159  162.8804 H   0  0  0  0  0  0  0  0  0  0  0  0
  146.6794  134.9899  163.5982 H   0  0  0  0  0  0  0  0  0  0  0  0
  146.1815  133.7099  159.5179 H   0  0  0  0  0  0  0  0  0  0  0  0
  149.1485  136.6511  153.3706 H   0  0  0  0  0  0  0  0  0  0  0  0
  1  2  1  0  0  0  0
  1 27  1  0  0  0  0
  1 28  1  0  0  0  0
  1 29  1  0  0  0  0
  2  3  2  0  0  0  0
  2  4  1  0  0  0  0
  4  5  1  0  0  0  0
  4 30  1  0  0  0  0
  5 26  1  0  0  0  0
  5  6  1  0  0  0  0
  5  7  1  0  0  0  0
  6 31  1  0  0  0  0
  6 32  1  0  0  0  0
  6 33  1  0  0  0  0
  7 15  1  0  0  0  0
  7  8  2  0  0  0  0
  8  9  1  0  0  0  0
  8 46  1  0  0  0  0
  9 14  2  0  0  0  0
  9 10  1  0  0  0  0
 10 11  2  0  0  0  0
 10 34  1  0  0  0  0
 11 12  1  0  0  0  0
 11 35  1  0  0  0  0
 12 13  2  0  0  0  0
 12 36  1  0  0  0  0
 13 14  1  0  0  0  0
 13 37  1  0  0  0  0
 14 15  1  0  0  0  0
 15 16  1  0  0  0  0
 16 17  1  0  0  0  0
 16 38  1  0  0  0  0
 16 39  1  0  0  0  0
 17 18  1  0  0  0  0
 17 19  1  0  0  0  0
 17 40  1  0  0  0  0
 18 41  1  0  0  0  0
 19 25  1  0  0  0  0
 19 20  2  0  0  0  0
 20 21  1  0  0  0  0
 20 42  1  0  0  0  0
 21 22  2  0  0  0  0
 21 43  1  0  0  0  0
 22 23  1  0  0  0  0
 22 44  1  0  0  0  0
 23 24  1  0  0  0  0
 23 25  2  0  0  0  0
 25 45  1  0  0  0  0
M  CHG  1   8   1
M  END
> <s_m_source_file>
AV-unprocessed.smi

> <i_m_source_file_index>
1667

> <i_lp_mmshare_version>
43012

> <i_f3d_flags>
0

> <s_epik_input>
W0NIM11DKD1PKVtOSF1bQ0BASF0oW0NIM10pYyhuMSluKGMoYzEyKVtjSF1bY0hdW2NIXVtjSF0yKVtDSDJdW0NASF0oW09IXSljM1tjSF1bY0hdW2NIXWMoRilbY0hdMw==

> <s_epik_cmdline>
J2VwaWtfcHl0aG9uJywgJy1waCcsICc3LjAnLCAnLXRuJywgJzgnLCAnLW1hJywgJzIwMCcsICctbWV0YWxfYmluZGluZycsICctaW1hZScsICc8aW5maWxlLm1hZT4nLCAnLW9tYWUnLCAnPG91dGZpbGUubWFlPic=

> <r_epik_Ionization_Penalty>
0.950383

> <r_epik_Ionization_Penalty_Charging>
0.950379

> <r_epik_Ionization_Penalty_Neutral>
3.60962e-06

> <r_epik_State_Penalty>
0.994584

> <r_epik_Charging_Adjusted_Penalty>
1.94496

> <i_epik_Tot_Q>
1

> <i_epik_Tot_abs_Q>
1

> <r_epik_Metal_State_Penalty>
1.10485

> <b_epik_Metal_Only>
0

> <s_lp_Force_Field>
OPLS_2005

> <r_lp_Energy>
10.8153

> <b_lp_Chiralities_Consistent>
1

> <s_lp_Variant>
AV-unprocessed.smi:1667-8

> <Gold.Version>
5.8.1

> <Gold.Id.Protein>
6NUR|6NUR_protein|mol2

> <Gold.PLP.Fitness>
49.1498

> <Gold.PLP.PLP>
-37.6470

> <Gold.PLP.part.hbond>
-2.8958

> <Gold.PLP.part.metal>
0.0000

> <Gold.PLP.part.buried>
-3.9912

> <Gold.PLP.part.nonpolar>
-30.6288

> <Gold.PLP.part.repulsive>
0.1188

> <Gold.PLP.ligand.clash>
0.0000

> <Gold.PLP.ligand.torsion>
0.2707

> <Gold.PLP.Chemscore.Hbond>
4.0000

> <Gold.PLP.Chemscore.CHOScore>
0.0000

> <Gold.PLP.Chemscore.Metal>
0.0000

> <Gold.Chemscore.Hbonds>
donor molecule, donor type, donor heavy atom, donor atom, acceptor molecule, acceptor atom, score
      L1  H     4    30       P1  7948  1.00
      L1  H     8    46       P1  7948  2.00
      P1  H  6896  6909       L1    18  0.80

> <Gold.PLP.Chemscore.Internal.Correction>
0.0442

> <Gold.Rescore>
     Score         DG    S(hbond)    S(metal)    S(lipo)     H(rot)  DE(clash)    DE(int)     intcor
     17.50     -18.17       2.61        0.00      89.40       2.53       0.02       0.65       ----

> <Gold.Chemscore.Fitness>
17.5006

> <Gold.Chemscore.DG>
-18.1744

> <Gold.Chemscore.ZeroCoef>
-5.4800

> <Gold.Chemscore.Hbond>
2.6108

> <Gold.Chemscore.Metal>
0.0000

> <Gold.Chemscore.Lipo>
89.4015

> <Gold.Chemscore.Internal_Hbond>
0.0000

> <Gold.Chemscore.DEClash>
0.0221

> <Gold.Chemscore.DEInternal>
0.6518

> <Gold.Chemscore.Rot>
2.5335

> <Gold.Chemscore.Internal.Correction>
   9.000000E+99

> <Gold.Chemscore.Hbonds>
donor molecule, donor type, donor heavy atom, donor atom, acceptor molecule, acceptor atom, score
      L1  H     4    30       P1  7948  1.00
      L1  H     8    46       P1  7948  0.95
      P1  H  6896  6909       L1    18  0.12

> <Gold.Chemscore.Hbond.Weighted>
-8.7201

> <Gold.Chemscore.Metal.Weighted>
-0.0000

> <Gold.Chemscore.Lipo.Weighted>
-10.4600

> <Gold.Chemscore.Internal_Hbond.Weighted>
0.0000

> <Gold.Chemscore.DEClash.Weighted>
0.0221

> <Gold.Chemscore.DEInternal.Weighted>
0.6518

> <Gold.Chemscore.Rot.Weighted>
6.4856

> <Gold.Chemscore.Internal.Correction.Weighted>
   9.000000E+99

> <Gold.Protein.RotatedTorsions>
[ 6907 6896 6895 6894 ] final   39.71 input  -60.11 | X-H torsion
[ 7974 7965 7964 7962 ] final -108.14 input  175.53 | X-H torsion
[ 8008 7997 7996 7995 ] final -116.01 input   59.86 | X-H torsion
[ 10167 10162 10161 10158 ] final   55.74 input  -65.29 | X-H torsion
[ 10718 10713 10712 10709 ] final  -90.69 input   66.30 | X-H torsion
[ 10763 10752 10751 10750 ] final  110.86 input  -60.55 | X-H torsion
[ 11005 11000 10999 10996 ] final -119.39 input  -57.11 | X-H torsion

> <Gold.Protein.ActiveResidues>
 VAL166  LYS551  ARG553  GLY616  TRP617  ASP618  TYR619  PRO620  LYS621  CYS622 
 ASP623  PHE694  ASN695  SER759  ASP760  ASP761  ALA762  ILE779  LEU786  VAL792 
 PHE793  MET794  SER795  GLU796  ALA797  LYS798  CYS799  TRP800  GLU811  SER814 

> <Gold.Protein.RotatedAtoms>
  152.1731  134.8818  160.0532 H   0  0  0  0  0  0  0  0  0  0  0  0  # atno 6907 bound_to 6896
  151.9770  133.3740  159.4101 H   0  0  0  0  0  0  0  0  0  0  0  0  # atno 6908 bound_to 6896
  150.6905  134.4002  159.5159 H   0  0  0  0  0  0  0  0  0  0  0  0  # atno 6909 bound_to 6896
  145.1965  140.9038  143.3394 H   0  0  0  0  0  0  0  0  0  0  0  0  # atno 7974 bound_to 7965
  155.0611  140.0393  157.2577 H   0  0  0  0  0  0  0  0  0  0  0  0  # atno 8008 bound_to 7997
  154.7059  140.2683  155.6651 H   0  0  0  0  0  0  0  0  0  0  0  0  # atno 8009 bound_to 7997
  156.2775  140.2731  156.1685 H   0  0  0  0  0  0  0  0  0  0  0  0  # atno 8010 bound_to 7997
  140.2162  144.3837  150.6469 H   0  0  0  0  0  0  0  0  0  0  0  0  # atno 10167 bound_to 10162
  155.9989  130.4919  150.5362 H   0  0  0  0  0  0  0  0  0  0  0  0  # atno 10718 bound_to 10713
  153.4550  135.3735  155.2306 H   0  0  0  0  0  0  0  0  0  0  0  0  # atno 10763 bound_to 10752
  154.8757  135.3895  154.3993 H   0  0  0  0  0  0  0  0  0  0  0  0  # atno 10764 bound_to 10752
  153.4558  135.7086  153.6145 H   0  0  0  0  0  0  0  0  0  0  0  0  # atno 10765 bound_to 10752
  141.0219  134.0111  157.3270 H   0  0  0  0  0  0  0  0  0  0  0  0  # atno 11005 bound_to 11000
  144.9989  139.3617  143.6177 LP  0  0  0  0  0  0  0  0  0  0  0  0  # atno 17320 bound_to 7965
  146.3426  139.9204  142.8767 LP  0  0  0  0  0  0  0  0  0  0  0  0  # atno 17321 bound_to 7965
  140.6288  143.2185  151.6539 LP  0  0  0  0  0  0  0  0  0  0  0  0  # atno 17342 bound_to 10162
  139.5161  144.3357  152.0786 LP  0  0  0  0  0  0  0  0  0  0  0  0  # atno 17343 bound_to 10162
  157.3304  131.0698  151.1865 LP  0  0  0  0  0  0  0  0  0  0  0  0  # atno 17370 bound_to 10713
  157.2747  130.6721  149.6037 LP  0  0  0  0  0  0  0  0  0  0  0  0  # atno 17371 bound_to 10713
  139.9151  135.0196  156.7850 LP  0  0  0  0  0  0  0  0  0  0  0  0  # atno 17394 bound_to 11000
  140.6558  133.9690  155.7779 LP  0  0  0  0  0  0  0  0  0  0  0  0  # atno 17395 bound_to 11000

$$$$
