AV-unprocessed.smi:367|AV-procd|sdf|2432|dock1
  -GOLD-   2262022373D 1   1.00000     0.00000
 Structure written by MMmdl.
 22 22  0  0  0  0  0  0  0  0  2 V2000
  151.1957  143.8657  158.1422 C   0  0  0  0  0  0  0  0  0  0  0  0
  151.1707  142.5373  157.4177 C   0  0  0  0  0  0  0  0  0  0  0  0
  150.2836  142.5002  156.3547 N   0  0  0  0  0  0  0  0  0  0  0  0
  150.1932  141.3263  155.6280 C   0  0  0  0  0  0  0  0  0  0  0  0
  149.2029  141.3716  154.4773 C   0  0  0  0  0  0  0  0  0  0  0  0
  150.9434  140.2415  155.9486 C   0  0  0  0  0  0  0  0  0  0  0  0
  150.8715  138.9263  155.1706 C   0  0  0  0  0  0  0  0  0  0  0  0
  152.2223  138.4160  154.6553 C   0  0  0  0  0  0  0  0  0  0  0  0
  152.2165  137.3086  154.0753 O   0  0  0  0  0  0  0  0  0  0  0  0
  153.2335  139.1300  154.8377 O   0  5  0  0  0  0  0  0  0  0  0  0
  151.8699  140.3398  157.1016 C   0  0  0  0  0  0  0  0  0  0  0  0
  152.5698  139.3896  157.4496 O   0  0  0  0  0  0  0  0  0  0  0  0
  151.9307  141.5568  157.8003 N   0  0  0  0  0  0  0  0  0  0  0  0
  149.7025  143.2801  156.0844 H   0  0  0  0  0  0  0  0  0  0  0  0
  151.9590  143.8710  158.9213 H   0  0  0  0  0  0  0  0  0  0  0  0
  150.2297  144.0598  158.6090 H   0  0  0  0  0  0  0  0  0  0  0  0
  151.4143  144.6759  157.4461 H   0  0  0  0  0  0  0  0  0  0  0  0
  149.7152  141.2141  153.5281 H   0  0  0  0  0  0  0  0  0  0  0  0
  148.6895  142.3323  154.4252 H   0  0  0  0  0  0  0  0  0  0  0  0
  148.4472  140.5947  154.5947 H   0  0  0  0  0  0  0  0  0  0  0  0
  150.1860  139.0076  154.3268 H   0  0  0  0  0  0  0  0  0  0  0  0
  150.4388  138.1605  155.8149 H   0  0  0  0  0  0  0  0  0  0  0  0
  1 15  1  0  0  0  0
  1 16  1  0  0  0  0
  1 17  1  0  0  0  0
  1  2  1  0  0  0  0
  2  3  1  0  0  0  0
  2 13  2  0  0  0  0
  3  4  1  0  0  0  0
  3 14  1  0  0  0  0
  4  6  2  0  0  0  0
  4  5  1  0  0  0  0
  5 18  1  0  0  0  0
  5 19  1  0  0  0  0
  5 20  1  0  0  0  0
  6 11  1  0  0  0  0
  6  7  1  0  0  0  0
  7  8  1  0  0  0  0
  7 21  1  0  0  0  0
  7 22  1  0  0  0  0
  8  9  2  0  0  0  0
  8 10  1  0  0  0  0
 11 12  2  0  0  0  0
 11 13  1  0  0  0  0
M  CHG  1  10  -1
M  END
> <s_m_source_file>
AV-unprocessed.smi

> <i_m_source_file_index>
367

> <i_lp_mmshare_version>
43012

> <i_f3d_flags>
0

> <s_epik_input>
W0NIM11jMW5jKFtDSDNdKWMoYyg9TylbbkhdMSlbQ0gyXUMoPU8pW09IXQ==

> <s_epik_cmdline>
J2VwaWtfcHl0aG9uJywgJy1waCcsICc3LjAnLCAnLXRuJywgJzgnLCAnLW1hJywgJzIwMCcsICctbWV0YWxfYmluZGluZycsICctaW1hZScsICc8aW5maWxlLm1hZT4nLCAnLW9tYWUnLCAnPG91dGZpbGUubWFlPic=

> <r_lp_tautomer_probability>
0.156392

> <r_epik_Ionization_Penalty>
0.00675001

> <r_epik_Ionization_Penalty_Charging>
0.00587431

> <r_epik_Ionization_Penalty_Neutral>
0.000875703

> <r_epik_State_Penalty>
1.15342

> <r_epik_Charging_Adjusted_Penalty>
1.15929

> <i_epik_Tot_Q>
-1

> <i_epik_Tot_abs_Q>
1

> <r_epik_Metal_State_Penalty>
1.20317

> <b_epik_Metal_Only>
0

> <s_lp_Force_Field>
OPLS_2005

> <r_lp_Energy>
7.55918

> <b_lp_Chiralities_Consistent>
1

> <s_lp_Variant>
AV-unprocessed.smi:367-2

> <Gold.Version>
5.8.1

> <Gold.Id.Protein>
6NUR|6NUR_protein|mol2

> <Gold.PLP.Fitness>
40.9569

> <Gold.PLP.PLP>
-26.6799

> <Gold.PLP.part.hbond>
-3.6710

> <Gold.PLP.part.metal>
0.0000

> <Gold.PLP.part.buried>
-4.1013

> <Gold.PLP.part.nonpolar>
-20.2146

> <Gold.PLP.part.repulsive>
0.4984

> <Gold.PLP.ligand.clash>
0.0000

> <Gold.PLP.ligand.torsion>
0.0498

> <Gold.PLP.Chemscore.Hbond>
4.7920

> <Gold.PLP.Chemscore.CHOScore>
0.0000

> <Gold.PLP.Chemscore.Metal>
0.0000

> <Gold.Chemscore.Hbonds>
donor molecule, donor type, donor heavy atom, donor atom, acceptor molecule, acceptor atom, score
      L1  H     3    14       P1  8028  1.00
      P1  H  7997  8009       L1    10  2.00
      P1  H 10752 10765       L1     9  1.79

> <Gold.PLP.Chemscore.Internal.Correction>
0.0006

> <Gold.Rescore>
     Score         DG    S(hbond)    S(metal)    S(lipo)     H(rot)  DE(clash)    DE(int)     intcor
     15.42     -15.49       2.82        0.00      38.99       1.55       0.00       0.07       ----

> <Gold.Chemscore.Fitness>
15.4238

> <Gold.Chemscore.DG>
-15.4945

> <Gold.Chemscore.ZeroCoef>
-5.4800

> <Gold.Chemscore.Hbond>
2.8186

> <Gold.Chemscore.Metal>
0.0000

> <Gold.Chemscore.Lipo>
38.9949

> <Gold.Chemscore.Internal_Hbond>
0.0000

> <Gold.Chemscore.DEClash>
0.0015

> <Gold.Chemscore.DEInternal>
0.0692

> <Gold.Chemscore.Rot>
1.5477

> <Gold.Chemscore.Internal.Correction>
   9.000000E+99

> <Gold.Chemscore.Hbonds>
donor molecule, donor type, donor heavy atom, donor atom, acceptor molecule, acceptor atom, score
      L1  H     3    14       P1  8028  1.00
      P1  H  7997  8009       L1    10  0.99
      P1  H 10752 10765       L1     9  0.87

> <Gold.Chemscore.Hbond.Weighted>
-9.4142

> <Gold.Chemscore.Metal.Weighted>
-0.0000

> <Gold.Chemscore.Lipo.Weighted>
-4.5624

> <Gold.Chemscore.Internal_Hbond.Weighted>
0.0000

> <Gold.Chemscore.DEClash.Weighted>
0.0015

> <Gold.Chemscore.DEInternal.Weighted>
0.0692

> <Gold.Chemscore.Rot.Weighted>
3.9621

> <Gold.Chemscore.Internal.Correction.Weighted>
   9.000000E+99

> <Gold.Protein.RotatedTorsions>
[ 6907 6896 6895 6894 ] final   30.94 input  -60.11 | X-H torsion
[ 7974 7965 7964 7962 ] final  -99.77 input  175.53 | X-H torsion
[ 8008 7997 7996 7995 ] final -132.00 input   59.86 | X-H torsion
[ 10167 10162 10161 10158 ] final -102.97 input  -65.29 | X-H torsion
[ 10718 10713 10712 10709 ] final -165.91 input   66.30 | X-H torsion
[ 10763 10752 10751 10750 ] final  152.31 input  -60.55 | X-H torsion
[ 11005 11000 10999 10996 ] final  -43.22 input  -57.11 | X-H torsion

> <Gold.Protein.ActiveResidues>
 VAL166  LYS551  ARG553  GLY616  TRP617  ASP618  TYR619  PRO620  LYS621  CYS622 
 ASP623  PHE694  ASN695  SER759  ASP760  ASP761  ALA762  ILE779  LEU786  VAL792 
 PHE793  MET794  SER795  GLU796  ALA797  LYS798  CYS799  TRP800  GLU811  SER814 

> <Gold.Protein.RotatedAtoms>
  152.0532  134.9640  160.0574 H   0  0  0  0  0  0  0  0  0  0  0  0  # atno 6907 bound_to 6896
  152.1033  133.4256  159.4605 H   0  0  0  0  0  0  0  0  0  0  0  0  # atno 6908 bound_to 6896
  150.6840  134.2654  159.4609 H   0  0  0  0  0  0  0  0  0  0  0  0  # atno 6909 bound_to 6896
  145.3032  140.9382  143.2812 H   0  0  0  0  0  0  0  0  0  0  0  0  # atno 7974 bound_to 7965
  155.3217  140.0462  157.3039 H   0  0  0  0  0  0  0  0  0  0  0  0  # atno 8008 bound_to 7997
  154.5376  140.2277  155.8661 H   0  0  0  0  0  0  0  0  0  0  0  0  # atno 8009 bound_to 7997
  156.1850  140.3064  155.9228 H   0  0  0  0  0  0  0  0  0  0  0  0  # atno 8010 bound_to 7997
  140.2249  143.3648  152.0937 H   0  0  0  0  0  0  0  0  0  0  0  0  # atno 10167 bound_to 10162
  156.6603  130.9043  151.3028 H   0  0  0  0  0  0  0  0  0  0  0  0  # atno 10718 bound_to 10713
  154.1179  135.2834  155.3215 H   0  0  0  0  0  0  0  0  0  0  0  0  # atno 10763 bound_to 10752
  154.6444  135.5391  153.7830 H   0  0  0  0  0  0  0  0  0  0  0  0  # atno 10764 bound_to 10752
  153.0323  135.6494  154.1335 H   0  0  0  0  0  0  0  0  0  0  0  0  # atno 10765 bound_to 10752
  141.0369  133.6796  156.2703 H   0  0  0  0  0  0  0  0  0  0  0  0  # atno 11005 bound_to 11000
  144.9077  139.4569  143.6602 LP  0  0  0  0  0  0  0  0  0  0  0  0  # atno 17320 bound_to 7965
  146.3145  139.7867  142.8994 LP  0  0  0  0  0  0  0  0  0  0  0  0  # atno 17321 bound_to 7965
  139.5130  144.6926  151.5717 LP  0  0  0  0  0  0  0  0  0  0  0  0  # atno 17342 bound_to 10162
  140.6228  143.9227  150.6540 LP  0  0  0  0  0  0  0  0  0  0  0  0  # atno 17343 bound_to 10162
  157.7112  130.9442  150.1095 LP  0  0  0  0  0  0  0  0  0  0  0  0  # atno 17370 bound_to 10713
  156.2016  130.3660  149.8781 LP  0  0  0  0  0  0  0  0  0  0  0  0  # atno 17371 bound_to 10713
  140.6306  134.5268  157.5559 LP  0  0  0  0  0  0  0  0  0  0  0  0  # atno 17394 bound_to 11000
  139.9247  134.8079  156.1104 LP  0  0  0  0  0  0  0  0  0  0  0  0  # atno 17395 bound_to 11000

$$$$
