#       Name:                AV-unprocessed.smi:1389
#       Creating user name   scv26
#       Creation time:       Fri Mar 27 05:27:08 2020


#       File generated by GOLD software.
#

@<TRIPOS>MOLECULE
AV-unprocessed.smi:1389
    58    60     1
SMALL
NO_CHARGES


@<TRIPOS>ATOM
      1 ****        -2.0777   1.1475   3.1130 C.3            1 S1                 0.0000
      2 ****        -1.5866  -0.3142   3.2274 C.3            1 S1                 0.0000
      3 ****        -0.0465  -0.2914   3.4153 C.3            1 S1                 0.0000
      4 ****         0.6322   0.2409   2.2357 N.am           1 S1                 0.0000
      5 ****         1.3635  -0.4698   1.3664 C.2            1 S1                 0.0000
      6 ****         1.6437  -1.6594   1.5127 O.2            1 S1                 0.0000
      7 ****         1.7175   0.2783   0.3095 N.am           1 S1                 0.0000
      8 ****         2.3863  -0.1541  -0.8691 C.ar           1 S1                 0.0000
      9 ****         3.4135  -1.1303  -0.8271 C.ar           1 S1                 0.0000
     10 ****         4.0503  -1.5262  -2.0190 C.ar           1 S1                 0.0000
     11 ****         3.6569  -0.9332  -3.2321 C.ar           1 S1                 0.0000
     12 ****         2.6868   0.0049  -3.2353 N.pl3          1 S1                 1.0000
     13 ****         2.0381   0.4233  -2.1204 C.ar           1 S1                 0.0000
     14 ****         1.0522   1.4254  -2.2382 N.3            1 S1                 0.0000
     15 ****         1.4442   2.7213  -1.6918 C.3            1 S1                 0.0000
     16 ****         0.7916   3.7798  -2.5826 C.3            1 S1                 0.0000
     17 ****         0.6692   3.0714  -3.9259 C.3            1 S1                 0.0000
     18 ****         0.3715   1.6303  -3.5159 C.3            1 S1                 0.0000
     19 ****        -2.0400  -1.1826   2.1191 N.3            1 S1                 0.0000
     20 ****        -3.4904  -1.1375   1.9127 C.3            1 S1                 0.0000
     21 ****        -3.9496  -2.0501   0.7617 C.3            1 S1                 0.0000
     22 ****        -3.5256  -3.3849   1.0060 O.3            1 S1                 0.0000
     23 ****        -2.1152  -3.4842   1.1549 C.3            1 S1                 0.0000
     24 ****        -1.6568  -2.5843   2.3144 C.3            1 S1                 0.0000
     25 ****        -1.6274   1.7775   3.8807 H              1 S1                 0.0000
     26 ****        -3.1556   1.2266   3.2515 H              1 S1                 0.0000
     27 ****        -1.8302   1.5808   2.1433 H              1 S1                 0.0000
     28 ****        -2.0066  -0.7085   4.1539 H              1 S1                 0.0000
     29 ****         0.2072   0.3557   4.2556 H              1 S1                 0.0000
     30 ****         0.3413  -1.2695   3.6995 H              1 S1                 0.0000
     31 ****         0.4666   1.2146   2.0279 H              1 S1                 0.0000
     32 ****         1.3378   1.2130   0.2808 H              1 S1                 0.0000
     33 ****         3.7278  -1.5745   0.1053 H              1 S1                 0.0000
     34 ****         4.8318  -2.2718  -2.0007 H              1 S1                 0.0000
     35 ****         4.0905  -1.1728  -4.1922 H              1 S1                 0.0000
     36 ****         1.1242   2.8271  -0.6549 H              1 S1                 0.0000
     37 ****         2.5303   2.8264  -1.7207 H              1 S1                 0.0000
     38 ****        -0.2021   4.0230  -2.2036 H              1 S1                 0.0000
     39 ****         1.3679   4.7036  -2.6370 H              1 S1                 0.0000
     40 ****        -0.1026   3.4989  -4.5664 H              1 S1                 0.0000
     41 ****         1.6197   3.1186  -4.4592 H              1 S1                 0.0000
     42 ****         0.6475   0.9240  -4.2984 H              1 S1                 0.0000
     43 ****        -0.6983   1.5082  -3.3435 H              1 S1                 0.0000
     44 ****        -4.0050  -1.4230   2.8314 H              1 S1                 0.0000
     45 ****        -3.8110  -0.1248   1.6725 H              1 S1                 0.0000
     46 ****        -5.0361  -2.0323   0.6751 H              1 S1                 0.0000
     47 ****        -3.5470  -1.7020  -0.1908 H              1 S1                 0.0000
     48 ****        -1.8502  -4.5227   1.3533 H              1 S1                 0.0000
     49 ****        -1.6199  -3.1982   0.2255 H              1 S1                 0.0000
     50 ****        -0.5777  -2.6849   2.4010 H              1 S1                 0.0000
     51 ****        -2.0797  -2.9566   3.2486 H              1 S1                 0.0000
     52 ****         2.4290   0.4247  -4.1285 H              1 S1                 0.0000
     53 ****         1.3203  -2.1537   2.3196 LP             1 S1                 0.0000
     54 ****         2.1947  -2.1316   0.8246 LP             1 S1                 0.0000
     55 ****         0.3601   0.9876  -1.6643 LP             1 S1                 0.0000
     56 ****        -1.5805  -0.8142   1.3109 LP             1 S1                 0.0000
     57 ****        -3.8090  -3.9582   0.2372 LP             1 S1                 0.0000
     58 ****        -3.9614  -3.7124   1.8443 LP             1 S1                 0.0000
@<TRIPOS>BOND
    1    1    2 1     
    2    1   25 1     
    3    1   26 1     
    4    1   27 1     
    5    2    3 1     
    6    2   19 1     
    7    2   28 1     
    8    3    4 1     
    9    3   29 1     
   10    3   30 1     
   11    4    5 am    
   12    4   31 1     
   13    5    6 2     
   14    5    7 am    
   15    7    8 1     
   16    7   32 1     
   17    8   13 ar    
   18    8    9 ar    
   19    9   10 ar    
   20    9   33 1     
   21   10   11 ar    
   22   10   34 1     
   23   11   12 ar    
   24   11   35 1     
   25   12   13 ar    
   26   12   52 1     
   27   13   14 1     
   28   14   18 1     
   29   14   15 1     
   30   15   16 1     
   31   15   36 1     
   32   15   37 1     
   33   16   17 1     
   34   16   38 1     
   35   16   39 1     
   36   17   18 1     
   37   17   40 1     
   38   17   41 1     
   39   18   42 1     
   40   18   43 1     
   41   19   24 1     
   42   19   20 1     
   43   20   21 1     
   44   20   44 1     
   45   20   45 1     
   46   21   22 1     
   47   21   46 1     
   48   21   47 1     
   49   22   23 1     
   50   23   24 1     
   51   23   48 1     
   52   23   49 1     
   53   24   50 1     
   54   24   51 1     
   55    6   53 1     
   56    6   54 1     
   57   14   55 1     
   58   19   56 1     
   59   22   57 1     
   60   22   58 1     
@<TRIPOS>SUBSTRUCTURE
      1 S1             1
@<TRIPOS>SET
LONE_PAIRS      STATIC     ATOMS    <user>   **** ""
6 53 54 55 56 57 58
DONOR_HYDROGENS      STATIC     ATOMS    <user>   **** ""
3 31 32 52
ATOM$BLUE        STATIC     ATOMS    COLORGROUP SYSTEM
6 53 54 55 56 57 58
ATOM$RED        STATIC     ATOMS    COLORGROUP SYSTEM
3 31 32 52
