AV-unprocessed.smi:2448|AV-procd|sdf|9652|dock6
  -GOLD-   2272013283D 1   1.00000     0.00000
 Structure written by MMmdl.
 37 38  0  0  0  0  0  0  0  0  1 V2000
  149.3488  142.7055  158.0384 O   0  0  0  0  0  0  0  0  0  0  0  0
  150.6883  142.3454  157.7489 C   0  0  2  0  0  0  0  0  0  0  0  0
  150.6835  141.4486  156.4939 C   0  0  0  0  0  0  0  0  0  0  0  0
  149.6879  141.8889  155.5136 N   0  0  0  0  0  0  0  0  0  0  0  0
  148.5835  140.9602  155.2288 C   0  0  2  0  0  0  0  0  0  0  0  0
  149.0256  140.0741  154.0399 C   0  0  0  0  0  0  0  0  0  0  0  0
  149.8604  138.8642  154.4222 C   0  0  0  0  0  0  0  0  0  0  0  0
  149.3084  137.5663  154.3916 C   0  0  0  0  0  0  0  0  0  0  0  0
  150.1283  136.4786  154.7530 C   0  0  0  0  0  0  0  0  0  0  0  0
  151.4193  136.6144  155.1251 N   0  0  0  0  0  0  0  0  0  0  0  0
  151.9424  137.8590  155.1478 C   0  0  0  0  0  0  0  0  0  0  0  0
  151.2095  139.0130  154.8053 C   0  0  0  0  0  0  0  0  0  0  0  0
  147.2433  141.7023  154.9624 C   0  0  0  0  0  0  0  0  0  0  0  0
  146.8423  142.3824  156.0351 F   0  0  0  0  0  0  0  0  0  0  0  0
  147.3807  142.5505  153.9426 F   0  0  0  0  0  0  0  0  0  0  0  0
  146.2667  140.8441  154.6724 F   0  0  0  0  0  0  0  0  0  0  0  0
  151.2388  141.5997  158.9758 C   0  0  0  0  0  0  0  0  0  0  0  0
  151.4971  142.6329  160.0774 C   0  0  0  0  0  0  0  0  0  0  0  0
  152.0200  144.1688  159.2742 S   0  0  0  0  0  0  0  0  0  0  0  0
  151.5576  143.6094  157.6128 C   0  0  0  0  0  0  0  0  0  0  0  0
  149.1636  143.5300  157.6163 H   0  0  0  0  0  0  0  0  0  0  0  0
  151.6734  141.4664  156.0361 H   0  0  0  0  0  0  0  0  0  0  0  0
  150.4996  140.4210  156.8039 H   0  0  0  0  0  0  0  0  0  0  0  0
  149.3065  142.7834  155.8053 H   0  0  0  0  0  0  0  0  0  0  0  0
  148.4471  140.3095  156.0934 H   0  0  0  0  0  0  0  0  0  0  0  0
  148.1517  139.7463  153.4752 H   0  0  0  0  0  0  0  0  0  0  0  0
  149.6242  140.6664  153.3462 H   0  0  0  0  0  0  0  0  0  0  0  0
  148.2806  137.4034  154.1023 H   0  0  0  0  0  0  0  0  0  0  0  0
  149.7365  135.4723  154.7419 H   0  0  0  0  0  0  0  0  0  0  0  0
  152.9769  137.9386  155.4472 H   0  0  0  0  0  0  0  0  0  0  0  0
  151.6750  139.9873  154.8377 H   0  0  0  0  0  0  0  0  0  0  0  0
  150.5711  140.8063  159.3145 H   0  0  0  0  0  0  0  0  0  0  0  0
  152.1856  141.1249  158.7152 H   0  0  0  0  0  0  0  0  0  0  0  0
  150.5770  142.8327  160.6276 H   0  0  0  0  0  0  0  0  0  0  0  0
  152.2439  142.2910  160.7938 H   0  0  0  0  0  0  0  0  0  0  0  0
  152.4807  143.3705  157.0834 H   0  0  0  0  0  0  0  0  0  0  0  0
  151.0608  144.4053  157.0568 H   0  0  0  0  0  0  0  0  0  0  0  0
  1  2  1  0  0  0  0
  1 21  1  0  0  0  0
  2 20  1  0  0  0  0
  2  3  1  0  0  0  0
  2 17  1  0  0  0  0
  3  4  1  0  0  0  0
  3 22  1  0  0  0  0
  3 23  1  0  0  0  0
  4  5  1  0  0  0  0
  4 24  1  0  0  0  0
  5  6  1  0  0  0  0
  5 13  1  0  0  0  0
  5 25  1  0  0  0  0
  6  7  1  0  0  0  0
  6 26  1  0  0  0  0
  6 27  1  0  0  0  0
  7 12  1  0  0  0  0
  7  8  2  0  0  0  0
  8  9  1  0  0  0  0
  8 28  1  0  0  0  0
  9 10  2  0  0  0  0
  9 29  1  0  0  0  0
 10 11  1  0  0  0  0
 11 12  2  0  0  0  0
 11 30  1  0  0  0  0
 12 31  1  0  0  0  0
 13 14  1  0  0  0  0
 13 15  1  0  0  0  0
 13 16  1  0  0  0  0
 17 18  1  0  0  0  0
 17 32  1  0  0  0  0
 17 33  1  0  0  0  0
 18 19  1  0  0  0  0
 18 34  1  0  0  0  0
 18 35  1  0  0  0  0
 19 20  1  0  0  0  0
 20 36  1  0  0  0  0
 20 37  1  0  0  0  0
M  END
> <s_m_source_file>
AV-unprocessed.smi

> <i_m_source_file_index>
2448

> <i_lp_mmshare_version>
43012

> <i_f3d_flags>
0

> <s_epik_input>
W0NIMl0xU1tDSDJdW0NIMl1bQ0BAXTEoW09IXSlbQ0gyXVtOSF1bQ0BASF0oQyhGKShGKUYpW0NIMl1jMltjSF1bY0hdbltjSF1bY0hdMg==

> <s_epik_cmdline>
J2VwaWtfcHl0aG9uJywgJy1waCcsICc3LjAnLCAnLXRuJywgJzgnLCAnLW1hJywgJzIwMCcsICctbWV0YWxfYmluZGluZycsICctaW1hZScsICc8aW5maWxlLm1hZT4nLCAnLW9tYWUnLCAnPG91dGZpbGUubWFlPic=

> <r_epik_Ionization_Penalty>
0.187708

> <r_epik_Ionization_Penalty_Charging>
0

> <r_epik_Ionization_Penalty_Neutral>
0.187708

> <r_epik_State_Penalty>
0.22769

> <r_epik_Charging_Adjusted_Penalty>
0.22769

> <i_epik_Tot_Q>
0

> <i_epik_Tot_abs_Q>
0

> <r_epik_Metal_State_Penalty>
0.176206

> <b_epik_Metal_Only>
0

> <s_lp_Force_Field>
OPLS_2005

> <r_lp_Energy>
30.9139

> <b_lp_Chiralities_Consistent>
1

> <s_lp_Variant>
AV-unprocessed.smi:2448-2

> <Gold.Version>
5.8.1

> <Gold.Id.Protein>
6NUR|6NUR_protein|mol2

> <Gold.PLP.Fitness>
49.4347

> <Gold.PLP.PLP>
-43.3476

> <Gold.PLP.part.hbond>
-3.0000

> <Gold.PLP.part.metal>
0.0000

> <Gold.PLP.part.buried>
-1.4090

> <Gold.PLP.part.nonpolar>
-38.7469

> <Gold.PLP.part.repulsive>
0.0606

> <Gold.PLP.ligand.clash>
0.0000

> <Gold.PLP.ligand.torsion>
1.6859

> <Gold.PLP.Chemscore.Hbond>
2.9600

> <Gold.PLP.Chemscore.CHOScore>
0.0000

> <Gold.PLP.Chemscore.Metal>
0.0000

> <Gold.Chemscore.Hbonds>
donor molecule, donor type, donor heavy atom, donor atom, acceptor molecule, acceptor atom, score
      L1  H     1    21       P1  8028  0.35
      L1  H     4    24       P1  8028  1.00
      P1  H 10752 10763       L1    10  1.00

> <Gold.PLP.Chemscore.Internal.Correction>
0.5789

> <Gold.Rescore>
     Score         DG    S(hbond)    S(metal)    S(lipo)     H(rot)  DE(clash)    DE(int)     intcor
     17.74     -22.07       2.79        0.00     112.82       2.31       0.65       3.68       ----

> <Gold.Chemscore.Fitness>
17.7407

> <Gold.Chemscore.DG>
-22.0692

> <Gold.Chemscore.ZeroCoef>
-5.4800

> <Gold.Chemscore.Hbond>
2.7862

> <Gold.Chemscore.Metal>
0.0000

> <Gold.Chemscore.Lipo>
112.8171

> <Gold.Chemscore.Internal_Hbond>
0.0000

> <Gold.Chemscore.DEClash>
0.6515

> <Gold.Chemscore.DEInternal>
3.6770

> <Gold.Chemscore.Rot>
2.3111

> <Gold.Chemscore.Internal.Correction>
   9.000000E+99

> <Gold.Chemscore.Hbonds>
donor molecule, donor type, donor heavy atom, donor atom, acceptor molecule, acceptor atom, score
      L1  H     1    21       P1  8028  0.10
      L1  H     4    24       P1  8028  0.96
      P1  H 10752 10763       L1    10  0.30

> <Gold.Chemscore.Hbond.Weighted>
-9.3060

> <Gold.Chemscore.Metal.Weighted>
-0.0000

> <Gold.Chemscore.Lipo.Weighted>
-13.1996

> <Gold.Chemscore.Internal_Hbond.Weighted>
0.0000

> <Gold.Chemscore.DEClash.Weighted>
0.6515

> <Gold.Chemscore.DEInternal.Weighted>
3.6770

> <Gold.Chemscore.Rot.Weighted>
5.9164

> <Gold.Chemscore.Internal.Correction.Weighted>
   9.000000E+99

> <Gold.Protein.RotatedTorsions>
[ 6907 6896 6895 6894 ] final   70.61 input  -60.11 | X-H torsion
[ 7974 7965 7964 7962 ] final -142.32 input  175.53 | X-H torsion
[ 8008 7997 7996 7995 ] final -140.52 input   59.86 | X-H torsion
[ 10167 10162 10161 10158 ] final -109.20 input  -65.29 | X-H torsion
[ 10718 10713 10712 10709 ] final -132.70 input   66.30 | X-H torsion
[ 10763 10752 10751 10750 ] final   64.81 input  -60.55 | X-H torsion
[ 11005 11000 10999 10996 ] final  141.64 input  -57.11 | X-H torsion

> <Gold.Protein.ActiveResidues>
 VAL166  LYS551  ARG553  GLY616  TRP617  ASP618  TYR619  PRO620  LYS621  CYS622 
 ASP623  PHE694  ASN695  SER759  ASP760  ASP761  ALA762  ILE779  LEU786  VAL792 
 PHE793  MET794  SER795  GLU796  ALA797  LYS798  CYS799  TRP800  GLU811  SER814 

> <Gold.Protein.RotatedAtoms>
  152.4760  134.4842  159.9674 H   0  0  0  0  0  0  0  0  0  0  0  0  # atno 6907 bound_to 6896
  151.4858  133.3530  159.2853 H   0  0  0  0  0  0  0  0  0  0  0  0  # atno 6908 bound_to 6896
  150.8799  134.8215  159.7279 H   0  0  0  0  0  0  0  0  0  0  0  0  # atno 6909 bound_to 6896
  144.8452  140.5972  143.5426 H   0  0  0  0  0  0  0  0  0  0  0  0  # atno 7974 bound_to 7965
  155.4628  140.0547  157.2989 H   0  0  0  0  0  0  0  0  0  0  0  0  # atno 8008 bound_to 7997
  154.4730  140.2049  155.9901 H   0  0  0  0  0  0  0  0  0  0  0  0  # atno 8009 bound_to 7997
  156.1087  140.3207  155.8047 H   0  0  0  0  0  0  0  0  0  0  0  0  # atno 8010 bound_to 7997
  140.1579  143.4145  152.1447 H   0  0  0  0  0  0  0  0  0  0  0  0  # atno 10167 bound_to 10162
  156.2372  130.7074  151.0920 H   0  0  0  0  0  0  0  0  0  0  0  0  # atno 10718 bound_to 10713
  153.0070  135.5379  154.6568 H   0  0  0  0  0  0  0  0  0  0  0  0  # atno 10763 bound_to 10752
  154.5787  135.2848  155.0757 H   0  0  0  0  0  0  0  0  0  0  0  0  # atno 10764 bound_to 10752
  154.1895  135.6502  153.5108 H   0  0  0  0  0  0  0  0  0  0  0  0  # atno 10765 bound_to 10752
  140.0417  134.9301  157.0855 H   0  0  0  0  0  0  0  0  0  0  0  0  # atno 11005 bound_to 11000
  145.4612  139.1512  143.3865 LP  0  0  0  0  0  0  0  0  0  0  0  0  # atno 17320 bound_to 7965
  146.2738  140.4742  142.8804 LP  0  0  0  0  0  0  0  0  0  0  0  0  # atno 17321 bound_to 7965
  139.5395  144.7242  151.4781 LP  0  0  0  0  0  0  0  0  0  0  0  0  # atno 17342 bound_to 10162
  140.6662  143.8393  150.6944 LP  0  0  0  0  0  0  0  0  0  0  0  0  # atno 17343 bound_to 10162
  157.7160  131.0709  150.6326 LP  0  0  0  0  0  0  0  0  0  0  0  0  # atno 17370 bound_to 10713
  156.6397  130.4455  149.5757 LP  0  0  0  0  0  0  0  0  0  0  0  0  # atno 17371 bound_to 10713
  140.4059  134.2033  155.7163 LP  0  0  0  0  0  0  0  0  0  0  0  0  # atno 17394 bound_to 11000
  141.1886  133.8256  157.0988 LP  0  0  0  0  0  0  0  0  0  0  0  0  # atno 17395 bound_to 11000

$$$$
