AV-unprocessed.smi:2061|AV-procd|sdf|8368|dock2
  -GOLD-   2272011 43D 1   1.00000     0.00000
 Structure written by MMmdl.
 46 47  0  0  0  0  0  0  0  0  2 V2000
  153.3914  142.8504  160.0659 C   0  0  0  0  0  0  0  0  0  0  0  0
  152.4478  142.4543  158.9826 C   0  0  0  0  0  0  0  0  0  0  0  0
  151.6242  143.1690  158.1593 C   0  0  0  0  0  0  0  0  0  0  0  0
  151.0073  142.1563  157.3680 C   0  0  0  0  0  0  0  0  0  0  0  0
  150.0515  142.3587  156.3391 N   0  0  0  0  0  0  0  0  0  0  0  0
  149.4602  141.4404  155.5564 C   0  0  0  0  0  0  0  0  0  0  0  0
  149.6483  140.2254  155.6140 O   0  0  0  0  0  0  0  0  0  0  0  0
  148.6177  142.0162  154.6854 N   0  0  0  0  0  0  0  0  0  0  0  0
  147.8507  141.3159  153.6570 C   0  0  0  0  0  0  0  0  0  0  0  0
  146.9085  140.2161  154.2246 C   0  0  2  0  0  0  0  0  0  0  0  0
  146.7036  139.0843  153.1868 C   0  0  0  0  0  0  0  0  0  0  0  0
  145.5961  140.7806  154.6932 N   0  3  1  0  0  0  0  0  0  0  0  0
  145.0071  140.0434  155.8473 C   0  0  0  0  0  0  0  0  0  0  0  0
  143.6488  140.6259  156.2841 C   0  0  2  0  0  0  0  0  0  0  0  0
  142.4953  140.2958  155.3188 C   0  0  0  0  0  0  0  0  0  0  0  0
  143.7692  142.0219  156.5341 O   0  0  0  0  0  0  0  0  0  0  0  0
  144.2582  142.7703  155.4293 C   0  0  1  0  0  0  0  0  0  0  0  0
  144.3199  144.2415  155.8544 C   0  0  0  0  0  0  0  0  0  0  0  0
  145.6389  142.2359  155.0078 C   0  0  0  0  0  0  0  0  0  0  0  0
  151.4228  140.9427  157.6806 N   0  0  0  0  0  0  0  0  0  0  0  0
  152.3455  141.1241  158.7173 O   0  0  0  0  0  0  0  0  0  0  0  0
  153.5066  143.9337  160.1055 H   0  0  0  0  0  0  0  0  0  0  0  0
  154.3758  142.4120  159.9010 H   0  0  0  0  0  0  0  0  0  0  0  0
  153.0281  142.5131  161.0368 H   0  0  0  0  0  0  0  0  0  0  0  0
  151.4971  144.2408  158.1408 H   0  0  0  0  0  0  0  0  0  0  0  0
  149.8029  143.3219  156.1682 H   0  0  0  0  0  0  0  0  0  0  0  0
  148.5228  143.0211  154.7149 H   0  0  0  0  0  0  0  0  0  0  0  0
  147.2794  142.1051  153.1718 H   0  0  0  0  0  0  0  0  0  0  0  0
  148.5069  140.8950  152.8931 H   0  0  0  0  0  0  0  0  0  0  0  0
  147.4032  139.7786  155.0934 H   0  0  0  0  0  0  0  0  0  0  0  0
  147.6485  138.6996  152.8069 H   0  0  0  0  0  0  0  0  0  0  0  0
  146.1226  139.4310  152.3314 H   0  0  0  0  0  0  0  0  0  0  0  0
  146.2042  138.2140  153.6086 H   0  0  0  0  0  0  0  0  0  0  0  0
  144.8479  138.9926  155.6146 H   0  0  0  0  0  0  0  0  0  0  0  0
  145.7068  140.0817  156.6839 H   0  0  0  0  0  0  0  0  0  0  0  0
  143.3905  140.1744  157.2425 H   0  0  0  0  0  0  0  0  0  0  0  0
  142.3324  139.2190  155.2663 H   0  0  0  0  0  0  0  0  0  0  0  0
  142.6901  140.6412  154.3038 H   0  0  0  0  0  0  0  0  0  0  0  0
  141.5641  140.7520  155.6559 H   0  0  0  0  0  0  0  0  0  0  0  0
  143.5647  142.6927  154.5920 H   0  0  0  0  0  0  0  0  0  0  0  0
  144.6821  144.8717  155.0416 H   0  0  0  0  0  0  0  0  0  0  0  0
  144.9859  144.3789  156.7070 H   0  0  0  0  0  0  0  0  0  0  0  0
  143.3329  144.6053  156.1411 H   0  0  0  0  0  0  0  0  0  0  0  0
  146.3745  142.4162  155.7937 H   0  0  0  0  0  0  0  0  0  0  0  0
  145.9423  142.8156  154.1386 H   0  0  0  0  0  0  0  0  0  0  0  0
  144.9488  140.6747  153.9250 H   0  0  0  0  0  0  0  0  0  0  0  0
  1  2  1  0  0  0  0
  1 22  1  0  0  0  0
  1 23  1  0  0  0  0
  1 24  1  0  0  0  0
  2 21  1  0  0  0  0
  2  3  2  0  0  0  0
  3  4  1  0  0  0  0
  3 25  1  0  0  0  0
  4  5  1  0  0  0  0
  4 20  2  0  0  0  0
  5  6  1  0  0  0  0
  5 26  1  0  0  0  0
  6  7  2  0  0  0  0
  6  8  1  0  0  0  0
  8  9  1  0  0  0  0
  8 27  1  0  0  0  0
  9 10  1  0  0  0  0
  9 28  1  0  0  0  0
  9 29  1  0  0  0  0
 10 11  1  0  0  0  0
 10 12  1  0  0  0  0
 10 30  1  0  0  0  0
 11 31  1  0  0  0  0
 11 32  1  0  0  0  0
 11 33  1  0  0  0  0
 12 19  1  0  0  0  0
 12 13  1  0  0  0  0
 12 46  1  0  0  0  0
 13 14  1  0  0  0  0
 13 34  1  0  0  0  0
 13 35  1  0  0  0  0
 14 15  1  0  0  0  0
 14 16  1  0  0  0  0
 14 36  1  0  0  0  0
 15 37  1  0  0  0  0
 15 38  1  0  0  0  0
 15 39  1  0  0  0  0
 16 17  1  0  0  0  0
 17 18  1  0  0  0  0
 17 19  1  0  0  0  0
 17 40  1  0  0  0  0
 18 41  1  0  0  0  0
 18 42  1  0  0  0  0
 18 43  1  0  0  0  0
 19 44  1  0  0  0  0
 19 45  1  0  0  0  0
 20 21  1  0  0  0  0
M  CHG  1  12   1
M  END
> <s_m_source_file>
AV-unprocessed.smi

> <i_m_source_file_index>
2061

> <i_lp_mmshare_version>
43012

> <i_f3d_flags>
0

> <s_epik_input>
W0NIM11jMVtjSF1jKG5vMSlbTkhdQyg9TylbTkhdW0NIMl1bQ0BIXShbQ0gzXSlOMltDSDJdW0NAQEhdKFtDSDNdKU9bQ0BASF0oW0NIM10pW0NIMl0y

> <s_epik_cmdline>
J2VwaWtfcHl0aG9uJywgJy1waCcsICc3LjAnLCAnLXRuJywgJzgnLCAnLW1hJywgJzIwMCcsICctbWV0YWxfYmluZGluZycsICctaW1hZScsICc8aW5maWxlLm1hZT4nLCAnLW9tYWUnLCAnPG91dGZpbGUubWFlPic=

> <r_epik_Ionization_Penalty>
0.707076

> <r_epik_Ionization_Penalty_Charging>
0.707039

> <r_epik_Ionization_Penalty_Neutral>
3.6548e-05

> <r_epik_State_Penalty>
0.730276

> <r_epik_Charging_Adjusted_Penalty>
1.43732

> <i_epik_Tot_Q>
1

> <i_epik_Tot_abs_Q>
1

> <r_epik_Metal_State_Penalty>
0.743132

> <b_epik_Metal_Only>
0

> <s_lp_Force_Field>
OPLS_2005

> <r_lp_Energy>
23.7206

> <b_lp_Chiralities_Consistent>
1

> <s_lp_Variant>
AV-unprocessed.smi:2061-9

> <Gold.Version>
5.8.1

> <Gold.Id.Protein>
6NUR|6NUR_protein|mol2

> <Gold.PLP.Fitness>
39.5522

> <Gold.PLP.PLP>
-29.8751

> <Gold.PLP.part.hbond>
-3.0000

> <Gold.PLP.part.metal>
0.0000

> <Gold.PLP.part.buried>
-4.8531

> <Gold.PLP.part.nonpolar>
-23.6778

> <Gold.PLP.part.repulsive>
0.4071

> <Gold.PLP.ligand.clash>
0.0000

> <Gold.PLP.ligand.torsion>
1.1568

> <Gold.PLP.Chemscore.Hbond>
3.9760

> <Gold.PLP.Chemscore.CHOScore>
0.0000

> <Gold.PLP.Chemscore.Metal>
0.0000

> <Gold.Chemscore.Hbonds>
donor molecule, donor type, donor heavy atom, donor atom, acceptor molecule, acceptor atom, score
      L1  H     5    26       P1  8028  1.00
      L1  H     8    27       P1  8028  0.99
      L1  H    12    46       P1 10175  2.00

> <Gold.PLP.Chemscore.Internal.Correction>
0.0628

> <Gold.Rescore>
     Score         DG    S(hbond)    S(metal)    S(lipo)     H(rot)  DE(clash)    DE(int)     intcor
     15.45     -19.12       2.92        0.00      67.96       1.58       0.10       3.57       ----

> <Gold.Chemscore.Fitness>
15.4473

> <Gold.Chemscore.DG>
-19.1190

> <Gold.Chemscore.ZeroCoef>
-5.4800

> <Gold.Chemscore.Hbond>
2.9165

> <Gold.Chemscore.Metal>
0.0000

> <Gold.Chemscore.Lipo>
67.9613

> <Gold.Chemscore.Internal_Hbond>
0.0000

> <Gold.Chemscore.DEClash>
0.1038

> <Gold.Chemscore.DEInternal>
3.5678

> <Gold.Chemscore.Rot>
1.5834

> <Gold.Chemscore.Internal.Correction>
   9.000000E+99

> <Gold.Chemscore.Hbonds>
donor molecule, donor type, donor heavy atom, donor atom, acceptor molecule, acceptor atom, score
      L1  H     5    26       P1  8028  1.00
      L1  H     8    27       P1  8028  0.93
      L1  H    12    46       P1 10175  0.98

> <Gold.Chemscore.Hbond.Weighted>
-9.7409

> <Gold.Chemscore.Metal.Weighted>
-0.0000

> <Gold.Chemscore.Lipo.Weighted>
-7.9515

> <Gold.Chemscore.Internal_Hbond.Weighted>
0.0000

> <Gold.Chemscore.DEClash.Weighted>
0.1038

> <Gold.Chemscore.DEInternal.Weighted>
3.5678

> <Gold.Chemscore.Rot.Weighted>
4.0535

> <Gold.Chemscore.Internal.Correction.Weighted>
   9.000000E+99

> <Gold.Protein.RotatedTorsions>
[ 6907 6896 6895 6894 ] final -114.53 input  -60.11 | X-H torsion
[ 7974 7965 7964 7962 ] final  -13.19 input  175.53 | X-H torsion
[ 8008 7997 7996 7995 ] final    2.06 input   59.86 | X-H torsion
[ 10167 10162 10161 10158 ] final  -89.54 input  -65.29 | X-H torsion
[ 10718 10713 10712 10709 ] final   31.38 input   66.30 | X-H torsion
[ 10763 10752 10751 10750 ] final  -41.31 input  -60.55 | X-H torsion
[ 11005 11000 10999 10996 ] final  -12.85 input  -57.11 | X-H torsion

> <Gold.Protein.ActiveResidues>
 VAL166  LYS551  ARG553  GLY616  TRP617  ASP618  TYR619  PRO620  LYS621  CYS622 
 ASP623  PHE694  ASN695  SER759  ASP760  ASP761  ALA762  ILE779  LEU786  VAL792 
 PHE793  MET794  SER795  GLU796  ALA797  LYS798  CYS799  TRP800  GLU811  SER814 

> <Gold.Protein.RotatedAtoms>
  150.7909  133.8788  159.3279 H   0  0  0  0  0  0  0  0  0  0  0  0  # atno 6907 bound_to 6896
  151.6626  135.0985  160.0192 H   0  0  0  0  0  0  0  0  0  0  0  0  # atno 6908 bound_to 6896
  152.3983  133.6740  159.6330 H   0  0  0  0  0  0  0  0  0  0  0  0  # atno 6909 bound_to 6896
  146.2124  140.3167  142.8387 H   0  0  0  0  0  0  0  0  0  0  0  0  # atno 7974 bound_to 7965
  154.6871  140.2645  155.6849 H   0  0  0  0  0  0  0  0  0  0  0  0  # atno 8008 bound_to 7997
  156.2718  140.2798  156.1359 H   0  0  0  0  0  0  0  0  0  0  0  0  # atno 8009 bound_to 7997
  155.0949  140.0374  157.2670 H   0  0  0  0  0  0  0  0  0  0  0  0  # atno 8010 bound_to 7997
  140.3638  143.2828  151.9582 H   0  0  0  0  0  0  0  0  0  0  0  0  # atno 10167 bound_to 10162
  157.2717  130.7211  149.6508 H   0  0  0  0  0  0  0  0  0  0  0  0  # atno 10718 bound_to 10713
  153.9604  135.6740  153.4745 H   0  0  0  0  0  0  0  0  0  0  0  0  # atno 10763 bound_to 10752
  153.0841  135.4908  154.8558 H   0  0  0  0  0  0  0  0  0  0  0  0  # atno 10764 bound_to 10752
  154.7275  135.3131  154.8906 H   0  0  0  0  0  0  0  0  0  0  0  0  # atno 10765 bound_to 10752
  140.7700  133.8446  155.9199 H   0  0  0  0  0  0  0  0  0  0  0  0  # atno 11005 bound_to 11000
  144.8949  140.7571  143.5903 LP  0  0  0  0  0  0  0  0  0  0  0  0  # atno 17320 bound_to 7965
  145.3090  139.1825  143.4649 LP  0  0  0  0  0  0  0  0  0  0  0  0  # atno 17321 bound_to 7965
  139.4811  144.5969  151.7675 LP  0  0  0  0  0  0  0  0  0  0  0  0  # atno 17342 bound_to 10162
  140.5101  144.1038  150.5993 LP  0  0  0  0  0  0  0  0  0  0  0  0  # atno 17343 bound_to 10162
  155.9663  130.4365  150.5138 LP  0  0  0  0  0  0  0  0  0  0  0  0  # atno 17370 bound_to 10713
  157.3063  131.0655  151.2032 LP  0  0  0  0  0  0  0  0  0  0  0  0  # atno 17371 bound_to 10713
  140.9583  134.1689  157.4674 LP  0  0  0  0  0  0  0  0  0  0  0  0  # atno 17394 bound_to 11000
  139.8757  134.9935  156.5648 LP  0  0  0  0  0  0  0  0  0  0  0  0  # atno 17395 bound_to 11000

$$$$
