#       Name:                AV-unprocessed.smi:215
#       Creating user name   scv26
#       Creation time:       Thu Mar 26 20:05:02 2020


#       File generated by GOLD software.
#

@<TRIPOS>MOLECULE
AV-unprocessed.smi:215
    68    71     1
SMALL
NO_CHARGES


@<TRIPOS>ATOM
      1 ****        -1.4738   0.8359   2.5452 C.3            1 S1                 0.0000
      2 ****        -2.1915   0.8996   1.1781 C.3            1 S1                 0.0000
      3 ****        -3.6625   1.3583   1.2667 C.3            1 S1                 0.0000
      4 ****        -4.4609   0.7301   2.3616 N.4            1 S1                 1.0000
      5 ****        -5.7499   1.4283   2.6009 C.3            1 S1                 0.0000
      6 ****        -4.6509  -0.7341   2.1627 C.3            1 S1                 0.0000
      7 ****        -4.9602  -1.4882   3.4695 C.3            1 S1                 0.0000
      8 ****        -3.8527  -1.4318   4.3427 O.3            1 S1                 0.0000
      9 ****        -3.5193   2.8879   1.3434 C.3            1 S1                 0.0000
     10 ****        -2.2864   3.1895   0.4824 C.3            1 S1                 0.0000
     11 ****        -1.5957   1.9145   0.3194 N.pl3          1 S1                 0.0000
     12 ****        -0.3423   1.8337  -0.2048 C.ar           1 S1                 0.0000
     13 ****         0.2475   2.9816  -0.6321 N.ar           1 S1                 0.0000
     14 ****         1.4799   2.9659  -1.1464 C.ar           1 S1                 0.0000
     15 ****         2.2904   1.9244  -1.3335 N.ar           1 S1                 0.0000
     16 ****         1.7045   0.7631  -0.9255 C.ar           1 S1                 0.0000
     17 ****         0.4061   0.6263  -0.3523 C.ar           1 S1                 0.0000
     18 ****         0.1704  -0.7133  -0.0601 N.2            1 S1                 0.0000
     19 ****         1.2632  -1.3253  -0.4237 C.2            1 S1                 0.0000
     20 ****         2.2268  -0.5174  -0.9807 N.pl3          1 S1                 0.0000
     21 ****         3.5287  -0.9184  -1.4274 C.3            1 S1                 0.0000
     22 ****         4.1109  -0.3952  -2.7427 C.3            1 S1                 0.0000
     23 ****         4.8614  -1.7327  -2.9337 C.3            1 S1                 0.0000
     24 ****         4.8684  -2.2551  -4.3810 C.3            1 S1                 0.0000
     25 ****         5.0640  -3.6530  -4.4379 O.3            1 S1                 0.0000
     26 ****         6.3055  -1.7214  -2.3887 C.3            1 S1                 0.0000
     27 ****         6.7755  -3.0197  -2.0886 O.3            1 S1                 0.0000
     28 ****         3.7759  -2.3157  -1.9997 C.3            1 S1                 0.0000
     29 ****        -2.1519  -0.0719   0.6890 H              1 S1                 0.0000
     30 ****        -4.1525   1.1224   0.3196 H              1 S1                 0.0000
     31 ****        -1.9050   0.0689   3.1861 H              1 S1                 0.0000
     32 ****        -1.5268   1.7843   3.0799 H              1 S1                 0.0000
     33 ****        -0.4186   0.5899   2.4287 H              1 S1                 0.0000
     34 ****        -6.3632   1.4316   1.6989 H              1 S1                 0.0000
     35 ****        -5.5927   2.4615   2.9093 H              1 S1                 0.0000
     36 ****        -6.3256   0.9585   3.3964 H              1 S1                 0.0000
     37 ****        -5.4509  -0.8961   1.4387 H              1 S1                 0.0000
     38 ****        -3.7602  -1.1840   1.7254 H              1 S1                 0.0000
     39 ****        -5.8459  -1.1062   3.9748 H              1 S1                 0.0000
     40 ****        -5.1590  -2.5368   3.2462 H              1 S1                 0.0000
     41 ****        -4.0425  -1.9566   5.1062 H              1 S1                 0.0000
     42 ****        -4.4045   3.4171   0.9889 H              1 S1                 0.0000
     43 ****        -3.3295   3.2038   2.3702 H              1 S1                 0.0000
     44 ****        -2.5824   3.5620  -0.4989 H              1 S1                 0.0000
     45 ****        -1.6516   3.9389   0.9568 H              1 S1                 0.0000
     46 ****         1.8722   3.9248  -1.4519 H              1 S1                 0.0000
     47 ****         1.3927  -2.3909  -0.3006 H              1 S1                 0.0000
     48 ****         4.2065  -0.7168  -0.5963 H              1 S1                 0.0000
     49 ****         3.3391  -0.2209  -3.4949 H              1 S1                 0.0000
     50 ****         4.7509   0.4812  -2.6352 H              1 S1                 0.0000
     51 ****         3.9196  -2.0414  -4.8740 H              1 S1                 0.0000
     52 ****         5.6393  -1.7645  -4.9761 H              1 S1                 0.0000
     53 ****         5.0455  -3.9235  -5.3429 H              1 S1                 0.0000
     54 ****         6.9901  -1.2588  -3.1000 H              1 S1                 0.0000
     55 ****         6.3769  -1.1300  -1.4756 H              1 S1                 0.0000
     56 ****         7.6623  -2.9527  -1.7697 H              1 S1                 0.0000
     57 ****         4.1331  -3.0441  -1.2711 H              1 S1                 0.0000
     58 ****         2.9141  -2.7036  -2.5466 H              1 S1                 0.0000
     59 ****        -3.9115   0.8338   3.2034 H              1 S1                 0.0000
     60 ****        -3.6886  -0.4844   4.6176 LP             1 S1                 0.0000
     61 ****        -3.0413  -1.7902   3.8810 LP             1 S1                 0.0000
     62 ****        -0.2472   3.8478  -0.5605 LP             1 S1                 0.0000
     63 ****         3.2094   1.9869  -1.7228 LP             1 S1                 0.0000
     64 ****        -0.6528  -1.1167   0.3394 LP             1 S1                 0.0000
     65 ****         4.3354  -4.1159  -3.9330 LP             1 S1                 0.0000
     66 ****         5.9489  -3.8860  -4.0347 LP             1 S1                 0.0000
     67 ****         6.7559  -3.5842  -2.9137 LP             1 S1                 0.0000
     68 ****         6.1956  -3.4342  -1.3872 LP             1 S1                 0.0000
@<TRIPOS>BOND
    1    1    2 1     
    2    1   31 1     
    3    1   32 1     
    4    1   33 1     
    5    2   29 1     
    6    2   11 1     
    7    2    3 1     
    8    3   30 1     
    9    3    4 1     
   10    3    9 1     
   11    4    5 1     
   12    4    6 1     
   13    4   59 1     
   14    5   34 1     
   15    5   35 1     
   16    5   36 1     
   17    6    7 1     
   18    6   37 1     
   19    6   38 1     
   20    7    8 1     
   21    7   39 1     
   22    7   40 1     
   23    8   41 1     
   24    9   10 1     
   25    9   42 1     
   26    9   43 1     
   27   10   11 1     
   28   10   44 1     
   29   10   45 1     
   30   11   12 1     
   31   12   17 ar    
   32   12   13 ar    
   33   13   14 ar    
   34   14   15 ar    
   35   14   46 1     
   36   15   16 ar    
   37   16   20 1     
   38   16   17 ar    
   39   17   18 1     
   40   18   19 2     
   41   19   20 1     
   42   19   47 1     
   43   20   21 1     
   44   21   28 1     
   45   21   22 1     
   46   21   48 1     
   47   22   23 1     
   48   22   49 1     
   49   22   50 1     
   50   23   24 1     
   51   23   26 1     
   52   23   28 1     
   53   24   25 1     
   54   24   51 1     
   55   24   52 1     
   56   25   53 1     
   57   26   27 1     
   58   26   54 1     
   59   26   55 1     
   60   27   56 1     
   61   28   57 1     
   62   28   58 1     
   63    8   60 1     
   64    8   61 1     
   65   13   62 1     
   66   15   63 1     
   67   18   64 1     
   68   25   65 1     
   69   25   66 1     
   70   27   67 1     
   71   27   68 1     
@<TRIPOS>SUBSTRUCTURE
      1 S1             1
@<TRIPOS>SET
LONE_PAIRS      STATIC     ATOMS    <user>   **** ""
9 60 61 62 63 64 65 66 67 68
DONOR_HYDROGENS      STATIC     ATOMS    <user>   **** ""
4 59 41 53 56
ATOM$BLUE        STATIC     ATOMS    COLORGROUP SYSTEM
9 60 61 62 63 64 65 66 67 68
ATOM$RED        STATIC     ATOMS    COLORGROUP SYSTEM
4 59 41 53 56
