AV-unprocessed.smi:3274|AV-procd|sdf|12526|dock4
  -GOLD-   2272018443D 1   1.00000     0.00000
 Structure written by MMmdl.
 43 44  0  0  0  0  0  0  0  0  2 V2000
  151.7412  145.0319  158.8026 C   0  0  0  0  0  0  0  0  0  0  0  0
  152.2160  144.1299  159.9301 C   0  0  0  0  0  0  0  0  0  0  0  0
  152.2209  144.5641  161.2060 C   0  0  0  0  0  0  0  0  0  0  0  0
  152.7306  143.7638  162.3921 C   0  0  0  0  0  0  0  0  0  0  0  0
  153.0952  142.3133  162.0341 C   0  0  0  0  0  0  0  0  0  0  0  0
  153.7193  142.2183  160.6309 C   0  0  1  0  0  0  0  0  0  0  0  0
  154.2999  140.8220  160.3476 C   0  0  0  0  0  0  0  0  0  0  0  0
  152.7318  142.7364  159.5473 C   0  0  1  0  0  0  0  0  0  0  0  0
  151.5741  141.7447  159.2609 C   0  0  0  0  0  0  0  0  0  0  0  0
  150.7892  142.1111  158.0639 N   0  3  0  0  0  0  0  0  0  0  0  0
  150.4761  140.9923  157.1457 C   0  0  1  0  0  0  0  0  0  0  0  0
  149.7523  141.5033  155.8891 C   0  0  0  0  0  0  0  0  0  0  0  0
  151.7682  140.2409  156.7615 C   0  0  0  0  0  0  0  0  0  0  0  0
  151.5452  139.1517  155.8244 N   0  0  0  0  0  0  0  0  0  0  0  0
  151.8823  137.8634  155.9033 C   0  0  0  0  0  0  0  0  0  0  0  0
  151.5421  137.1539  154.8367 N   0  0  0  0  0  0  0  0  0  0  0  0
  150.9767  138.1386  154.0772 C   0  0  0  0  0  0  0  0  0  0  0  0
  150.9597  139.3560  154.6201 N   0  0  0  0  0  0  0  0  0  0  0  0
  152.4700  145.0471  157.9919 H   0  0  0  0  0  0  0  0  0  0  0  0
  151.6138  146.0576  159.1507 H   0  0  0  0  0  0  0  0  0  0  0  0
  150.7820  144.7056  158.4052 H   0  0  0  0  0  0  0  0  0  0  0  0
  151.8725  145.5616  161.4320 H   0  0  0  0  0  0  0  0  0  0  0  0
  153.6125  144.2783  162.7750 H   0  0  0  0  0  0  0  0  0  0  0  0
  151.9869  143.7792  163.1891 H   0  0  0  0  0  0  0  0  0  0  0  0
  153.7804  141.9189  162.7851 H   0  0  0  0  0  0  0  0  0  0  0  0
  152.2036  141.6878  162.0846 H   0  0  0  0  0  0  0  0  0  0  0  0
  154.5745  142.8969  160.6218 H   0  0  0  0  0  0  0  0  0  0  0  0
  153.5552  140.0359  160.4699 H   0  0  0  0  0  0  0  0  0  0  0  0
  155.1164  140.5978  161.0347 H   0  0  0  0  0  0  0  0  0  0  0  0
  154.6988  140.7586  159.3348 H   0  0  0  0  0  0  0  0  0  0  0  0
  153.3107  142.8491  158.6292 H   0  0  0  0  0  0  0  0  0  0  0  0
  151.9617  140.7420  159.0862 H   0  0  0  0  0  0  0  0  0  0  0  0
  150.9148  141.6844  160.1260 H   0  0  0  0  0  0  0  0  0  0  0  0
  149.9259  142.5491  158.3522 H   0  0  0  0  0  0  0  0  0  0  0  0
  149.8138  140.2939  157.6600 H   0  0  0  0  0  0  0  0  0  0  0  0
  149.5429  140.6843  155.2002 H   0  0  0  0  0  0  0  0  0  0  0  0
  150.3558  142.2380  155.3550 H   0  0  0  0  0  0  0  0  0  0  0  0
  148.7976  141.9695  156.1316 H   0  0  0  0  0  0  0  0  0  0  0  0
  152.4826  140.9287  156.3073 H   0  0  0  0  0  0  0  0  0  0  0  0
  152.2492  139.8358  157.6533 H   0  0  0  0  0  0  0  0  0  0  0  0
  152.3854  137.4347  156.7576 H   0  0  0  0  0  0  0  0  0  0  0  0
  150.5672  137.9537  153.0948 H   0  0  0  0  0  0  0  0  0  0  0  0
  151.3350  142.7869  157.5484 H   0  0  0  0  0  0  0  0  0  0  0  0
  1  2  1  0  0  0  0
  1 19  1  0  0  0  0
  1 20  1  0  0  0  0
  1 21  1  0  0  0  0
  2  8  1  0  0  0  0
  2  3  2  0  0  0  0
  3  4  1  0  0  0  0
  3 22  1  0  0  0  0
  4  5  1  0  0  0  0
  4 23  1  0  0  0  0
  4 24  1  0  0  0  0
  5  6  1  0  0  0  0
  5 25  1  0  0  0  0
  5 26  1  0  0  0  0
  6  7  1  0  0  0  0
  6  8  1  0  0  0  0
  6 27  1  0  0  0  0
  7 28  1  0  0  0  0
  7 29  1  0  0  0  0
  7 30  1  0  0  0  0
  8  9  1  0  0  0  0
  8 31  1  0  0  0  0
  9 10  1  0  0  0  0
  9 32  1  0  0  0  0
  9 33  1  0  0  0  0
 10 11  1  0  0  0  0
 10 34  1  0  0  0  0
 10 43  1  0  0  0  0
 11 12  1  0  0  0  0
 11 13  1  0  0  0  0
 11 35  1  0  0  0  0
 12 36  1  0  0  0  0
 12 37  1  0  0  0  0
 12 38  1  0  0  0  0
 13 14  1  0  0  0  0
 13 39  1  0  0  0  0
 13 40  1  0  0  0  0
 14 18  1  0  0  0  0
 14 15  1  0  0  0  0
 15 16  2  0  0  0  0
 15 41  1  0  0  0  0
 16 17  1  0  0  0  0
 17 18  2  0  0  0  0
 17 42  1  0  0  0  0
M  CHG  1  10   1
M  END
> <s_m_source_file>
AV-unprocessed.smi

> <i_m_source_file_index>
3274

> <i_lp_mmshare_version>
43012

> <i_f3d_flags>
0

> <s_epik_input>
W0NIM11DMT1bQ0hdW0NIMl1bQ0gyXVtDQEBIXShbQ0gzXSlbQ0BIXTFbQ0gyXVtOSF1bQ0BIXShbQ0gzXSlbQ0gyXW4yW2NIXW5bY0hdbjI=

> <s_epik_cmdline>
J2VwaWtfcHl0aG9uJywgJy1waCcsICc3LjAnLCAnLXRuJywgJzgnLCAnLW1hJywgJzIwMCcsICctbWV0YWxfYmluZGluZycsICctaW1hZScsICc8aW5maWxlLm1hZT4nLCAnLW9tYWUnLCAnPG91dGZpbGUubWFlPic=

> <r_lp_tautomer_probability>
1

> <r_epik_Ionization_Penalty>
0.0017527

> <r_epik_Ionization_Penalty_Charging>
0.00175191

> <r_epik_Ionization_Penalty_Neutral>
7.94565e-07

> <r_epik_State_Penalty>
0.00118605

> <r_epik_Charging_Adjusted_Penalty>
0.00293796

> <i_epik_Tot_Q>
1

> <i_epik_Tot_abs_Q>
1

> <r_epik_Metal_State_Penalty>
-0

> <b_epik_Metal_Only>
0

> <s_lp_Force_Field>
OPLS_2005

> <r_lp_Energy>
18.0154

> <b_lp_Chiralities_Consistent>
1

> <s_lp_Variant>
AV-unprocessed.smi:3274-5

> <Gold.Version>
5.8.1

> <Gold.Id.Protein>
6NUR|6NUR_protein|mol2

> <Gold.PLP.Fitness>
55.5531

> <Gold.PLP.PLP>
-47.0014

> <Gold.PLP.part.hbond>
-2.0000

> <Gold.PLP.part.metal>
0.0000

> <Gold.PLP.part.buried>
-5.8723

> <Gold.PLP.part.nonpolar>
-39.6643

> <Gold.PLP.part.repulsive>
0.2581

> <Gold.PLP.ligand.clash>
0.0000

> <Gold.PLP.ligand.torsion>
0.4053

> <Gold.PLP.Chemscore.Hbond>
2.0000

> <Gold.PLP.Chemscore.CHOScore>
1.0865

> <Gold.PLP.Chemscore.Metal>
0.0000

> <Gold.Chemscore.Hbonds>
donor molecule, donor type, donor heavy atom, donor atom, acceptor molecule, acceptor atom, score
      P1  H  7989  7998       L1    18  1.00
      P1  H 10752 10763       L1    16  0.84
      L1  C    17    42       P1  7948  0.48
      L1  C    17    42       P1  7949  0.47

> <Gold.PLP.Chemscore.Internal.Correction>
0.1026

> <Gold.Rescore>
     Score         DG    S(hbond)    S(metal)    S(lipo)     H(rot)  DE(clash)    DE(int)     intcor
     18.21     -20.24       1.93        0.00     122.78       2.36       0.13       1.90       ----

> <Gold.Chemscore.Fitness>
18.2119

> <Gold.Chemscore.DG>
-20.2432

> <Gold.Chemscore.ZeroCoef>
-5.4800

> <Gold.Chemscore.Hbond>
1.9291

> <Gold.Chemscore.Metal>
0.0000

> <Gold.Chemscore.Lipo>
122.7819

> <Gold.Chemscore.Internal_Hbond>
0.0000

> <Gold.Chemscore.DEClash>
0.1336

> <Gold.Chemscore.DEInternal>
1.8977

> <Gold.Chemscore.Rot>
2.3615

> <Gold.Chemscore.Internal.Correction>
   9.000000E+99

> <Gold.Chemscore.Hbonds>
donor molecule, donor type, donor heavy atom, donor atom, acceptor molecule, acceptor atom, score
      P1  H  7989  7998       L1    18  0.87
      P1  H 10752 10763       L1    16  0.64

> <Gold.Chemscore.Hbond.Weighted>
-6.4431

> <Gold.Chemscore.Metal.Weighted>
-0.0000

> <Gold.Chemscore.Lipo.Weighted>
-14.3655

> <Gold.Chemscore.Internal_Hbond.Weighted>
0.0000

> <Gold.Chemscore.DEClash.Weighted>
0.1336

> <Gold.Chemscore.DEInternal.Weighted>
1.8977

> <Gold.Chemscore.Rot.Weighted>
6.0454

> <Gold.Chemscore.Internal.Correction.Weighted>
   9.000000E+99

> <Gold.Protein.RotatedTorsions>
[ 6907 6896 6895 6894 ] final -107.18 input  -60.11 | X-H torsion
[ 7974 7965 7964 7962 ] final   77.64 input  175.53 | X-H torsion
[ 8008 7997 7996 7995 ] final  119.87 input   59.86 | X-H torsion
[ 10167 10162 10161 10158 ] final -177.85 input  -65.29 | X-H torsion
[ 10718 10713 10712 10709 ] final -165.79 input   66.30 | X-H torsion
[ 10763 10752 10751 10750 ] final   52.81 input  -60.55 | X-H torsion
[ 11005 11000 10999 10996 ] final  160.04 input  -57.11 | X-H torsion

> <Gold.Protein.ActiveResidues>
 VAL166  LYS551  ARG553  GLY616  TRP617  ASP618  TYR619  PRO620  LYS621  CYS622 
 ASP623  PHE694  ASN695  SER759  ASP760  ASP761  ALA762  ILE779  LEU786  VAL792 
 PHE793  MET794  SER795  GLU796  ALA797  LYS798  CYS799  TRP800  GLU811  SER814 

> <Gold.Protein.RotatedAtoms>
  150.7430  133.9865  159.3592 H   0  0  0  0  0  0  0  0  0  0  0  0  # atno 6907 bound_to 6896
  151.7809  135.0759  160.0383 H   0  0  0  0  0  0  0  0  0  0  0  0  # atno 6908 bound_to 6896
  152.3274  133.5884  159.5822 H   0  0  0  0  0  0  0  0  0  0  0  0  # atno 6909 bound_to 6896
  145.6874  139.2542  143.1779 H   0  0  0  0  0  0  0  0  0  0  0  0  # atno 7974 bound_to 7965
  156.2616  140.2843  156.1061 H   0  0  0  0  0  0  0  0  0  0  0  0  # atno 8008 bound_to 7997
  155.1308  140.0394  157.2792 H   0  0  0  0  0  0  0  0  0  0  0  0  # atno 8009 bound_to 7997
  154.6601  140.2564  155.7124 H   0  0  0  0  0  0  0  0  0  0  0  0  # atno 8010 bound_to 7997
  139.5460  144.2234  152.0989 H   0  0  0  0  0  0  0  0  0  0  0  0  # atno 10167 bound_to 10162
  156.6585  130.9036  151.3025 H   0  0  0  0  0  0  0  0  0  0  0  0  # atno 10718 bound_to 10713
  152.9791  135.5800  154.4640 H   0  0  0  0  0  0  0  0  0  0  0  0  # atno 10763 bound_to 10752
  154.4212  135.2771  155.1976 H   0  0  0  0  0  0  0  0  0  0  0  0  # atno 10764 bound_to 10752
  154.3724  135.6165  153.5801 H   0  0  0  0  0  0  0  0  0  0  0  0  # atno 10765 bound_to 10752
  140.2021  134.8330  157.3029 H   0  0  0  0  0  0  0  0  0  0  0  0  # atno 11005 bound_to 11000
  146.0912  140.7653  142.9594 LP  0  0  0  0  0  0  0  0  0  0  0  0  # atno 17320 bound_to 7965
  144.7007  140.3640  143.7158 LP  0  0  0  0  0  0  0  0  0  0  0  0  # atno 17321 bound_to 7965
  140.1721  144.4926  150.6574 LP  0  0  0  0  0  0  0  0  0  0  0  0  # atno 17342 bound_to 10162
  140.6708  143.2285  151.5629 LP  0  0  0  0  0  0  0  0  0  0  0  0  # atno 17343 bound_to 10162
  157.7117  130.9448  150.1113 LP  0  0  0  0  0  0  0  0  0  0  0  0  # atno 17370 bound_to 10713
  156.2029  130.3661  149.8766 LP  0  0  0  0  0  0  0  0  0  0  0  0  # atno 17371 bound_to 10713
  140.2043  134.4216  155.7646 LP  0  0  0  0  0  0  0  0  0  0  0  0  # atno 17394 bound_to 11000
  141.2227  133.7087  156.8235 LP  0  0  0  0  0  0  0  0  0  0  0  0  # atno 17395 bound_to 11000

$$$$
