AV-unprocessed.smi:609|AV-procd|sdf|3052|dock6
  -GOLD-   2262023573D 1   1.00000     0.00000
 Structure written by MMmdl.
 43 45  0  0  0  0  0  0  0  0  2 V2000
  152.7088  143.7480  160.0165 C   0  0  0  0  0  0  0  0  0  0  0  0
  152.3045  142.7312  158.9624 C   0  0  0  0  0  0  0  0  0  0  0  0
  151.3781  143.1211  157.9691 C   0  0  0  0  0  0  0  0  0  0  0  0
  151.0289  142.1691  157.0185 C   0  0  0  0  0  0  0  0  0  0  0  0
  150.1600  142.2427  155.9277 N   0  3  0  0  0  0  0  0  0  0  0  0
  150.1444  141.0461  155.2778 C   0  0  0  0  0  0  0  0  0  0  0  0
  150.9893  140.2090  155.9382 N   0  0  0  0  0  0  0  0  0  0  0  0
  151.3360  138.8102  155.6492 C   0  0  0  0  0  0  0  0  0  0  0  0
  150.2366  138.0749  154.8591 C   0  0  1  0  0  0  0  0  0  0  0  0
  150.3063  138.4248  153.4903 O   0  0  0  0  0  0  0  0  0  0  0  0
  150.3592  136.5455  154.9932 C   0  0  0  0  0  0  0  0  0  0  0  0
  148.7424  135.7099  155.0705 S   0  0  0  0  0  0  0  0  0  0  0  0
  149.1916  134.0990  154.4964 C   0  0  0  0  0  0  0  0  0  0  0  0
  148.6555  133.4863  153.4436 N   0  0  0  0  0  0  0  0  0  0  0  0
  149.3024  132.2579  153.3716 C   0  0  0  0  0  0  0  0  0  0  0  0
  150.2145  132.1654  154.3940 C   0  0  0  0  0  0  0  0  0  0  0  0
  150.1301  133.3529  155.1085 N   0  0  0  0  0  0  0  0  0  0  0  0
  150.9112  133.7020  156.2789 C   0  0  0  0  0  0  0  0  0  0  0  0
  151.5648  140.8666  157.0321 C   0  0  0  0  0  0  0  0  0  0  0  0
  152.4786  140.4665  158.0043 C   0  0  0  0  0  0  0  0  0  0  0  0
  152.8475  141.4203  158.9796 C   0  0  0  0  0  0  0  0  0  0  0  0
  153.8442  141.0117  160.0509 C   0  0  0  0  0  0  0  0  0  0  0  0
  152.2490  144.7193  159.8311 H   0  0  0  0  0  0  0  0  0  0  0  0
  153.7898  143.8886  160.0209 H   0  0  0  0  0  0  0  0  0  0  0  0
  152.3981  143.4143  161.0069 H   0  0  0  0  0  0  0  0  0  0  0  0
  150.9607  144.1172  157.9495 H   0  0  0  0  0  0  0  0  0  0  0  0
  149.5672  140.8049  154.3968 H   0  0  0  0  0  0  0  0  0  0  0  0
  152.2946  138.7729  155.1311 H   0  0  0  0  0  0  0  0  0  0  0  0
  151.4895  138.3177  156.6102 H   0  0  0  0  0  0  0  0  0  0  0  0
  149.2665  138.4015  155.2339 H   0  0  0  0  0  0  0  0  0  0  0  0
  149.8724  137.7520  152.9876 H   0  0  0  0  0  0  0  0  0  0  0  0
  150.9116  136.1418  154.1439 H   0  0  0  0  0  0  0  0  0  0  0  0
  150.9354  136.2819  155.8805 H   0  0  0  0  0  0  0  0  0  0  0  0
  149.0634  131.5433  152.5978 H   0  0  0  0  0  0  0  0  0  0  0  0
  150.8974  131.3736  154.6655 H   0  0  0  0  0  0  0  0  0  0  0  0
  151.5968  132.8920  156.5297 H   0  0  0  0  0  0  0  0  0  0  0  0
  150.2480  133.8783  157.1262 H   0  0  0  0  0  0  0  0  0  0  0  0
  151.4892  134.6050  156.0807 H   0  0  0  0  0  0  0  0  0  0  0  0
  152.8977  139.4713  158.0138 H   0  0  0  0  0  0  0  0  0  0  0  0
  154.1338  139.9654  159.9484 H   0  0  0  0  0  0  0  0  0  0  0  0
  153.4144  141.1420  161.0444 H   0  0  0  0  0  0  0  0  0  0  0  0
  154.7488  141.6161  159.9815 H   0  0  0  0  0  0  0  0  0  0  0  0
  149.6179  143.0488  155.6446 H   0  0  0  0  0  0  0  0  0  0  0  0
  1  2  1  0  0  0  0
  1 23  1  0  0  0  0
  1 24  1  0  0  0  0
  1 25  1  0  0  0  0
  2 21  1  0  0  0  0
  2  3  2  0  0  0  0
  3  4  1  0  0  0  0
  3 26  1  0  0  0  0
  4 19  2  0  0  0  0
  4  5  1  0  0  0  0
  5  6  2  0  0  0  0
  5 43  1  0  0  0  0
  6  7  1  0  0  0  0
  6 27  1  0  0  0  0
  7  8  1  0  0  0  0
  7 19  1  0  0  0  0
  8  9  1  0  0  0  0
  8 28  1  0  0  0  0
  8 29  1  0  0  0  0
  9 10  1  0  0  0  0
  9 11  1  0  0  0  0
  9 30  1  0  0  0  0
 10 31  1  0  0  0  0
 11 12  1  0  0  0  0
 11 32  1  0  0  0  0
 11 33  1  0  0  0  0
 12 13  1  0  0  0  0
 13 17  1  0  0  0  0
 13 14  2  0  0  0  0
 14 15  1  0  0  0  0
 15 16  2  0  0  0  0
 15 34  1  0  0  0  0
 16 17  1  0  0  0  0
 16 35  1  0  0  0  0
 17 18  1  0  0  0  0
 18 36  1  0  0  0  0
 18 37  1  0  0  0  0
 18 38  1  0  0  0  0
 19 20  1  0  0  0  0
 20 21  2  0  0  0  0
 20 39  1  0  0  0  0
 21 22  1  0  0  0  0
 22 40  1  0  0  0  0
 22 41  1  0  0  0  0
 22 42  1  0  0  0  0
M  CHG  1   5   1
M  END
> <s_m_source_file>
AV-unprocessed.smi

> <i_m_source_file_index>
609

> <i_lp_mmshare_version>
43012

> <i_f3d_flags>
0

> <s_epik_input>
W0NIM11jKFtjSF0xKWMoW0NIM10pW2NIXWMoYzEyKW4oW2NIXW4yKVtDSDJdW0NASF0oW09IXSlbQ0gyXVNjM25bY0hdW2NIXW4zW0NIM10=

> <s_epik_cmdline>
J2VwaWtfcHl0aG9uJywgJy1waCcsICc3LjAnLCAnLXRuJywgJzgnLCAnLW1hJywgJzIwMCcsICctbWV0YWxfYmluZGluZycsICctaW1hZScsICc8aW5maWxlLm1hZT4nLCAnLW9tYWUnLCAnPG91dGZpbGUubWFlPic=

> <r_epik_Ionization_Penalty>
2.09683

> <r_epik_Ionization_Penalty_Charging>
2.09682

> <r_epik_Ionization_Penalty_Neutral>
2.49751e-06

> <r_epik_State_Penalty>
2.21514

> <r_epik_Charging_Adjusted_Penalty>
4.31197

> <i_epik_Tot_Q>
1

> <i_epik_Tot_abs_Q>
1

> <r_epik_Metal_State_Penalty>
1.52634

> <b_epik_Metal_Only>
0

> <s_lp_Force_Field>
OPLS_2005

> <r_lp_Energy>
12.6573

> <b_lp_Chiralities_Consistent>
1

> <s_lp_Variant>
AV-unprocessed.smi:609-8

> <Gold.Version>
5.8.1

> <Gold.Id.Protein>
6NUR|6NUR_protein|mol2

> <Gold.PLP.Fitness>
55.9140

> <Gold.PLP.PLP>
-46.1679

> <Gold.PLP.part.hbond>
-3.0000

> <Gold.PLP.part.metal>
0.0000

> <Gold.PLP.part.buried>
-4.8705

> <Gold.PLP.part.nonpolar>
-37.8863

> <Gold.PLP.part.repulsive>
0.4816

> <Gold.PLP.ligand.clash>
0.0000

> <Gold.PLP.ligand.torsion>
1.1510

> <Gold.PLP.Chemscore.Hbond>
2.9913

> <Gold.PLP.Chemscore.CHOScore>
1.0000

> <Gold.PLP.Chemscore.Metal>
0.0000

> <Gold.Chemscore.Hbonds>
donor molecule, donor type, donor heavy atom, donor atom, acceptor molecule, acceptor atom, score
      L1  H     5    43       P1  8028  2.00
      L1  H    10    31       P1  7948  0.94
      L1  C    15    34       P1 10747  1.00

> <Gold.PLP.Chemscore.Internal.Correction>
0.0744

> <Gold.Rescore>
     Score         DG    S(hbond)    S(metal)    S(lipo)     H(rot)  DE(clash)    DE(int)     intcor
     17.11     -18.24       1.94        0.00     108.03       2.48       0.02       1.11       ----

> <Gold.Chemscore.Fitness>
17.1094

> <Gold.Chemscore.DG>
-18.2365

> <Gold.Chemscore.ZeroCoef>
-5.4800

> <Gold.Chemscore.Hbond>
1.9351

> <Gold.Chemscore.Metal>
0.0000

> <Gold.Chemscore.Lipo>
108.0278

> <Gold.Chemscore.Internal_Hbond>
0.0000

> <Gold.Chemscore.DEClash>
0.0174

> <Gold.Chemscore.DEInternal>
1.1097

> <Gold.Chemscore.Rot>
2.4789

> <Gold.Chemscore.Internal.Correction>
   9.000000E+99

> <Gold.Chemscore.Hbonds>
donor molecule, donor type, donor heavy atom, donor atom, acceptor molecule, acceptor atom, score
      L1  H     5    43       P1  8028  1.00
      L1  H    10    31       P1  7948  0.36

> <Gold.Chemscore.Hbond.Weighted>
-6.4631

> <Gold.Chemscore.Metal.Weighted>
-0.0000

> <Gold.Chemscore.Lipo.Weighted>
-12.6393

> <Gold.Chemscore.Internal_Hbond.Weighted>
0.0000

> <Gold.Chemscore.DEClash.Weighted>
0.0174

> <Gold.Chemscore.DEInternal.Weighted>
1.1097

> <Gold.Chemscore.Rot.Weighted>
6.3459

> <Gold.Chemscore.Internal.Correction.Weighted>
   9.000000E+99

> <Gold.Protein.RotatedTorsions>
[ 6907 6896 6895 6894 ] final -109.96 input  -60.11 | X-H torsion
[ 7974 7965 7964 7962 ] final -128.49 input  175.53 | X-H torsion
[ 8008 7997 7996 7995 ] final -126.39 input   59.86 | X-H torsion
[ 10167 10162 10161 10158 ] final  -33.39 input  -65.29 | X-H torsion
[ 10718 10713 10712 10709 ] final -164.34 input   66.30 | X-H torsion
[ 10763 10752 10751 10750 ] final -109.50 input  -60.55 | X-H torsion
[ 11005 11000 10999 10996 ] final -123.00 input  -57.11 | X-H torsion

> <Gold.Protein.ActiveResidues>
 VAL166  LYS551  ARG553  GLY616  TRP617  ASP618  TYR619  PRO620  LYS621  CYS622 
 ASP623  PHE694  ASN695  SER759  ASP760  ASP761  ALA762  ILE779  LEU786  VAL792 
 PHE793  MET794  SER795  GLU796  ALA797  LYS798  CYS799  TRP800  GLU811  SER814 

> <Gold.Protein.RotatedAtoms>
  150.7594  133.9452  159.3468 H   0  0  0  0  0  0  0  0  0  0  0  0  # atno 6907 bound_to 6896
  151.7364  135.0862  160.0318 H   0  0  0  0  0  0  0  0  0  0  0  0  # atno 6908 bound_to 6896
  152.3556  133.6196  159.6013 H   0  0  0  0  0  0  0  0  0  0  0  0  # atno 6909 bound_to 6896
  144.9665  140.7502  143.4696 H   0  0  0  0  0  0  0  0  0  0  0  0  # atno 7974 bound_to 7965
  155.2288  140.0424  157.2959 H   0  0  0  0  0  0  0  0  0  0  0  0  # atno 8008 bound_to 7997
  154.5901  140.2424  155.7902 H   0  0  0  0  0  0  0  0  0  0  0  0  # atno 8009 bound_to 7997
  156.2253  140.2956  156.0061 H   0  0  0  0  0  0  0  0  0  0  0  0  # atno 8010 bound_to 7997
  140.7205  143.3624  151.1937 H   0  0  0  0  0  0  0  0  0  0  0  0  # atno 10167 bound_to 10162
  156.6376  130.8955  151.2990 H   0  0  0  0  0  0  0  0  0  0  0  0  # atno 10718 bound_to 10713
  154.8196  135.4599  154.0741 H   0  0  0  0  0  0  0  0  0  0  0  0  # atno 10763 bound_to 10752
  153.2106  135.6881  153.8126 H   0  0  0  0  0  0  0  0  0  0  0  0  # atno 10764 bound_to 10752
  153.7578  135.3288  155.3309 H   0  0  0  0  0  0  0  0  0  0  0  0  # atno 10765 bound_to 10752
  140.9952  134.0482  157.3606 H   0  0  0  0  0  0  0  0  0  0  0  0  # atno 11005 bound_to 11000
  145.2621  139.1988  143.4886 LP  0  0  0  0  0  0  0  0  0  0  0  0  # atno 17320 bound_to 7965
  146.3369  140.2553  142.8600 LP  0  0  0  0  0  0  0  0  0  0  0  0  # atno 17321 bound_to 7965
  139.7178  143.9272  152.2973 LP  0  0  0  0  0  0  0  0  0  0  0  0  # atno 17342 bound_to 10162
  139.9018  144.6907  150.8656 LP  0  0  0  0  0  0  0  0  0  0  0  0  # atno 17343 bound_to 10162
  157.7181  130.9523  150.1332 LP  0  0  0  0  0  0  0  0  0  0  0  0  # atno 17370 bound_to 10713
  156.2185  130.3672  149.8584 LP  0  0  0  0  0  0  0  0  0  0  0  0  # atno 17371 bound_to 10713
  139.9011  135.0165  156.7273 LP  0  0  0  0  0  0  0  0  0  0  0  0  # atno 17394 bound_to 11000
  140.6977  133.9334  155.8005 LP  0  0  0  0  0  0  0  0  0  0  0  0  # atno 17395 bound_to 11000

$$$$
