AV-unprocessed.smi:1958|AV-procd|sdf|7909|dock7
  -GOLD-   2272010 73D 1   1.00000     0.00000
 Structure written by MMmdl.
 48 49  0  0  0  0  0  0  0  0  2 V2000
  154.2155  139.3244  159.5262 C   0  0  0  0  0  0  0  0  0  0  0  0
  154.2716  138.7600  158.2282 O   0  0  0  0  0  0  0  0  0  0  0  0
  152.9907  138.6359  157.6342 C   0  0  0  0  0  0  0  0  0  0  0  0
  153.1471  137.9673  156.2606 C   0  0  0  0  0  0  0  0  0  0  0  0
  151.8517  137.7888  155.5975 N   0  0  0  0  0  0  0  0  0  0  0  0
  151.4061  136.4780  155.5767 N   0  0  0  0  0  0  0  0  0  0  0  0
  150.2719  136.1853  155.0274 C   0  0  0  0  0  0  0  0  0  0  0  0
  149.7563  134.7886  154.9919 C   0  0  0  0  0  0  0  0  0  0  0  0
  150.4074  133.8435  155.4397 O   0  0  0  0  0  0  0  0  0  0  0  0
  148.5423  134.6399  154.4299 N   0  0  0  0  0  0  0  0  0  0  0  0
  147.8290  133.3773  154.2544 C   0  0  0  0  0  0  0  0  0  0  0  0
  148.5525  132.4144  153.2765 C   0  0  1  0  0  0  0  0  0  0  0  0
  149.3551  131.3466  154.0611 C   0  0  0  0  0  0  0  0  0  0  0  0
  147.5740  131.8208  152.3052 N   0  3  0  0  0  0  0  0  0  0  0  0
  146.7098  130.7758  152.9210 C   0  0  0  0  0  0  0  0  0  0  0  0
  145.7808  130.1366  151.8764 C   0  0  0  0  0  0  0  0  0  0  0  0
  144.9794  131.1439  151.2785 O   0  0  0  0  0  0  0  0  0  0  0  0
  145.7748  132.0973  150.5910 C   0  0  0  0  0  0  0  0  0  0  0  0
  146.7203  132.8026  151.5789 C   0  0  0  0  0  0  0  0  0  0  0  0
  149.4493  137.2189  154.4220 C   0  0  0  0  0  0  0  0  0  0  0  0
  149.9028  138.4916  154.4401 C   0  0  0  0  0  0  0  0  0  0  0  0
  151.1841  138.8494  155.0510 C   0  0  0  0  0  0  0  0  0  0  0  0
  151.6235  139.9986  155.0701 O   0  0  0  0  0  0  0  0  0  0  0  0
  155.2228  139.4015  159.9354 H   0  0  0  0  0  0  0  0  0  0  0  0
  153.6246  138.7035  160.2006 H   0  0  0  0  0  0  0  0  0  0  0  0
  153.7837  140.3257  159.5029 H   0  0  0  0  0  0  0  0  0  0  0  0
  152.3384  138.0410  158.2752 H   0  0  0  0  0  0  0  0  0  0  0  0
  152.5354  139.6212  157.5225 H   0  0  0  0  0  0  0  0  0  0  0  0
  153.8022  138.5764  155.6350 H   0  0  0  0  0  0  0  0  0  0  0  0
  153.6580  137.0088  156.3664 H   0  0  0  0  0  0  0  0  0  0  0  0
  148.0814  135.4727  154.0915 H   0  0  0  0  0  0  0  0  0  0  0  0
  147.6648  132.8775  155.2104 H   0  0  0  0  0  0  0  0  0  0  0  0
  146.8424  133.6499  153.8854 H   0  0  0  0  0  0  0  0  0  0  0  0
  149.2788  132.9908  152.7009 H   0  0  0  0  0  0  0  0  0  0  0  0
  150.0428  131.7975  154.7758 H   0  0  0  0  0  0  0  0  0  0  0  0
  149.9808  130.7399  153.4068 H   0  0  0  0  0  0  0  0  0  0  0  0
  148.6947  130.6820  154.6189 H   0  0  0  0  0  0  0  0  0  0  0  0
  147.3035  129.9839  153.3725 H   0  0  0  0  0  0  0  0  0  0  0  0
  146.1146  131.2200  153.7202 H   0  0  0  0  0  0  0  0  0  0  0  0
  146.3538  129.6045  151.1151 H   0  0  0  0  0  0  0  0  0  0  0  0
  145.1282  129.4046  152.3523 H   0  0  0  0  0  0  0  0  0  0  0  0
  146.3380  131.6117  149.7924 H   0  0  0  0  0  0  0  0  0  0  0  0
  145.1181  132.8267  150.1165 H   0  0  0  0  0  0  0  0  0  0  0  0
  146.1438  133.3887  152.2965 H   0  0  0  0  0  0  0  0  0  0  0  0
  147.3292  133.4968  151.0011 H   0  0  0  0  0  0  0  0  0  0  0  0
  148.5000  136.9836  153.9632 H   0  0  0  0  0  0  0  0  0  0  0  0
  149.3031  139.2701  153.9915 H   0  0  0  0  0  0  0  0  0  0  0  0
  148.1267  131.3619  151.5949 H   0  0  0  0  0  0  0  0  0  0  0  0
  1  2  1  0  0  0  0
  1 24  1  0  0  0  0
  1 25  1  0  0  0  0
  1 26  1  0  0  0  0
  2  3  1  0  0  0  0
  3  4  1  0  0  0  0
  3 27  1  0  0  0  0
  3 28  1  0  0  0  0
  4  5  1  0  0  0  0
  4 29  1  0  0  0  0
  4 30  1  0  0  0  0
  5 22  1  0  0  0  0
  5  6  1  0  0  0  0
  6  7  2  0  0  0  0
  7  8  1  0  0  0  0
  7 20  1  0  0  0  0
  8  9  2  0  0  0  0
  8 10  1  0  0  0  0
 10 11  1  0  0  0  0
 10 31  1  0  0  0  0
 11 12  1  0  0  0  0
 11 32  1  0  0  0  0
 11 33  1  0  0  0  0
 12 13  1  0  0  0  0
 12 14  1  0  0  0  0
 12 34  1  0  0  0  0
 13 35  1  0  0  0  0
 13 36  1  0  0  0  0
 13 37  1  0  0  0  0
 14 19  1  0  0  0  0
 14 15  1  0  0  0  0
 14 48  1  0  0  0  0
 15 16  1  0  0  0  0
 15 38  1  0  0  0  0
 15 39  1  0  0  0  0
 16 17  1  0  0  0  0
 16 40  1  0  0  0  0
 16 41  1  0  0  0  0
 17 18  1  0  0  0  0
 18 19  1  0  0  0  0
 18 42  1  0  0  0  0
 18 43  1  0  0  0  0
 19 44  1  0  0  0  0
 19 45  1  0  0  0  0
 20 21  2  0  0  0  0
 20 46  1  0  0  0  0
 21 22  1  0  0  0  0
 21 47  1  0  0  0  0
 22 23  2  0  0  0  0
M  CHG  1  14   1
M  END
> <s_m_source_file>
AV-unprocessed.smi

> <i_m_source_file_index>
1958

> <i_lp_mmshare_version>
43012

> <i_f3d_flags>
0

> <s_epik_input>
W0NIM11PW0NIMl1bQ0gyXW4xbmMoW2NIXVtjSF1jMT1PKUMoPU8pW05IXVtDSDJdW0NASF0oW0NIM10pTjJbQ0gyXVtDSDJdT1tDSDJdW0NIMl0y

> <s_epik_cmdline>
J2VwaWtfcHl0aG9uJywgJy1waCcsICc3LjAnLCAnLXRuJywgJzgnLCAnLW1hJywgJzIwMCcsICctbWV0YWxfYmluZGluZycsICctaW1hZScsICc8aW5maWxlLm1hZT4nLCAnLW9tYWUnLCAnPG91dGZpbGUubWFlPic=

> <r_lp_tautomer_probability>
1

> <r_epik_Ionization_Penalty>
0.724355

> <r_epik_Ionization_Penalty_Charging>
0.724348

> <r_epik_Ionization_Penalty_Neutral>
6.31911e-06

> <r_epik_State_Penalty>
0.749058

> <r_epik_Charging_Adjusted_Penalty>
1.47341

> <i_epik_Tot_Q>
1

> <i_epik_Tot_abs_Q>
1

> <r_epik_Metal_State_Penalty>
0.750821

> <b_epik_Metal_Only>
0

> <s_lp_Force_Field>
OPLS_2005

> <r_lp_Energy>
42.169

> <b_lp_Chiralities_Consistent>
1

> <s_lp_Variant>
AV-unprocessed.smi:1958-4

> <Gold.Version>
5.8.1

> <Gold.Id.Protein>
6NUR|6NUR_protein|mol2

> <Gold.PLP.Fitness>
45.6631

> <Gold.PLP.PLP>
-35.8980

> <Gold.PLP.part.hbond>
-5.0000

> <Gold.PLP.part.metal>
0.0000

> <Gold.PLP.part.buried>
-2.5785

> <Gold.PLP.part.nonpolar>
-29.7663

> <Gold.PLP.part.repulsive>
0.2929

> <Gold.PLP.ligand.clash>
0.5858

> <Gold.PLP.ligand.torsion>
0.8780

> <Gold.PLP.Chemscore.Hbond>
3.9846

> <Gold.PLP.Chemscore.CHOScore>
0.0000

> <Gold.PLP.Chemscore.Metal>
0.0000

> <Gold.Chemscore.Hbonds>
donor molecule, donor type, donor heavy atom, donor atom, acceptor molecule, acceptor atom, score
      L1  H    14    48       P1 10747  1.00
      P1  H  7989  7998       L1    23  1.00
      P1  H  7997  8009       L1     2  1.00
      P1  H 10752 10763       L1     6  1.00

> <Gold.PLP.Chemscore.Internal.Correction>
0.1532

> <Gold.Rescore>
     Score         DG    S(hbond)    S(metal)    S(lipo)     H(rot)  DE(clash)    DE(int)     intcor
     17.15     -18.91       2.82        0.00      80.77       2.12       0.77       0.99       ----

> <Gold.Chemscore.Fitness>
17.1516

> <Gold.Chemscore.DG>
-18.9053

> <Gold.Chemscore.ZeroCoef>
-5.4800

> <Gold.Chemscore.Hbond>
2.8166

> <Gold.Chemscore.Metal>
0.0000

> <Gold.Chemscore.Lipo>
80.7722

> <Gold.Chemscore.Internal_Hbond>
0.0000

> <Gold.Chemscore.DEClash>
0.7671

> <Gold.Chemscore.DEInternal>
0.9866

> <Gold.Chemscore.Rot>
2.1221

> <Gold.Chemscore.Internal.Correction>
   9.000000E+99

> <Gold.Chemscore.Hbonds>
donor molecule, donor type, donor heavy atom, donor atom, acceptor molecule, acceptor atom, score
      L1  H    14    48       P1 10747  1.00
      P1  H  7989  7998       L1    23  0.91
      P1  H  7997  8009       L1     2  0.18
      P1  H 10752 10763       L1     6  0.26

> <Gold.Chemscore.Hbond.Weighted>
-9.4074

> <Gold.Chemscore.Metal.Weighted>
-0.0000

> <Gold.Chemscore.Lipo.Weighted>
-9.4503

> <Gold.Chemscore.Internal_Hbond.Weighted>
0.0000

> <Gold.Chemscore.DEClash.Weighted>
0.7671

> <Gold.Chemscore.DEInternal.Weighted>
0.9866

> <Gold.Chemscore.Rot.Weighted>
5.4325

> <Gold.Chemscore.Internal.Correction.Weighted>
   9.000000E+99

> <Gold.Protein.RotatedTorsions>
[ 6907 6896 6895 6894 ] final  -24.39 input  -60.11 | X-H torsion
[ 7974 7965 7964 7962 ] final  -71.73 input  175.53 | X-H torsion
[ 8008 7997 7996 7995 ] final  119.20 input   59.86 | X-H torsion
[ 10167 10162 10161 10158 ] final -166.86 input  -65.29 | X-H torsion
[ 10718 10713 10712 10709 ] final  132.49 input   66.30 | X-H torsion
[ 10763 10752 10751 10750 ] final   69.90 input  -60.55 | X-H torsion
[ 11005 11000 10999 10996 ] final  -95.12 input  -57.11 | X-H torsion

> <Gold.Protein.ActiveResidues>
 VAL166  LYS551  ARG553  GLY616  TRP617  ASP618  TYR619  PRO620  LYS621  CYS622 
 ASP623  PHE694  ASN695  SER759  ASP760  ASP761  ALA762  ILE779  LEU786  VAL792 
 PHE793  MET794  SER795  GLU796  ALA797  LYS798  CYS799  TRP800  GLU811  SER814 

> <Gold.Protein.RotatedAtoms>
  151.1902  135.0399  159.8829 H   0  0  0  0  0  0  0  0  0  0  0  0  # atno 6907 bound_to 6896
  152.5440  134.0964  159.8309 H   0  0  0  0  0  0  0  0  0  0  0  0  # atno 6908 bound_to 6896
  151.1092  133.5138  159.2638 H   0  0  0  0  0  0  0  0  0  0  0  0  # atno 6909 bound_to 6896
  145.6742  140.9210  143.0866 H   0  0  0  0  0  0  0  0  0  0  0  0  # atno 7974 bound_to 7965
  156.2584  140.2858  156.0954 H   0  0  0  0  0  0  0  0  0  0  0  0  # atno 8008 bound_to 7997
  155.1417  140.0395  157.2817 H   0  0  0  0  0  0  0  0  0  0  0  0  # atno 8009 bound_to 7997
  154.6524  140.2548  155.7205 H   0  0  0  0  0  0  0  0  0  0  0  0  # atno 8010 bound_to 7997
  139.6087  144.0860  152.1819 H   0  0  0  0  0  0  0  0  0  0  0  0  # atno 10167 bound_to 10162
  157.4866  131.1088  150.9612 H   0  0  0  0  0  0  0  0  0  0  0  0  # atno 10718 bound_to 10713
  153.0312  135.5193  154.7360 H   0  0  0  0  0  0  0  0  0  0  0  0  # atno 10763 bound_to 10752
  154.6373  135.2908  155.0147 H   0  0  0  0  0  0  0  0  0  0  0  0  # atno 10764 bound_to 10752
  154.1078  135.6626  153.4932 H   0  0  0  0  0  0  0  0  0  0  0  0  # atno 10765 bound_to 10752
  141.1451  133.8004  157.0392 H   0  0  0  0  0  0  0  0  0  0  0  0  # atno 11005 bound_to 11000
  144.7047  139.8612  143.7433 LP  0  0  0  0  0  0  0  0  0  0  0  0  # atno 17320 bound_to 7965
  146.1019  139.4015  143.0341 LP  0  0  0  0  0  0  0  0  0  0  0  0  # atno 17321 bound_to 7965
  140.0473  144.5960  150.7363 LP  0  0  0  0  0  0  0  0  0  0  0  0  # atno 17342 bound_to 10162
  140.7303  143.2682  151.3975 LP  0  0  0  0  0  0  0  0  0  0  0  0  # atno 17343 bound_to 10162
  157.0328  130.5718  149.5345 LP  0  0  0  0  0  0  0  0  0  0  0  0  # atno 17370 bound_to 10713
  156.0150  130.5244  150.8107 LP  0  0  0  0  0  0  0  0  0  0  0  0  # atno 17371 bound_to 10713
  140.0704  134.9705  157.1457 LP  0  0  0  0  0  0  0  0  0  0  0  0  # atno 17394 bound_to 11000
  140.3719  134.2381  155.7177 LP  0  0  0  0  0  0  0  0  0  0  0  0  # atno 17395 bound_to 11000

$$$$
