AV-unprocessed.smi:50|AV-procd|sdf|493|dock9
  -GOLD-   2262016363D 1   1.00000     0.00000
 Structure written by MMmdl.
 43 44  0  0  0  0  0  0  0  0  1 V2000
  144.6667  132.1568  151.8427 C   0  0  0  0  0  0  0  0  0  0  0  0
  144.0236  133.1052  150.8157 C   0  0  0  0  0  0  0  0  0  0  0  0
  143.8104  132.3765  149.4740 C   0  0  0  0  0  0  0  0  0  0  0  0
  144.7943  134.4509  150.7090 C   0  0  2  0  0  0  0  0  0  0  0  0
  146.1341  134.2420  150.1578 N   0  0  0  0  0  0  0  0  0  0  0  0
  144.8057  135.2779  152.0095 C   0  0  0  0  0  0  0  0  0  0  0  0
  144.2807  134.8994  153.0570 O   0  0  0  0  0  0  0  0  0  0  0  0
  145.4688  136.4395  151.8528 O   0  0  0  0  0  0  0  0  0  0  0  0
  145.9973  137.1065  152.9865 C   0  0  0  0  0  0  0  0  0  0  0  0
  146.4836  138.4976  152.5721 C   0  0  0  0  0  0  0  0  0  0  0  0
  147.0919  139.1199  153.6918 O   0  0  0  0  0  0  0  0  0  0  0  0
  148.1422  139.9604  153.3462 C   0  0  0  0  0  0  0  0  0  0  0  0
  149.3230  139.4949  154.0466 N   0  0  0  0  0  0  0  0  0  0  0  0
  149.9034  138.2514  154.0168 C   0  0  0  0  0  0  0  0  0  0  0  0
  150.9646  138.1447  154.7673 N   0  0  0  0  0  0  0  0  0  0  0  0
  151.1031  139.4044  155.3432 C   0  0  0  0  0  0  0  0  0  0  0  0
  152.0873  139.8976  156.2645 C   0  0  0  0  0  0  0  0  0  0  0  0
  153.0422  139.2972  156.7527 O   0  0  0  0  0  0  0  0  0  0  0  0
  151.8670  141.2385  156.6045 N   0  0  0  0  0  0  0  0  0  0  0  0
  150.8170  142.0087  156.1097 C   0  0  0  0  0  0  0  0  0  0  0  0
  150.7475  143.2766  156.5363 N   0  0  0  0  0  0  0  0  0  0  0  0
  149.9115  141.5538  155.2610 N   0  0  0  0  0  0  0  0  0  0  0  0
  150.0971  140.2442  154.9062 C   0  0  0  0  0  0  0  0  0  0  0  0
  144.2625  135.0482  149.9677 H   0  0  0  0  0  0  0  0  0  0  0  0
  152.5191  141.6582  157.2508 H   0  0  0  0  0  0  0  0  0  0  0  0
  145.6552  131.8263  151.5229 H   0  0  0  0  0  0  0  0  0  0  0  0
  144.0547  131.2666  151.9901 H   0  0  0  0  0  0  0  0  0  0  0  0
  144.7757  132.6425  152.8128 H   0  0  0  0  0  0  0  0  0  0  0  0
  143.0316  133.3420  151.2034 H   0  0  0  0  0  0  0  0  0  0  0  0
  144.7458  131.9952  149.0640 H   0  0  0  0  0  0  0  0  0  0  0  0
  143.3608  133.0339  148.7297 H   0  0  0  0  0  0  0  0  0  0  0  0
  143.1428  131.5238  149.5994 H   0  0  0  0  0  0  0  0  0  0  0  0
  146.3712  133.2611  150.1211 H   0  0  0  0  0  0  0  0  0  0  0  0
  146.2006  134.5858  149.2104 H   0  0  0  0  0  0  0  0  0  0  0  0
  145.2318  137.1913  153.7592 H   0  0  0  0  0  0  0  0  0  0  0  0
  146.8236  136.5275  153.4012 H   0  0  0  0  0  0  0  0  0  0  0  0
  147.2013  138.4140  151.7543 H   0  0  0  0  0  0  0  0  0  0  0  0
  145.6431  139.0961  152.2174 H   0  0  0  0  0  0  0  0  0  0  0  0
  148.3381  139.9201  152.2730 H   0  0  0  0  0  0  0  0  0  0  0  0
  147.9321  140.9915  153.6360 H   0  0  0  0  0  0  0  0  0  0  0  0
  149.5183  137.4316  153.4279 H   0  0  0  0  0  0  0  0  0  0  0  0
  151.4385  143.6256  157.1849 H   0  0  0  0  0  0  0  0  0  0  0  0
  150.0083  143.8834  156.2123 H   0  0  0  0  0  0  0  0  0  0  0  0
  1  2  1  0  0  0  0
  1 26  1  0  0  0  0
  1 27  1  0  0  0  0
  1 28  1  0  0  0  0
  2  3  1  0  0  0  0
  2  4  1  0  0  0  0
  2 29  1  0  0  0  0
  3 30  1  0  0  0  0
  3 31  1  0  0  0  0
  3 32  1  0  0  0  0
  4 24  1  0  0  0  0
  4  5  1  0  0  0  0
  4  6  1  0  0  0  0
  5 33  1  0  0  0  0
  5 34  1  0  0  0  0
  6  7  2  0  0  0  0
  6  8  1  0  0  0  0
  8  9  1  0  0  0  0
  9 10  1  0  0  0  0
  9 35  1  0  0  0  0
  9 36  1  0  0  0  0
 10 11  1  0  0  0  0
 10 37  1  0  0  0  0
 10 38  1  0  0  0  0
 11 12  1  0  0  0  0
 12 13  1  0  0  0  0
 12 39  1  0  0  0  0
 12 40  1  0  0  0  0
 13 23  1  0  0  0  0
 13 14  1  0  0  0  0
 14 15  2  0  0  0  0
 14 41  1  0  0  0  0
 15 16  1  0  0  0  0
 16 23  2  0  0  0  0
 16 17  1  0  0  0  0
 17 18  2  0  0  0  0
 17 19  1  0  0  0  0
 19 25  1  0  0  0  0
 19 20  1  0  0  0  0
 20 21  1  0  0  0  0
 20 22  2  0  0  0  0
 21 42  1  0  0  0  0
 21 43  1  0  0  0  0
 22 23  1  0  0  0  0
M  END
> <s_m_source_file>
AV-unprocessed.smi

> <i_m_source_file_index>
50

> <i_lp_mmshare_version>
43012

> <i_f3d_flags>
0

> <s_epik_input>
W0NIM11bQ0hdKFtDSDNdKVtDQEhdKFtOSDJdKUMoPU8pT1tDSDJdW0NIMl1PW0NIMl1uKFtjSF1uMSljKGMxMiluYyhbTkgyXSlbbkhdYzI9Tw==

> <s_epik_cmdline>
J2VwaWtfcHl0aG9uJywgJy1waCcsICc3LjAnLCAnLXRuJywgJzgnLCAnLW1hJywgJzIwMCcsICctbWV0YWxfYmluZGluZycsICctaW1hZScsICc8aW5maWxlLm1hZT4nLCAnLW9tYWUnLCAnPG91dGZpbGUubWFlPic=

> <r_lp_tautomer_probability>
0.99994

> <r_epik_Ionization_Penalty>
0.704142

> <r_epik_Ionization_Penalty_Charging>
0.00148332

> <r_epik_Ionization_Penalty_Neutral>
0.702658

> <r_epik_State_Penalty>
0.725442

> <r_epik_Charging_Adjusted_Penalty>
0.726926

> <i_epik_Tot_Q>
0

> <i_epik_Tot_abs_Q>
0

> <r_epik_Metal_State_Penalty>
1.04557

> <b_epik_Metal_Only>
0

> <s_epik_Chemistry_Notes>
This compound has an ester and may undergo hydrolysis at high or low pH. This compound contains an acetal/aminal-like group ( X-CH(R)-Y where X, Y are N, S, or O) that may be acid/base labile, releasing an aldehyde.

> <s_lp_Force_Field>
OPLS_2005

> <r_lp_Energy>
11.3413

> <b_lp_Chiralities_Consistent>
1

> <s_lp_Variant>
AV-unprocessed.smi:50-3

> <Gold.Version>
5.8.1

> <Gold.Id.Protein>
6NUR|6NUR_protein|mol2

> <Gold.PLP.Fitness>
42.0606

> <Gold.PLP.PLP>
-31.7447

> <Gold.PLP.part.hbond>
-3.2575

> <Gold.PLP.part.metal>
0.0000

> <Gold.PLP.part.buried>
-0.9393

> <Gold.PLP.part.nonpolar>
-29.0129

> <Gold.PLP.part.repulsive>
0.7821

> <Gold.PLP.ligand.clash>
0.0000

> <Gold.PLP.ligand.torsion>
1.0155

> <Gold.PLP.Chemscore.Hbond>
2.9920

> <Gold.PLP.Chemscore.CHOScore>
1.0000

> <Gold.PLP.Chemscore.Metal>
0.0000

> <Gold.Chemscore.Hbonds>
donor molecule, donor type, donor heavy atom, donor atom, acceptor molecule, acceptor atom, score
      L1  H     5    34       P1  7921  1.00
      L1  H    21    43       P1  8028  0.91
      P1  H  7997  8010       L1    18  1.00
      L1  C    14    41       P1  7948  0.98

> <Gold.PLP.Chemscore.Internal.Correction>
0.3707

> <Gold.Rescore>
     Score         DG    S(hbond)    S(metal)    S(lipo)     H(rot)  DE(clash)    DE(int)     intcor
      5.97      -8.27       2.82        0.00      47.37       4.75       0.30       2.00       ----

> <Gold.Chemscore.Fitness>
5.9674

> <Gold.Chemscore.DG>
-8.2723

> <Gold.Chemscore.ZeroCoef>
-5.4800

> <Gold.Chemscore.Hbond>
2.8175

> <Gold.Chemscore.Metal>
0.0000

> <Gold.Chemscore.Lipo>
47.3693

> <Gold.Chemscore.Internal_Hbond>
0.0000

> <Gold.Chemscore.DEClash>
0.3006

> <Gold.Chemscore.DEInternal>
2.0043

> <Gold.Chemscore.Rot>
4.7501

> <Gold.Chemscore.Internal.Correction>
   9.000000E+99

> <Gold.Chemscore.Hbonds>
donor molecule, donor type, donor heavy atom, donor atom, acceptor molecule, acceptor atom, score
      L1  H     5    34       P1  7921  0.25
      L1  H    21    43       P1  8028  0.87
      P1  H  7997  8010       L1    18  0.81

> <Gold.Chemscore.Hbond.Weighted>
-9.4104

> <Gold.Chemscore.Metal.Weighted>
-0.0000

> <Gold.Chemscore.Lipo.Weighted>
-5.5422

> <Gold.Chemscore.Internal_Hbond.Weighted>
0.0000

> <Gold.Chemscore.DEClash.Weighted>
0.3006

> <Gold.Chemscore.DEInternal.Weighted>
2.0043

> <Gold.Chemscore.Rot.Weighted>
12.1603

> <Gold.Chemscore.Internal.Correction.Weighted>
   9.000000E+99

> <Gold.Protein.RotatedTorsions>
[ 6907 6896 6895 6894 ] final   79.24 input  -60.11 | X-H torsion
[ 7974 7965 7964 7962 ] final   -7.25 input  175.53 | X-H torsion
[ 8008 7997 7996 7995 ] final   61.07 input   59.86 | X-H torsion
[ 10167 10162 10161 10158 ] final   64.04 input  -65.29 | X-H torsion
[ 10718 10713 10712 10709 ] final   50.84 input   66.30 | X-H torsion
[ 10763 10752 10751 10750 ] final   99.30 input  -60.55 | X-H torsion
[ 11005 11000 10999 10996 ] final  141.60 input  -57.11 | X-H torsion

> <Gold.Protein.ActiveResidues>
 VAL166  LYS551  ARG553  GLY616  TRP617  ASP618  TYR619  PRO620  LYS621  CYS622 
 ASP623  PHE694  ASN695  SER759  ASP760  ASP761  ALA762  ILE779  LEU786  VAL792 
 PHE793  MET794  SER795  GLU796  ALA797  LYS798  CYS799  TRP800  GLU811  SER814 

> <Gold.Protein.RotatedAtoms>
  152.5191  134.3541  159.9261 H   0  0  0  0  0  0  0  0  0  0  0  0  # atno 6907 bound_to 6896
  151.3492  133.3926  159.2686 H   0  0  0  0  0  0  0  0  0  0  0  0  # atno 6908 bound_to 6896
  150.9741  134.9127  159.7863 H   0  0  0  0  0  0  0  0  0  0  0  0  # atno 6909 bound_to 6896
  146.2311  140.2291  142.8339 H   0  0  0  0  0  0  0  0  0  0  0  0  # atno 7974 bound_to 7965
  155.5924  140.3493  155.4570 H   0  0  0  0  0  0  0  0  0  0  0  0  # atno 8008 bound_to 7997
  156.0291  140.1270  157.0302 H   0  0  0  0  0  0  0  0  0  0  0  0  # atno 8009 bound_to 7997
  154.4345  140.1047  156.6059 H   0  0  0  0  0  0  0  0  0  0  0  0  # atno 8010 bound_to 7997
  140.1265  144.4683  150.6889 H   0  0  0  0  0  0  0  0  0  0  0  0  # atno 10167 bound_to 10162
  157.4923  130.8384  149.8218 H   0  0  0  0  0  0  0  0  0  0  0  0  # atno 10718 bound_to 10713
  153.2998  135.4118  155.1242 H   0  0  0  0  0  0  0  0  0  0  0  0  # atno 10763 bound_to 10752
  154.8546  135.3538  154.5868 H   0  0  0  0  0  0  0  0  0  0  0  0  # atno 10764 bound_to 10752
  153.6293  135.7061  153.5340 H   0  0  0  0  0  0  0  0  0  0  0  0  # atno 10765 bound_to 10752
  140.0414  134.9303  157.0849 H   0  0  0  0  0  0  0  0  0  0  0  0  # atno 11005 bound_to 11000
  144.9572  140.8238  143.5535 LP  0  0  0  0  0  0  0  0  0  0  0  0  # atno 17320 bound_to 7965
  145.2258  139.2138  143.5069 LP  0  0  0  0  0  0  0  0  0  0  0  0  # atno 17321 bound_to 7965
  140.6842  143.2341  151.5305 LP  0  0  0  0  0  0  0  0  0  0  0  0  # atno 17342 bound_to 10162
  139.5541  144.2319  152.1582 LP  0  0  0  0  0  0  0  0  0  0  0  0  # atno 17343 bound_to 10162
  156.0181  130.3806  150.2048 LP  0  0  0  0  0  0  0  0  0  0  0  0  # atno 17370 bound_to 10713
  157.0237  130.9987  151.3332 LP  0  0  0  0  0  0  0  0  0  0  0  0  # atno 17371 bound_to 10713
  140.4063  134.2028  155.7163 LP  0  0  0  0  0  0  0  0  0  0  0  0  # atno 17394 bound_to 11000
  141.1885  133.8259  157.0993 LP  0  0  0  0  0  0  0  0  0  0  0  0  # atno 17395 bound_to 11000

$$$$
