AV-unprocessed.smi:2339|AV-procd|sdf|9341|dock4
  -GOLD-   2272012563D 1   1.00000     0.00000
 Structure written by MMmdl.
 49 52  0  0  0  0  0  0  0  0  1 V2000
  145.6374  131.8289  149.8056 C   0  0  0  0  0  0  0  0  0  0  0  0
  144.7564  131.8474  151.0597 C   0  0  0  0  0  0  0  0  0  0  0  0
  144.6206  133.1910  151.6036 N   0  0  0  0  0  0  0  0  0  0  0  0
  143.3966  133.8520  151.6010 C   0  0  0  0  0  0  0  0  0  0  0  0
  143.2168  135.1093  152.0496 C   0  0  0  0  0  0  0  0  0  0  0  0
  144.3726  135.8608  152.5788 C   0  0  0  0  0  0  0  0  0  0  0  0
  144.2431  137.0075  153.0081 O   0  0  0  0  0  0  0  0  0  0  0  0
  145.6836  135.1602  152.5661 C   0  0  0  0  0  0  0  0  0  0  0  0
  146.7734  135.8833  153.0750 N   0  0  0  0  0  0  0  0  0  0  0  0
  146.8332  136.7350  154.1188 C   0  0  0  0  0  0  0  0  0  0  0  0
  145.9042  137.0002  154.8782 O   0  0  0  0  0  0  0  0  0  0  0  0
  148.0409  137.3042  154.2767 N   0  0  0  0  0  0  0  0  0  0  0  0
  148.4421  138.2732  155.3102 C   0  0  1  0  0  0  0  0  0  0  0  0
  149.9581  138.3881  155.5135 C   0  0  1  0  0  0  0  0  0  0  0  0
  151.1388  137.5329  155.2215 C   0  0  0  0  0  0  0  0  0  0  0  0
  152.0717  138.6557  154.6976 C   0  0  0  0  0  0  0  0  0  0  0  0
  151.2373  139.8333  154.5560 O   0  0  0  0  0  0  0  0  0  0  0  0
  149.9424  139.3154  154.3169 C   0  0  2  0  0  0  0  0  0  0  0  0
  148.5430  139.7634  154.8024 C   0  0  0  0  0  0  0  0  0  0  0  0
  148.5004  140.8919  155.8535 C   0  0  0  0  0  0  0  0  0  0  0  0
  147.4596  141.9236  155.4150 C   0  0  0  0  0  0  0  0  0  0  0  0
  147.3327  141.7219  153.9123 C   0  0  0  0  0  0  0  0  0  0  0  0
  147.5469  140.2223  153.7305 C   0  0  0  0  0  0  0  0  0  0  0  0
  145.7240  133.8902  152.0886 C   0  0  0  0  0  0  0  0  0  0  0  0
  145.7257  130.8172  149.4095 H   0  0  0  0  0  0  0  0  0  0  0  0
  146.6426  132.1898  150.0250 H   0  0  0  0  0  0  0  0  0  0  0  0
  145.2184  132.4586  149.0202 H   0  0  0  0  0  0  0  0  0  0  0  0
  143.7687  131.4487  150.8251 H   0  0  0  0  0  0  0  0  0  0  0  0
  145.1789  131.1880  151.8189 H   0  0  0  0  0  0  0  0  0  0  0  0
  142.5763  133.2684  151.2086 H   0  0  0  0  0  0  0  0  0  0  0  0
  142.2457  135.5817  152.0311 H   0  0  0  0  0  0  0  0  0  0  0  0
  147.6356  135.7471  152.5671 H   0  0  0  0  0  0  0  0  0  0  0  0
  148.7571  137.0412  153.6151 H   0  0  0  0  0  0  0  0  0  0  0  0
  147.8804  138.1782  156.2410 H   0  0  0  0  0  0  0  0  0  0  0  0
  150.1338  138.9252  156.4514 H   0  0  0  0  0  0  0  0  0  0  0  0
  151.5329  137.0359  156.1083 H   0  0  0  0  0  0  0  0  0  0  0  0
  150.9316  136.7866  154.4539 H   0  0  0  0  0  0  0  0  0  0  0  0
  152.8868  138.8652  155.3906 H   0  0  0  0  0  0  0  0  0  0  0  0
  152.5065  138.3803  153.7360 H   0  0  0  0  0  0  0  0  0  0  0  0
  149.9095  138.8030  153.3499 H   0  0  0  0  0  0  0  0  0  0  0  0
  148.2688  140.5182  156.8515 H   0  0  0  0  0  0  0  0  0  0  0  0
  149.4742  141.3783  155.9231 H   0  0  0  0  0  0  0  0  0  0  0  0
  146.5040  141.7051  155.8937 H   0  0  0  0  0  0  0  0  0  0  0  0
  147.7392  142.9435  155.6807 H   0  0  0  0  0  0  0  0  0  0  0  0
  146.3747  142.0636  153.5191 H   0  0  0  0  0  0  0  0  0  0  0  0
  148.1228  142.2711  153.3987 H   0  0  0  0  0  0  0  0  0  0  0  0
  147.8866  139.9943  152.7197 H   0  0  0  0  0  0  0  0  0  0  0  0
  146.5934  139.7099  153.8649 H   0  0  0  0  0  0  0  0  0  0  0  0
  146.6265  133.3011  152.0590 H   0  0  0  0  0  0  0  0  0  0  0  0
  1  2  1  0  0  0  0
  1 25  1  0  0  0  0
  1 26  1  0  0  0  0
  1 27  1  0  0  0  0
  2  3  1  0  0  0  0
  2 28  1  0  0  0  0
  2 29  1  0  0  0  0
  3 24  1  0  0  0  0
  3  4  1  0  0  0  0
  4  5  2  0  0  0  0
  4 30  1  0  0  0  0
  5  6  1  0  0  0  0
  5 31  1  0  0  0  0
  6  7  2  0  0  0  0
  6  8  1  0  0  0  0
  8  9  1  0  0  0  0
  8 24  2  0  0  0  0
  9 10  1  0  0  0  0
  9 32  1  0  0  0  0
 10 11  2  0  0  0  0
 10 12  1  0  0  0  0
 12 13  1  0  0  0  0
 12 33  1  0  0  0  0
 13 19  1  0  0  0  0
 13 14  1  0  0  0  0
 13 34  1  0  0  0  0
 14 18  1  0  0  0  0
 14 15  1  0  0  0  0
 14 35  1  0  0  0  0
 15 16  1  0  0  0  0
 15 36  1  0  0  0  0
 15 37  1  0  0  0  0
 16 17  1  0  0  0  0
 16 38  1  0  0  0  0
 16 39  1  0  0  0  0
 17 18  1  0  0  0  0
 18 19  1  0  0  0  0
 18 40  1  0  0  0  0
 19 23  1  0  0  0  0
 19 20  1  0  0  0  0
 20 21  1  0  0  0  0
 20 41  1  0  0  0  0
 20 42  1  0  0  0  0
 21 22  1  0  0  0  0
 21 43  1  0  0  0  0
 21 44  1  0  0  0  0
 22 23  1  0  0  0  0
 22 45  1  0  0  0  0
 22 46  1  0  0  0  0
 23 47  1  0  0  0  0
 23 48  1  0  0  0  0
 24 49  1  0  0  0  0
M  END
> <s_m_source_file>
AV-unprocessed.smi

> <i_m_source_file_index>
2339

> <i_lp_mmshare_version>
43012

> <i_f3d_flags>
0

> <s_epik_input>
W0NIM11bQ0gyXW4xW2NIXVtjSF1jKD1PKWMoW2NIXTEpW05IXUMoPU8pW05IXVtDQEBIXTJbQ0BASF0oW0NIMl1bQ0gyXU8zKVtDQEBIXTNDMjRbQ0gyXVtDSDJdW0NIMl1bQ0gyXTQ=

> <s_epik_cmdline>
J2VwaWtfcHl0aG9uJywgJy1waCcsICc3LjAnLCAnLXRuJywgJzgnLCAnLW1hJywgJzIwMCcsICctbWV0YWxfYmluZGluZycsICctaW1hZScsICc8aW5maWxlLm1hZT4nLCAnLW9tYWUnLCAnPG91dGZpbGUubWFlPic=

> <r_lp_tautomer_probability>
1

> <r_epik_Ionization_Penalty>
0.00145966

> <r_epik_Ionization_Penalty_Charging>
0.00143969

> <r_epik_Ionization_Penalty_Neutral>
1.99697e-05

> <r_epik_State_Penalty>
0.000961843

> <r_epik_Charging_Adjusted_Penalty>
0.00240153

> <i_epik_Tot_Q>
0

> <i_epik_Tot_abs_Q>
0

> <r_epik_Metal_State_Penalty>
-0

> <b_epik_Metal_Only>
0

> <s_lp_Force_Field>
OPLS_2005

> <r_lp_Energy>
82.1358

> <b_lp_Chiralities_Consistent>
1

> <s_lp_Variant>
AV-unprocessed.smi:2339-6

> <Gold.Version>
5.8.1

> <Gold.Id.Protein>
6NUR|6NUR_protein|mol2

> <Gold.PLP.Fitness>
46.8507

> <Gold.PLP.PLP>
-36.9164

> <Gold.PLP.part.hbond>
-2.8674

> <Gold.PLP.part.metal>
0.0000

> <Gold.PLP.part.buried>
-4.8754

> <Gold.PLP.part.nonpolar>
-30.4037

> <Gold.PLP.part.repulsive>
0.2879

> <Gold.PLP.ligand.clash>
0.0000

> <Gold.PLP.ligand.torsion>
0.5519

> <Gold.PLP.Chemscore.Hbond>
2.8320

> <Gold.PLP.Chemscore.CHOScore>
0.7550

> <Gold.PLP.Chemscore.Metal>
0.0000

> <Gold.Chemscore.Hbonds>
donor molecule, donor type, donor heavy atom, donor atom, acceptor molecule, acceptor atom, score
      L1  H     9    32       P1  7948  1.00
      L1  H    12    33       P1  7948  0.83
      P1  H  7989  7998       L1    17  0.99
      L1  C     4    30       P1 10186  0.72

> <Gold.PLP.Chemscore.Internal.Correction>
0.2770

> <Gold.Rescore>
     Score         DG    S(hbond)    S(metal)    S(lipo)     H(rot)  DE(clash)    DE(int)     intcor
     21.72     -22.69       2.83        0.00      91.84       1.17       0.14       0.83       ----

> <Gold.Chemscore.Fitness>
21.7192

> <Gold.Chemscore.DG>
-22.6906

> <Gold.Chemscore.ZeroCoef>
-5.4800

> <Gold.Chemscore.Hbond>
2.8302

> <Gold.Chemscore.Metal>
0.0000

> <Gold.Chemscore.Lipo>
91.8383

> <Gold.Chemscore.Internal_Hbond>
0.0000

> <Gold.Chemscore.DEClash>
0.1440

> <Gold.Chemscore.DEInternal>
0.8273

> <Gold.Chemscore.Rot>
1.1670

> <Gold.Chemscore.Internal.Correction>
   9.000000E+99

> <Gold.Chemscore.Hbonds>
donor molecule, donor type, donor heavy atom, donor atom, acceptor molecule, acceptor atom, score
      L1  H     9    32       P1  7948  0.94
      L1  H    12    33       P1  7948  0.83
      P1  H  7989  7998       L1    17  0.72

> <Gold.Chemscore.Hbond.Weighted>
-9.4529

> <Gold.Chemscore.Metal.Weighted>
-0.0000

> <Gold.Chemscore.Lipo.Weighted>
-10.7451

> <Gold.Chemscore.Internal_Hbond.Weighted>
0.0000

> <Gold.Chemscore.DEClash.Weighted>
0.1440

> <Gold.Chemscore.DEInternal.Weighted>
0.8273

> <Gold.Chemscore.Rot.Weighted>
2.9874

> <Gold.Chemscore.Internal.Correction.Weighted>
   9.000000E+99

> <Gold.Protein.RotatedTorsions>
[ 6907 6896 6895 6894 ] final  -23.59 input  -60.11 | X-H torsion
[ 7974 7965 7964 7962 ] final -158.74 input  175.53 | X-H torsion
[ 8008 7997 7996 7995 ] final -121.52 input   59.86 | X-H torsion
[ 10167 10162 10161 10158 ] final  107.36 input  -65.29 | X-H torsion
[ 10718 10713 10712 10709 ] final  -48.09 input   66.30 | X-H torsion
[ 10763 10752 10751 10750 ] final    6.86 input  -60.55 | X-H torsion
[ 11005 11000 10999 10996 ] final  -37.14 input  -57.11 | X-H torsion

> <Gold.Protein.ActiveResidues>
 VAL166  LYS551  ARG553  GLY616  TRP617  ASP618  TYR619  PRO620  LYS621  CYS622 
 ASP623  PHE694  ASN695  SER759  ASP760  ASP761  ALA762  ILE779  LEU786  VAL792 
 PHE793  MET794  SER795  GLU796  ALA797  LYS798  CYS799  TRP800  GLU811  SER814 

> <Gold.Protein.RotatedAtoms>
  151.2018  135.0445  159.8874 H   0  0  0  0  0  0  0  0  0  0  0  0  # atno 6907 bound_to 6896
  152.5432  134.0842  159.8259 H   0  0  0  0  0  0  0  0  0  0  0  0  # atno 6908 bound_to 6896
  151.0983  133.5215  159.2643 H   0  0  0  0  0  0  0  0  0  0  0  0  # atno 6909 bound_to 6896
  144.7493  140.3784  143.6060 H   0  0  0  0  0  0  0  0  0  0  0  0  # atno 7974 bound_to 7965
  155.1493  140.0403  157.2817 H   0  0  0  0  0  0  0  0  0  0  0  0  # atno 8008 bound_to 7997
  154.6415  140.2548  155.7289 H   0  0  0  0  0  0  0  0  0  0  0  0  # atno 8009 bound_to 7997
  156.2535  140.2854  156.0811 H   0  0  0  0  0  0  0  0  0  0  0  0  # atno 8010 bound_to 7997
  139.6934  144.7105  151.1309 H   0  0  0  0  0  0  0  0  0  0  0  0  # atno 10167 bound_to 10162
  156.2021  130.4156  149.9227 H   0  0  0  0  0  0  0  0  0  0  0  0  # atno 10718 bound_to 10713
  153.2428  135.6905  153.7764 H   0  0  0  0  0  0  0  0  0  0  0  0  # atno 10763 bound_to 10752
  153.6887  135.3316  155.3197 H   0  0  0  0  0  0  0  0  0  0  0  0  # atno 10764 bound_to 10752
  154.8363  135.4540  154.1357 H   0  0  0  0  0  0  0  0  0  0  0  0  # atno 10765 bound_to 10752
  140.9929  133.6995  156.1882 H   0  0  0  0  0  0  0  0  0  0  0  0  # atno 11005 bound_to 11000
  145.7003  139.1659  143.2596 LP  0  0  0  0  0  0  0  0  0  0  0  0  # atno 17320 bound_to 7965
  146.1420  140.7044  142.9362 LP  0  0  0  0  0  0  0  0  0  0  0  0  # atno 17321 bound_to 7965
  140.7689  143.5527  150.9186 LP  0  0  0  0  0  0  0  0  0  0  0  0  # atno 17342 bound_to 10162
  139.9205  143.6611  152.3097 LP  0  0  0  0  0  0  0  0  0  0  0  0  # atno 17343 bound_to 10162
  156.6933  130.8904  151.3591 LP  0  0  0  0  0  0  0  0  0  0  0  0  # atno 17370 bound_to 10713
  157.6992  130.9314  150.0733 LP  0  0  0  0  0  0  0  0  0  0  0  0  # atno 17371 bound_to 10713
  140.7011  134.4563  157.5586 LP  0  0  0  0  0  0  0  0  0  0  0  0  # atno 17394 bound_to 11000
  139.9001  134.8577  156.1934 LP  0  0  0  0  0  0  0  0  0  0  0  0  # atno 17395 bound_to 11000

$$$$
