AV-unprocessed.smi:2106|AV-procd|sdf|8599|dock7
  -GOLD-   2272011333D 1   1.00000     0.00000
 Structure written by MMmdl.
 48 49  0  0  0  0  0  0  0  0  2 V2000
  152.7595  138.7068  154.7608 C   0  0  0  0  0  0  0  0  0  0  0  0
  151.3202  139.1285  154.8191 C   0  0  0  0  0  0  0  0  0  0  0  0
  150.7927  140.3959  155.1917 C   0  0  0  0  0  0  0  0  0  0  0  0
  149.4391  140.2462  155.0794 C   0  0  0  0  0  0  0  0  0  0  0  0
  148.3424  141.2275  155.3339 C   0  0  0  0  0  0  0  0  0  0  0  0
  149.2118  138.9453  154.6639 N   0  0  0  0  0  0  0  0  0  0  0  0
  147.9503  138.2619  154.4138 C   0  0  0  0  0  0  0  0  0  0  0  0
  147.9630  136.8533  155.0107 C   0  0  0  0  0  0  0  0  0  0  0  0
  147.8996  136.6978  156.2295 O   0  0  0  0  0  0  0  0  0  0  0  0
  148.0142  135.8338  154.1399 N   0  0  0  0  0  0  0  0  0  0  0  0
  147.9196  134.4219  154.4964 C   0  0  0  0  0  0  0  0  0  0  0  0
  146.9610  133.6397  153.5766 C   0  0  0  0  0  0  0  0  0  0  0  0
  146.5915  134.4251  152.3671 N   0  3  1  0  0  0  0  0  0  0  0  0
  146.4109  133.6114  151.1416 C   0  0  0  0  0  0  0  0  0  0  0  0
  145.0401  132.9036  151.1380 C   0  0  2  0  0  0  0  0  0  0  0  0
  144.7911  132.1382  149.8341 C   0  0  0  0  0  0  0  0  0  0  0  0
  144.0143  133.8810  151.2812 O   0  0  0  0  0  0  0  0  0  0  0  0
  144.1009  134.5943  152.5103 C   0  0  2  0  0  0  0  0  0  0  0  0
  142.9087  135.5534  152.5962 C   0  0  0  0  0  0  0  0  0  0  0  0
  145.4459  135.3459  152.5632 C   0  0  0  0  0  0  0  0  0  0  0  0
  150.3687  138.2654  154.5036 N   0  0  0  0  0  0  0  0  0  0  0  0
  153.3290  139.3580  154.0976 H   0  0  0  0  0  0  0  0  0  0  0  0
  152.8681  137.6853  154.3949 H   0  0  0  0  0  0  0  0  0  0  0  0
  153.2189  138.7557  155.7480 H   0  0  0  0  0  0  0  0  0  0  0  0
  151.3292  141.2826  155.4954 H   0  0  0  0  0  0  0  0  0  0  0  0
  148.7464  142.1804  155.6756 H   0  0  0  0  0  0  0  0  0  0  0  0
  147.6587  140.8630  156.0999 H   0  0  0  0  0  0  0  0  0  0  0  0
  147.7692  141.4140  154.4257 H   0  0  0  0  0  0  0  0  0  0  0  0
  147.1285  138.8418  154.8351 H   0  0  0  0  0  0  0  0  0  0  0  0
  147.7814  138.2090  153.3370 H   0  0  0  0  0  0  0  0  0  0  0  0
  148.0828  136.0552  153.1570 H   0  0  0  0  0  0  0  0  0  0  0  0
  148.9207  133.9955  154.4247 H   0  0  0  0  0  0  0  0  0  0  0  0
  147.6149  134.3182  155.5391 H   0  0  0  0  0  0  0  0  0  0  0  0
  147.4333  132.6976  153.2961 H   0  0  0  0  0  0  0  0  0  0  0  0
  146.0680  133.3595  154.1367 H   0  0  0  0  0  0  0  0  0  0  0  0
  146.4795  134.2768  150.2799 H   0  0  0  0  0  0  0  0  0  0  0  0
  147.2262  132.8938  151.0410 H   0  0  0  0  0  0  0  0  0  0  0  0
  144.9804  132.1969  151.9675 H   0  0  0  0  0  0  0  0  0  0  0  0
  145.5466  131.3673  149.6809 H   0  0  0  0  0  0  0  0  0  0  0  0
  144.8144  132.8061  148.9725 H   0  0  0  0  0  0  0  0  0  0  0  0
  143.8168  131.6492  149.8497 H   0  0  0  0  0  0  0  0  0  0  0  0
  144.0324  133.8877  153.3387 H   0  0  0  0  0  0  0  0  0  0  0  0
  142.9296  136.1221  153.5264 H   0  0  0  0  0  0  0  0  0  0  0  0
  141.9655  135.0077  152.5612 H   0  0  0  0  0  0  0  0  0  0  0  0
  142.9132  136.2643  151.7696 H   0  0  0  0  0  0  0  0  0  0  0  0
  145.5472  135.8801  153.5068 H   0  0  0  0  0  0  0  0  0  0  0  0
  145.4766  136.1006  151.7760 H   0  0  0  0  0  0  0  0  0  0  0  0
  147.3928  135.0142  152.1916 H   0  0  0  0  0  0  0  0  0  0  0  0
  1  2  1  0  0  0  0
  1 22  1  0  0  0  0
  1 23  1  0  0  0  0
  1 24  1  0  0  0  0
  2 21  2  0  0  0  0
  2  3  1  0  0  0  0
  3  4  2  0  0  0  0
  3 25  1  0  0  0  0
  4  5  1  0  0  0  0
  4  6  1  0  0  0  0
  5 26  1  0  0  0  0
  5 27  1  0  0  0  0
  5 28  1  0  0  0  0
  6  7  1  0  0  0  0
  6 21  1  0  0  0  0
  7  8  1  0  0  0  0
  7 29  1  0  0  0  0
  7 30  1  0  0  0  0
  8  9  2  0  0  0  0
  8 10  1  0  0  0  0
 10 11  1  0  0  0  0
 10 31  1  0  0  0  0
 11 12  1  0  0  0  0
 11 32  1  0  0  0  0
 11 33  1  0  0  0  0
 12 13  1  0  0  0  0
 12 34  1  0  0  0  0
 12 35  1  0  0  0  0
 13 20  1  0  0  0  0
 13 14  1  0  0  0  0
 13 48  1  0  0  0  0
 14 15  1  0  0  0  0
 14 36  1  0  0  0  0
 14 37  1  0  0  0  0
 15 16  1  0  0  0  0
 15 17  1  0  0  0  0
 15 38  1  0  0  0  0
 16 39  1  0  0  0  0
 16 40  1  0  0  0  0
 16 41  1  0  0  0  0
 17 18  1  0  0  0  0
 18 19  1  0  0  0  0
 18 20  1  0  0  0  0
 18 42  1  0  0  0  0
 19 43  1  0  0  0  0
 19 44  1  0  0  0  0
 19 45  1  0  0  0  0
 20 46  1  0  0  0  0
 20 47  1  0  0  0  0
M  CHG  1  13   1
M  END
> <s_m_source_file>
AV-unprocessed.smi

> <i_m_source_file_index>
2106

> <i_lp_mmshare_version>
43012

> <i_f3d_flags>
0

> <s_epik_input>
W0NIM11jMVtjSF1jKFtDSDNdKW4objEpW0NIMl1DKD1PKVtOSF1bQ0gyXVtDSDJdTjJbQ0gyXVtDQEBIXShbQ0gzXSlPW0NAQEhdKFtDSDNdKVtDSDJdMg==

> <s_epik_cmdline>
J2VwaWtfcHl0aG9uJywgJy1waCcsICc3LjAnLCAnLXRuJywgJzgnLCAnLW1hJywgJzIwMCcsICctbWV0YWxfYmluZGluZycsICctaW1hZScsICc8aW5maWxlLm1hZT4nLCAnLW9tYWUnLCAnPG91dGZpbGUubWFlPic=

> <r_lp_tautomer_probability>
1

> <r_epik_Ionization_Penalty>
0.748586

> <r_epik_Ionization_Penalty_Charging>
0.748396

> <r_epik_Ionization_Penalty_Neutral>
0.000189656

> <r_epik_State_Penalty>
0.775162

> <r_epik_Charging_Adjusted_Penalty>
1.52356

> <i_epik_Tot_Q>
1

> <i_epik_Tot_abs_Q>
1

> <r_epik_Metal_State_Penalty>
0.775295

> <b_epik_Metal_Only>
0

> <s_lp_Force_Field>
OPLS_2005

> <r_lp_Energy>
21.363

> <b_lp_Chiralities_Consistent>
1

> <s_lp_Variant>
AV-unprocessed.smi:2106-7

> <Gold.Version>
5.8.1

> <Gold.Id.Protein>
6NUR|6NUR_protein|mol2

> <Gold.PLP.Fitness>
38.8431

> <Gold.PLP.PLP>
-32.0967

> <Gold.PLP.part.hbond>
-1.8193

> <Gold.PLP.part.metal>
0.0000

> <Gold.PLP.part.buried>
-3.7030

> <Gold.PLP.part.nonpolar>
-27.4455

> <Gold.PLP.part.repulsive>
0.3811

> <Gold.PLP.ligand.clash>
0.0000

> <Gold.PLP.ligand.torsion>
1.1392

> <Gold.PLP.Chemscore.Hbond>
2.9920

> <Gold.PLP.Chemscore.CHOScore>
0.0000

> <Gold.PLP.Chemscore.Metal>
0.0000

> <Gold.Chemscore.Hbonds>
donor molecule, donor type, donor heavy atom, donor atom, acceptor molecule, acceptor atom, score
      L1  H    10    31       P1  7948  0.99
      L1  H    13    48       P1  7948  2.00

> <Gold.PLP.Chemscore.Internal.Correction>
0.0488

> <Gold.Rescore>
     Score         DG    S(hbond)    S(metal)    S(lipo)     H(rot)  DE(clash)    DE(int)     intcor
     15.92     -17.25       1.95        0.00      82.91       1.73       0.02       1.31       ----

> <Gold.Chemscore.Fitness>
15.9176

> <Gold.Chemscore.DG>
-17.2471

> <Gold.Chemscore.ZeroCoef>
-5.4800

> <Gold.Chemscore.Hbond>
1.9461

> <Gold.Chemscore.Metal>
0.0000

> <Gold.Chemscore.Lipo>
82.9057

> <Gold.Chemscore.Internal_Hbond>
0.0000

> <Gold.Chemscore.DEClash>
0.0243

> <Gold.Chemscore.DEInternal>
1.3052

> <Gold.Chemscore.Rot>
1.7316

> <Gold.Chemscore.Internal.Correction>
   9.000000E+99

> <Gold.Chemscore.Hbonds>
donor molecule, donor type, donor heavy atom, donor atom, acceptor molecule, acceptor atom, score
      L1  H    10    31       P1  7948  0.90
      L1  H    13    48       P1  7948  0.95

> <Gold.Chemscore.Hbond.Weighted>
-6.5001

> <Gold.Chemscore.Metal.Weighted>
-0.0000

> <Gold.Chemscore.Lipo.Weighted>
-9.7000

> <Gold.Chemscore.Internal_Hbond.Weighted>
0.0000

> <Gold.Chemscore.DEClash.Weighted>
0.0243

> <Gold.Chemscore.DEInternal.Weighted>
1.3052

> <Gold.Chemscore.Rot.Weighted>
4.4330

> <Gold.Chemscore.Internal.Correction.Weighted>
   9.000000E+99

> <Gold.Protein.RotatedTorsions>
[ 6907 6896 6895 6894 ] final -116.78 input  -60.11 | X-H torsion
[ 7974 7965 7964 7962 ] final  -77.19 input  175.53 | X-H torsion
[ 8008 7997 7996 7995 ] final  -44.01 input   59.86 | X-H torsion
[ 10167 10162 10161 10158 ] final -143.99 input  -65.29 | X-H torsion
[ 10718 10713 10712 10709 ] final -178.65 input   66.30 | X-H torsion
[ 10763 10752 10751 10750 ] final -112.04 input  -60.55 | X-H torsion
[ 11005 11000 10999 10996 ] final   74.80 input  -57.11 | X-H torsion

> <Gold.Protein.ActiveResidues>
 VAL166  LYS551  ARG553  GLY616  TRP617  ASP618  TYR619  PRO620  LYS621  CYS622 
 ASP623  PHE694  ASN695  SER759  ASP760  ASP761  ALA762  ILE779  LEU786  VAL792 
 PHE793  MET794  SER795  GLU796  ALA797  LYS798  CYS799  TRP800  GLU811  SER814 

> <Gold.Protein.RotatedAtoms>
  150.8083  133.8469  159.3194 H   0  0  0  0  0  0  0  0  0  0  0  0  # atno 6907 bound_to 6896
  151.6262  135.1025  160.0121 H   0  0  0  0  0  0  0  0  0  0  0  0  # atno 6908 bound_to 6896
  152.4174  133.7021  159.6486 H   0  0  0  0  0  0  0  0  0  0  0  0  # atno 6909 bound_to 6896
  145.6030  140.9404  143.1230 H   0  0  0  0  0  0  0  0  0  0  0  0  # atno 7974 bound_to 7965
  154.3997  140.1433  156.3613 H   0  0  0  0  0  0  0  0  0  0  0  0  # atno 8008 bound_to 7997
  155.8178  140.3470  155.5475 H   0  0  0  0  0  0  0  0  0  0  0  0  # atno 8009 bound_to 7997
  155.8319  140.0913  157.1777 H   0  0  0  0  0  0  0  0  0  0  0  0  # atno 8010 bound_to 7997
  139.7941  143.7925  152.2652 H   0  0  0  0  0  0  0  0  0  0  0  0  # atno 10167 bound_to 10162
  156.8474  130.9707  151.3095 H   0  0  0  0  0  0  0  0  0  0  0  0  # atno 10718 bound_to 10713
  154.8330  135.4505  154.1133 H   0  0  0  0  0  0  0  0  0  0  0  0  # atno 10763 bound_to 10752
  153.2389  135.6914  153.7812 H   0  0  0  0  0  0  0  0  0  0  0  0  # atno 10764 bound_to 10752
  153.7167  135.3348  155.3234 H   0  0  0  0  0  0  0  0  0  0  0  0  # atno 10765 bound_to 10752
  139.9374  134.7464  156.1192 H   0  0  0  0  0  0  0  0  0  0  0  0  # atno 11005 bound_to 11000
  144.7302  139.7750  143.7350 LP  0  0  0  0  0  0  0  0  0  0  0  0  # atno 17320 bound_to 7965
  146.1562  139.4660  143.0017 LP  0  0  0  0  0  0  0  0  0  0  0  0  # atno 17321 bound_to 7965
  139.8025  144.7368  150.9805 LP  0  0  0  0  0  0  0  0  0  0  0  0  # atno 17342 bound_to 10162
  140.7820  143.4331  151.0665 LP  0  0  0  0  0  0  0  0  0  0  0  0  # atno 17343 bound_to 10162
  157.6322  130.8738  149.9295 LP  0  0  0  0  0  0  0  0  0  0  0  0  # atno 17370 bound_to 10713
  156.0847  130.3669  150.0511 LP  0  0  0  0  0  0  0  0  0  0  0  0  # atno 17371 bound_to 10713
  141.0993  133.6683  156.2718 LP  0  0  0  0  0  0  0  0  0  0  0  0  # atno 17394 bound_to 11000
  140.6041  134.5525  157.5522 LP  0  0  0  0  0  0  0  0  0  0  0  0  # atno 17395 bound_to 11000

$$$$
