AV-unprocessed.smi:3314|AV-procd|sdf|12737|dock1
  -GOLD-   2272019 83D 1   1.00000     0.00000
 Structure written by MMmdl.
 38 39  0  0  0  0  0  0  0  0  2 V2000
  151.3146  145.5185  160.0746 C   0  0  0  0  0  0  0  0  0  0  0  0
  151.7748  144.1437  159.6348 C   0  0  0  0  0  0  0  0  0  0  0  0
  152.7280  143.3960  160.4371 C   0  0  0  0  0  0  0  0  0  0  0  0
  153.1242  142.1784  160.0291 C   0  0  0  0  0  0  0  0  0  0  0  0
  154.1106  141.3163  160.7886 C   0  0  0  0  0  0  0  0  0  0  0  0
  152.6356  141.6268  158.8515 N   0  0  0  0  0  0  0  0  0  0  0  0
  151.7113  142.2850  158.0211 C   0  0  0  0  0  0  0  0  0  0  0  0
  151.2227  141.8128  156.9111 N   0  0  0  0  0  0  0  0  0  0  0  0
  151.5801  140.5668  156.4027 C   0  0  0  0  0  0  0  0  0  0  0  0
  152.4166  139.7612  156.8210 O   0  0  0  0  0  0  0  0  0  0  0  0
  150.7737  140.2083  155.1487 C   0  0  2  0  0  0  0  0  0  0  0  0
  149.6790  141.2615  154.8741 C   0  0  0  0  0  0  0  0  0  0  0  0
  148.8452  140.8529  153.7203 N   0  3  2  0  0  0  0  0  0  0  0  0
  147.8035  141.8480  153.3884 C   0  0  0  0  0  0  0  0  0  0  0  0
  148.2948  139.4932  153.9203 C   0  0  0  0  0  0  0  0  0  0  0  0
  149.4289  138.4985  154.2154 C   0  0  0  0  0  0  0  0  0  0  0  0
  150.1610  138.9373  155.3530 O   0  0  0  0  0  0  0  0  0  0  0  0
  151.3003  143.6002  158.4890 C   0  0  0  0  0  0  0  0  0  0  0  0
  151.7840  145.8103  161.0144 H   0  0  0  0  0  0  0  0  0  0  0  0
  150.2335  145.5290  160.2166 H   0  0  0  0  0  0  0  0  0  0  0  0
  151.5707  146.2633  159.3205 H   0  0  0  0  0  0  0  0  0  0  0  0
  153.1146  143.8161  161.3542 H   0  0  0  0  0  0  0  0  0  0  0  0
  154.4605  141.8183  161.6912 H   0  0  0  0  0  0  0  0  0  0  0  0
  154.9775  141.0922  160.1663 H   0  0  0  0  0  0  0  0  0  0  0  0
  153.6446  140.3752  161.0817 H   0  0  0  0  0  0  0  0  0  0  0  0
  151.4485  140.1388  154.2924 H   0  0  0  0  0  0  0  0  0  0  0  0
  149.0432  141.3901  155.7526 H   0  0  0  0  0  0  0  0  0  0  0  0
  150.1350  142.2304  154.6644 H   0  0  0  0  0  0  0  0  0  0  0  0
  147.0956  141.9641  154.2102 H   0  0  0  0  0  0  0  0  0  0  0  0
  147.2494  141.5434  152.4999 H   0  0  0  0  0  0  0  0  0  0  0  0
  148.2528  142.8204  153.1839 H   0  0  0  0  0  0  0  0  0  0  0  0
  147.5828  139.5025  154.7471 H   0  0  0  0  0  0  0  0  0  0  0  0
  147.7490  139.1808  153.0293 H   0  0  0  0  0  0  0  0  0  0  0  0
  149.0181  137.5095  154.4196 H   0  0  0  0  0  0  0  0  0  0  0  0
  150.0937  138.3964  153.3561 H   0  0  0  0  0  0  0  0  0  0  0  0
  150.5930  144.1859  157.9191 H   0  0  0  0  0  0  0  0  0  0  0  0
  152.9844  140.7090  158.6145 H   0  0  0  0  0  0  0  0  0  0  0  0
  149.4617  140.8012  152.9217 H   0  0  0  0  0  0  0  0  0  0  0  0
  1  2  1  0  0  0  0
  1 19  1  0  0  0  0
  1 20  1  0  0  0  0
  1 21  1  0  0  0  0
  2 18  2  0  0  0  0
  2  3  1  0  0  0  0
  3  4  2  0  0  0  0
  3 22  1  0  0  0  0
  4  5  1  0  0  0  0
  4  6  1  0  0  0  0
  5 23  1  0  0  0  0
  5 24  1  0  0  0  0
  5 25  1  0  0  0  0
  6  7  1  0  0  0  0
  6 37  1  0  0  0  0
  7  8  2  0  0  0  0
  7 18  1  0  0  0  0
  8  9  1  0  0  0  0
  9 10  2  0  0  0  0
  9 11  1  0  0  0  0
 11 17  1  0  0  0  0
 11 12  1  0  0  0  0
 11 26  1  0  0  0  0
 12 13  1  0  0  0  0
 12 27  1  0  0  0  0
 12 28  1  0  0  0  0
 13 14  1  0  0  0  0
 13 15  1  0  0  0  0
 13 38  1  0  0  0  0
 14 29  1  0  0  0  0
 14 30  1  0  0  0  0
 14 31  1  0  0  0  0
 15 16  1  0  0  0  0
 15 32  1  0  0  0  0
 15 33  1  0  0  0  0
 16 17  1  0  0  0  0
 16 34  1  0  0  0  0
 16 35  1  0  0  0  0
 18 36  1  0  0  0  0
M  CHG  1  13   1
M  END
> <s_m_source_file>
AV-unprocessed.smi

> <i_m_source_file_index>
3314

> <i_lp_mmshare_version>
43012

> <i_f3d_flags>
0

> <s_epik_input>
W0NIM11jMVtjSF1jKFtDSDNdKW5jKFtjSF0xKVtOSF1DKD1PKVtDQEBIXTJbQ0gyXU4oW0NIM10pW0NIMl1bQ0gyXU8y

> <s_epik_cmdline>
J2VwaWtfcHl0aG9uJywgJy1waCcsICc3LjAnLCAnLXRuJywgJzgnLCAnLW1hJywgJzIwMCcsICctbWV0YWxfYmluZGluZycsICctaW1hZScsICc8aW5maWxlLm1hZT4nLCAnLW9tYWUnLCAnPG91dGZpbGUubWFlPic=

> <r_epik_Ionization_Penalty>
0.519783

> <r_epik_Ionization_Penalty_Charging>
0.519783

> <r_epik_Ionization_Penalty_Neutral>
1.74183e-13

> <r_epik_State_Penalty>
2.39351

> <r_epik_Charging_Adjusted_Penalty>
2.91329

> <i_epik_Tot_Q>
1

> <i_epik_Tot_abs_Q>
1

> <r_epik_Metal_State_Penalty>
2.41924

> <b_epik_Metal_Only>
0

> <s_lp_Force_Field>
OPLS_2005

> <r_lp_Energy>
34.3137

> <b_lp_Chiralities_Consistent>
1

> <s_lp_Variant>
AV-unprocessed.smi:3314-7

> <Gold.Version>
5.8.1

> <Gold.Id.Protein>
6NUR|6NUR_protein|mol2

> <Gold.PLP.Fitness>
45.8677

> <Gold.PLP.PLP>
-40.0265

> <Gold.PLP.part.hbond>
-2.0000

> <Gold.PLP.part.metal>
0.0000

> <Gold.PLP.part.buried>
-4.2337

> <Gold.PLP.part.nonpolar>
-33.7977

> <Gold.PLP.part.repulsive>
0.3415

> <Gold.PLP.ligand.clash>
0.0000

> <Gold.PLP.ligand.torsion>
0.0795

> <Gold.PLP.Chemscore.Hbond>
2.0000

> <Gold.PLP.Chemscore.CHOScore>
0.0000

> <Gold.PLP.Chemscore.Metal>
0.0000

> <Gold.Chemscore.Hbonds>
donor molecule, donor type, donor heavy atom, donor atom, acceptor molecule, acceptor atom, score
      L1  H    13    38       P1  7957  0.86
      P1  H  7997  8008       L1    10  1.00

> <Gold.PLP.Chemscore.Internal.Correction>
0.0002

> <Gold.Rescore>
     Score         DG    S(hbond)    S(metal)    S(lipo)     H(rot)  DE(clash)    DE(int)     intcor
     19.51     -21.03       1.95        0.00      99.25       1.00       0.05       1.47       ----

> <Gold.Chemscore.Fitness>
19.5067

> <Gold.Chemscore.DG>
-21.0294

> <Gold.Chemscore.ZeroCoef>
-5.4800

> <Gold.Chemscore.Hbond>
1.9453

> <Gold.Chemscore.Metal>
0.0000

> <Gold.Chemscore.Lipo>
99.2491

> <Gold.Chemscore.Internal_Hbond>
0.0000

> <Gold.Chemscore.DEClash>
0.0532

> <Gold.Chemscore.DEInternal>
1.4695

> <Gold.Chemscore.Rot>
1.0000

> <Gold.Chemscore.Internal.Correction>
   9.000000E+99

> <Gold.Chemscore.Hbonds>
donor molecule, donor type, donor heavy atom, donor atom, acceptor molecule, acceptor atom, score
      L1  H    13    38       P1  7957  0.85
      P1  H  7997  8008       L1    10  0.95

> <Gold.Chemscore.Hbond.Weighted>
-6.4973

> <Gold.Chemscore.Metal.Weighted>
-0.0000

> <Gold.Chemscore.Lipo.Weighted>
-11.6121

> <Gold.Chemscore.Internal_Hbond.Weighted>
0.0000

> <Gold.Chemscore.DEClash.Weighted>
0.0532

> <Gold.Chemscore.DEInternal.Weighted>
1.4695

> <Gold.Chemscore.Rot.Weighted>
2.5600

> <Gold.Chemscore.Internal.Correction.Weighted>
   9.000000E+99

> <Gold.Protein.RotatedTorsions>
[ 6907 6896 6895 6894 ] final   83.87 input  -60.11 | X-H torsion
[ 7974 7965 7964 7962 ] final  146.54 input  175.53 | X-H torsion
[ 8008 7997 7996 7995 ] final  -54.42 input   59.86 | X-H torsion
[ 10167 10162 10161 10158 ] final  -42.37 input  -65.29 | X-H torsion
[ 10718 10713 10712 10709 ] final  117.07 input   66.30 | X-H torsion
[ 10763 10752 10751 10750 ] final   -9.13 input  -60.55 | X-H torsion
[ 11005 11000 10999 10996 ] final   33.14 input  -57.11 | X-H torsion

> <Gold.Protein.ActiveResidues>
 VAL166  LYS551  ARG553  GLY616  TRP617  ASP618  TYR619  PRO620  LYS621  CYS622 
 ASP623  PHE694  ASN695  SER759  ASP760  ASP761  ALA762  ILE779  LEU786  VAL792 
 PHE793  MET794  SER795  GLU796  ALA797  LYS798  CYS799  TRP800  GLU811  SER814 

> <Gold.Protein.RotatedAtoms>
  152.5338  134.2829  159.9013 H   0  0  0  0  0  0  0  0  0  0  0  0  # atno 6907 bound_to 6896
  151.2782  133.4215  159.2633 H   0  0  0  0  0  0  0  0  0  0  0  0  # atno 6908 bound_to 6896
  151.0307  134.9552  159.8166 H   0  0  0  0  0  0  0  0  0  0  0  0  # atno 6909 bound_to 6896
  144.8663  139.5918  143.5907 H   0  0  0  0  0  0  0  0  0  0  0  0  # atno 7974 bound_to 7965
  154.4162  140.1177  156.5312 H   0  0  0  0  0  0  0  0  0  0  0  0  # atno 8008 bound_to 7997
  155.6603  140.3496  155.4761 H   0  0  0  0  0  0  0  0  0  0  0  0  # atno 8009 bound_to 7997
  155.9718  140.1143  157.0795 H   0  0  0  0  0  0  0  0  0  0  0  0  # atno 8010 bound_to 7997
  140.6971  143.3041  151.3200 H   0  0  0  0  0  0  0  0  0  0  0  0  # atno 10167 bound_to 10162
  157.6120  131.1033  150.7562 H   0  0  0  0  0  0  0  0  0  0  0  0  # atno 10718 bound_to 10713
  153.4503  135.7015  153.6113 H   0  0  0  0  0  0  0  0  0  0  0  0  # atno 10763 bound_to 10752
  153.4450  135.3771  155.2251 H   0  0  0  0  0  0  0  0  0  0  0  0  # atno 10764 bound_to 10752
  154.8728  135.3983  154.3915 H   0  0  0  0  0  0  0  0  0  0  0  0  # atno 10765 bound_to 10752
  140.2661  134.3136  155.7842 H   0  0  0  0  0  0  0  0  0  0  0  0  # atno 11005 bound_to 11000
  146.2898  139.7106  142.9169 LP  0  0  0  0  0  0  0  0  0  0  0  0  # atno 17320 bound_to 7965
  145.4216  141.0407  143.2961 LP  0  0  0  0  0  0  0  0  0  0  0  0  # atno 17321 bound_to 7965
  139.6441  144.0485  152.2577 LP  0  0  0  0  0  0  0  0  0  0  0  0  # atno 17342 bound_to 10162
  140.0000  144.6300  150.7738 LP  0  0  0  0  0  0  0  0  0  0  0  0  # atno 17343 bound_to 10162
  156.7937  130.4898  149.5380 LP  0  0  0  0  0  0  0  0  0  0  0  0  # atno 17370 bound_to 10713
  156.1227  130.6121  151.0217 LP  0  0  0  0  0  0  0  0  0  0  0  0  # atno 17371 bound_to 10713
  141.2184  133.7439  156.9263 LP  0  0  0  0  0  0  0  0  0  0  0  0  # atno 17394 bound_to 11000
  140.1417  134.9289  157.2476 LP  0  0  0  0  0  0  0  0  0  0  0  0  # atno 17395 bound_to 11000

$$$$
