AV-unprocessed.smi:2262|AV-procd|sdf|9138|dock3
  -GOLD-   2272012343D 1   1.00000     0.00000
 Structure written by MMmdl.
 43 44  0  0  0  0  0  0  0  0  2 V2000
  143.7966  132.7138  148.6697 C   0  0  0  0  0  0  0  0  0  0  0  0
  144.8019  133.3018  149.5808 N   0  3  2  0  0  0  0  0  0  0  0  0
  145.3930  132.2934  150.4952 C   0  0  0  0  0  0  0  0  0  0  0  0
  146.5197  132.9075  151.3422 C   0  0  0  0  0  0  0  0  0  0  0  0
  146.0188  134.1342  152.1276 C   0  0  1  0  0  0  0  0  0  0  0  0
  147.1128  134.7685  152.8568 N   0  0  0  0  0  0  0  0  0  0  0  0
  147.1719  134.9023  154.1899 C   0  0  0  0  0  0  0  0  0  0  0  0
  146.2949  134.4907  154.9504 O   0  0  0  0  0  0  0  0  0  0  0  0
  148.2995  135.5301  154.5679 N   0  0  0  0  0  0  0  0  0  0  0  0
  148.7143  135.8660  155.8840 C   0  0  0  0  0  0  0  0  0  0  0  0
  149.9053  136.6209  155.9658 C   0  0  0  0  0  0  0  0  0  0  0  0
  150.3940  137.0055  157.2288 C   0  0  0  0  0  0  0  0  0  0  0  0
  149.6784  136.6262  158.3784 C   0  0  0  0  0  0  0  0  0  0  0  0
  148.4993  135.8740  158.2180 C   0  0  0  0  0  0  0  0  0  0  0  0
  147.7919  135.5016  159.3426 O   0  0  0  0  0  0  0  0  0  0  0  0
  148.1174  136.1195  160.5847 C   0  0  0  0  0  0  0  0  0  0  0  0
  147.2722  135.4795  161.6905 C   0  0  0  0  0  0  0  0  0  0  0  0
  147.5571  134.1823  161.8014 F   0  0  0  0  0  0  0  0  0  0  0  0
  147.5109  136.0809  162.8553 F   0  0  0  0  0  0  0  0  0  0  0  0
  148.0344  135.5044  156.9994 N   0  0  0  0  0  0  0  0  0  0  0  0
  145.3820  135.1423  151.1570 C   0  0  0  0  0  0  0  0  0  0  0  0
  144.2778  134.4798  150.3159 C   0  0  0  0  0  0  0  0  0  0  0  0
  142.9445  132.3224  149.2273 H   0  0  0  0  0  0  0  0  0  0  0  0
  144.2317  131.8985  148.0913 H   0  0  0  0  0  0  0  0  0  0  0  0
  143.4307  133.4618  147.9654 H   0  0  0  0  0  0  0  0  0  0  0  0
  144.6154  131.8869  151.1442 H   0  0  0  0  0  0  0  0  0  0  0  0
  145.7891  131.4601  149.9134 H   0  0  0  0  0  0  0  0  0  0  0  0
  146.9131  132.1547  152.0265 H   0  0  0  0  0  0  0  0  0  0  0  0
  147.3469  133.1960  150.6917 H   0  0  0  0  0  0  0  0  0  0  0  0
  145.2543  133.8151  152.8392 H   0  0  0  0  0  0  0  0  0  0  0  0
  147.8765  135.1354  152.3077 H   0  0  0  0  0  0  0  0  0  0  0  0
  148.9315  135.8049  153.8307 H   0  0  0  0  0  0  0  0  0  0  0  0
  150.4422  136.9057  155.0726 H   0  0  0  0  0  0  0  0  0  0  0  0
  151.3025  137.5833  157.3137 H   0  0  0  0  0  0  0  0  0  0  0  0
  150.0256  136.9067  159.3619 H   0  0  0  0  0  0  0  0  0  0  0  0
  149.1785  136.0105  160.8161 H   0  0  0  0  0  0  0  0  0  0  0  0
  147.8933  137.1861  160.5282 H   0  0  0  0  0  0  0  0  0  0  0  0
  146.2051  135.5742  161.4892 H   0  0  0  0  0  0  0  0  0  0  0  0
  144.9667  135.9849  151.7114 H   0  0  0  0  0  0  0  0  0  0  0  0
  146.1444  135.5535  150.4933 H   0  0  0  0  0  0  0  0  0  0  0  0
  143.8766  135.2050  149.6069 H   0  0  0  0  0  0  0  0  0  0  0  0
  143.4503  134.1721  150.9576 H   0  0  0  0  0  0  0  0  0  0  0  0
  145.5550  133.6377  148.9973 H   0  0  0  0  0  0  0  0  0  0  0  0
  1  2  1  0  0  0  0
  1 23  1  0  0  0  0
  1 24  1  0  0  0  0
  1 25  1  0  0  0  0
  2 22  1  0  0  0  0
  2  3  1  0  0  0  0
  2 43  1  0  0  0  0
  3  4  1  0  0  0  0
  3 26  1  0  0  0  0
  3 27  1  0  0  0  0
  4  5  1  0  0  0  0
  4 28  1  0  0  0  0
  4 29  1  0  0  0  0
  5  6  1  0  0  0  0
  5 21  1  0  0  0  0
  5 30  1  0  0  0  0
  6  7  1  0  0  0  0
  6 31  1  0  0  0  0
  7  8  2  0  0  0  0
  7  9  1  0  0  0  0
  9 10  1  0  0  0  0
  9 32  1  0  0  0  0
 10 20  1  0  0  0  0
 10 11  2  0  0  0  0
 11 12  1  0  0  0  0
 11 33  1  0  0  0  0
 12 13  2  0  0  0  0
 12 34  1  0  0  0  0
 13 14  1  0  0  0  0
 13 35  1  0  0  0  0
 14 15  1  0  0  0  0
 14 20  2  0  0  0  0
 15 16  1  0  0  0  0
 16 17  1  0  0  0  0
 16 36  1  0  0  0  0
 16 37  1  0  0  0  0
 17 18  1  0  0  0  0
 17 19  1  0  0  0  0
 17 38  1  0  0  0  0
 21 22  1  0  0  0  0
 21 39  1  0  0  0  0
 21 40  1  0  0  0  0
 22 41  1  0  0  0  0
 22 42  1  0  0  0  0
M  CHG  1   2   1
M  END
> <s_m_source_file>
AV-unprocessed.smi

> <i_m_source_file_index>
2262

> <i_lp_mmshare_version>
43012

> <i_f3d_flags>
0

> <s_epik_input>
W0NIM11OMVtDSDJdW0NIMl1bQ0hdKFtDSDJdW0NIMl0xKVtOSF1DKD1PKVtOSF1jMltjSF1bY0hdW2NIXWMobjIpT1tDSDJdW0NIXShGKUY=

> <s_epik_cmdline>
J2VwaWtfcHl0aG9uJywgJy1waCcsICc3LjAnLCAnLXRuJywgJzgnLCAnLW1hJywgJzIwMCcsICctbWV0YWxfYmluZGluZycsICctaW1hZScsICc8aW5maWxlLm1hZT4nLCAnLW9tYWUnLCAnPG91dGZpbGUubWFlPic=

> <r_lp_tautomer_probability>
1

> <r_epik_Ionization_Penalty>
0.00369782

> <r_epik_Ionization_Penalty_Charging>
0.00366825

> <r_epik_Ionization_Penalty_Neutral>
2.95729e-05

> <r_epik_State_Penalty>
0.00261101

> <r_epik_Charging_Adjusted_Penalty>
0.00627926

> <i_epik_Tot_Q>
1

> <i_epik_Tot_abs_Q>
1

> <r_epik_Metal_State_Penalty>
-0

> <b_epik_Metal_Only>
0

> <s_lp_Force_Field>
OPLS_2005

> <r_lp_Energy>
16.1111

> <b_lp_Chiralities_Consistent>
1

> <s_lp_Variant>
AV-unprocessed.smi:2262-1

> <Gold.Version>
5.8.1

> <Gold.Id.Protein>
6NUR|6NUR_protein|mol2

> <Gold.PLP.Fitness>
45.4588

> <Gold.PLP.PLP>
-37.3008

> <Gold.PLP.part.hbond>
-2.9898

> <Gold.PLP.part.metal>
0.0000

> <Gold.PLP.part.buried>
-5.4115

> <Gold.PLP.part.nonpolar>
-29.6262

> <Gold.PLP.part.repulsive>
0.1820

> <Gold.PLP.ligand.clash>
0.0088

> <Gold.PLP.ligand.torsion>
0.1605

> <Gold.PLP.Chemscore.Hbond>
2.8240

> <Gold.PLP.Chemscore.CHOScore>
0.0000

> <Gold.PLP.Chemscore.Metal>
0.0000

> <Gold.Chemscore.Hbonds>
donor molecule, donor type, donor heavy atom, donor atom, acceptor molecule, acceptor atom, score
      L1  H     2    43       P1  7921  0.98
      L1  H     6    31       P1  7948  1.00
      L1  H     9    32       P1  7948  0.85

> <Gold.PLP.Chemscore.Internal.Correction>
0.0157

> <Gold.Rescore>
     Score         DG    S(hbond)    S(metal)    S(lipo)     H(rot)  DE(clash)    DE(int)     intcor
     17.25     -18.71       2.82        0.00      68.39       1.64       0.14       1.32       ----

> <Gold.Chemscore.Fitness>
17.2485

> <Gold.Chemscore.DG>
-18.7090

> <Gold.Chemscore.ZeroCoef>
-5.4800

> <Gold.Chemscore.Hbond>
2.8248

> <Gold.Chemscore.Metal>
0.0000

> <Gold.Chemscore.Lipo>
68.3855

> <Gold.Chemscore.Internal_Hbond>
0.0000

> <Gold.Chemscore.DEClash>
0.1422

> <Gold.Chemscore.DEInternal>
1.3183

> <Gold.Chemscore.Rot>
1.6434

> <Gold.Chemscore.Internal.Correction>
   9.000000E+99

> <Gold.Chemscore.Hbonds>
donor molecule, donor type, donor heavy atom, donor atom, acceptor molecule, acceptor atom, score
      L1  H     2    43       P1  7921  0.32
      L1  H     6    31       P1  7948  0.91
      L1  H     9    32       P1  7948  0.76

> <Gold.Chemscore.Hbond.Weighted>
-9.4349

> <Gold.Chemscore.Metal.Weighted>
-0.0000

> <Gold.Chemscore.Lipo.Weighted>
-8.0011

> <Gold.Chemscore.Internal_Hbond.Weighted>
0.0000

> <Gold.Chemscore.DEClash.Weighted>
0.1422

> <Gold.Chemscore.DEInternal.Weighted>
1.3183

> <Gold.Chemscore.Rot.Weighted>
4.2070

> <Gold.Chemscore.Internal.Correction.Weighted>
   9.000000E+99

> <Gold.Protein.RotatedTorsions>
[ 6907 6896 6895 6894 ] final  -18.29 input  -60.11 | X-H torsion
[ 7974 7965 7964 7962 ] final   45.54 input  175.53 | X-H torsion
[ 8008 7997 7996 7995 ] final  -16.77 input   59.86 | X-H torsion
[ 10167 10162 10161 10158 ] final   91.07 input  -65.29 | X-H torsion
[ 10718 10713 10712 10709 ] final -171.44 input   66.30 | X-H torsion
[ 10763 10752 10751 10750 ] final   25.84 input  -60.55 | X-H torsion
[ 11005 11000 10999 10996 ] final -106.91 input  -57.11 | X-H torsion

> <Gold.Protein.ActiveResidues>
 VAL166  LYS551  ARG553  GLY616  TRP617  ASP618  TYR619  PRO620  LYS621  CYS622 
 ASP623  PHE694  ASN695  SER759  ASP760  ASP761  ALA762  ILE779  LEU786  VAL792 
 PHE793  MET794  SER795  GLU796  ALA797  LYS798  CYS799  TRP800  GLU811  SER814 

> <Gold.Protein.RotatedAtoms>
  151.2804  135.0712  159.9166 H   0  0  0  0  0  0  0  0  0  0  0  0  # atno 6907 bound_to 6896
  152.5335  134.0037  159.7917 H   0  0  0  0  0  0  0  0  0  0  0  0  # atno 6908 bound_to 6896
  151.0290  133.5757  159.2693 H   0  0  0  0  0  0  0  0  0  0  0  0  # atno 6909 bound_to 6896
  146.0471  139.4953  142.9742 H   0  0  0  0  0  0  0  0  0  0  0  0  # atno 7974 bound_to 7965
  154.5028  140.2161  155.9311 H   0  0  0  0  0  0  0  0  0  0  0  0  # atno 8008 bound_to 7997
  156.1456  140.3171  155.8532 H   0  0  0  0  0  0  0  0  0  0  0  0  # atno 8009 bound_to 7997
  155.4038  140.0486  157.3026 H   0  0  0  0  0  0  0  0  0  0  0  0  # atno 8010 bound_to 7997
  139.8410  144.6641  150.9283 H   0  0  0  0  0  0  0  0  0  0  0  0  # atno 10167 bound_to 10162
  156.7409  130.9342  151.3110 H   0  0  0  0  0  0  0  0  0  0  0  0  # atno 10718 bound_to 10713
  153.0664  135.6574  154.0345 H   0  0  0  0  0  0  0  0  0  0  0  0  # atno 10763 bound_to 10752
  154.0001  135.2938  155.3405 H   0  0  0  0  0  0  0  0  0  0  0  0  # atno 10764 bound_to 10752
  154.7023  135.5239  153.8614 H   0  0  0  0  0  0  0  0  0  0  0  0  # atno 10765 bound_to 10752
  141.0981  133.8934  157.1912 H   0  0  0  0  0  0  0  0  0  0  0  0  # atno 11005 bound_to 11000
  145.6788  141.0197  143.1618 LP  0  0  0  0  0  0  0  0  0  0  0  0  # atno 17320 bound_to 7965
  144.7103  139.8397  143.7416 LP  0  0  0  0  0  0  0  0  0  0  0  0  # atno 17321 bound_to 7965
  140.7798  143.3913  151.1306 LP  0  0  0  0  0  0  0  0  0  0  0  0  # atno 17342 bound_to 10162
  139.7559  143.8709  152.3088 LP  0  0  0  0  0  0  0  0  0  0  0  0  # atno 17343 bound_to 10162
  157.6819  130.9148  150.0288 LP  0  0  0  0  0  0  0  0  0  0  0  0  # atno 17370 bound_to 10713
  156.1465  130.3642  149.9502 LP  0  0  0  0  0  0  0  0  0  0  0  0  # atno 17371 bound_to 10713
  139.9824  135.0094  156.9780 LP  0  0  0  0  0  0  0  0  0  0  0  0  # atno 17394 bound_to 11000
  140.5090  134.1021  155.7266 LP  0  0  0  0  0  0  0  0  0  0  0  0  # atno 17395 bound_to 11000

$$$$
