AV-unprocessed.smi:1724|AV-procd|sdf|6949|dock9
  -GOLD-   22720 8163D 1   1.00000     0.00000
 Structure written by MMmdl.
 38 39  0  0  0  0  0  0  0  0  1 V2000
  150.9232  143.5671  157.0538 O   0  0  0  0  0  0  0  0  0  0  0  0
  151.0890  142.3556  157.1916 C   0  0  0  0  0  0  0  0  0  0  0  0
  151.9892  141.8272  158.0337 N   0  0  0  0  0  0  0  0  0  0  0  0
  152.9030  142.5837  158.8860 C   0  0  0  0  0  0  0  0  0  0  0  0
  152.8910  142.0895  160.3475 C   0  0  2  0  0  0  0  0  0  0  0  0
  152.8273  143.2372  161.3735 C   0  0  0  0  0  0  0  0  0  0  0  0
  152.9181  142.6817  162.7993 C   0  0  0  0  0  0  0  0  0  0  0  0
  154.1489  141.7751  162.9462 C   0  0  0  0  0  0  0  0  0  0  0  0
  154.0938  140.7319  161.9802 O   0  0  0  0  0  0  0  0  0  0  0  0
  154.1262  141.2128  160.6404 C   0  0  0  0  0  0  0  0  0  0  0  0
  150.4019  141.3879  156.5567 N   0  0  0  0  0  0  0  0  0  0  0  0
  149.3887  141.4992  155.5887 C   0  0  0  0  0  0  0  0  0  0  0  0
  148.2754  142.2692  155.7099 C   0  0  0  0  0  0  0  0  0  0  0  0
  147.2711  142.3449  154.6619 C   0  0  0  0  0  0  0  0  0  0  0  0
  145.9891  143.1429  154.8420 C   0  0  0  0  0  0  0  0  0  0  0  0
  144.9216  142.3436  154.8648 F   0  0  0  0  0  0  0  0  0  0  0  0
  146.0139  143.8406  155.9777 F   0  0  0  0  0  0  0  0  0  0  0  0
  145.8440  143.9999  153.8322 F   0  0  0  0  0  0  0  0  0  0  0  0
  147.4960  141.6048  153.5607 C   0  0  0  0  0  0  0  0  0  0  0  0
  148.6481  140.8287  153.4181 N   0  0  0  0  0  0  0  0  0  0  0  0
  149.6149  140.7239  154.3573 C   0  0  0  0  0  0  0  0  0  0  0  0
  150.6014  140.0164  154.1558 O   0  0  0  0  0  0  0  0  0  0  0  0
  148.7518  140.3153  152.5547 H   0  0  0  0  0  0  0  0  0  0  0  0
  152.0507  140.8210  158.0885 H   0  0  0  0  0  0  0  0  0  0  0  0
  153.9041  142.4654  158.4703 H   0  0  0  0  0  0  0  0  0  0  0  0
  152.6855  143.6524  158.8451 H   0  0  0  0  0  0  0  0  0  0  0  0
  152.0055  141.4665  160.4839 H   0  0  0  0  0  0  0  0  0  0  0  0
  153.6474  143.9348  161.1992 H   0  0  0  0  0  0  0  0  0  0  0  0
  151.9040  143.8062  161.2647 H   0  0  0  0  0  0  0  0  0  0  0  0
  152.9629  143.4988  163.5199 H   0  0  0  0  0  0  0  0  0  0  0  0
  152.0170  142.1113  163.0282 H   0  0  0  0  0  0  0  0  0  0  0  0
  155.0711  142.3465  162.8293 H   0  0  0  0  0  0  0  0  0  0  0  0
  154.1724  141.3327  163.9422 H   0  0  0  0  0  0  0  0  0  0  0  0
  154.1449  140.3537  159.9694 H   0  0  0  0  0  0  0  0  0  0  0  0
  155.0497  141.7679  160.4676 H   0  0  0  0  0  0  0  0  0  0  0  0
  150.6147  140.4390  156.8289 H   0  0  0  0  0  0  0  0  0  0  0  0
  148.1075  142.8711  156.5877 H   0  0  0  0  0  0  0  0  0  0  0  0
  146.8209  141.5452  152.7197 H   0  0  0  0  0  0  0  0  0  0  0  0
  1  2  2  0  0  0  0
  2  3  1  0  0  0  0
  2 11  1  0  0  0  0
  3  4  1  0  0  0  0
  3 24  1  0  0  0  0
  4  5  1  0  0  0  0
  4 25  1  0  0  0  0
  4 26  1  0  0  0  0
  5 10  1  0  0  0  0
  5  6  1  0  0  0  0
  5 27  1  0  0  0  0
  6  7  1  0  0  0  0
  6 28  1  0  0  0  0
  6 29  1  0  0  0  0
  7  8  1  0  0  0  0
  7 30  1  0  0  0  0
  7 31  1  0  0  0  0
  8  9  1  0  0  0  0
  8 32  1  0  0  0  0
  8 33  1  0  0  0  0
  9 10  1  0  0  0  0
 10 34  1  0  0  0  0
 10 35  1  0  0  0  0
 11 12  1  0  0  0  0
 11 36  1  0  0  0  0
 12 21  1  0  0  0  0
 12 13  2  0  0  0  0
 13 14  1  0  0  0  0
 13 37  1  0  0  0  0
 14 15  1  0  0  0  0
 14 19  2  0  0  0  0
 15 16  1  0  0  0  0
 15 17  1  0  0  0  0
 15 18  1  0  0  0  0
 19 20  1  0  0  0  0
 19 38  1  0  0  0  0
 20 23  1  0  0  0  0
 20 21  1  0  0  0  0
 21 22  2  0  0  0  0
M  END
> <s_m_source_file>
AV-unprocessed.smi

> <i_m_source_file_index>
1724

> <i_lp_mmshare_version>
43012

> <i_f3d_flags>
0

> <s_epik_input>
Tz1jMVtuSF1bY0hdYyhDKEYpKEYpRilbY0hdYzFbTkhdQyg9TylbTkhdW0NIMl1bQ0BASF0yW0NIMl1bQ0gyXVtDSDJdT1tDSDJdMg==

> <s_epik_cmdline>
J2VwaWtfcHl0aG9uJywgJy1waCcsICc3LjAnLCAnLXRuJywgJzgnLCAnLW1hJywgJzIwMCcsICctbWV0YWxfYmluZGluZycsICctaW1hZScsICc8aW5maWxlLm1hZT4nLCAnLW9tYWUnLCAnPG91dGZpbGUubWFlPic=

> <r_lp_tautomer_probability>
1

> <r_epik_Ionization_Penalty>
0.00384958

> <r_epik_Ionization_Penalty_Charging>
0.00382926

> <r_epik_Ionization_Penalty_Neutral>
2.03186e-05

> <r_epik_State_Penalty>
-0

> <r_epik_Charging_Adjusted_Penalty>
0.00382926

> <i_epik_Tot_Q>
0

> <i_epik_Tot_abs_Q>
0

> <r_epik_Metal_State_Penalty>
0.371494

> <b_epik_Metal_Only>
0

> <s_lp_Force_Field>
OPLS_2005

> <r_lp_Energy>
21.9541

> <b_lp_Chiralities_Consistent>
1

> <s_lp_Variant>
AV-unprocessed.smi:1724-1

> <Gold.Version>
5.8.1

> <Gold.Id.Protein>
6NUR|6NUR_protein|mol2

> <Gold.PLP.Fitness>
43.5294

> <Gold.PLP.PLP>
-40.2680

> <Gold.PLP.part.hbond>
-2.0000

> <Gold.PLP.part.metal>
0.0000

> <Gold.PLP.part.buried>
-1.8920

> <Gold.PLP.part.nonpolar>
-39.0662

> <Gold.PLP.part.repulsive>
3.4171

> <Gold.PLP.ligand.clash>
0.0000

> <Gold.PLP.ligand.torsion>
1.2120

> <Gold.PLP.Chemscore.Hbond>
1.8800

> <Gold.PLP.Chemscore.CHOScore>
0.0000

> <Gold.PLP.Chemscore.Metal>
0.0000

> <Gold.Chemscore.Hbonds>
donor molecule, donor type, donor heavy atom, donor atom, acceptor molecule, acceptor atom, score
      L1  H    20    23       P1  7957  0.98
      P1  H  7989  7998       L1    22  0.89

> <Gold.PLP.Chemscore.Internal.Correction>
0.0455

> <Gold.Rescore>
     Score         DG    S(hbond)    S(metal)    S(lipo)     H(rot)  DE(clash)    DE(int)     intcor
     15.12     -16.71       1.28        0.00      88.72       1.33       0.46       1.14       ----

> <Gold.Chemscore.Fitness>
15.1191

> <Gold.Chemscore.DG>
-16.7104

> <Gold.Chemscore.ZeroCoef>
-5.4800

> <Gold.Chemscore.Hbond>
1.2773

> <Gold.Chemscore.Metal>
0.0000

> <Gold.Chemscore.Lipo>
88.7206

> <Gold.Chemscore.Internal_Hbond>
0.0000

> <Gold.Chemscore.DEClash>
0.4562

> <Gold.Chemscore.DEInternal>
1.1351

> <Gold.Chemscore.Rot>
1.3344

> <Gold.Chemscore.Internal.Correction>
   9.000000E+99

> <Gold.Chemscore.Hbonds>
donor molecule, donor type, donor heavy atom, donor atom, acceptor molecule, acceptor atom, score
      L1  H    20    23       P1  7957  0.93
      P1  H  7989  7998       L1    22  0.51

> <Gold.Chemscore.Hbond.Weighted>
-4.2661

> <Gold.Chemscore.Metal.Weighted>
-0.0000

> <Gold.Chemscore.Lipo.Weighted>
-10.3803

> <Gold.Chemscore.Internal_Hbond.Weighted>
0.0000

> <Gold.Chemscore.DEClash.Weighted>
0.4562

> <Gold.Chemscore.DEInternal.Weighted>
1.1351

> <Gold.Chemscore.Rot.Weighted>
3.4160

> <Gold.Chemscore.Internal.Correction.Weighted>
   9.000000E+99

> <Gold.Protein.RotatedTorsions>
[ 6907 6896 6895 6894 ] final  -40.74 input  -60.11 | X-H torsion
[ 7974 7965 7964 7962 ] final  128.00 input  175.53 | X-H torsion
[ 8008 7997 7996 7995 ] final  136.40 input   59.86 | X-H torsion
[ 10167 10162 10161 10158 ] final  -10.70 input  -65.29 | X-H torsion
[ 10718 10713 10712 10709 ] final   19.44 input   66.30 | X-H torsion
[ 10763 10752 10751 10750 ] final -138.62 input  -60.55 | X-H torsion
[ 11005 11000 10999 10996 ] final -127.02 input  -57.11 | X-H torsion

> <Gold.Protein.ActiveResidues>
 VAL166  LYS551  ARG553  GLY616  TRP617  ASP618  TYR619  PRO620  LYS621  CYS622 
 ASP623  PHE694  ASN695  SER759  ASP760  ASP761  ALA762  ILE779  LEU786  VAL792 
 PHE793  MET794  SER795  GLU796  ALA797  LYS798  CYS799  TRP800  GLU811  SER814 

> <Gold.Protein.RotatedAtoms>
  150.9749  134.9115  159.7809 H   0  0  0  0  0  0  0  0  0  0  0  0  # atno 6907 bound_to 6896
  152.5203  134.3490  159.9254 H   0  0  0  0  0  0  0  0  0  0  0  0  # atno 6908 bound_to 6896
  151.3498  133.3889  159.2713 H   0  0  0  0  0  0  0  0  0  0  0  0  # atno 6909 bound_to 6896
  145.0444  139.3936  143.5086 H   0  0  0  0  0  0  0  0  0  0  0  0  # atno 7974 bound_to 7965
  156.3004  140.2446  156.3739 H   0  0  0  0  0  0  0  0  0  0  0  0  # atno 8008 bound_to 7997
  154.8763  140.0414  157.1775 H   0  0  0  0  0  0  0  0  0  0  0  0  # atno 8009 bound_to 7997
  154.8742  140.2939  155.5467 H   0  0  0  0  0  0  0  0  0  0  0  0  # atno 8010 bound_to 7997
  140.7120  143.5719  150.9083 H   0  0  0  0  0  0  0  0  0  0  0  0  # atno 10167 bound_to 10162
  157.1105  130.6506  149.5896 H   0  0  0  0  0  0  0  0  0  0  0  0  # atno 10718 bound_to 10713
  154.8632  135.3606  154.5415 H   0  0  0  0  0  0  0  0  0  0  0  0  # atno 10763 bound_to 10752
  153.6036  135.7012  153.5379 H   0  0  0  0  0  0  0  0  0  0  0  0  # atno 10764 bound_to 10752
  153.3269  135.4135  155.1424 H   0  0  0  0  0  0  0  0  0  0  0  0  # atno 10765 bound_to 10752
  140.9633  134.0906  157.3945 H   0  0  0  0  0  0  0  0  0  0  0  0  # atno 11005 bound_to 11000
  146.3512  140.0061  142.8671 LP  0  0  0  0  0  0  0  0  0  0  0  0  # atno 17320 bound_to 7965
  145.1607  140.9671  143.4379 LP  0  0  0  0  0  0  0  0  0  0  0  0  # atno 17321 bound_to 7965
  139.9445  143.6343  152.3045 LP  0  0  0  0  0  0  0  0  0  0  0  0  # atno 17342 bound_to 10162
  139.6840  144.7653  151.1558 LP  0  0  0  0  0  0  0  0  0  0  0  0  # atno 17343 bound_to 10162
  155.9851  130.4880  150.7018 LP  0  0  0  0  0  0  0  0  0  0  0  0  # atno 17370 bound_to 10713
  157.4563  131.0878  151.0793 LP  0  0  0  0  0  0  0  0  0  0  0  0  # atno 17371 bound_to 10713
  139.8886  135.0098  156.6628 LP  0  0  0  0  0  0  0  0  0  0  0  0  # atno 17394 bound_to 11000
  140.7435  133.8957  155.8295 LP  0  0  0  0  0  0  0  0  0  0  0  0  # atno 17395 bound_to 11000

$$$$
