AV-unprocessed.smi:1458|AV-procd|sdf|5921|dock5
  -GOLD-   22720 6 03D 1   1.00000     0.00000
 Structure written by MMmdl.
 46 47  0  0  0  0  0  0  0  0  1 V2000
  145.8934  134.1962  151.8756 C   0  0  0  0  0  0  0  0  0  0  0  0
  145.8715  135.5626  152.2480 O   0  0  0  0  0  0  0  0  0  0  0  0
  145.6633  136.4239  151.1403 C   0  0  0  0  0  0  0  0  0  0  0  0
  145.9755  137.8677  151.5580 C   0  0  0  0  0  0  0  0  0  0  0  0
  147.3271  137.9907  152.0932 N   0  0  0  0  0  0  0  0  0  0  0  0
  147.6879  138.8032  153.0959 C   0  0  0  0  0  0  0  0  0  0  0  0
  146.9042  139.5517  153.6795 O   0  0  0  0  0  0  0  0  0  0  0  0
  148.9939  138.6684  153.3822 N   0  0  0  0  0  0  0  0  0  0  0  0
  149.7714  139.3855  154.3311 C   0  0  0  0  0  0  0  0  0  0  0  0
  151.0392  138.9709  154.8007 C   0  0  0  0  0  0  0  0  0  0  0  0
  151.6974  139.7542  155.7683 C   0  0  0  0  0  0  0  0  0  0  0  0
  151.0735  140.9281  156.2527 C   0  0  0  0  0  0  0  0  0  0  0  0
  151.7110  141.7197  157.2331 N   0  0  0  0  0  0  0  0  0  0  0  0
  152.0608  141.0234  158.4686 C   0  0  0  0  0  0  0  0  0  0  0  0
  153.0002  141.8888  159.3298 C   0  0  2  0  0  0  0  0  0  0  0  0
  153.2897  141.2441  160.6893 C   0  0  0  0  0  0  0  0  0  0  0  0
  152.3932  143.1577  159.5578 O   0  0  0  0  0  0  0  0  0  0  0  0
  152.1628  143.8748  158.3484 C   0  0  2  0  0  0  0  0  0  0  0  0
  151.5986  145.2533  158.7073 C   0  0  0  0  0  0  0  0  0  0  0  0
  151.1968  143.0691  157.4600 C   0  0  0  0  0  0  0  0  0  0  0  0
  149.8579  141.3213  155.7991 N   0  0  0  0  0  0  0  0  0  0  0  0
  149.2296  140.5672  154.8735 C   0  0  0  0  0  0  0  0  0  0  0  0
  146.0582  133.5788  152.7585 H   0  0  0  0  0  0  0  0  0  0  0  0
  146.6977  133.9924  151.1675 H   0  0  0  0  0  0  0  0  0  0  0  0
  144.9459  133.8954  151.4264 H   0  0  0  0  0  0  0  0  0  0  0  0
  146.3206  136.1305  150.3204 H   0  0  0  0  0  0  0  0  0  0  0  0
  144.6368  136.3426  150.7786 H   0  0  0  0  0  0  0  0  0  0  0  0
  145.8784  138.5333  150.7000 H   0  0  0  0  0  0  0  0  0  0  0  0
  145.2495  138.2099  152.2973 H   0  0  0  0  0  0  0  0  0  0  0  0
  148.0346  137.4028  151.6774 H   0  0  0  0  0  0  0  0  0  0  0  0
  149.4843  137.9410  152.8826 H   0  0  0  0  0  0  0  0  0  0  0  0
  151.5124  138.0660  154.4530 H   0  0  0  0  0  0  0  0  0  0  0  0
  152.6715  139.4490  156.1203 H   0  0  0  0  0  0  0  0  0  0  0  0
  151.1436  140.8047  159.0170 H   0  0  0  0  0  0  0  0  0  0  0  0
  152.5446  140.0684  158.2681 H   0  0  0  0  0  0  0  0  0  0  0  0
  153.9472  142.0345  158.8070 H   0  0  0  0  0  0  0  0  0  0  0  0
  153.7681  140.2720  160.5685 H   0  0  0  0  0  0  0  0  0  0  0  0
  152.3722  141.0972  161.2597 H   0  0  0  0  0  0  0  0  0  0  0  0
  153.9552  141.8706  161.2835 H   0  0  0  0  0  0  0  0  0  0  0  0
  153.1122  144.0134  157.8278 H   0  0  0  0  0  0  0  0  0  0  0  0
  151.4174  145.8481  157.8117 H   0  0  0  0  0  0  0  0  0  0  0  0
  152.2936  145.8068  159.3390 H   0  0  0  0  0  0  0  0  0  0  0  0
  150.6555  145.1648  159.2475 H   0  0  0  0  0  0  0  0  0  0  0  0
  151.0667  143.5846  156.5075 H   0  0  0  0  0  0  0  0  0  0  0  0
  150.2160  143.0049  157.9338 H   0  0  0  0  0  0  0  0  0  0  0  0
  148.2601  140.9225  154.5555 H   0  0  0  0  0  0  0  0  0  0  0  0
  1  2  1  0  0  0  0
  1 23  1  0  0  0  0
  1 24  1  0  0  0  0
  1 25  1  0  0  0  0
  2  3  1  0  0  0  0
  3  4  1  0  0  0  0
  3 26  1  0  0  0  0
  3 27  1  0  0  0  0
  4  5  1  0  0  0  0
  4 28  1  0  0  0  0
  4 29  1  0  0  0  0
  5  6  1  0  0  0  0
  5 30  1  0  0  0  0
  6  7  2  0  0  0  0
  6  8  1  0  0  0  0
  8  9  1  0  0  0  0
  8 31  1  0  0  0  0
  9 22  1  0  0  0  0
  9 10  2  0  0  0  0
 10 11  1  0  0  0  0
 10 32  1  0  0  0  0
 11 12  2  0  0  0  0
 11 33  1  0  0  0  0
 12 13  1  0  0  0  0
 12 21  1  0  0  0  0
 13 20  1  0  0  0  0
 13 14  1  0  0  0  0
 14 15  1  0  0  0  0
 14 34  1  0  0  0  0
 14 35  1  0  0  0  0
 15 16  1  0  0  0  0
 15 17  1  0  0  0  0
 15 36  1  0  0  0  0
 16 37  1  0  0  0  0
 16 38  1  0  0  0  0
 16 39  1  0  0  0  0
 17 18  1  0  0  0  0
 18 19  1  0  0  0  0
 18 20  1  0  0  0  0
 18 40  1  0  0  0  0
 19 41  1  0  0  0  0
 19 42  1  0  0  0  0
 19 43  1  0  0  0  0
 20 44  1  0  0  0  0
 20 45  1  0  0  0  0
 21 22  2  0  0  0  0
 22 46  1  0  0  0  0
M  END
> <s_m_source_file>
AV-unprocessed.smi

> <i_m_source_file_index>
1458

> <i_lp_mmshare_version>
43012

> <i_f3d_flags>
0

> <s_epik_input>
W0NIM11PW0NIMl1bQ0gyXVtOSF1DKD1PKVtOSF1jMVtjSF1bY0hdYyhuW2NIXTEpTjJbQ0gyXVtDQEBIXShbQ0gzXSlPW0NAQEhdKFtDSDNdKVtDSDJdMg==

> <s_epik_cmdline>
J2VwaWtfcHl0aG9uJywgJy1waCcsICc3LjAnLCAnLXRuJywgJzgnLCAnLW1hJywgJzIwMCcsICctbWV0YWxfYmluZGluZycsICctaW1hZScsICc8aW5maWxlLm1hZT4nLCAnLW9tYWUnLCAnPG91dGZpbGUubWFlPic=

> <r_lp_tautomer_probability>
1

> <r_epik_Ionization_Penalty>
0.00266072

> <r_epik_Ionization_Penalty_Charging>
0

> <r_epik_Ionization_Penalty_Neutral>
0.00266072

> <r_epik_State_Penalty>
0.00182795

> <r_epik_Charging_Adjusted_Penalty>
0.00182795

> <i_epik_Tot_Q>
0

> <i_epik_Tot_abs_Q>
0

> <r_epik_Metal_State_Penalty>
-0

> <b_epik_Metal_Only>
0

> <s_lp_Force_Field>
OPLS_2005

> <r_lp_Energy>
18.5375

> <b_lp_Chiralities_Consistent>
1

> <s_lp_Variant>
AV-unprocessed.smi:1458-1

> <Gold.Version>
5.8.1

> <Gold.Id.Protein>
6NUR|6NUR_protein|mol2

> <Gold.PLP.Fitness>
48.5266

> <Gold.PLP.PLP>
-44.0574

> <Gold.PLP.part.hbond>
-2.7796

> <Gold.PLP.part.metal>
0.0000

> <Gold.PLP.part.buried>
-1.8947

> <Gold.PLP.part.nonpolar>
-40.6010

> <Gold.PLP.part.repulsive>
0.5299

> <Gold.PLP.ligand.clash>
0.0000

> <Gold.PLP.ligand.torsion>
0.4626

> <Gold.PLP.Chemscore.Hbond>
1.6927

> <Gold.PLP.Chemscore.CHOScore>
0.0000

> <Gold.PLP.Chemscore.Metal>
0.0000

> <Gold.Chemscore.Hbonds>
donor molecule, donor type, donor heavy atom, donor atom, acceptor molecule, acceptor atom, score
      L1  H     5    30       P1  7948  0.81
      L1  H     8    31       P1  7948  0.75

> <Gold.PLP.Chemscore.Internal.Correction>
0.3163

> <Gold.Rescore>
     Score         DG    S(hbond)    S(metal)    S(lipo)     H(rot)  DE(clash)    DE(int)     intcor
     17.19     -19.35       1.73        0.00     104.74       1.62       0.26       1.90       ----

> <Gold.Chemscore.Fitness>
17.1889

> <Gold.Chemscore.DG>
-19.3520

> <Gold.Chemscore.ZeroCoef>
-5.4800

> <Gold.Chemscore.Hbond>
1.7265

> <Gold.Chemscore.Metal>
0.0000

> <Gold.Chemscore.Lipo>
104.7360

> <Gold.Chemscore.Internal_Hbond>
0.0000

> <Gold.Chemscore.DEClash>
0.2589

> <Gold.Chemscore.DEInternal>
1.9042

> <Gold.Chemscore.Rot>
1.6206

> <Gold.Chemscore.Internal.Correction>
   9.000000E+99

> <Gold.Chemscore.Hbonds>
donor molecule, donor type, donor heavy atom, donor atom, acceptor molecule, acceptor atom, score
      L1  H     5    30       P1  7948  0.77
      L1  H     8    31       P1  7948  0.60

> <Gold.Chemscore.Hbond.Weighted>
-5.7665

> <Gold.Chemscore.Metal.Weighted>
-0.0000

> <Gold.Chemscore.Lipo.Weighted>
-12.2541

> <Gold.Chemscore.Internal_Hbond.Weighted>
0.0000

> <Gold.Chemscore.DEClash.Weighted>
0.2589

> <Gold.Chemscore.DEInternal.Weighted>
1.9042

> <Gold.Chemscore.Rot.Weighted>
4.1486

> <Gold.Chemscore.Internal.Correction.Weighted>
   9.000000E+99

> <Gold.Protein.RotatedTorsions>
[ 6907 6896 6895 6894 ] final -106.59 input  -60.11 | X-H torsion
[ 7974 7965 7964 7962 ] final -134.15 input  175.53 | X-H torsion
[ 8008 7997 7996 7995 ] final  131.60 input   59.86 | X-H torsion
[ 10167 10162 10161 10158 ] final   54.34 input  -65.29 | X-H torsion
[ 10718 10713 10712 10709 ] final -122.13 input   66.30 | X-H torsion
[ 10763 10752 10751 10750 ] final -163.45 input  -60.55 | X-H torsion
[ 11005 11000 10999 10996 ] final -148.67 input  -57.11 | X-H torsion

> <Gold.Protein.ActiveResidues>
 VAL166  LYS551  ARG553  GLY616  TRP617  ASP618  TYR619  PRO620  LYS621  CYS622 
 ASP623  PHE694  ASN695  SER759  ASP760  ASP761  ALA762  ILE779  LEU786  VAL792 
 PHE793  MET794  SER795  GLU796  ALA797  LYS798  CYS799  TRP800  GLU811  SER814 

> <Gold.Protein.RotatedAtoms>
  150.7397  133.9954  159.3620 H   0  0  0  0  0  0  0  0  0  0  0  0  # atno 6907 bound_to 6896
  151.7904  135.0735  160.0396 H   0  0  0  0  0  0  0  0  0  0  0  0  # atno 6908 bound_to 6896
  152.3211  133.5819  159.5781 H   0  0  0  0  0  0  0  0  0  0  0  0  # atno 6909 bound_to 6896
  144.9128  140.6917  143.5014 H   0  0  0  0  0  0  0  0  0  0  0  0  # atno 7974 bound_to 7965
  156.2972  140.2567  156.2951 H   0  0  0  0  0  0  0  0  0  0  0  0  # atno 8008 bound_to 7997
  154.9471  140.0395  157.2144 H   0  0  0  0  0  0  0  0  0  0  0  0  # atno 8009 bound_to 7997
  154.8071  140.2838  155.5884 H   0  0  0  0  0  0  0  0  0  0  0  0  # atno 8010 bound_to 7997
  140.2312  144.3685  150.6414 H   0  0  0  0  0  0  0  0  0  0  0  0  # atno 10167 bound_to 10162
  156.1393  130.6454  150.9746 H   0  0  0  0  0  0  0  0  0  0  0  0  # atno 10718 bound_to 10713
  154.7121  135.3008  154.9180 H   0  0  0  0  0  0  0  0  0  0  0  0  # atno 10763 bound_to 10752
  154.0079  135.6698  153.4767 H   0  0  0  0  0  0  0  0  0  0  0  0  # atno 10764 bound_to 10752
  153.0764  135.5033  154.8326 H   0  0  0  0  0  0  0  0  0  0  0  0  # atno 10765 bound_to 10752
  140.7588  134.3322  157.5107 H   0  0  0  0  0  0  0  0  0  0  0  0  # atno 11005 bound_to 11000
  145.3425  139.1728  143.4478 LP  0  0  0  0  0  0  0  0  0  0  0  0  # atno 17320 bound_to 7965
  146.3167  140.3468  142.8652 LP  0  0  0  0  0  0  0  0  0  0  0  0  # atno 17321 bound_to 7965
  140.6184  143.2174  151.6745 LP  0  0  0  0  0  0  0  0  0  0  0  0  # atno 17342 bound_to 10162
  139.5109  144.3526  152.0638 LP  0  0  0  0  0  0  0  0  0  0  0  0  # atno 17343 bound_to 10162
  157.6561  131.0889  150.7943 LP  0  0  0  0  0  0  0  0  0  0  0  0  # atno 17370 bound_to 10713
  156.8020  130.4924  149.5368 LP  0  0  0  0  0  0  0  0  0  0  0  0  # atno 17371 bound_to 10713
  139.8774  134.9189  156.3214 LP  0  0  0  0  0  0  0  0  0  0  0  0  # atno 17394 bound_to 11000
  140.9682  133.7344  156.0497 LP  0  0  0  0  0  0  0  0  0  0  0  0  # atno 17395 bound_to 11000

$$$$
