AV-unprocessed.smi:3287|AV-procd|sdf|12602|dock8
  -GOLD-   2272018533D 1   1.00000     0.00000
 Structure written by MMmdl.
 43 44  0  0  0  0  0  0  0  0  2 V2000
  151.8419  141.0189  157.1664 C   0  0  0  0  0  0  0  0  0  0  0  0
  151.0451  140.5872  155.9242 C   0  0  2  0  0  0  0  0  0  0  0  0
  149.5248  140.7028  156.1488 C   0  0  0  0  0  0  0  0  0  0  0  0
  148.7416  140.3531  154.8739 C   0  0  0  0  0  0  0  0  0  0  0  0
  149.1021  138.9524  154.3486 C   0  0  1  0  0  0  0  0  0  0  0  0
  148.3522  138.6794  153.1028 N   0  3  0  0  0  0  0  0  0  0  0  0
  146.8790  138.6878  153.2363 C   0  0  0  0  0  0  0  0  0  0  0  0
  146.1947  138.2178  151.9408 C   0  0  1  0  0  0  0  0  0  0  0  0
  147.1864  137.7627  151.0410 O   0  0  0  0  0  0  0  0  0  0  0  0
  145.1581  137.1423  152.2264 C   0  0  0  0  0  0  0  0  0  0  0  0
  145.2582  135.8586  151.6473 C   0  0  0  0  0  0  0  0  0  0  0  0
  144.2708  134.9014  151.9551 C   0  0  0  0  0  0  0  0  0  0  0  0
  143.2307  135.1486  152.7795 N   0  0  0  0  0  0  0  0  0  0  0  0
  143.1403  136.3771  153.3316 C   0  0  0  0  0  0  0  0  0  0  0  0
  144.0741  137.4048  153.0901 C   0  0  0  0  0  0  0  0  0  0  0  0
  150.6279  138.8415  154.1292 C   0  0  0  0  0  0  0  0  0  0  0  0
  151.4375  139.1824  155.3985 C   0  0  2  0  0  0  0  0  0  0  0  0
  151.3391  138.0617  156.4536 C   0  0  0  0  0  0  0  0  0  0  0  0
  151.5875  140.4187  158.0400 H   0  0  0  0  0  0  0  0  0  0  0  0
  151.6368  142.0601  157.4173 H   0  0  0  0  0  0  0  0  0  0  0  0
  152.9152  140.9288  156.9966 H   0  0  0  0  0  0  0  0  0  0  0  0
  151.3031  141.2986  155.1378 H   0  0  0  0  0  0  0  0  0  0  0  0
  149.2123  140.0499  156.9643 H   0  0  0  0  0  0  0  0  0  0  0  0
  149.2725  141.7174  156.4594 H   0  0  0  0  0  0  0  0  0  0  0  0
  147.6715  140.4121  155.0763 H   0  0  0  0  0  0  0  0  0  0  0  0
  148.9510  141.1008  154.1073 H   0  0  0  0  0  0  0  0  0  0  0  0
  148.7868  138.2218  155.0947 H   0  0  0  0  0  0  0  0  0  0  0  0
  148.5966  139.3955  152.4341 H   0  0  0  0  0  0  0  0  0  0  0  0
  146.5717  138.0573  154.0709 H   0  0  0  0  0  0  0  0  0  0  0  0
  146.5582  139.7041  153.4688 H   0  0  0  0  0  0  0  0  0  0  0  0
  145.6925  139.0649  151.4712 H   0  0  0  0  0  0  0  0  0  0  0  0
  147.6549  137.0491  151.4478 H   0  0  0  0  0  0  0  0  0  0  0  0
  146.0716  135.6072  150.9823 H   0  0  0  0  0  0  0  0  0  0  0  0
  144.3190  133.9104  151.5285 H   0  0  0  0  0  0  0  0  0  0  0  0
  142.2988  136.5465  153.9871 H   0  0  0  0  0  0  0  0  0  0  0  0
  143.9550  138.3701  153.5599 H   0  0  0  0  0  0  0  0  0  0  0  0
  150.8998  137.8423  153.7888 H   0  0  0  0  0  0  0  0  0  0  0  0
  150.9237  139.5207  153.3282 H   0  0  0  0  0  0  0  0  0  0  0  0
  152.4861  139.2282  155.1007 H   0  0  0  0  0  0  0  0  0  0  0  0
  150.3361  137.9722  156.8693 H   0  0  0  0  0  0  0  0  0  0  0  0
  152.0258  138.2323  157.2825 H   0  0  0  0  0  0  0  0  0  0  0  0
  151.6018  137.0961  156.0207 H   0  0  0  0  0  0  0  0  0  0  0  0
  148.6435  137.7855  152.7328 H   0  0  0  0  0  0  0  0  0  0  0  0
  1  2  1  0  0  0  0
  1 19  1  0  0  0  0
  1 20  1  0  0  0  0
  1 21  1  0  0  0  0
  2 17  1  0  0  0  0
  2  3  1  0  0  0  0
  2 22  1  0  0  0  0
  3  4  1  0  0  0  0
  3 23  1  0  0  0  0
  3 24  1  0  0  0  0
  4  5  1  0  0  0  0
  4 25  1  0  0  0  0
  4 26  1  0  0  0  0
  5  6  1  0  0  0  0
  5 16  1  0  0  0  0
  5 27  1  0  0  0  0
  6  7  1  0  0  0  0
  6 28  1  0  0  0  0
  6 43  1  0  0  0  0
  7  8  1  0  0  0  0
  7 29  1  0  0  0  0
  7 30  1  0  0  0  0
  8  9  1  0  0  0  0
  8 10  1  0  0  0  0
  8 31  1  0  0  0  0
  9 32  1  0  0  0  0
 10 15  1  0  0  0  0
 10 11  2  0  0  0  0
 11 12  1  0  0  0  0
 11 33  1  0  0  0  0
 12 13  2  0  0  0  0
 12 34  1  0  0  0  0
 13 14  1  0  0  0  0
 14 15  2  0  0  0  0
 14 35  1  0  0  0  0
 15 36  1  0  0  0  0
 16 17  1  0  0  0  0
 16 37  1  0  0  0  0
 16 38  1  0  0  0  0
 17 18  1  0  0  0  0
 17 39  1  0  0  0  0
 18 40  1  0  0  0  0
 18 41  1  0  0  0  0
 18 42  1  0  0  0  0
M  CHG  1   6   1
M  END
> <s_m_source_file>
AV-unprocessed.smi

> <i_m_source_file_index>
3287

> <i_lp_mmshare_version>
43012

> <i_f3d_flags>
0

> <s_epik_input>
W0NIM11bQ0BASF0xW0NIMl1bQ0gyXVtDQEhdKFtDSDJdW0NASF0xW0NIM10pW05IXVtDSDJdW0NASF0oW09IXSljMltjSF1bY0hdbltjSF1bY0hdMg==

> <s_epik_cmdline>
J2VwaWtfcHl0aG9uJywgJy1waCcsICc3LjAnLCAnLXRuJywgJzgnLCAnLW1hJywgJzIwMCcsICctbWV0YWxfYmluZGluZycsICctaW1hZScsICc8aW5maWxlLm1hZT4nLCAnLW9tYWUnLCAnPG91dGZpbGUubWFlPic=

> <r_lp_tautomer_probability>
1

> <r_epik_Ionization_Penalty>
0.00537262

> <r_epik_Ionization_Penalty_Charging>
0.00321624

> <r_epik_Ionization_Penalty_Neutral>
0.00215638

> <r_epik_State_Penalty>
-0

> <r_epik_Charging_Adjusted_Penalty>
0.00321624

> <i_epik_Tot_Q>
1

> <i_epik_Tot_abs_Q>
1

> <r_epik_Metal_State_Penalty>
-0

> <b_epik_Metal_Only>
0

> <s_lp_Force_Field>
OPLS_2005

> <r_lp_Energy>
17.6896

> <b_lp_Chiralities_Consistent>
1

> <s_lp_Variant>
AV-unprocessed.smi:3287-13

> <Gold.Version>
5.8.1

> <Gold.Id.Protein>
6NUR|6NUR_protein|mol2

> <Gold.PLP.Fitness>
44.2167

> <Gold.PLP.PLP>
-31.5839

> <Gold.PLP.part.hbond>
-3.7983

> <Gold.PLP.part.metal>
0.0000

> <Gold.PLP.part.buried>
-3.5537

> <Gold.PLP.part.nonpolar>
-25.6921

> <Gold.PLP.part.repulsive>
0.2126

> <Gold.PLP.ligand.clash>
0.0000

> <Gold.PLP.ligand.torsion>
0.7311

> <Gold.PLP.Chemscore.Hbond>
4.6939

> <Gold.PLP.Chemscore.CHOScore>
0.0000

> <Gold.PLP.Chemscore.Metal>
0.0000

> <Gold.Chemscore.Hbonds>
donor molecule, donor type, donor heavy atom, donor atom, acceptor molecule, acceptor atom, score
      L1  H     6    28       P1  7957  1.00
      L1  H     6    43       P1  7948  2.00
      L1  H     9    32       P1  7948  1.00
      P1  H  7954  7966       L1     9  0.61

> <Gold.PLP.Chemscore.Internal.Correction>
0.0133

> <Gold.Rescore>
     Score         DG    S(hbond)    S(metal)    S(lipo)     H(rot)  DE(clash)    DE(int)     intcor
     19.76     -20.72       2.94        0.00      87.85       1.90       0.19       0.77       ----

> <Gold.Chemscore.Fitness>
19.7616

> <Gold.Chemscore.DG>
-20.7187

> <Gold.Chemscore.ZeroCoef>
-5.4800

> <Gold.Chemscore.Hbond>
2.9441

> <Gold.Chemscore.Metal>
0.0000

> <Gold.Chemscore.Lipo>
87.8483

> <Gold.Chemscore.Internal_Hbond>
0.0000

> <Gold.Chemscore.DEClash>
0.1904

> <Gold.Chemscore.DEInternal>
0.7667

> <Gold.Chemscore.Rot>
1.9035

> <Gold.Chemscore.Internal.Correction>
   9.000000E+99

> <Gold.Chemscore.Hbonds>
donor molecule, donor type, donor heavy atom, donor atom, acceptor molecule, acceptor atom, score
      L1  H     6    28       P1  7957  0.96
      L1  H     6    43       P1  7948  1.00
      L1  H     9    32       P1  7948  0.92
      P1  H  7954  7966       L1     9  0.05

> <Gold.Chemscore.Hbond.Weighted>
-9.8334

> <Gold.Chemscore.Metal.Weighted>
-0.0000

> <Gold.Chemscore.Lipo.Weighted>
-10.2783

> <Gold.Chemscore.Internal_Hbond.Weighted>
0.0000

> <Gold.Chemscore.DEClash.Weighted>
0.1904

> <Gold.Chemscore.DEInternal.Weighted>
0.7667

> <Gold.Chemscore.Rot.Weighted>
4.8729

> <Gold.Chemscore.Internal.Correction.Weighted>
   9.000000E+99

> <Gold.Protein.RotatedTorsions>
[ 6907 6896 6895 6894 ] final  105.82 input  -60.11 | X-H torsion
[ 7974 7965 7964 7962 ] final  108.10 input  175.53 | X-H torsion
[ 8008 7997 7996 7995 ] final -164.64 input   59.86 | X-H torsion
[ 10167 10162 10161 10158 ] final  -92.85 input  -65.29 | X-H torsion
[ 10718 10713 10712 10709 ] final   94.92 input   66.30 | X-H torsion
[ 10763 10752 10751 10750 ] final  -14.95 input  -60.55 | X-H torsion
[ 11005 11000 10999 10996 ] final  -14.26 input  -57.11 | X-H torsion

> <Gold.Protein.ActiveResidues>
 VAL166  LYS551  ARG553  GLY616  TRP617  ASP618  TYR619  PRO620  LYS621  CYS622 
 ASP623  PHE694  ASN695  SER759  ASP760  ASP761  ALA762  ILE779  LEU786  VAL792 
 PHE793  MET794  SER795  GLU796  ALA797  LYS798  CYS799  TRP800  GLU811  SER814 

> <Gold.Protein.RotatedAtoms>
  152.5216  133.9472  159.7654 H   0  0  0  0  0  0  0  0  0  0  0  0  # atno 6907 bound_to 6896
  150.9789  133.6257  159.2733 H   0  0  0  0  0  0  0  0  0  0  0  0  # atno 6908 bound_to 6896
  151.3442  135.0876  159.9434 H   0  0  0  0  0  0  0  0  0  0  0  0  # atno 6909 bound_to 6896
  145.2850  139.2619  143.3895 H   0  0  0  0  0  0  0  0  0  0  0  0  # atno 7974 bound_to 7965
  155.8385  140.0945  157.1749 H   0  0  0  0  0  0  0  0  0  0  0  0  # atno 8008 bound_to 7997
  154.3981  140.1405  156.3761 H   0  0  0  0  0  0  0  0  0  0  0  0  # atno 8009 bound_to 7997
  155.8089  140.3450  155.5449 H   0  0  0  0  0  0  0  0  0  0  0  0  # atno 8010 bound_to 7997
  140.3306  143.2997  151.9946 H   0  0  0  0  0  0  0  0  0  0  0  0  # atno 10167 bound_to 10162
  157.6944  131.0528  150.4260 H   0  0  0  0  0  0  0  0  0  0  0  0  # atno 10718 bound_to 10713
  153.5359  135.7014  153.5660 H   0  0  0  0  0  0  0  0  0  0  0  0  # atno 10763 bound_to 10752
  153.3647  135.3960  155.1744 H   0  0  0  0  0  0  0  0  0  0  0  0  # atno 10764 bound_to 10752
  154.8679  135.3797  154.4860 H   0  0  0  0  0  0  0  0  0  0  0  0  # atno 10765 bound_to 10752
  140.7845  133.8336  155.9323 H   0  0  0  0  0  0  0  0  0  0  0  0  # atno 11005 bound_to 11000
  146.3204  140.3327  142.8641 LP  0  0  0  0  0  0  0  0  0  0  0  0  # atno 17320 bound_to 7965
  144.9221  140.7880  143.5742 LP  0  0  0  0  0  0  0  0  0  0  0  0  # atno 17321 bound_to 7965
  139.4857  144.6238  151.7205 LP  0  0  0  0  0  0  0  0  0  0  0  0  # atno 17342 bound_to 10162
  140.5400  144.0594  150.6085 LP  0  0  0  0  0  0  0  0  0  0  0  0  # atno 17343 bound_to 10162
  156.4631  130.4036  149.6564 LP  0  0  0  0  0  0  0  0  0  0  0  0  # atno 17370 bound_to 10713
  156.3672  130.7512  151.2491 LP  0  0  0  0  0  0  0  0  0  0  0  0  # atno 17371 bound_to 10713
  140.9450  134.1852  157.4770 LP  0  0  0  0  0  0  0  0  0  0  0  0  # atno 17394 bound_to 11000
  139.8738  134.9887  156.5423 LP  0  0  0  0  0  0  0  0  0  0  0  0  # atno 17395 bound_to 11000

$$$$
