AV-unprocessed.smi:2258|AV-procd|sdf|9129|dock2
  -GOLD-   2272012333D 1   1.00000     0.00000
 Structure written by MMmdl.
 40 42  0  0  0  0  0  0  0  0  1 V2000
  146.2230  130.5126  152.0095 C   0  0  0  0  0  0  0  0  0  0  0  0
  145.6524  131.8060  151.6321 N   0  0  0  0  0  0  0  0  0  0  0  0
  144.3580  131.8339  151.0945 C   0  0  0  0  0  0  0  0  0  0  0  0
  143.7887  132.9984  150.7356 C   0  0  0  0  0  0  0  0  0  0  0  0
  144.4717  134.2049  150.8882 N   0  0  0  0  0  0  0  0  0  0  0  0
  145.6824  134.2541  151.3709 C   0  0  0  0  0  0  0  0  0  0  0  0
  146.3992  135.4496  151.5518 N   0  0  0  0  0  0  0  0  0  0  0  0
  145.9744  136.7096  151.8071 C   0  0  0  0  0  0  0  0  0  0  0  0
  144.7786  136.9450  151.9698 O   0  0  0  0  0  0  0  0  0  0  0  0
  146.9200  137.6592  151.9301 N   0  0  0  0  0  0  0  0  0  0  0  0
  146.6874  139.0763  152.1961 C   0  0  0  0  0  0  0  0  0  0  0  0
  147.3376  139.5581  153.5057 C   0  0  0  0  0  0  0  0  0  0  0  0
  147.5424  141.0765  153.3978 C   0  0  0  0  0  0  0  0  0  0  0  0
  147.9104  141.9195  154.5934 C   0  0  0  0  0  0  0  0  0  0  0  0
  146.5689  142.1122  153.9148 C   0  0  0  0  0  0  0  0  0  0  0  0
  146.6604  139.0871  154.8128 C   0  0  0  0  0  0  0  0  0  0  0  0
  148.0326  138.7800  155.4062 C   0  0  0  0  0  0  0  0  0  0  0  0
  148.5456  138.7075  153.9693 C   0  0  0  0  0  0  0  0  0  0  0  0
  146.3645  132.9527  151.8047 C   0  0  0  0  0  0  0  0  0  0  0  0
  147.5013  132.9775  152.2804 O   0  0  0  0  0  0  0  0  0  0  0  0
  145.5641  129.6787  151.7653 H   0  0  0  0  0  0  0  0  0  0  0  0
  146.4126  130.4783  153.0832 H   0  0  0  0  0  0  0  0  0  0  0  0
  147.1681  130.3431  151.4913 H   0  0  0  0  0  0  0  0  0  0  0  0
  143.8699  130.8753  150.9957 H   0  0  0  0  0  0  0  0  0  0  0  0
  142.7933  133.0521  150.3195 H   0  0  0  0  0  0  0  0  0  0  0  0
  147.4045  135.3551  151.5364 H   0  0  0  0  0  0  0  0  0  0  0  0
  147.8813  137.3776  151.8004 H   0  0  0  0  0  0  0  0  0  0  0  0
  147.0300  139.6731  151.3491 H   0  0  0  0  0  0  0  0  0  0  0  0
  145.6085  139.2273  152.2374 H   0  0  0  0  0  0  0  0  0  0  0  0
  148.0257  141.3640  152.4658 H   0  0  0  0  0  0  0  0  0  0  0  0
  147.9150  141.4413  155.5705 H   0  0  0  0  0  0  0  0  0  0  0  0
  148.6654  142.6896  154.4484 H   0  0  0  0  0  0  0  0  0  0  0  0
  146.4356  143.0131  153.3193 H   0  0  0  0  0  0  0  0  0  0  0  0
  145.6881  141.7926  154.4658 H   0  0  0  0  0  0  0  0  0  0  0  0
  146.1014  139.8592  155.3423 H   0  0  0  0  0  0  0  0  0  0  0  0
  146.0598  138.1850  154.6846 H   0  0  0  0  0  0  0  0  0  0  0  0
  148.4468  139.6123  155.9758 H   0  0  0  0  0  0  0  0  0  0  0  0
  148.0907  137.8421  155.9588 H   0  0  0  0  0  0  0  0  0  0  0  0
  148.5190  137.6878  153.5808 H   0  0  0  0  0  0  0  0  0  0  0  0
  149.5296  139.1482  153.8118 H   0  0  0  0  0  0  0  0  0  0  0  0
  1  2  1  0  0  0  0
  1 21  1  0  0  0  0
  1 22  1  0  0  0  0
  1 23  1  0  0  0  0
  2 19  1  0  0  0  0
  2  3  1  0  0  0  0
  3  4  2  0  0  0  0
  3 24  1  0  0  0  0
  4  5  1  0  0  0  0
  4 25  1  0  0  0  0
  5  6  2  0  0  0  0
  6  7  1  0  0  0  0
  6 19  1  0  0  0  0
  7  8  1  0  0  0  0
  7 26  1  0  0  0  0
  8  9  2  0  0  0  0
  8 10  1  0  0  0  0
 10 11  1  0  0  0  0
 10 27  1  0  0  0  0
 11 12  1  0  0  0  0
 11 28  1  0  0  0  0
 11 29  1  0  0  0  0
 12 18  1  0  0  0  0
 12 13  1  0  0  0  0
 12 16  1  0  0  0  0
 13 15  1  0  0  0  0
 13 14  1  0  0  0  0
 13 30  1  0  0  0  0
 14 15  1  0  0  0  0
 14 31  1  0  0  0  0
 14 32  1  0  0  0  0
 15 33  1  0  0  0  0
 15 34  1  0  0  0  0
 16 17  1  0  0  0  0
 16 35  1  0  0  0  0
 16 36  1  0  0  0  0
 17 18  1  0  0  0  0
 17 37  1  0  0  0  0
 17 38  1  0  0  0  0
 18 39  1  0  0  0  0
 18 40  1  0  0  0  0
 19 20  2  0  0  0  0
M  END
> <s_m_source_file>
AV-unprocessed.smi

> <i_m_source_file_index>
2258

> <i_lp_mmshare_version>
43012

> <i_f3d_flags>
0

> <s_epik_input>
W0NIM11uMVtjSF1bY0hdbmMoYzE9TylbTkhdQyg9TylbTkhdW0NIMl1DMihbQ0hdM1tDSDJdW0NIMl0zKVtDSDJdW0NIMl1bQ0gyXTI=

> <s_epik_cmdline>
J2VwaWtfcHl0aG9uJywgJy1waCcsICc3LjAnLCAnLXRuJywgJzgnLCAnLW1hJywgJzIwMCcsICctbWV0YWxfYmluZGluZycsICctaW1hZScsICc8aW5maWxlLm1hZT4nLCAnLW9tYWUnLCAnPG91dGZpbGUubWFlPic=

> <r_lp_tautomer_probability>
1

> <r_epik_Ionization_Penalty>
0.000665538

> <r_epik_Ionization_Penalty_Charging>
1.64466e-07

> <r_epik_Ionization_Penalty_Neutral>
0.000665373

> <r_epik_State_Penalty>
-0

> <r_epik_Charging_Adjusted_Penalty>
1.64466e-07

> <i_epik_Tot_Q>
0

> <i_epik_Tot_abs_Q>
0

> <r_epik_Metal_State_Penalty>
-0

> <b_epik_Metal_Only>
0

> <s_lp_Force_Field>
OPLS_2005

> <r_lp_Energy>
52.1357

> <b_lp_Chiralities_Consistent>
1

> <s_lp_Variant>
AV-unprocessed.smi:2258-1

> <Gold.Version>
5.8.1

> <Gold.Id.Protein>
6NUR|6NUR_protein|mol2

> <Gold.PLP.Fitness>
41.6401

> <Gold.PLP.PLP>
-34.0235

> <Gold.PLP.part.hbond>
-1.9016

> <Gold.PLP.part.metal>
0.0000

> <Gold.PLP.part.buried>
-4.7710

> <Gold.PLP.part.nonpolar>
-30.0800

> <Gold.PLP.part.repulsive>
2.1995

> <Gold.PLP.ligand.clash>
0.0000

> <Gold.PLP.ligand.torsion>
1.4239

> <Gold.PLP.Chemscore.Hbond>
1.9280

> <Gold.PLP.Chemscore.CHOScore>
1.0000

> <Gold.PLP.Chemscore.Metal>
0.0000

> <Gold.Chemscore.Hbonds>
donor molecule, donor type, donor heavy atom, donor atom, acceptor molecule, acceptor atom, score
      L1  H     7    26       P1  7948  0.90
      L1  H    10    27       P1  7948  0.99
      L1  C     4    25       P1 10186  1.00

> <Gold.PLP.Chemscore.Internal.Correction>
1.6803

> <Gold.Rescore>
     Score         DG    S(hbond)    S(metal)    S(lipo)     H(rot)  DE(clash)    DE(int)     intcor
     12.97     -15.62       1.80        0.00      67.57       1.47       0.13       2.52       ----

> <Gold.Chemscore.Fitness>
12.9681

> <Gold.Chemscore.DG>
-15.6201

> <Gold.Chemscore.ZeroCoef>
-5.4800

> <Gold.Chemscore.Hbond>
1.7989

> <Gold.Chemscore.Metal>
0.0000

> <Gold.Chemscore.Lipo>
67.5723

> <Gold.Chemscore.Internal_Hbond>
0.0000

> <Gold.Chemscore.DEClash>
0.1292

> <Gold.Chemscore.DEInternal>
2.5227

> <Gold.Chemscore.Rot>
1.4742

> <Gold.Chemscore.Internal.Correction>
   9.000000E+99

> <Gold.Chemscore.Hbonds>
donor molecule, donor type, donor heavy atom, donor atom, acceptor molecule, acceptor atom, score
      L1  H     7    26       P1  7948  0.80
      L1  H    10    27       P1  7948  0.88

> <Gold.Chemscore.Hbond.Weighted>
-6.0082

> <Gold.Chemscore.Metal.Weighted>
-0.0000

> <Gold.Chemscore.Lipo.Weighted>
-7.9060

> <Gold.Chemscore.Internal_Hbond.Weighted>
0.0000

> <Gold.Chemscore.DEClash.Weighted>
0.1292

> <Gold.Chemscore.DEInternal.Weighted>
2.5227

> <Gold.Chemscore.Rot.Weighted>
3.7740

> <Gold.Chemscore.Internal.Correction.Weighted>
   9.000000E+99

> <Gold.Protein.RotatedTorsions>
[ 6907 6896 6895 6894 ] final   51.19 input  -60.11 | X-H torsion
[ 7974 7965 7964 7962 ] final   47.76 input  175.53 | X-H torsion
[ 8008 7997 7996 7995 ] final  156.37 input   59.86 | X-H torsion
[ 10167 10162 10161 10158 ] final  150.88 input  -65.29 | X-H torsion
[ 10718 10713 10712 10709 ] final   94.76 input   66.30 | X-H torsion
[ 10763 10752 10751 10750 ] final -175.91 input  -60.55 | X-H torsion
[ 11005 11000 10999 10996 ] final   41.31 input  -57.11 | X-H torsion

> <Gold.Protein.ActiveResidues>
 VAL166  LYS551  ARG553  GLY616  TRP617  ASP618  TYR619  PRO620  LYS621  CYS622 
 ASP623  PHE694  ASN695  SER759  ASP760  ASP761  ALA762  ILE779  LEU786  VAL792 
 PHE793  MET794  SER795  GLU796  ALA797  LYS798  CYS799  TRP800  GLU811  SER814 

> <Gold.Protein.RotatedAtoms>
  152.3100  134.7509  160.0338 H   0  0  0  0  0  0  0  0  0  0  0  0  # atno 6907 bound_to 6896
  151.7993  133.3363  159.3530 H   0  0  0  0  0  0  0  0  0  0  0  0  # atno 6908 bound_to 6896
  150.7315  134.5699  159.5929 H   0  0  0  0  0  0  0  0  0  0  0  0  # atno 6909 bound_to 6896
  146.0268  139.4716  142.9863 H   0  0  0  0  0  0  0  0  0  0  0  0  # atno 7974 bound_to 7965
  156.2426  140.1914  156.6945 H   0  0  0  0  0  0  0  0  0  0  0  0  # atno 8008 bound_to 7997
  154.6227  140.0606  156.9662 H   0  0  0  0  0  0  0  0  0  0  0  0  # atno 8009 bound_to 7997
  155.1835  140.3278  155.4373 H   0  0  0  0  0  0  0  0  0  0  0  0  # atno 8010 bound_to 7997
  139.4846  144.5487  151.7439 H   0  0  0  0  0  0  0  0  0  0  0  0  # atno 10167 bound_to 10162
  157.6945  131.0523  150.4236 H   0  0  0  0  0  0  0  0  0  0  0  0  # atno 10718 bound_to 10713
  154.5788  135.2834  155.0754 H   0  0  0  0  0  0  0  0  0  0  0  0  # atno 10763 bound_to 10752
  154.2098  135.6410  153.5115 H   0  0  0  0  0  0  0  0  0  0  0  0  # atno 10764 bound_to 10752
  153.0081  135.5489  154.6435 H   0  0  0  0  0  0  0  0  0  0  0  0  # atno 10765 bound_to 10752
  140.1846  134.4061  155.8180 H   0  0  0  0  0  0  0  0  0  0  0  0  # atno 11005 bound_to 11000
  145.7105  141.0107  143.1456 LP  0  0  0  0  0  0  0  0  0  0  0  0  # atno 17320 bound_to 7965
  144.7013  139.8751  143.7443 LP  0  0  0  0  0  0  0  0  0  0  0  0  # atno 17321 bound_to 7965
  140.5037  144.1130  150.5977 LP  0  0  0  0  0  0  0  0  0  0  0  0  # atno 17342 bound_to 10162
  140.4032  143.2693  151.9922 LP  0  0  0  0  0  0  0  0  0  0  0  0  # atno 17343 bound_to 10162
  156.4609  130.4031  149.6577 LP  0  0  0  0  0  0  0  0  0  0  0  0  # atno 17370 bound_to 10713
  156.3692  130.7522  151.2503 LP  0  0  0  0  0  0  0  0  0  0  0  0  # atno 17371 bound_to 10713
  141.2224  133.7017  156.7990 LP  0  0  0  0  0  0  0  0  0  0  0  0  # atno 17394 bound_to 11000
  140.2228  134.8744  157.3395 LP  0  0  0  0  0  0  0  0  0  0  0  0  # atno 17395 bound_to 11000

$$$$
