AV-unprocessed.smi:213|AV-procd|sdf|1644|dock4
  -GOLD-   2262020 13D 1   1.00000     0.00000
 Structure written by MMmdl.
 58 61  0  0  0  0  0  0  0  0  1 V2000
  145.8407  136.0594  155.4260 C   0  0  0  0  0  0  0  0  0  0  0  0
  146.3616  136.3673  154.0076 C   0  0  1  0  0  0  0  0  0  0  0  0
  145.2899  136.1340  152.9152 C   0  0  0  0  0  0  0  0  0  0  0  0
  145.5608  135.0451  151.9748 N   0  0  0  0  0  0  0  0  0  0  0  0
  144.3399  134.6434  151.2842 C   0  0  0  0  0  0  0  0  0  0  0  0
  144.5926  133.5126  150.2731 C   0  0  0  0  0  0  0  0  0  0  0  0
  145.1785  132.4016  150.9428 O   0  0  0  0  0  0  0  0  0  0  0  0
  146.4028  132.7369  151.5870 C   0  0  0  0  0  0  0  0  0  0  0  0
  146.1678  133.8729  152.5985 C   0  0  0  0  0  0  0  0  0  0  0  0
  146.8694  137.7412  153.9551 N   0  0  0  0  0  0  0  0  0  0  0  0
  146.3632  138.6947  152.9700 C   0  0  0  0  0  0  0  0  0  0  0  0
  147.9408  138.1164  154.7033 C   0  0  0  0  0  0  0  0  0  0  0  0
  148.5800  137.1532  155.4189 N   0  0  0  0  0  0  0  0  0  0  0  0
  149.6464  137.4545  156.1646 C   0  0  0  0  0  0  0  0  0  0  0  0
  150.2312  138.6393  156.3428 N   0  0  0  0  0  0  0  0  0  0  0  0
  149.5882  139.6162  155.6429 C   0  0  0  0  0  0  0  0  0  0  0  0
  148.4470  139.4475  154.8060 C   0  0  0  0  0  0  0  0  0  0  0  0
  148.0731  140.6805  154.2813 N   0  0  0  0  0  0  0  0  0  0  0  0
  148.9428  141.5213  154.7675 C   0  0  0  0  0  0  0  0  0  0  0  0
  149.8855  140.9669  155.6013 N   0  0  0  0  0  0  0  0  0  0  0  0
  150.9575  141.6642  156.2881 C   0  0  0  0  0  0  0  0  0  0  0  0
  151.4356  140.9385  157.5641 C   0  0  1  0  0  0  0  0  0  0  0  0
  152.2852  139.8856  157.1544 O   0  0  0  0  0  0  0  0  0  0  0  0
  152.1933  141.8373  158.5669 C   0  0  2  0  0  0  0  0  0  0  0  0
  152.5740  141.1428  159.8768 C   0  0  0  0  0  0  0  0  0  0  0  0
  152.6983  142.2848  160.8732 C   0  0  0  0  0  0  0  0  0  0  0  0
  152.0059  143.4592  160.1785 C   0  0  0  0  0  0  0  0  0  0  0  0
  151.3680  142.8885  159.0463 O   0  0  0  0  0  0  0  0  0  0  0  0
  145.5368  135.0204  155.5369 H   0  0  0  0  0  0  0  0  0  0  0  0
  144.9783  136.6741  155.6843 H   0  0  0  0  0  0  0  0  0  0  0  0
  146.6145  136.2472  156.1712 H   0  0  0  0  0  0  0  0  0  0  0  0
  147.1963  135.6882  153.8363 H   0  0  0  0  0  0  0  0  0  0  0  0
  144.3100  135.9997  153.3759 H   0  0  0  0  0  0  0  0  0  0  0  0
  145.2069  137.0522  152.3313 H   0  0  0  0  0  0  0  0  0  0  0  0
  143.5955  134.3153  152.0112 H   0  0  0  0  0  0  0  0  0  0  0  0
  143.9103  135.4999  150.7634 H   0  0  0  0  0  0  0  0  0  0  0  0
  143.6556  133.1988  149.8130 H   0  0  0  0  0  0  0  0  0  0  0  0
  145.2479  133.8514  149.4692 H   0  0  0  0  0  0  0  0  0  0  0  0
  146.7939  131.8541  152.0928 H   0  0  0  0  0  0  0  0  0  0  0  0
  147.1429  133.0326  150.8417 H   0  0  0  0  0  0  0  0  0  0  0  0
  147.1299  134.1385  153.0334 H   0  0  0  0  0  0  0  0  0  0  0  0
  145.5352  133.5138  153.4113 H   0  0  0  0  0  0  0  0  0  0  0  0
  147.1802  139.2487  152.5058 H   0  0  0  0  0  0  0  0  0  0  0  0
  145.6879  139.4070  153.4443 H   0  0  0  0  0  0  0  0  0  0  0  0
  145.8176  138.1882  152.1738 H   0  0  0  0  0  0  0  0  0  0  0  0
  150.0951  136.6271  156.6944 H   0  0  0  0  0  0  0  0  0  0  0  0
  148.9115  142.5766  154.5386 H   0  0  0  0  0  0  0  0  0  0  0  0
  151.7859  141.7825  155.5881 H   0  0  0  0  0  0  0  0  0  0  0  0
  150.6111  142.6693  156.5338 H   0  0  0  0  0  0  0  0  0  0  0  0
  150.5792  140.4873  158.0663 H   0  0  0  0  0  0  0  0  0  0  0  0
  151.9544  139.0763  157.5127 H   0  0  0  0  0  0  0  0  0  0  0  0
  153.0830  142.2647  158.1002 H   0  0  0  0  0  0  0  0  0  0  0  0
  151.7734  140.4717  160.1915 H   0  0  0  0  0  0  0  0  0  0  0  0
  153.4887  140.5557  159.7916 H   0  0  0  0  0  0  0  0  0  0  0  0
  152.2155  142.0313  161.8176 H   0  0  0  0  0  0  0  0  0  0  0  0
  153.7417  142.5226  161.0816 H   0  0  0  0  0  0  0  0  0  0  0  0
  151.2844  143.9627  160.8223 H   0  0  0  0  0  0  0  0  0  0  0  0
  152.7384  144.1959  159.8449 H   0  0  0  0  0  0  0  0  0  0  0  0
  1  2  1  0  0  0  0
  1 29  1  0  0  0  0
  1 30  1  0  0  0  0
  1 31  1  0  0  0  0
  2  3  1  0  0  0  0
  2 10  1  0  0  0  0
  2 32  1  0  0  0  0
  3  4  1  0  0  0  0
  3 33  1  0  0  0  0
  3 34  1  0  0  0  0
  4  9  1  0  0  0  0
  4  5  1  0  0  0  0
  5  6  1  0  0  0  0
  5 35  1  0  0  0  0
  5 36  1  0  0  0  0
  6  7  1  0  0  0  0
  6 37  1  0  0  0  0
  6 38  1  0  0  0  0
  7  8  1  0  0  0  0
  8  9  1  0  0  0  0
  8 39  1  0  0  0  0
  8 40  1  0  0  0  0
  9 41  1  0  0  0  0
  9 42  1  0  0  0  0
 10 11  1  0  0  0  0
 10 12  1  0  0  0  0
 11 43  1  0  0  0  0
 11 44  1  0  0  0  0
 11 45  1  0  0  0  0
 12 17  1  0  0  0  0
 12 13  2  0  0  0  0
 13 14  1  0  0  0  0
 14 15  2  0  0  0  0
 14 46  1  0  0  0  0
 15 16  1  0  0  0  0
 16 20  1  0  0  0  0
 16 17  2  0  0  0  0
 17 18  1  0  0  0  0
 18 19  2  0  0  0  0
 19 20  1  0  0  0  0
 19 47  1  0  0  0  0
 20 21  1  0  0  0  0
 21 22  1  0  0  0  0
 21 48  1  0  0  0  0
 21 49  1  0  0  0  0
 22 23  1  0  0  0  0
 22 24  1  0  0  0  0
 22 50  1  0  0  0  0
 23 51  1  0  0  0  0
 24 28  1  0  0  0  0
 24 25  1  0  0  0  0
 24 52  1  0  0  0  0
 25 26  1  0  0  0  0
 25 53  1  0  0  0  0
 25 54  1  0  0  0  0
 26 27  1  0  0  0  0
 26 55  1  0  0  0  0
 26 56  1  0  0  0  0
 27 28  1  0  0  0  0
 27 57  1  0  0  0  0
 27 58  1  0  0  0  0
M  END
> <s_m_source_file>
AV-unprocessed.smi

> <i_m_source_file_index>
213

> <i_lp_mmshare_version>
43012

> <i_f3d_flags>
0

> <s_epik_input>
W0NIMl0xW0NIMl1PW0NIMl1bQ0gyXU4xW0NIMl1bQ0BASF0oW0NIM10pTihbQ0gzXSljKG5bY0hdbjIpYyhjMjMpbltjSF1uM1tDSDJdW0NASF0oW09IXSlbQ0BASF00W0NIMl1bQ0gyXVtDSDJdTzQ=

> <s_epik_cmdline>
J2VwaWtfcHl0aG9uJywgJy1waCcsICc3LjAnLCAnLXRuJywgJzgnLCAnLW1hJywgJzIwMCcsICctbWV0YWxfYmluZGluZycsICctaW1hZScsICc8aW5maWxlLm1hZT4nLCAnLW9tYWUnLCAnPG91dGZpbGUubWFlPic=

> <r_lp_tautomer_probability>
1

> <r_epik_Ionization_Penalty>
0.423322

> <r_epik_Ionization_Penalty_Charging>
0

> <r_epik_Ionization_Penalty_Neutral>
0.423322

> <r_epik_State_Penalty>
0.569486

> <r_epik_Charging_Adjusted_Penalty>
0.569486

> <i_epik_Tot_Q>
0

> <i_epik_Tot_abs_Q>
0

> <r_epik_Metal_State_Penalty>
0.568671

> <b_epik_Metal_Only>
0

> <s_lp_Force_Field>
OPLS_2005

> <r_lp_Energy>
52.699

> <b_lp_Chiralities_Consistent>
1

> <s_lp_Variant>
AV-unprocessed.smi:213-12

> <Gold.Version>
5.8.1

> <Gold.Id.Protein>
6NUR|6NUR_protein|mol2

> <Gold.PLP.Fitness>
41.8704

> <Gold.PLP.PLP>
-38.7402

> <Gold.PLP.part.hbond>
-1.0000

> <Gold.PLP.part.metal>
0.0000

> <Gold.PLP.part.buried>
-6.0397

> <Gold.PLP.part.nonpolar>
-31.9677

> <Gold.PLP.part.repulsive>
0.4799

> <Gold.PLP.ligand.clash>
0.0000

> <Gold.PLP.ligand.torsion>
1.5626

> <Gold.PLP.Chemscore.Hbond>
1.0000

> <Gold.PLP.Chemscore.CHOScore>
1.0000

> <Gold.PLP.Chemscore.Metal>
0.0000

> <Gold.Chemscore.Hbonds>
donor molecule, donor type, donor heavy atom, donor atom, acceptor molecule, acceptor atom, score
      P1  H  7997  8008       L1    23  0.63
      L1  C    19    47       P1  8028  1.00

> <Gold.PLP.Chemscore.Internal.Correction>
0.2553

> <Gold.Rescore>
     Score         DG    S(hbond)    S(metal)    S(lipo)     H(rot)  DE(clash)    DE(int)     intcor
      8.27     -12.58       0.96        0.00      93.16       2.74       0.13       4.18       ----

> <Gold.Chemscore.Fitness>
8.2680

> <Gold.Chemscore.DG>
-12.5771

> <Gold.Chemscore.ZeroCoef>
-5.4800

> <Gold.Chemscore.Hbond>
0.9600

> <Gold.Chemscore.Metal>
0.0000

> <Gold.Chemscore.Lipo>
93.1560

> <Gold.Chemscore.Internal_Hbond>
0.0000

> <Gold.Chemscore.DEClash>
0.1307

> <Gold.Chemscore.DEInternal>
4.1784

> <Gold.Chemscore.Rot>
2.7378

> <Gold.Chemscore.Internal.Correction>
   9.000000E+99

> <Gold.Chemscore.Hbonds>
donor molecule, donor type, donor heavy atom, donor atom, acceptor molecule, acceptor atom, score
      P1  H  7997  8008       L1    23  0.60

> <Gold.Chemscore.Hbond.Weighted>
-3.2066

> <Gold.Chemscore.Metal.Weighted>
-0.0000

> <Gold.Chemscore.Lipo.Weighted>
-10.8992

> <Gold.Chemscore.Internal_Hbond.Weighted>
0.0000

> <Gold.Chemscore.DEClash.Weighted>
0.1307

> <Gold.Chemscore.DEInternal.Weighted>
4.1784

> <Gold.Chemscore.Rot.Weighted>
7.0087

> <Gold.Chemscore.Internal.Correction.Weighted>
   9.000000E+99

> <Gold.Protein.RotatedTorsions>
[ 6907 6896 6895 6894 ] final   -0.81 input  -60.11 | X-H torsion
[ 7974 7965 7964 7962 ] final -174.63 input  175.53 | X-H torsion
[ 8008 7997 7996 7995 ] final  -68.92 input   59.86 | X-H torsion
[ 10167 10162 10161 10158 ] final  113.25 input  -65.29 | X-H torsion
[ 10718 10713 10712 10709 ] final  164.03 input   66.30 | X-H torsion
[ 10763 10752 10751 10750 ] final   44.96 input  -60.55 | X-H torsion
[ 11005 11000 10999 10996 ] final -170.40 input  -57.11 | X-H torsion

> <Gold.Protein.ActiveResidues>
 VAL166  LYS551  ARG553  GLY616  TRP617  ASP618  TYR619  PRO620  LYS621  CYS622 
 ASP623  PHE694  ASN695  SER759  ASP760  ASP761  ALA762  ILE779  LEU786  VAL792 
 PHE793  MET794  SER795  GLU796  ALA797  LYS798  CYS799  TRP800  GLU811  SER814 

> <Gold.Protein.RotatedAtoms>
  151.5562  135.1066  159.9961 H   0  0  0  0  0  0  0  0  0  0  0  0  # atno 6907 bound_to 6896
  152.4468  133.7548  159.6724 H   0  0  0  0  0  0  0  0  0  0  0  0  # atno 6908 bound_to 6896
  150.8386  133.7905  159.3094 H   0  0  0  0  0  0  0  0  0  0  0  0  # atno 6909 bound_to 6896
  144.7131  140.1442  143.6389 H   0  0  0  0  0  0  0  0  0  0  0  0  # atno 7974 bound_to 7965
  154.4901  140.0863  156.7576 H   0  0  0  0  0  0  0  0  0  0  0  0  # atno 8008 bound_to 7997
  155.4251  140.3447  155.4256 H   0  0  0  0  0  0  0  0  0  0  0  0  # atno 8009 bound_to 7997
  156.1318  140.1503  156.9042 H   0  0  0  0  0  0  0  0  0  0  0  0  # atno 8010 bound_to 7997
  139.6475  144.7127  151.2114 H   0  0  0  0  0  0  0  0  0  0  0  0  # atno 10167 bound_to 10162
  157.1002  131.0441  151.2501 H   0  0  0  0  0  0  0  0  0  0  0  0  # atno 10718 bound_to 10713
  152.9832  135.6054  154.3359 H   0  0  0  0  0  0  0  0  0  0  0  0  # atno 10763 bound_to 10752
  154.3059  135.2772  155.2591 H   0  0  0  0  0  0  0  0  0  0  0  0  # atno 10764 bound_to 10752
  154.4822  135.5914  153.6453 H   0  0  0  0  0  0  0  0  0  0  0  0  # atno 10765 bound_to 10752
  140.5199  134.5719  157.5045 H   0  0  0  0  0  0  0  0  0  0  0  0  # atno 11005 bound_to 11000
  145.9174  139.2524  143.1401 LP  0  0  0  0  0  0  0  0  0  0  0  0  # atno 17320 bound_to 7965
  145.9655  140.8802  143.0189 LP  0  0  0  0  0  0  0  0  0  0  0  0  # atno 17321 bound_to 7965
  140.7521  143.6206  150.8517 LP  0  0  0  0  0  0  0  0  0  0  0  0  # atno 17342 bound_to 10162
  139.9851  143.5908  152.2930 LP  0  0  0  0  0  0  0  0  0  0  0  0  # atno 17343 bound_to 10162
  157.4647  130.7674  149.7268 LP  0  0  0  0  0  0  0  0  0  0  0  0  # atno 17370 bound_to 10713
  155.9875  130.3966  150.3159 LP  0  0  0  0  0  0  0  0  0  0  0  0  # atno 17371 bound_to 10713
  139.9611  134.7450  156.0235 LP  0  0  0  0  0  0  0  0  0  0  0  0  # atno 17394 bound_to 11000
  141.1339  133.6579  156.3541 LP  0  0  0  0  0  0  0  0  0  0  0  0  # atno 17395 bound_to 11000

$$$$
