#       Name:                AV-unprocessed.smi:998
#       Creating user name   scv26
#       Creation time:       Fri Mar 27 02:24:57 2020


#       File generated by GOLD software.
#

@<TRIPOS>MOLECULE
AV-unprocessed.smi:998
    49    51     1
SMALL
NO_CHARGES


@<TRIPOS>ATOM
      1 ****        -6.6959   0.0874   2.8491 C.3            1 S1                 0.0000
      2 ****        -6.4992   0.7078   1.1277 S.o2           1 S1                 0.0000
      3 ****        -7.1950  -0.2009   0.2040 O.2            1 S1                 0.0000
      4 ****        -6.8232   2.1426   1.1306 O.2            1 S1                 0.0000
      5 ****        -4.7971   0.5501   0.8425 N.3            1 S1                 0.0000
      6 ****        -4.2434  -0.8163   0.7531 C.3            1 S1                 0.0000
      7 ****        -2.7080  -0.8013   0.8407 C.3            1 S1                 0.0000
      8 ****        -2.1434   0.0928  -0.1615 N.3            1 S1                 0.0000
      9 ****        -0.7457   0.0122  -0.2408 C.ar           1 S1                 0.0000
     10 ****        -0.1558  -0.5235  -1.4040 C.ar           1 S1                 0.0000
     11 ****         1.2480  -0.6083  -1.4780 C.ar           1 S1                 0.0000
     12 ****         2.0194  -0.1479  -0.3841 C.ar           1 S1                 0.0000
     13 ****         3.4383  -0.1992  -0.3229 N.am           1 S1                 0.0000
     14 ****         4.3203  -0.3075  -1.3315 C.2            1 S1                 0.0000
     15 ****         4.0326  -0.3446  -2.5276 O.2            1 S1                 0.0000
     16 ****         5.5770  -0.3518  -0.8686 N.am           1 S1                 0.0000
     17 ****         6.7531  -0.4545  -1.6709 C.3            1 S1                 0.0000
     18 ****         7.9119  -1.2568  -1.1193 C.3            1 S1                 0.0000
     19 ****         8.0030   0.2428  -1.1785 C.3            1 S1                 0.0000
     20 ****         1.3304   0.3579   0.7373 C.ar           1 S1                 0.0000
     21 ****        -0.0141   0.4431   0.8139 N.ar           1 S1                 0.0000
     22 ****        -2.6396   1.4540  -0.0048 C.3            1 S1                 0.0000
     23 ****        -4.1744   1.4920  -0.1095 C.3            1 S1                 0.0000
     24 ****        -7.7308   0.2212   3.1627 H              1 S1                 0.0000
     25 ****        -6.0424   0.6496   3.5157 H              1 S1                 0.0000
     26 ****        -6.4450  -0.9711   2.8971 H              1 S1                 0.0000
     27 ****        -4.6468  -1.4343   1.5537 H              1 S1                 0.0000
     28 ****        -4.5626  -1.2673  -0.1876 H              1 S1                 0.0000
     29 ****        -2.3981  -0.4802   1.8366 H              1 S1                 0.0000
     30 ****        -2.3192  -1.8099   0.6953 H              1 S1                 0.0000
     31 ****        -0.7665  -0.8688  -2.2255 H              1 S1                 0.0000
     32 ****         1.6974  -1.0361  -2.3604 H              1 S1                 0.0000
     33 ****         3.8331  -0.0962   0.6005 H              1 S1                 0.0000
     34 ****         5.7143  -0.3102   0.1306 H              1 S1                 0.0000
     35 ****         6.6204  -0.4888  -2.7514 H              1 S1                 0.0000
     36 ****         7.7946  -1.7140  -0.1386 H              1 S1                 0.0000
     37 ****         8.5113  -1.8245  -1.8283 H              1 S1                 0.0000
     38 ****         8.6631   0.6765  -1.9268 H              1 S1                 0.0000
     39 ****         7.9474   0.7856  -0.2368 H              1 S1                 0.0000
     40 ****         1.8744   0.7087   1.6022 H              1 S1                 0.0000
     41 ****        -2.3283   1.8516   0.9624 H              1 S1                 0.0000
     42 ****        -2.1999   2.0956  -0.7695 H              1 S1                 0.0000
     43 ****        -4.4948   1.2380  -1.1208 H              1 S1                 0.0000
     44 ****        -4.5210   2.5055   0.0903 H              1 S1                 0.0000
     45 ****        -4.4899   0.8750   1.7370 LP             1 S1                 0.0000
     46 ****        -2.4675  -0.2244  -1.0527 LP             1 S1                 0.0000
     47 ****         3.0758  -0.2927  -2.8135 LP             1 S1                 0.0000
     48 ****         4.7557  -0.4267  -3.2134 LP             1 S1                 0.0000
     49 ****        -0.4588   0.8149   1.6288 LP             1 S1                 0.0000
@<TRIPOS>BOND
    1    1    2 1     
    2    1   24 1     
    3    1   25 1     
    4    1   26 1     
    5    2    3 2     
    6    2    4 2     
    7    2    5 1     
    8    5   23 1     
    9    5    6 1     
   10    6    7 1     
   11    6   27 1     
   12    6   28 1     
   13    7    8 1     
   14    7   29 1     
   15    7   30 1     
   16    8    9 1     
   17    8   22 1     
   18    9   21 ar    
   19    9   10 ar    
   20   10   11 ar    
   21   10   31 1     
   22   11   12 ar    
   23   11   32 1     
   24   12   13 1     
   25   12   20 ar    
   26   13   14 am    
   27   13   33 1     
   28   14   15 2     
   29   14   16 am    
   30   16   17 1     
   31   16   34 1     
   32   17   19 1     
   33   17   18 1     
   34   17   35 1     
   35   18   19 1     
   36   18   36 1     
   37   18   37 1     
   38   19   38 1     
   39   19   39 1     
   40   20   21 ar    
   41   20   40 1     
   42   22   23 1     
   43   22   41 1     
   44   22   42 1     
   45   23   43 1     
   46   23   44 1     
   47    5   45 1     
   48    8   46 1     
   49   15   47 1     
   50   15   48 1     
   51   21   49 1     
@<TRIPOS>SUBSTRUCTURE
      1 S1             1
@<TRIPOS>SET
LONE_PAIRS      STATIC     ATOMS    <user>   **** ""
7 3 4 45 46 47 48 49
DONOR_HYDROGENS      STATIC     ATOMS    <user>   **** ""
2 33 34
ATOM$BLUE        STATIC     ATOMS    COLORGROUP SYSTEM
7 3 4 45 46 47 48 49
ATOM$RED        STATIC     ATOMS    COLORGROUP SYSTEM
2 33 34
