AV-unprocessed.smi:1746|AV-procd|sdf|7034|dock2
  -GOLD-   22720 8253D 1   1.00000     0.00000
 Structure written by MMmdl.
 35 36  0  0  0  0  0  0  0  0  1 V2000
  153.3730  142.5057  162.1872 C   0  0  0  0  0  0  0  0  0  0  0  0
  152.7529  143.9074  162.1407 C   0  0  0  0  0  0  0  0  0  0  0  0
  152.0636  144.1486  160.8883 N   0  0  0  0  0  0  0  0  0  0  0  0
  151.7463  143.2375  159.9005 C   0  0  0  0  0  0  0  0  0  0  0  0
  151.1005  143.9527  158.9320 C   0  0  0  0  0  0  0  0  0  0  0  0
  150.5587  143.5107  157.6985 N   0  0  0  0  0  0  0  0  0  0  0  0
  150.7058  142.3023  157.1311 C   0  0  0  0  0  0  0  0  0  0  0  0
  151.3469  141.3676  157.6120 O   0  0  0  0  0  0  0  0  0  0  0  0
  150.0616  142.2320  155.9581 N   0  0  0  0  0  0  0  0  0  0  0  0
  150.0358  141.0610  155.0889 C   0  0  0  0  0  0  0  0  0  0  0  0
  148.6266  140.7994  154.5314 C   0  0  1  0  0  0  0  0  0  0  0  0
  147.5843  140.5071  155.6076 C   0  0  0  0  0  0  0  0  0  0  0  0
  146.3034  140.8651  154.8892 C   0  0  0  0  0  0  0  0  0  0  0  0
  146.7264  142.0861  154.0758 C   0  0  0  0  0  0  0  0  0  0  0  0
  148.1294  141.9523  153.8569 O   0  0  0  0  0  0  0  0  0  0  0  0
  151.0632  145.2920  159.3997 C   0  0  0  0  0  0  0  0  0  0  0  0
  151.6474  145.4026  160.5832 N   0  0  0  0  0  0  0  0  0  0  0  0
  153.9003  142.3458  163.1276 H   0  0  0  0  0  0  0  0  0  0  0  0
  154.0883  142.3650  161.3762 H   0  0  0  0  0  0  0  0  0  0  0  0
  152.6093  141.7323  162.0988 H   0  0  0  0  0  0  0  0  0  0  0  0
  152.0475  144.0400  162.9622 H   0  0  0  0  0  0  0  0  0  0  0  0
  153.5281  144.6646  162.2633 H   0  0  0  0  0  0  0  0  0  0  0  0
  152.0038  142.1918  159.9813 H   0  0  0  0  0  0  0  0  0  0  0  0
  150.0027  144.1861  157.1946 H   0  0  0  0  0  0  0  0  0  0  0  0
  149.5629  143.0484  155.6362 H   0  0  0  0  0  0  0  0  0  0  0  0
  150.7468  141.1937  154.2719 H   0  0  0  0  0  0  0  0  0  0  0  0
  150.3793  140.1986  155.6608 H   0  0  0  0  0  0  0  0  0  0  0  0
  148.6400  139.9709  153.8211 H   0  0  0  0  0  0  0  0  0  0  0  0
  147.6073  139.4725  155.9515 H   0  0  0  0  0  0  0  0  0  0  0  0
  147.7244  141.1601  156.4701 H   0  0  0  0  0  0  0  0  0  0  0  0
  146.0108  140.0524  154.2228 H   0  0  0  0  0  0  0  0  0  0  0  0
  145.4725  141.0687  155.5652 H   0  0  0  0  0  0  0  0  0  0  0  0
  146.1832  142.1609  153.1334 H   0  0  0  0  0  0  0  0  0  0  0  0
  146.5513  143.0022  154.6408 H   0  0  0  0  0  0  0  0  0  0  0  0
  150.6409  146.1688  158.9313 H   0  0  0  0  0  0  0  0  0  0  0  0
  1  2  1  0  0  0  0
  1 18  1  0  0  0  0
  1 19  1  0  0  0  0
  1 20  1  0  0  0  0
  2  3  1  0  0  0  0
  2 21  1  0  0  0  0
  2 22  1  0  0  0  0
  3 17  1  0  0  0  0
  3  4  1  0  0  0  0
  4  5  2  0  0  0  0
  4 23  1  0  0  0  0
  5  6  1  0  0  0  0
  5 16  1  0  0  0  0
  6  7  1  0  0  0  0
  6 24  1  0  0  0  0
  7  8  2  0  0  0  0
  7  9  1  0  0  0  0
  9 10  1  0  0  0  0
  9 25  1  0  0  0  0
 10 11  1  0  0  0  0
 10 26  1  0  0  0  0
 10 27  1  0  0  0  0
 11 15  1  0  0  0  0
 11 12  1  0  0  0  0
 11 28  1  0  0  0  0
 12 13  1  0  0  0  0
 12 29  1  0  0  0  0
 12 30  1  0  0  0  0
 13 14  1  0  0  0  0
 13 31  1  0  0  0  0
 13 32  1  0  0  0  0
 14 15  1  0  0  0  0
 14 33  1  0  0  0  0
 14 34  1  0  0  0  0
 16 17  2  0  0  0  0
 16 35  1  0  0  0  0
M  END
> <s_m_source_file>
AV-unprocessed.smi

> <i_m_source_file_index>
1746

> <i_lp_mmshare_version>
43012

> <i_f3d_flags>
0

> <s_epik_input>
W0NIM11bQ0gyXW4xW2NIXWMoW2NIXW4xKVtOSF1DKD1PKVtOSF1bQ0gyXVtDQEBIXTJbQ0gyXVtDSDJdW0NIMl1PMg==

> <s_epik_cmdline>
J2VwaWtfcHl0aG9uJywgJy1waCcsICc3LjAnLCAnLXRuJywgJzgnLCAnLW1hJywgJzIwMCcsICctbWV0YWxfYmluZGluZycsICctaW1hZScsICc8aW5maWxlLm1hZT4nLCAnLW9tYWUnLCAnPG91dGZpbGUubWFlPic=

> <r_lp_tautomer_probability>
1

> <r_epik_Ionization_Penalty>
0.000176839

> <r_epik_Ionization_Penalty_Charging>
0

> <r_epik_Ionization_Penalty_Neutral>
0.000176839

> <r_epik_State_Penalty>
-0

> <r_epik_Charging_Adjusted_Penalty>
0

> <i_epik_Tot_Q>
0

> <i_epik_Tot_abs_Q>
0

> <r_epik_Metal_State_Penalty>
-0

> <b_epik_Metal_Only>
0

> <s_lp_Force_Field>
OPLS_2005

> <r_lp_Energy>
20.4125

> <b_lp_Chiralities_Consistent>
1

> <s_lp_Variant>
AV-unprocessed.smi:1746-2

> <Gold.Version>
5.8.1

> <Gold.Id.Protein>
6NUR|6NUR_protein|mol2

> <Gold.PLP.Fitness>
44.9182

> <Gold.PLP.PLP>
-38.1351

> <Gold.PLP.part.hbond>
-3.0000

> <Gold.PLP.part.metal>
0.0000

> <Gold.PLP.part.buried>
-4.9274

> <Gold.PLP.part.nonpolar>
-29.8351

> <Gold.PLP.part.repulsive>
0.5199

> <Gold.PLP.ligand.clash>
0.0000

> <Gold.PLP.ligand.torsion>
0.2439

> <Gold.PLP.Chemscore.Hbond>
2.4150

> <Gold.PLP.Chemscore.CHOScore>
0.0000

> <Gold.PLP.Chemscore.Metal>
0.0000

> <Gold.Chemscore.Hbonds>
donor molecule, donor type, donor heavy atom, donor atom, acceptor molecule, acceptor atom, score
      L1  H     6    24       P1  8028  1.00
      L1  H     9    25       P1  8028  1.00
      P1  H  8011  8017       L1    15  0.14

> <Gold.PLP.Chemscore.Internal.Correction>
0.0259

> <Gold.Rescore>
     Score         DG    S(hbond)    S(metal)    S(lipo)     H(rot)  DE(clash)    DE(int)     intcor
     18.12     -19.61       2.31        0.00      85.67       1.41       0.22       1.27       ----

> <Gold.Chemscore.Fitness>
18.1219

> <Gold.Chemscore.DG>
-19.6066

> <Gold.Chemscore.ZeroCoef>
-5.4800

> <Gold.Chemscore.Hbond>
2.3064

> <Gold.Chemscore.Metal>
0.0000

> <Gold.Chemscore.Lipo>
85.6731

> <Gold.Chemscore.Internal_Hbond>
0.0000

> <Gold.Chemscore.DEClash>
0.2169

> <Gold.Chemscore.DEInternal>
1.2679

> <Gold.Chemscore.Rot>
1.4064

> <Gold.Chemscore.Internal.Correction>
   9.000000E+99

> <Gold.Chemscore.Hbonds>
donor molecule, donor type, donor heavy atom, donor atom, acceptor molecule, acceptor atom, score
      L1  H     6    24       P1  8028  0.67
      L1  H     9    25       P1  8028  0.99
      P1  H  8011  8017       L1    15  0.07

> <Gold.Chemscore.Hbond.Weighted>
-7.7033

> <Gold.Chemscore.Metal.Weighted>
-0.0000

> <Gold.Chemscore.Lipo.Weighted>
-10.0238

> <Gold.Chemscore.Internal_Hbond.Weighted>
0.0000

> <Gold.Chemscore.DEClash.Weighted>
0.2169

> <Gold.Chemscore.DEInternal.Weighted>
1.2679

> <Gold.Chemscore.Rot.Weighted>
3.6004

> <Gold.Chemscore.Internal.Correction.Weighted>
   9.000000E+99

> <Gold.Protein.RotatedTorsions>
[ 6907 6896 6895 6894 ] final -109.05 input  -60.11 | X-H torsion
[ 7974 7965 7964 7962 ] final   87.85 input  175.53 | X-H torsion
[ 8008 7997 7996 7995 ] final -142.75 input   59.86 | X-H torsion
[ 10167 10162 10161 10158 ] final  172.00 input  -65.29 | X-H torsion
[ 10718 10713 10712 10709 ] final   45.79 input   66.30 | X-H torsion
[ 10763 10752 10751 10750 ] final   92.75 input  -60.55 | X-H torsion
[ 11005 11000 10999 10996 ] final   42.47 input  -57.11 | X-H torsion

> <Gold.Protein.ActiveResidues>
 VAL166  LYS551  ARG553  GLY616  TRP617  ASP618  TYR619  PRO620  LYS621  CYS622 
 ASP623  PHE694  ASN695  SER759  ASP760  ASP761  ALA762  ILE779  LEU786  VAL792 
 PHE793  MET794  SER795  GLU796  ALA797  LYS798  CYS799  TRP800  GLU811  SER814 

> <Gold.Protein.RotatedAtoms>
  150.7538  133.9587  159.3508 H   0  0  0  0  0  0  0  0  0  0  0  0  # atno 6907 bound_to 6896
  151.7511  135.0830  160.0340 H   0  0  0  0  0  0  0  0  0  0  0  0  # atno 6908 bound_to 6896
  152.3466  133.6092  159.5950 H   0  0  0  0  0  0  0  0  0  0  0  0  # atno 6909 bound_to 6896
  145.5535  139.2297  143.2499 H   0  0  0  0  0  0  0  0  0  0  0  0  # atno 7974 bound_to 7965
  155.4993  140.0574  157.2941 H   0  0  0  0  0  0  0  0  0  0  0  0  # atno 8008 bound_to 7997
  154.4593  140.1988  156.0240 H   0  0  0  0  0  0  0  0  0  0  0  0  # atno 8009 bound_to 7997
  156.0860  140.3240  155.7758 H   0  0  0  0  0  0  0  0  0  0  0  0  # atno 8010 bound_to 7997
  139.5063  144.3423  152.0006 H   0  0  0  0  0  0  0  0  0  0  0  0  # atno 10167 bound_to 10162
  157.4413  130.8083  149.7697 H   0  0  0  0  0  0  0  0  0  0  0  0  # atno 10718 bound_to 10713
  153.2227  135.4350  155.0507 H   0  0  0  0  0  0  0  0  0  0  0  0  # atno 10763 bound_to 10752
  154.8258  135.3360  154.6904 H   0  0  0  0  0  0  0  0  0  0  0  0  # atno 10764 bound_to 10752
  153.7335  135.7009  153.5040 H   0  0  0  0  0  0  0  0  0  0  0  0  # atno 10765 bound_to 10752
  140.1736  134.4191  155.8242 H   0  0  0  0  0  0  0  0  0  0  0  0  # atno 11005 bound_to 11000
  146.1900  140.6359  142.9150 LP  0  0  0  0  0  0  0  0  0  0  0  0  # atno 17320 bound_to 7965
  144.7517  140.5208  143.6797 LP  0  0  0  0  0  0  0  0  0  0  0  0  # atno 17321 bound_to 7965
  140.2861  144.3806  150.6103 LP  0  0  0  0  0  0  0  0  0  0  0  0  # atno 17342 bound_to 10162
  140.5982  143.2167  151.7124 LP  0  0  0  0  0  0  0  0  0  0  0  0  # atno 17343 bound_to 10162
  155.9950  130.3914  150.2837 LP  0  0  0  0  0  0  0  0  0  0  0  0  # atno 17370 bound_to 10713
  157.1002  131.0193  151.3088 LP  0  0  0  0  0  0  0  0  0  0  0  0  # atno 17371 bound_to 10713
  141.2219  133.6967  156.7807 LP  0  0  0  0  0  0  0  0  0  0  0  0  # atno 17394 bound_to 11000
  140.2348  134.8658  157.3514 LP  0  0  0  0  0  0  0  0  0  0  0  0  # atno 17395 bound_to 11000

$$$$
