AV-unprocessed.smi:938|AV-procd|sdf|4217|dock6
  -GOLD-   22720 2123D 1   1.00000     0.00000
 Structure written by MMmdl.
 42 43  0  0  0  0  0  0  0  0  1 V2000
  147.3071  132.2799  161.7154 C   0  0  0  0  0  0  0  0  0  0  0  0
  147.3672  133.7174  162.2479 C   0  0  0  0  0  0  0  0  0  0  0  0
  146.0002  134.1992  162.7528 C   0  0  0  0  0  0  0  0  0  0  0  0
  147.8428  134.6077  161.1927 N   0  0  0  0  0  0  0  0  0  0  0  0
  148.1926  135.8979  161.3391 C   0  0  0  0  0  0  0  0  0  0  0  0
  148.1395  136.4978  162.4136 O   0  0  0  0  0  0  0  0  0  0  0  0
  148.6313  136.6039  160.0833 C   0  0  0  0  0  0  0  0  0  0  0  0
  147.9485  136.3777  158.8678 C   0  0  0  0  0  0  0  0  0  0  0  0
  148.3919  137.0673  157.7267 C   0  0  0  0  0  0  0  0  0  0  0  0
  149.4875  137.9384  157.8751 C   0  0  0  0  0  0  0  0  0  0  0  0
  149.9617  138.6404  156.7585 N   0  0  0  0  0  0  0  0  0  0  0  0
  151.2087  138.1100  156.2270 C   0  0  0  0  0  0  0  0  0  0  0  0
  151.5627  138.8266  154.9157 C   0  0  0  0  0  0  0  0  0  0  0  0
  151.6027  140.2381  155.1254 O   0  0  0  0  0  0  0  0  0  0  0  0
  150.4015  140.8143  155.6528 C   0  0  0  0  0  0  0  0  0  0  0  0
  150.7476  142.2795  155.9598 C   0  0  0  0  0  0  0  0  0  0  0  0
  149.2635  140.7695  154.6104 C   0  0  0  0  0  0  0  0  0  0  0  0
  150.0187  140.0829  156.9613 C   0  0  0  0  0  0  0  0  0  0  0  0
  150.1031  138.1204  159.0693 N   0  0  0  0  0  0  0  0  0  0  0  0
  149.6789  137.4650  160.1549 N   0  0  0  0  0  0  0  0  0  0  0  0
  146.9758  131.5883  162.4906 H   0  0  0  0  0  0  0  0  0  0  0  0
  148.2883  131.9469  161.3755 H   0  0  0  0  0  0  0  0  0  0  0  0
  146.6165  132.1950  160.8756 H   0  0  0  0  0  0  0  0  0  0  0  0
  148.0586  133.7286  163.0919 H   0  0  0  0  0  0  0  0  0  0  0  0
  145.6315  133.5602  163.5558 H   0  0  0  0  0  0  0  0  0  0  0  0
  145.2567  134.1934  161.9549 H   0  0  0  0  0  0  0  0  0  0  0  0
  146.0618  135.2156  163.1436 H   0  0  0  0  0  0  0  0  0  0  0  0
  147.9148  134.2124  160.2659 H   0  0  0  0  0  0  0  0  0  0  0  0
  147.1117  135.6976  158.8032 H   0  0  0  0  0  0  0  0  0  0  0  0
  147.9076  136.9304  156.7709 H   0  0  0  0  0  0  0  0  0  0  0  0
  152.0099  138.2519  156.9540 H   0  0  0  0  0  0  0  0  0  0  0  0
  151.1140  137.0371  156.0552 H   0  0  0  0  0  0  0  0  0  0  0  0
  152.5412  138.4981  154.5657 H   0  0  0  0  0  0  0  0  0  0  0  0
  150.8529  138.5733  154.1282 H   0  0  0  0  0  0  0  0  0  0  0  0
  149.8931  142.8090  156.3825 H   0  0  0  0  0  0  0  0  0  0  0  0
  151.0537  142.8105  155.0577 H   0  0  0  0  0  0  0  0  0  0  0  0
  151.5675  142.3511  156.6753 H   0  0  0  0  0  0  0  0  0  0  0  0
  148.3863  141.3096  154.9678 H   0  0  0  0  0  0  0  0  0  0  0  0
  148.9402  139.7527  154.3898 H   0  0  0  0  0  0  0  0  0  0  0  0
  149.5725  141.2285  153.6709 H   0  0  0  0  0  0  0  0  0  0  0  0
  149.0582  140.4454  157.3307 H   0  0  0  0  0  0  0  0  0  0  0  0
  150.7572  140.3006  157.7349 H   0  0  0  0  0  0  0  0  0  0  0  0
  1  2  1  0  0  0  0
  1 21  1  0  0  0  0
  1 22  1  0  0  0  0
  1 23  1  0  0  0  0
  2  3  1  0  0  0  0
  2  4  1  0  0  0  0
  2 24  1  0  0  0  0
  3 25  1  0  0  0  0
  3 26  1  0  0  0  0
  3 27  1  0  0  0  0
  4  5  1  0  0  0  0
  4 28  1  0  0  0  0
  5  6  2  0  0  0  0
  5  7  1  0  0  0  0
  7 20  1  0  0  0  0
  7  8  2  0  0  0  0
  8  9  1  0  0  0  0
  8 29  1  0  0  0  0
  9 10  2  0  0  0  0
  9 30  1  0  0  0  0
 10 11  1  0  0  0  0
 10 19  1  0  0  0  0
 11 18  1  0  0  0  0
 11 12  1  0  0  0  0
 12 13  1  0  0  0  0
 12 31  1  0  0  0  0
 12 32  1  0  0  0  0
 13 14  1  0  0  0  0
 13 33  1  0  0  0  0
 13 34  1  0  0  0  0
 14 15  1  0  0  0  0
 15 16  1  0  0  0  0
 15 17  1  0  0  0  0
 15 18  1  0  0  0  0
 16 35  1  0  0  0  0
 16 36  1  0  0  0  0
 16 37  1  0  0  0  0
 17 38  1  0  0  0  0
 17 39  1  0  0  0  0
 17 40  1  0  0  0  0
 18 41  1  0  0  0  0
 18 42  1  0  0  0  0
 19 20  2  0  0  0  0
M  END
> <s_m_source_file>
AV-unprocessed.smi

> <i_m_source_file_index>
938

> <i_lp_mmshare_version>
43012

> <i_f3d_flags>
0

> <s_epik_input>
W0NIM11bQ0hdKFtDSDNdKVtOSF1DKD1PKWMxW2NIXVtjSF1jKG5uMSlOKFtDSDJdMilbQ0gyXVtDSDJdT0MyKFtDSDNdKVtDSDNd

> <s_epik_cmdline>
J2VwaWtfcHl0aG9uJywgJy1waCcsICc3LjAnLCAnLXRuJywgJzgnLCAnLW1hJywgJzIwMCcsICctbWV0YWxfYmluZGluZycsICctaW1hZScsICc8aW5maWxlLm1hZT4nLCAnLW9tYWUnLCAnPG91dGZpbGUubWFlPic=

> <r_lp_tautomer_probability>
1

> <r_epik_Ionization_Penalty>
1.44833e-06

> <r_epik_Ionization_Penalty_Charging>
0

> <r_epik_Ionization_Penalty_Neutral>
1.44833e-06

> <r_epik_State_Penalty>
-0

> <r_epik_Charging_Adjusted_Penalty>
0

> <i_epik_Tot_Q>
0

> <i_epik_Tot_abs_Q>
0

> <r_epik_Metal_State_Penalty>
-0

> <b_epik_Metal_Only>
0

> <s_lp_Force_Field>
OPLS_2005

> <r_lp_Energy>
32.4644

> <b_lp_Chiralities_Consistent>
1

> <s_lp_Variant>
AV-unprocessed.smi:938-1

> <Gold.Version>
5.8.1

> <Gold.Id.Protein>
6NUR|6NUR_protein|mol2

> <Gold.PLP.Fitness>
35.4150

> <Gold.PLP.PLP>
-31.2824

> <Gold.PLP.part.hbond>
-3.5029

> <Gold.PLP.part.metal>
0.0000

> <Gold.PLP.part.buried>
-5.1214

> <Gold.PLP.part.nonpolar>
-22.4035

> <Gold.PLP.part.repulsive>
0.0777

> <Gold.PLP.ligand.clash>
0.0000

> <Gold.PLP.ligand.torsion>
0.9236

> <Gold.PLP.Chemscore.Hbond>
1.9600

> <Gold.PLP.Chemscore.CHOScore>
0.0000

> <Gold.PLP.Chemscore.Metal>
0.0000

> <Gold.Chemscore.Hbonds>
donor molecule, donor type, donor heavy atom, donor atom, acceptor molecule, acceptor atom, score
      P1  H  6931  6943       L1     6  1.00
      P1  H  7989  7998       L1    14  0.94

> <Gold.PLP.Chemscore.Internal.Correction>
0.0997

> <Gold.Rescore>
     Score         DG    S(hbond)    S(metal)    S(lipo)     H(rot)  DE(clash)    DE(int)     intcor
     12.46     -14.40       1.02        0.00      72.72       1.17       1.24       0.70       ----

> <Gold.Chemscore.Fitness>
12.4614

> <Gold.Chemscore.DG>
-14.3952

> <Gold.Chemscore.ZeroCoef>
-5.4800

> <Gold.Chemscore.Hbond>
1.0222

> <Gold.Chemscore.Metal>
0.0000

> <Gold.Chemscore.Lipo>
72.7248

> <Gold.Chemscore.Internal_Hbond>
0.0000

> <Gold.Chemscore.DEClash>
1.2364

> <Gold.Chemscore.DEInternal>
0.6974

> <Gold.Chemscore.Rot>
1.1749

> <Gold.Chemscore.Internal.Correction>
   9.000000E+99

> <Gold.Chemscore.Hbonds>
donor molecule, donor type, donor heavy atom, donor atom, acceptor molecule, acceptor atom, score
      P1  H  6931  6943       L1     6  0.28
      P1  H  7989  7998       L1    14  0.15

> <Gold.Chemscore.Hbond.Weighted>
-3.4141

> <Gold.Chemscore.Metal.Weighted>
-0.0000

> <Gold.Chemscore.Lipo.Weighted>
-8.5088

> <Gold.Chemscore.Internal_Hbond.Weighted>
0.0000

> <Gold.Chemscore.DEClash.Weighted>
1.2364

> <Gold.Chemscore.DEInternal.Weighted>
0.6974

> <Gold.Chemscore.Rot.Weighted>
3.0076

> <Gold.Chemscore.Internal.Correction.Weighted>
   9.000000E+99

> <Gold.Protein.RotatedTorsions>
[ 6907 6896 6895 6894 ] final  -50.12 input  -60.11 | X-H torsion
[ 7974 7965 7964 7962 ] final   21.09 input  175.53 | X-H torsion
[ 8008 7997 7996 7995 ] final  -70.33 input   59.86 | X-H torsion
[ 10167 10162 10161 10158 ] final   63.40 input  -65.29 | X-H torsion
[ 10718 10713 10712 10709 ] final  -31.64 input   66.30 | X-H torsion
[ 10763 10752 10751 10750 ] final   71.75 input  -60.55 | X-H torsion
[ 11005 11000 10999 10996 ] final -134.39 input  -57.11 | X-H torsion

> <Gold.Protein.ActiveResidues>
 VAL166  LYS551  ARG553  GLY616  TRP617  ASP618  TYR619  PRO620  LYS621  CYS622 
 ASP623  PHE694  ASN695  SER759  ASP760  ASP761  ALA762  ILE779  LEU786  VAL792 
 PHE793  MET794  SER795  GLU796  ALA797  LYS798  CYS799  TRP800  GLU811  SER814 

> <Gold.Protein.RotatedAtoms>
  150.8738  134.8117  159.7174 H   0  0  0  0  0  0  0  0  0  0  0  0  # atno 6907 bound_to 6896
  152.4733  134.4904  159.9703 H   0  0  0  0  0  0  0  0  0  0  0  0  # atno 6908 bound_to 6896
  151.4988  133.3470  159.2901 H   0  0  0  0  0  0  0  0  0  0  0  0  # atno 6909 bound_to 6896
  146.2085  139.8076  142.8707 H   0  0  0  0  0  0  0  0  0  0  0  0  # atno 7974 bound_to 7965
  154.5004  140.0836  156.7785 H   0  0  0  0  0  0  0  0  0  0  0  0  # atno 8008 bound_to 7997
  155.4017  140.3437  155.4239 H   0  0  0  0  0  0  0  0  0  0  0  0  # atno 8009 bound_to 7997
  156.1449  140.1540  156.8850 H   0  0  0  0  0  0  0  0  0  0  0  0  # atno 8010 bound_to 7997
  140.1335  144.4621  150.6851 H   0  0  0  0  0  0  0  0  0  0  0  0  # atno 10167 bound_to 10162
  156.3848  130.4362  149.7440 H   0  0  0  0  0  0  0  0  0  0  0  0  # atno 10718 bound_to 10713
  153.0417  135.5125  154.7640 H   0  0  0  0  0  0  0  0  0  0  0  0  # atno 10763 bound_to 10752
  154.6572  135.2933  154.9915 H   0  0  0  0  0  0  0  0  0  0  0  0  # atno 10764 bound_to 10752
  154.0778  135.6668  153.4886 H   0  0  0  0  0  0  0  0  0  0  0  0  # atno 10765 bound_to 10752
  140.8994  134.1709  157.4471 H   0  0  0  0  0  0  0  0  0  0  0  0  # atno 11005 bound_to 11000
  145.3230  141.0248  143.3489 LP  0  0  0  0  0  0  0  0  0  0  0  0  # atno 17320 bound_to 7965
  144.8853  139.4848  143.6703 LP  0  0  0  0  0  0  0  0  0  0  0  0  # atno 17321 bound_to 7965
  140.6803  143.2323  151.5401 LP  0  0  0  0  0  0  0  0  0  0  0  0  # atno 17342 bound_to 10162
  139.5508  144.2402  152.1526 LP  0  0  0  0  0  0  0  0  0  0  0  0  # atno 17343 bound_to 10162
  156.4517  130.7910  151.2931 LP  0  0  0  0  0  0  0  0  0  0  0  0  # atno 17370 bound_to 10713
  157.7495  131.0093  150.3263 LP  0  0  0  0  0  0  0  0  0  0  0  0  # atno 17371 bound_to 10713
  139.8740  134.9892  156.5446 LP  0  0  0  0  0  0  0  0  0  0  0  0  # atno 17394 bound_to 11000
  140.8248  133.8325  155.8929 LP  0  0  0  0  0  0  0  0  0  0  0  0  # atno 17395 bound_to 11000

$$$$
