#       Name:                AV-unprocessed.smi:2860
#       Creating user name   scv26
#       Creation time:       Fri Mar 27 15:46:29 2020


#       File generated by GOLD software.
#

@<TRIPOS>MOLECULE
AV-unprocessed.smi:2860
    50    51     1
SMALL
NO_CHARGES


@<TRIPOS>ATOM
      1 ****        -4.4841   0.2384  -3.4218 C.3            1 S1                 0.0000
      2 ****        -5.6137   0.3984  -2.3956 C.3            1 S1                 0.0000
      3 ****        -5.1798   0.0022  -1.0616 N.am           1 S1                 0.0000
      4 ****        -4.4797   0.7757  -0.2169 C.2            1 S1                 0.0000
      5 ****        -4.1506   1.9340  -0.4712 O.2            1 S1                 0.0000
      6 ****        -4.0812   0.1422   1.1166 C.3            1 S1                 0.0000
      7 ****        -2.8619  -0.6339   0.9782 N.pl3          1 S1                 0.0000
      8 ****        -2.7216  -1.9455   0.5678 C.2            1 S1                 0.0000
      9 ****        -1.3878  -2.2398   0.5782 C.2            1 S1                 0.0000
     10 ****        -0.7892  -1.0274   1.0182 C.2            1 S1                 0.0000
     11 ****         0.6182  -0.9252   1.1550 N.am           1 S1                 0.0000
     12 ****         1.3312   0.1411   1.5609 C.2            1 S1                 0.0000
     13 ****         0.8391   1.1854   1.9881 O.2            1 S1                 0.0000
     14 ****         2.8077  -0.0921   1.5449 C.3            1 S1                 0.0000
     15 ****         3.7452   0.9952   1.0211 C.3            1 S1                 0.0000
     16 ****         3.2537   2.3324   0.4662 C.3            1 S1                 0.0000
     17 ****         5.0423   1.2454   1.7792 C.3            1 S1                 0.0000
     18 ****         3.5427  -0.2929   0.2223 C.3            1 S1                 0.0000
     19 ****         4.6336  -1.3538   0.1655 C.3            1 S1                 0.0000
     20 ****         2.8299  -0.2667  -1.1303 C.3            1 S1                 0.0000
     21 ****        -1.6688  -0.0650   1.2581 N.2            1 S1                 0.0000
     22 ****        -4.8267   0.5096  -4.4203 H              1 S1                 0.0000
     23 ****        -4.1298  -0.7921  -3.4600 H              1 S1                 0.0000
     24 ****        -3.6336   0.8765  -3.1794 H              1 S1                 0.0000
     25 ****        -5.9780   1.4270  -2.3872 H              1 S1                 0.0000
     26 ****        -6.4593  -0.2284  -2.6789 H              1 S1                 0.0000
     27 ****        -5.4110  -0.9353  -0.7662 H              1 S1                 0.0000
     28 ****        -3.9354   0.9178   1.8703 H              1 S1                 0.0000
     29 ****        -4.8768  -0.5108   1.4778 H              1 S1                 0.0000
     30 ****        -3.5746  -2.5518   0.3007 H              1 S1                 0.0000
     31 ****        -0.9163  -3.1740   0.3113 H              1 S1                 0.0000
     32 ****         1.1458  -1.7418   0.8837 H              1 S1                 0.0000
     33 ****         3.1726  -0.6408   2.4115 H              1 S1                 0.0000
     34 ****         3.9799   2.7342  -0.2407 H              1 S1                 0.0000
     35 ****         3.1270   3.0532   1.2746 H              1 S1                 0.0000
     36 ****         2.2977   2.2503  -0.0470 H              1 S1                 0.0000
     37 ****         5.8351   1.5312   1.0875 H              1 S1                 0.0000
     38 ****         5.3651   0.3608   2.3268 H              1 S1                 0.0000
     39 ****         4.9106   2.0475   2.5061 H              1 S1                 0.0000
     40 ****         5.4176  -1.0519  -0.5295 H              1 S1                 0.0000
     41 ****         4.2226  -2.3070  -0.1690 H              1 S1                 0.0000
     42 ****         5.0841  -1.5198   1.1433 H              1 S1                 0.0000
     43 ****         3.5185   0.0598  -1.9101 H              1 S1                 0.0000
     44 ****         1.9696   0.4000  -1.1401 H              1 S1                 0.0000
     45 ****         2.4687  -1.2628  -1.3876 H              1 S1                 0.0000
     46 ****        -4.4052   2.3455  -1.3463 LP             1 S1                 0.0000
     47 ****        -3.6285   2.4637   0.1973 LP             1 S1                 0.0000
     48 ****        -0.1543   1.2810   2.0508 LP             1 S1                 0.0000
     49 ****         1.4328   1.9382   2.2724 LP             1 S1                 0.0000
     50 ****        -1.4904   0.8671   1.5735 LP             1 S1                 0.0000
@<TRIPOS>BOND
    1    1    2 1     
    2    1   22 1     
    3    1   23 1     
    4    1   24 1     
    5    2    3 1     
    6    2   25 1     
    7    2   26 1     
    8    3    4 am    
    9    3   27 1     
   10    4    5 2     
   11    4    6 1     
   12    6    7 1     
   13    6   28 1     
   14    6   29 1     
   15    7   21 1     
   16    7    8 1     
   17    8    9 2     
   18    8   30 1     
   19    9   10 1     
   20    9   31 1     
   21   10   11 1     
   22   10   21 2     
   23   11   12 am    
   24   11   32 1     
   25   12   13 2     
   26   12   14 1     
   27   14   18 1     
   28   14   15 1     
   29   14   33 1     
   30   15   16 1     
   31   15   17 1     
   32   15   18 1     
   33   16   34 1     
   34   16   35 1     
   35   16   36 1     
   36   17   37 1     
   37   17   38 1     
   38   17   39 1     
   39   18   19 1     
   40   18   20 1     
   41   19   40 1     
   42   19   41 1     
   43   19   42 1     
   44   20   43 1     
   45   20   44 1     
   46   20   45 1     
   47    5   46 1     
   48    5   47 1     
   49   13   48 1     
   50   13   49 1     
   51   21   50 1     
@<TRIPOS>SUBSTRUCTURE
      1 S1             1
@<TRIPOS>SET
LONE_PAIRS      STATIC     ATOMS    <user>   **** ""
5 46 47 48 49 50
DONOR_HYDROGENS      STATIC     ATOMS    <user>   **** ""
2 27 32
ATOM$BLUE        STATIC     ATOMS    COLORGROUP SYSTEM
5 46 47 48 49 50
ATOM$RED        STATIC     ATOMS    COLORGROUP SYSTEM
2 27 32
