AV-unprocessed.smi:1669|AV-procd|sdf|6687|dock7
  -GOLD-   22720 7413D 1   1.00000     0.00000
 Structure written by MMmdl.
 47 49  0  0  0  0  0  0  0  0  1 V2000
  150.8138  140.7653  158.3721 C   0  0  0  0  0  0  0  0  0  0  0  0
  151.8888  140.3143  159.2512 N   0  0  0  0  0  0  0  0  0  0  0  0
  153.0365  141.2247  159.1880 C   0  0  0  0  0  0  0  0  0  0  0  0
  152.7655  142.5926  159.7899 C   0  0  0  0  0  0  0  0  0  0  0  0
  152.4404  142.7106  161.1579 C   0  0  0  0  0  0  0  0  0  0  0  0
  152.1884  143.9781  161.7182 C   0  0  0  0  0  0  0  0  0  0  0  0
  152.2654  145.1319  160.9141 C   0  0  0  0  0  0  0  0  0  0  0  0
  152.5939  145.0180  159.5492 C   0  0  0  0  0  0  0  0  0  0  0  0
  152.8432  143.7504  158.9874 C   0  0  0  0  0  0  0  0  0  0  0  0
  152.2544  138.9334  158.9274 C   0  0  0  0  0  0  0  0  0  0  0  0
  151.1605  137.8770  159.1844 C   0  0  2  0  0  0  0  0  0  0  0  0
  151.7897  136.6170  159.2988 O   0  0  0  0  0  0  0  0  0  0  0  0
  150.1055  137.8257  158.0597 C   0  0  0  0  0  0  0  0  0  0  0  0
  149.3147  136.6036  158.0974 N   0  0  0  0  0  0  0  0  0  0  0  0
  149.2658  135.5956  157.1903 C   0  0  0  0  0  0  0  0  0  0  0  0
  150.0861  135.6294  155.9324 C   0  0  0  0  0  0  0  0  0  0  0  0
  151.4805  135.6370  156.1603 O   0  0  0  0  0  0  0  0  0  0  0  0
  148.4350  134.5930  157.4877 N   0  0  0  0  0  0  0  0  0  0  0  0
  147.9006  134.9864  158.6991 C   0  0  0  0  0  0  0  0  0  0  0  0
  146.9567  134.3515  159.5378 C   0  0  0  0  0  0  0  0  0  0  0  0
  146.5532  134.9586  160.7453 C   0  0  0  0  0  0  0  0  0  0  0  0
  147.0851  136.2066  161.1302 C   0  0  0  0  0  0  0  0  0  0  0  0
  148.0268  136.8557  160.3092 C   0  0  0  0  0  0  0  0  0  0  0  0
  148.4277  136.2438  159.1064 C   0  0  0  0  0  0  0  0  0  0  0  0
  149.9526  140.1000  158.4407 H   0  0  0  0  0  0  0  0  0  0  0  0
  151.1405  140.7909  157.3316 H   0  0  0  0  0  0  0  0  0  0  0  0
  150.4704  141.7634  158.6452 H   0  0  0  0  0  0  0  0  0  0  0  0
  153.8790  140.8175  159.7440 H   0  0  0  0  0  0  0  0  0  0  0  0
  153.3743  141.3330  158.1563 H   0  0  0  0  0  0  0  0  0  0  0  0
  152.3816  141.8280  161.7785 H   0  0  0  0  0  0  0  0  0  0  0  0
  151.9364  144.0649  162.7648 H   0  0  0  0  0  0  0  0  0  0  0  0
  152.0736  146.1038  161.3441 H   0  0  0  0  0  0  0  0  0  0  0  0
  152.6545  145.9029  158.9329 H   0  0  0  0  0  0  0  0  0  0  0  0
  153.0919  143.6702  157.9392 H   0  0  0  0  0  0  0  0  0  0  0  0
  152.5244  138.8771  157.8718 H   0  0  0  0  0  0  0  0  0  0  0  0
  153.1562  138.6622  159.4790 H   0  0  0  0  0  0  0  0  0  0  0  0
  150.6721  138.0621  160.1401 H   0  0  0  0  0  0  0  0  0  0  0  0
  152.5422  136.6029  158.7274 H   0  0  0  0  0  0  0  0  0  0  0  0
  149.4138  138.6633  158.1577 H   0  0  0  0  0  0  0  0  0  0  0  0
  150.5743  137.9380  157.0822 H   0  0  0  0  0  0  0  0  0  0  0  0
  149.8346  134.7614  155.3225 H   0  0  0  0  0  0  0  0  0  0  0  0
  149.8332  136.5194  155.3564 H   0  0  0  0  0  0  0  0  0  0  0  0
  151.6930  134.9084  156.7239 H   0  0  0  0  0  0  0  0  0  0  0  0
  146.5424  133.3962  159.2515 H   0  0  0  0  0  0  0  0  0  0  0  0
  145.8313  134.4646  161.3791 H   0  0  0  0  0  0  0  0  0  0  0  0
  146.7706  136.6649  162.0563 H   0  0  0  0  0  0  0  0  0  0  0  0
  148.4367  137.8115  160.6006 H   0  0  0  0  0  0  0  0  0  0  0  0
  1  2  1  0  0  0  0
  1 25  1  0  0  0  0
  1 26  1  0  0  0  0
  1 27  1  0  0  0  0
  2  3  1  0  0  0  0
  2 10  1  0  0  0  0
  3  4  1  0  0  0  0
  3 28  1  0  0  0  0
  3 29  1  0  0  0  0
  4  9  1  0  0  0  0
  4  5  2  0  0  0  0
  5  6  1  0  0  0  0
  5 30  1  0  0  0  0
  6  7  2  0  0  0  0
  6 31  1  0  0  0  0
  7  8  1  0  0  0  0
  7 32  1  0  0  0  0
  8  9  2  0  0  0  0
  8 33  1  0  0  0  0
  9 34  1  0  0  0  0
 10 11  1  0  0  0  0
 10 35  1  0  0  0  0
 10 36  1  0  0  0  0
 11 12  1  0  0  0  0
 11 13  1  0  0  0  0
 11 37  1  0  0  0  0
 12 38  1  0  0  0  0
 13 14  1  0  0  0  0
 13 39  1  0  0  0  0
 13 40  1  0  0  0  0
 14 24  1  0  0  0  0
 14 15  1  0  0  0  0
 15 16  1  0  0  0  0
 15 18  2  0  0  0  0
 16 17  1  0  0  0  0
 16 41  1  0  0  0  0
 16 42  1  0  0  0  0
 17 43  1  0  0  0  0
 18 19  1  0  0  0  0
 19 24  2  0  0  0  0
 19 20  1  0  0  0  0
 20 21  2  0  0  0  0
 20 44  1  0  0  0  0
 21 22  1  0  0  0  0
 21 45  1  0  0  0  0
 22 23  2  0  0  0  0
 22 46  1  0  0  0  0
 23 24  1  0  0  0  0
 23 47  1  0  0  0  0
M  END
> <s_m_source_file>
AV-unprocessed.smi

> <i_m_source_file_index>
1669

> <i_lp_mmshare_version>
43012

> <i_f3d_flags>
0

> <s_epik_input>
W2NIXTFbY0hdW2NIXVtjSF1bY0hdYzFbQ0gyXU4oW0NIM10pW0NIMl1bQ0BIXShbT0hdKVtDSDJdbihjKG4yKVtDSDJdW09IXSljKGMyMylbY0hdW2NIXVtjSF1bY0hdMw==

> <s_epik_cmdline>
J2VwaWtfcHl0aG9uJywgJy1waCcsICc3LjAnLCAnLXRuJywgJzgnLCAnLW1hJywgJzIwMCcsICctbWV0YWxfYmluZGluZycsICctaW1hZScsICc8aW5maWxlLm1hZT4nLCAnLW9tYWUnLCAnPG91dGZpbGUubWFlPic=

> <r_epik_Ionization_Penalty>
1.56301

> <r_epik_Ionization_Penalty_Charging>
0

> <r_epik_Ionization_Penalty_Neutral>
1.56301

> <r_epik_State_Penalty>
1.64771

> <r_epik_Charging_Adjusted_Penalty>
1.64771

> <i_epik_Tot_Q>
0

> <i_epik_Tot_abs_Q>
0

> <r_epik_Metal_State_Penalty>
1.61258

> <b_epik_Metal_Only>
0

> <s_lp_Force_Field>
OPLS_2005

> <r_lp_Energy>
20.891

> <b_lp_Chiralities_Consistent>
1

> <s_lp_Variant>
AV-unprocessed.smi:1669-5

> <Gold.Version>
5.8.1

> <Gold.Id.Protein>
6NUR|6NUR_protein|mol2

> <Gold.PLP.Fitness>
53.6539

> <Gold.PLP.PLP>
-48.2579

> <Gold.PLP.part.hbond>
-2.0000

> <Gold.PLP.part.metal>
0.0000

> <Gold.PLP.part.buried>
-5.4227

> <Gold.PLP.part.nonpolar>
-41.0422

> <Gold.PLP.part.repulsive>
0.0000

> <Gold.PLP.ligand.clash>
0.0000

> <Gold.PLP.ligand.torsion>
0.4548

> <Gold.PLP.Chemscore.Hbond>
2.0000

> <Gold.PLP.Chemscore.CHOScore>
0.0000

> <Gold.PLP.Chemscore.Metal>
0.0000

> <Gold.Chemscore.Hbonds>
donor molecule, donor type, donor heavy atom, donor atom, acceptor molecule, acceptor atom, score
      P1  H  6896  6907       L1    12  1.00
      P1  H 10752 10763       L1    17  0.95

> <Gold.PLP.Chemscore.Internal.Correction>
0.3057

> <Gold.Rescore>
     Score         DG    S(hbond)    S(metal)    S(lipo)     H(rot)  DE(clash)    DE(int)     intcor
     18.78     -19.39       1.74        0.00     136.13       3.06       0.05       0.55       ----

> <Gold.Chemscore.Fitness>
18.7805

> <Gold.Chemscore.DG>
-19.3859

> <Gold.Chemscore.ZeroCoef>
-5.4800

> <Gold.Chemscore.Hbond>
1.7408

> <Gold.Chemscore.Metal>
0.0000

> <Gold.Chemscore.Lipo>
136.1321

> <Gold.Chemscore.Internal_Hbond>
0.0000

> <Gold.Chemscore.DEClash>
0.0519

> <Gold.Chemscore.DEInternal>
0.5534

> <Gold.Chemscore.Rot>
3.0609

> <Gold.Chemscore.Internal.Correction>
   9.000000E+99

> <Gold.Chemscore.Hbonds>
donor molecule, donor type, donor heavy atom, donor atom, acceptor molecule, acceptor atom, score
      P1  H  6896  6907       L1    12  0.62
      P1  H 10752 10763       L1    17  0.20

> <Gold.Chemscore.Hbond.Weighted>
-5.8142

> <Gold.Chemscore.Metal.Weighted>
-0.0000

> <Gold.Chemscore.Lipo.Weighted>
-15.9275

> <Gold.Chemscore.Internal_Hbond.Weighted>
0.0000

> <Gold.Chemscore.DEClash.Weighted>
0.0519

> <Gold.Chemscore.DEInternal.Weighted>
0.5534

> <Gold.Chemscore.Rot.Weighted>
7.8358

> <Gold.Chemscore.Internal.Correction.Weighted>
   9.000000E+99

> <Gold.Protein.RotatedTorsions>
[ 6907 6896 6895 6894 ] final    5.71 input  -60.11 | X-H torsion
[ 7974 7965 7964 7962 ] final   81.13 input  175.53 | X-H torsion
[ 8008 7997 7996 7995 ] final   83.14 input   59.86 | X-H torsion
[ 10167 10162 10161 10158 ] final   52.32 input  -65.29 | X-H torsion
[ 10718 10713 10712 10709 ] final  147.48 input   66.30 | X-H torsion
[ 10763 10752 10751 10750 ] final   75.51 input  -60.55 | X-H torsion
[ 11005 11000 10999 10996 ] final   26.12 input  -57.11 | X-H torsion

> <Gold.Protein.ActiveResidues>
 VAL166  LYS551  ARG553  GLY616  TRP617  ASP618  TYR619  PRO620  LYS621  CYS622 
 ASP623  PHE694  ASN695  SER759  ASP760  ASP761  ALA762  ILE779  LEU786  VAL792 
 PHE793  MET794  SER795  GLU796  ALA797  LYS798  CYS799  TRP800  GLU811  SER814 

> <Gold.Protein.RotatedAtoms>
  151.6619  135.0988  160.0180 H   0  0  0  0  0  0  0  0  0  0  0  0  # atno 6907 bound_to 6896
  152.3942  133.6718  159.6271 H   0  0  0  0  0  0  0  0  0  0  0  0  # atno 6908 bound_to 6896
  150.7852  133.8819  159.3329 H   0  0  0  0  0  0  0  0  0  0  0  0  # atno 6909 bound_to 6896
  145.6422  139.2428  143.2024 H   0  0  0  0  0  0  0  0  0  0  0  0  # atno 7974 bound_to 7965
  155.9200  140.3422  155.6165 H   0  0  0  0  0  0  0  0  0  0  0  0  # atno 8008 bound_to 7997
  155.7285  140.0792  157.2318 H   0  0  0  0  0  0  0  0  0  0  0  0  # atno 8009 bound_to 7997
  154.4068  140.1592  156.2469 H   0  0  0  0  0  0  0  0  0  0  0  0  # atno 8010 bound_to 7997
  140.2526  144.3462  150.6343 H   0  0  0  0  0  0  0  0  0  0  0  0  # atno 10167 bound_to 10162
  157.3205  131.0903  151.1245 H   0  0  0  0  0  0  0  0  0  0  0  0  # atno 10718 bound_to 10713
  153.0660  135.4986  154.8200 H   0  0  0  0  0  0  0  0  0  0  0  0  # atno 10763 bound_to 10752
  154.6954  135.2992  154.9422 H   0  0  0  0  0  0  0  0  0  0  0  0  # atno 10764 bound_to 10752
  154.0163  135.6748  153.4822 H   0  0  0  0  0  0  0  0  0  0  0  0  # atno 10765 bound_to 10752
  140.3405  134.2338  155.7690 H   0  0  0  0  0  0  0  0  0  0  0  0  # atno 11005 bound_to 11000
  146.1272  140.7233  142.9429 LP  0  0  0  0  0  0  0  0  0  0  0  0  # atno 17320 bound_to 7965
  144.7153  140.4188  143.7049 LP  0  0  0  0  0  0  0  0  0  0  0  0  # atno 17321 bound_to 7965
  140.6029  143.2167  151.7038 LP  0  0  0  0  0  0  0  0  0  0  0  0  # atno 17342 bound_to 10162
  139.5041  144.3765  152.0419 LP  0  0  0  0  0  0  0  0  0  0  0  0  # atno 17343 bound_to 10162
  157.2532  130.6623  149.5940 LP  0  0  0  0  0  0  0  0  0  0  0  0  # atno 17370 bound_to 10713
  155.9685  130.4532  150.5802 LP  0  0  0  0  0  0  0  0  0  0  0  0  # atno 17371 bound_to 10713
  141.2040  133.7898  157.0311 LP  0  0  0  0  0  0  0  0  0  0  0  0  # atno 17394 bound_to 11000
  140.0785  134.9662  157.1585 LP  0  0  0  0  0  0  0  0  0  0  0  0  # atno 17395 bound_to 11000

$$$$
