AV-unprocessed.smi:2579|AV-procd|sdf|10123|dock2
  -GOLD-   2272014143D 1   1.00000     0.00000
 Structure written by MMmdl.
 39 41  0  0  0  0  0  0  0  0  2 V2000
  149.4767  140.7705  153.4042 O   0  0  0  0  0  0  0  0  0  0  0  0
  148.1663  141.0072  153.8716 C   0  0  0  0  0  0  0  0  0  0  0  0
  148.2154  141.7499  155.2166 C   0  0  0  0  0  0  0  0  0  0  0  0
  148.9340  141.0018  156.2387 N   0  0  0  0  0  0  0  0  0  0  0  0
  149.8332  141.6607  157.0858 C   0  0  0  0  0  0  0  0  0  0  0  0
  149.9494  143.0069  157.2415 N   0  3  0  0  0  0  0  0  0  0  0  0
  150.9637  143.2565  158.1703 C   0  0  0  0  0  0  0  0  0  0  0  0
  151.4657  144.4564  158.6654 C   0  0  0  0  0  0  0  0  0  0  0  0
  152.5128  144.3654  159.6058 C   0  0  0  0  0  0  0  0  0  0  0  0
  153.0242  143.1182  160.0190 C   0  0  0  0  0  0  0  0  0  0  0  0
  152.5093  141.9070  159.5124 C   0  0  0  0  0  0  0  0  0  0  0  0
  151.4712  142.0019  158.5858 C   0  0  0  0  0  0  0  0  0  0  0  0
  150.7327  141.0364  157.8889 N   0  0  0  0  0  0  0  0  0  0  0  0
  151.0143  139.6081  158.0886 C   0  0  0  0  0  0  0  0  0  0  0  0
  151.9153  139.0363  156.9825 C   0  0  2  0  0  0  0  0  0  0  0  0
  151.7970  139.7744  155.6494 C   0  0  0  0  0  0  0  0  0  0  0  0
  152.1780  138.6937  154.6640 C   0  0  0  0  0  0  0  0  0  0  0  0
  151.5239  137.4674  155.2910 C   0  0  0  0  0  0  0  0  0  0  0  0
  151.5904  137.6762  156.6982 O   0  0  0  0  0  0  0  0  0  0  0  0
  149.4405  140.1168  152.7224 H   0  0  0  0  0  0  0  0  0  0  0  0
  147.5871  141.5483  153.1228 H   0  0  0  0  0  0  0  0  0  0  0  0
  147.6865  140.0378  154.0073 H   0  0  0  0  0  0  0  0  0  0  0  0
  148.7023  142.7164  155.0832 H   0  0  0  0  0  0  0  0  0  0  0  0
  147.2073  141.9683  155.5703 H   0  0  0  0  0  0  0  0  0  0  0  0
  148.9722  139.9953  156.1616 H   0  0  0  0  0  0  0  0  0  0  0  0
  151.0793  145.4143  158.3496 H   0  0  0  0  0  0  0  0  0  0  0  0
  152.9337  145.2711  160.0177 H   0  0  0  0  0  0  0  0  0  0  0  0
  153.8292  143.0893  160.7390 H   0  0  0  0  0  0  0  0  0  0  0  0
  152.9138  140.9577  159.8311 H   0  0  0  0  0  0  0  0  0  0  0  0
  151.4595  139.4694  159.0740 H   0  0  0  0  0  0  0  0  0  0  0  0
  150.0602  139.0804  158.1052 H   0  0  0  0  0  0  0  0  0  0  0  0
  152.9567  139.0569  157.3078 H   0  0  0  0  0  0  0  0  0  0  0  0
  150.7680  140.0907  155.4715 H   0  0  0  0  0  0  0  0  0  0  0  0
  152.4392  140.6536  155.5920 H   0  0  0  0  0  0  0  0  0  0  0  0
  151.8293  138.8922  153.6503 H   0  0  0  0  0  0  0  0  0  0  0  0
  153.2619  138.5733  154.6389 H   0  0  0  0  0  0  0  0  0  0  0  0
  150.4744  137.4061  155.0002 H   0  0  0  0  0  0  0  0  0  0  0  0
  152.0117  136.5368  155.0002 H   0  0  0  0  0  0  0  0  0  0  0  0
  149.3854  143.6921  156.7560 H   0  0  0  0  0  0  0  0  0  0  0  0
  1  2  1  0  0  0  0
  1 20  1  0  0  0  0
  2  3  1  0  0  0  0
  2 21  1  0  0  0  0
  2 22  1  0  0  0  0
  3  4  1  0  0  0  0
  3 23  1  0  0  0  0
  3 24  1  0  0  0  0
  4  5  1  0  0  0  0
  4 25  1  0  0  0  0
  5 13  1  0  0  0  0
  5  6  2  0  0  0  0
  6  7  1  0  0  0  0
  6 39  1  0  0  0  0
  7 12  2  0  0  0  0
  7  8  1  0  0  0  0
  8  9  2  0  0  0  0
  8 26  1  0  0  0  0
  9 10  1  0  0  0  0
  9 27  1  0  0  0  0
 10 11  2  0  0  0  0
 10 28  1  0  0  0  0
 11 12  1  0  0  0  0
 11 29  1  0  0  0  0
 12 13  1  0  0  0  0
 13 14  1  0  0  0  0
 14 15  1  0  0  0  0
 14 30  1  0  0  0  0
 14 31  1  0  0  0  0
 15 19  1  0  0  0  0
 15 16  1  0  0  0  0
 15 32  1  0  0  0  0
 16 17  1  0  0  0  0
 16 33  1  0  0  0  0
 16 34  1  0  0  0  0
 17 18  1  0  0  0  0
 17 35  1  0  0  0  0
 17 36  1  0  0  0  0
 18 19  1  0  0  0  0
 18 37  1  0  0  0  0
 18 38  1  0  0  0  0
M  CHG  1   6   1
M  END
> <s_m_source_file>
AV-unprocessed.smi

> <i_m_source_file_index>
2579

> <i_lp_mmshare_version>
43012

> <i_f3d_flags>
0

> <s_epik_input>
W09IXVtDSDJdW0NIMl1bTkhdYyhuMSluKGMoYzEyKVtjSF1bY0hdW2NIXVtjSF0yKVtDSDJdW0NAQEhdM1tDSDJdW0NIMl1bQ0gyXU8z

> <s_epik_cmdline>
J2VwaWtfcHl0aG9uJywgJy1waCcsICc3LjAnLCAnLXRuJywgJzgnLCAnLW1hJywgJzIwMCcsICctbWV0YWxfYmluZGluZycsICctaW1hZScsICc8aW5maWxlLm1hZT4nLCAnLW9tYWUnLCAnPG91dGZpbGUubWFlPic=

> <r_epik_Ionization_Penalty>
0.0735651

> <r_epik_Ionization_Penalty_Charging>
0.0735628

> <r_epik_Ionization_Penalty_Neutral>
2.35277e-06

> <r_epik_State_Penalty>
0.0647164

> <r_epik_Charging_Adjusted_Penalty>
0.138279

> <i_epik_Tot_Q>
1

> <i_epik_Tot_abs_Q>
1

> <r_epik_Metal_State_Penalty>
2.81856

> <b_epik_Metal_Only>
0

> <s_lp_Force_Field>
OPLS_2005

> <r_lp_Energy>
32.6829

> <b_lp_Chiralities_Consistent>
1

> <s_lp_Variant>
AV-unprocessed.smi:2579-1

> <Gold.Version>
5.8.1

> <Gold.Id.Protein>
6NUR|6NUR_protein|mol2

> <Gold.PLP.Fitness>
52.5371

> <Gold.PLP.PLP>
-42.1905

> <Gold.PLP.part.hbond>
-3.3961

> <Gold.PLP.part.metal>
0.0000

> <Gold.PLP.part.buried>
-3.6028

> <Gold.PLP.part.nonpolar>
-35.6649

> <Gold.PLP.part.repulsive>
0.0322

> <Gold.PLP.ligand.clash>
0.0000

> <Gold.PLP.ligand.torsion>
0.8532

> <Gold.PLP.Chemscore.Hbond>
4.0161

> <Gold.PLP.Chemscore.CHOScore>
0.0000

> <Gold.PLP.Chemscore.Metal>
0.0000

> <Gold.Chemscore.Hbonds>
donor molecule, donor type, donor heavy atom, donor atom, acceptor molecule, acceptor atom, score
      L1  H     1    20       P1  7957  0.77
      L1  H     6    39       P1  8028  2.00
      P1  H  7989  7998       L1     1  0.18
      P1  H  8011  8017       L1     1  1.00

> <Gold.PLP.Chemscore.Internal.Correction>
0.0049

> <Gold.Rescore>
     Score         DG    S(hbond)    S(metal)    S(lipo)     H(rot)  DE(clash)    DE(int)     intcor
     18.80     -19.41       1.95        0.00     112.08       2.22       0.05       0.56       ----

> <Gold.Chemscore.Fitness>
18.7952

> <Gold.Chemscore.DG>
-19.4078

> <Gold.Chemscore.ZeroCoef>
-5.4800

> <Gold.Chemscore.Hbond>
1.9457

> <Gold.Chemscore.Metal>
0.0000

> <Gold.Chemscore.Lipo>
112.0756

> <Gold.Chemscore.Internal_Hbond>
0.0000

> <Gold.Chemscore.DEClash>
0.0545

> <Gold.Chemscore.DEInternal>
0.5581

> <Gold.Chemscore.Rot>
2.2202

> <Gold.Chemscore.Internal.Correction>
   9.000000E+99

> <Gold.Chemscore.Hbonds>
donor molecule, donor type, donor heavy atom, donor atom, acceptor molecule, acceptor atom, score
      L1  H     1    20       P1  7957  0.74
      L1  H     6    39       P1  8028  0.92
      P1  H  7989  7998       L1     1  0.02
      P1  H  8011  8017       L1     1  0.07

> <Gold.Chemscore.Hbond.Weighted>
-6.4987

> <Gold.Chemscore.Metal.Weighted>
-0.0000

> <Gold.Chemscore.Lipo.Weighted>
-13.1128

> <Gold.Chemscore.Internal_Hbond.Weighted>
0.0000

> <Gold.Chemscore.DEClash.Weighted>
0.0545

> <Gold.Chemscore.DEInternal.Weighted>
0.5581

> <Gold.Chemscore.Rot.Weighted>
5.6837

> <Gold.Chemscore.Internal.Correction.Weighted>
   9.000000E+99

> <Gold.Protein.RotatedTorsions>
[ 6907 6896 6895 6894 ] final -130.84 input  -60.11 | X-H torsion
[ 7974 7965 7964 7962 ] final  174.36 input  175.53 | X-H torsion
[ 8008 7997 7996 7995 ] final  122.36 input   59.86 | X-H torsion
[ 10167 10162 10161 10158 ] final   26.97 input  -65.29 | X-H torsion
[ 10718 10713 10712 10709 ] final   17.76 input   66.30 | X-H torsion
[ 10763 10752 10751 10750 ] final   30.73 input  -60.55 | X-H torsion
[ 11005 11000 10999 10996 ] final   93.93 input  -57.11 | X-H torsion

> <Gold.Protein.ActiveResidues>
 VAL166  LYS551  ARG553  GLY616  TRP617  ASP618  TYR619  PRO620  LYS621  CYS622 
 ASP623  PHE694  ASN695  SER759  ASP760  ASP761  ALA762  ILE779  LEU786  VAL792 
 PHE793  MET794  SER795  GLU796  ALA797  LYS798  CYS799  TRP800  GLU811  SER814 

> <Gold.Protein.RotatedAtoms>
  150.9442  133.6621  159.2784 H   0  0  0  0  0  0  0  0  0  0  0  0  # atno 6907 bound_to 6896
  151.4000  135.0968  159.9562 H   0  0  0  0  0  0  0  0  0  0  0  0  # atno 6908 bound_to 6896
  152.5083  133.8938  159.7462 H   0  0  0  0  0  0  0  0  0  0  0  0  # atno 6909 bound_to 6896
  144.7223  139.9785  143.6438 H   0  0  0  0  0  0  0  0  0  0  0  0  # atno 7974 bound_to 7965
  156.2724  140.2787  156.1455 H   0  0  0  0  0  0  0  0  0  0  0  0  # atno 8008 bound_to 7997
  155.0908  140.0388  157.2686 H   0  0  0  0  0  0  0  0  0  0  0  0  # atno 8009 bound_to 7997
  154.6890  140.2625  155.6837 H   0  0  0  0  0  0  0  0  0  0  0  0  # atno 8010 bound_to 7997
  140.4977  144.0364  150.6321 H   0  0  0  0  0  0  0  0  0  0  0  0  # atno 10167 bound_to 10162
  157.0868  130.6411  149.5839 H   0  0  0  0  0  0  0  0  0  0  0  0  # atno 10718 bound_to 10713
  153.0355  135.6457  154.1089 H   0  0  0  0  0  0  0  0  0  0  0  0  # atno 10763 bound_to 10752
  154.0805  135.2873  155.3293 H   0  0  0  0  0  0  0  0  0  0  0  0  # atno 10764 bound_to 10752
  154.6533  135.5418  153.7993 H   0  0  0  0  0  0  0  0  0  0  0  0  # atno 10765 bound_to 10752
  139.8804  134.8817  156.3790 H   0  0  0  0  0  0  0  0  0  0  0  0  # atno 11005 bound_to 11000
  146.0507  139.3508  143.0641 LP  0  0  0  0  0  0  0  0  0  0  0  0  # atno 17320 bound_to 7965
  145.8219  140.9675  143.0894 LP  0  0  0  0  0  0  0  0  0  0  0  0  # atno 17321 bound_to 7965
  140.3652  143.2885  152.0340 LP  0  0  0  0  0  0  0  0  0  0  0  0  # atno 17342 bound_to 10162
  139.4865  144.6273  151.7140 LP  0  0  0  0  0  0  0  0  0  0  0  0  # atno 17343 bound_to 10162
  155.9909  130.4961  150.7275 LP  0  0  0  0  0  0  0  0  0  0  0  0  # atno 17370 bound_to 10713
  157.4755  131.0897  151.0595 LP  0  0  0  0  0  0  0  0  0  0  0  0  # atno 17371 bound_to 10713
  140.9412  133.7513  156.0148 LP  0  0  0  0  0  0  0  0  0  0  0  0  # atno 17394 bound_to 11000
  140.8217  134.3281  157.5379 LP  0  0  0  0  0  0  0  0  0  0  0  0  # atno 17395 bound_to 11000

$$$$
