AV-unprocessed.smi:1406|AV-procd|sdf|5713|dock7
  -GOLD-   22720 5343D 1   1.00000     0.00000
 Structure written by MMmdl.
 41 43  0  0  0  0  0  0  0  0  2 V2000
  147.3840  140.6451  153.2199 C   0  0  0  0  0  0  0  0  0  0  0  0
  147.9889  141.6918  154.1777 C   0  0  2  0  0  0  0  0  0  0  0  0
  149.3346  141.2489  154.7742 C   0  0  0  0  0  0  0  0  0  0  0  0
  149.8691  140.1997  154.4141 O   0  0  0  0  0  0  0  0  0  0  0  0
  149.8750  142.0659  155.6924 N   0  0  0  0  0  0  0  0  0  0  0  0
  151.1268  141.8231  156.4029 C   0  0  2  0  0  0  0  0  0  0  0  0
  151.2793  140.3622  156.8618 C   0  0  0  0  0  0  0  0  0  0  0  0
  151.9635  140.4362  158.2411 C   0  0  0  0  0  0  0  0  0  0  0  0
  152.2525  141.8668  158.4579 N   0  3  2  0  0  0  0  0  0  0  0  0
  152.3930  142.3212  159.8584 C   0  0  0  0  0  0  0  0  0  0  0  0
  152.7773  143.8143  159.8718 C   0  0  0  0  0  0  0  0  0  0  0  0
  151.7932  144.6650  159.0434 C   0  0  0  0  0  0  0  0  0  0  0  0
  151.6156  144.0888  157.6253 C   0  0  0  0  0  0  0  0  0  0  0  0
  151.2192  142.6051  157.7161 C   0  0  1  0  0  0  0  0  0  0  0  0
  147.0617  142.0611  155.2401 N   0  0  0  0  0  0  0  0  0  0  0  0
  145.8349  142.5823  155.1660 C   0  0  0  0  0  0  0  0  0  0  0  0
  145.2864  142.8390  156.3451 N   0  0  0  0  0  0  0  0  0  0  0  0
  146.3018  142.4305  157.1628 C   0  0  0  0  0  0  0  0  0  0  0  0
  147.3919  141.9661  156.5524 N   0  0  0  0  0  0  0  0  0  0  0  0
  148.0673  140.4200  152.4003 H   0  0  0  0  0  0  0  0  0  0  0  0
  146.4572  141.0132  152.7791 H   0  0  0  0  0  0  0  0  0  0  0  0
  147.1574  139.7066  153.7278 H   0  0  0  0  0  0  0  0  0  0  0  0
  148.1784  142.5924  153.5907 H   0  0  0  0  0  0  0  0  0  0  0  0
  149.3706  142.9076  155.9305 H   0  0  0  0  0  0  0  0  0  0  0  0
  151.9808  142.0726  155.7692 H   0  0  0  0  0  0  0  0  0  0  0  0
  150.3098  139.8712  156.9590 H   0  0  0  0  0  0  0  0  0  0  0  0
  151.8674  139.7856  156.1469 H   0  0  0  0  0  0  0  0  0  0  0  0
  151.2868  140.0678  159.0139 H   0  0  0  0  0  0  0  0  0  0  0  0
  152.8795  139.8464  158.2834 H   0  0  0  0  0  0  0  0  0  0  0  0
  151.4578  142.1620  160.3976 H   0  0  0  0  0  0  0  0  0  0  0  0
  153.1605  141.7305  160.3598 H   0  0  0  0  0  0  0  0  0  0  0  0
  152.8167  144.1813  160.8978 H   0  0  0  0  0  0  0  0  0  0  0  0
  153.7827  143.9312  159.4649 H   0  0  0  0  0  0  0  0  0  0  0  0
  150.8261  144.6925  159.5468 H   0  0  0  0  0  0  0  0  0  0  0  0
  152.1421  145.6966  158.9889 H   0  0  0  0  0  0  0  0  0  0  0  0
  150.8536  144.6550  157.0897 H   0  0  0  0  0  0  0  0  0  0  0  0
  152.5427  144.1969  157.0606 H   0  0  0  0  0  0  0  0  0  0  0  0
  150.2728  142.5145  158.2546 H   0  0  0  0  0  0  0  0  0  0  0  0
  145.3341  142.7827  154.2301 H   0  0  0  0  0  0  0  0  0  0  0  0
  146.2387  142.4833  158.2397 H   0  0  0  0  0  0  0  0  0  0  0  0
  153.1278  142.0566  157.9910 H   0  0  0  0  0  0  0  0  0  0  0  0
  1  2  1  0  0  0  0
  1 20  1  0  0  0  0
  1 21  1  0  0  0  0
  1 22  1  0  0  0  0
  2  3  1  0  0  0  0
  2 15  1  0  0  0  0
  2 23  1  0  0  0  0
  3  4  2  0  0  0  0
  3  5  1  0  0  0  0
  5  6  1  0  0  0  0
  5 24  1  0  0  0  0
  6 14  1  0  0  0  0
  6  7  1  0  0  0  0
  6 25  1  0  0  0  0
  7  8  1  0  0  0  0
  7 26  1  0  0  0  0
  7 27  1  0  0  0  0
  8  9  1  0  0  0  0
  8 28  1  0  0  0  0
  8 29  1  0  0  0  0
  9 14  1  0  0  0  0
  9 10  1  0  0  0  0
  9 41  1  0  0  0  0
 10 11  1  0  0  0  0
 10 30  1  0  0  0  0
 10 31  1  0  0  0  0
 11 12  1  0  0  0  0
 11 32  1  0  0  0  0
 11 33  1  0  0  0  0
 12 13  1  0  0  0  0
 12 34  1  0  0  0  0
 12 35  1  0  0  0  0
 13 14  1  0  0  0  0
 13 36  1  0  0  0  0
 13 37  1  0  0  0  0
 14 38  1  0  0  0  0
 15 19  1  0  0  0  0
 15 16  1  0  0  0  0
 16 17  2  0  0  0  0
 16 39  1  0  0  0  0
 17 18  1  0  0  0  0
 18 19  2  0  0  0  0
 18 40  1  0  0  0  0
M  CHG  1   9   1
M  END
> <s_m_source_file>
AV-unprocessed.smi

> <i_m_source_file_index>
1406

> <i_lp_mmshare_version>
43012

> <i_f3d_flags>
0

> <s_epik_input>
bjFbY0hdbltjSF1uMVtDQEhdKFtDSDNdKUMoPU8pW05IXVtDQEhdKFtDSDJdW0NIMl0yKVtDQEBIXShOMjMpW0NIMl1bQ0gyXVtDSDJdW0NIMl0z

> <s_epik_cmdline>
J2VwaWtfcHl0aG9uJywgJy1waCcsICc3LjAnLCAnLXRuJywgJzgnLCAnLW1hJywgJzIwMCcsICctbWV0YWxfYmluZGluZycsICctaW1hZScsICc8aW5maWxlLm1hZT4nLCAnLW9tYWUnLCAnPG91dGZpbGUubWFlPic=

> <r_lp_tautomer_probability>
1

> <r_epik_Ionization_Penalty>
0.00197066

> <r_epik_Ionization_Penalty_Charging>
0.00196223

> <r_epik_Ionization_Penalty_Neutral>
8.43107e-06

> <r_epik_State_Penalty>
0.00133866

> <r_epik_Charging_Adjusted_Penalty>
0.00330089

> <i_epik_Tot_Q>
1

> <i_epik_Tot_abs_Q>
1

> <r_epik_Metal_State_Penalty>
-0

> <b_epik_Metal_Only>
0

> <s_lp_Force_Field>
OPLS_2005

> <r_lp_Energy>
39.8757

> <b_lp_Chiralities_Consistent>
1

> <s_lp_Variant>
AV-unprocessed.smi:1406-5

> <Gold.Version>
5.8.1

> <Gold.Id.Protein>
6NUR|6NUR_protein|mol2

> <Gold.PLP.Fitness>
46.0723

> <Gold.PLP.PLP>
-41.0609

> <Gold.PLP.part.hbond>
-2.0000

> <Gold.PLP.part.metal>
0.0000

> <Gold.PLP.part.buried>
-4.7516

> <Gold.PLP.part.nonpolar>
-35.5235

> <Gold.PLP.part.repulsive>
0.5882

> <Gold.PLP.ligand.clash>
0.0000

> <Gold.PLP.ligand.torsion>
0.4389

> <Gold.PLP.Chemscore.Hbond>
1.9280

> <Gold.PLP.Chemscore.CHOScore>
0.0000

> <Gold.PLP.Chemscore.Metal>
0.0000

> <Gold.Chemscore.Hbonds>
donor molecule, donor type, donor heavy atom, donor atom, acceptor molecule, acceptor atom, score
      L1  H     5    24       P1  8028  1.00
      P1  H  7989  7998       L1     4  0.81

> <Gold.PLP.Chemscore.Internal.Correction>
0.1053

> <Gold.Rescore>
     Score         DG    S(hbond)    S(metal)    S(lipo)     H(rot)  DE(clash)    DE(int)     intcor
     13.56     -16.98       1.62        0.00      93.44       1.89       0.20       3.22       ----

> <Gold.Chemscore.Fitness>
13.5617

> <Gold.Chemscore.DG>
-16.9771

> <Gold.Chemscore.ZeroCoef>
-5.4800

> <Gold.Chemscore.Hbond>
1.6151

> <Gold.Chemscore.Metal>
0.0000

> <Gold.Chemscore.Lipo>
93.4392

> <Gold.Chemscore.Internal_Hbond>
0.0000

> <Gold.Chemscore.DEClash>
0.1964

> <Gold.Chemscore.DEInternal>
3.2190

> <Gold.Chemscore.Rot>
1.8865

> <Gold.Chemscore.Internal.Correction>
   9.000000E+99

> <Gold.Chemscore.Hbonds>
donor molecule, donor type, donor heavy atom, donor atom, acceptor molecule, acceptor atom, score
      L1  H     5    24       P1  8028  0.97
      P1  H  7989  7998       L1     4  0.26

> <Gold.Chemscore.Hbond.Weighted>
-5.3943

> <Gold.Chemscore.Metal.Weighted>
-0.0000

> <Gold.Chemscore.Lipo.Weighted>
-10.9324

> <Gold.Chemscore.Internal_Hbond.Weighted>
0.0000

> <Gold.Chemscore.DEClash.Weighted>
0.1964

> <Gold.Chemscore.DEInternal.Weighted>
3.2190

> <Gold.Chemscore.Rot.Weighted>
4.8295

> <Gold.Chemscore.Internal.Correction.Weighted>
   9.000000E+99

> <Gold.Protein.RotatedTorsions>
[ 6907 6896 6895 6894 ] final   79.40 input  -60.11 | X-H torsion
[ 7974 7965 7964 7962 ] final  -19.61 input  175.53 | X-H torsion
[ 8008 7997 7996 7995 ] final   65.95 input   59.86 | X-H torsion
[ 10167 10162 10161 10158 ] final -147.67 input  -65.29 | X-H torsion
[ 10718 10713 10712 10709 ] final -117.86 input   66.30 | X-H torsion
[ 10763 10752 10751 10750 ] final -173.35 input  -60.55 | X-H torsion
[ 11005 11000 10999 10996 ] final -147.33 input  -57.11 | X-H torsion

> <Gold.Protein.ActiveResidues>
 VAL166  LYS551  ARG553  GLY616  TRP617  ASP618  TYR619  PRO620  LYS621  CYS622 
 ASP623  PHE694  ASN695  SER759  ASP760  ASP761  ALA762  ILE779  LEU786  VAL792 
 PHE793  MET794  SER795  GLU796  ALA797  LYS798  CYS799  TRP800  GLU811  SER814 

> <Gold.Protein.RotatedAtoms>
  152.5197  134.3517  159.9253 H   0  0  0  0  0  0  0  0  0  0  0  0  # atno 6907 bound_to 6896
  151.3468  133.3934  159.2684 H   0  0  0  0  0  0  0  0  0  0  0  0  # atno 6908 bound_to 6896
  150.9759  134.9142  159.7873 H   0  0  0  0  0  0  0  0  0  0  0  0  # atno 6909 bound_to 6896
  146.1832  140.4087  142.8486 H   0  0  0  0  0  0  0  0  0  0  0  0  # atno 7974 bound_to 7965
  155.6698  140.3497  155.4814 H   0  0  0  0  0  0  0  0  0  0  0  0  # atno 8008 bound_to 7997
  155.9698  140.1153  157.0845 H   0  0  0  0  0  0  0  0  0  0  0  0  # atno 8009 bound_to 7997
  154.4163  140.1159  156.5277 H   0  0  0  0  0  0  0  0  0  0  0  0  # atno 8010 bound_to 7997
  139.7601  143.8390  152.2605 H   0  0  0  0  0  0  0  0  0  0  0  0  # atno 10167 bound_to 10162
  156.1064  130.6214  150.9218 H   0  0  0  0  0  0  0  0  0  0  0  0  # atno 10718 bound_to 10713
  154.6089  135.2862  155.0454 H   0  0  0  0  0  0  0  0  0  0  0  0  # atno 10763 bound_to 10752
  154.1692  135.6475  153.5009 H   0  0  0  0  0  0  0  0  0  0  0  0  # atno 10764 bound_to 10752
  153.0187  135.5396  154.6835 H   0  0  0  0  0  0  0  0  0  0  0  0  # atno 10765 bound_to 10752
  140.7727  134.3170  157.5070 H   0  0  0  0  0  0  0  0  0  0  0  0  # atno 11005 bound_to 11000
  144.8351  140.6769  143.6266 LP  0  0  0  0  0  0  0  0  0  0  0  0  # atno 17320 bound_to 7965
  145.4016  139.1596  143.4174 LP  0  0  0  0  0  0  0  0  0  0  0  0  # atno 17321 bound_to 7965
  139.8393  144.7217  150.9351 LP  0  0  0  0  0  0  0  0  0  0  0  0  # atno 17342 bound_to 10162
  140.7806  143.3998  151.1169 LP  0  0  0  0  0  0  0  0  0  0  0  0  # atno 17343 bound_to 10162
  157.6241  131.0927  150.8566 LP  0  0  0  0  0  0  0  0  0  0  0  0  # atno 17370 bound_to 10713
  156.8684  130.5137  149.5298 LP  0  0  0  0  0  0  0  0  0  0  0  0  # atno 17371 bound_to 10713
  139.8753  134.9271  156.3416 LP  0  0  0  0  0  0  0  0  0  0  0  0  # atno 17394 bound_to 11000
  140.9558  133.7421  156.0333 LP  0  0  0  0  0  0  0  0  0  0  0  0  # atno 17395 bound_to 11000

$$$$
