AV-unprocessed.smi:2083|AV-procd|sdf|8501|dock7
  -GOLD-   2272011213D 1   1.00000     0.00000
 Structure written by MMmdl.
 44 45  0  0  0  0  0  0  0  0  3 V2000
  145.7560  132.9212  161.5184 C   0  0  0  0  0  0  0  0  0  0  0  0
  146.2617  134.3106  161.3308 C   0  0  0  0  0  0  0  0  0  0  0  0
  146.9146  134.9279  160.3021 C   0  0  0  0  0  0  0  0  0  0  0  0
  147.0966  136.2536  160.7820 C   0  0  0  0  0  0  0  0  0  0  0  0
  147.7130  137.2501  160.1281 N   0  5  0  0  0  0  0  0  0  0  0  0
  148.7846  136.9915  159.3450 C   0  0  0  0  0  0  0  0  0  0  0  0
  149.1170  135.8913  158.8983 O   0  0  0  0  0  0  0  0  0  0  0  0
  149.5247  138.0769  159.0757 N   0  0  0  0  0  0  0  0  0  0  0  0
  150.7437  138.1205  158.2718 C   0  0  0  0  0  0  0  0  0  0  0  0
  151.9260  138.7993  159.0087 C   0  0  1  0  0  0  0  0  0  0  0  0
  153.2846  138.3345  158.4285 C   0  0  0  0  0  0  0  0  0  0  0  0
  151.7293  140.2862  158.9936 N   0  3  2  0  0  0  0  0  0  0  0  0
  151.1412  140.8658  157.7508 C   0  0  0  0  0  0  0  0  0  0  0  0
  150.8467  142.3670  157.9111 C   0  0  0  0  0  0  0  0  0  0  0  0
  152.0967  143.1435  158.3415 C   0  0  0  0  0  0  0  0  0  0  0  0
  152.7274  142.5197  159.5972 C   0  0  1  0  0  0  0  0  0  0  0  0
  151.9218  142.7978  160.8785 C   0  0  0  0  0  0  0  0  0  0  0  0
  152.9734  141.0140  159.3782 C   0  0  0  0  0  0  0  0  0  0  0  0
  146.6095  136.4224  161.9998 N   0  0  0  0  0  0  0  0  0  0  0  0
  146.0661  135.1824  162.3566 O   0  0  0  0  0  0  0  0  0  0  0  0
  146.5671  132.2001  161.4175 H   0  0  0  0  0  0  0  0  0  0  0  0
  144.9973  132.6839  160.7728 H   0  0  0  0  0  0  0  0  0  0  0  0
  145.3119  132.7933  162.5059 H   0  0  0  0  0  0  0  0  0  0  0  0
  147.2132  134.5004  159.3567 H   0  0  0  0  0  0  0  0  0  0  0  0
  149.2064  138.9524  159.4648 H   0  0  0  0  0  0  0  0  0  0  0  0
  151.0334  137.1209  157.9434 H   0  0  0  0  0  0  0  0  0  0  0  0
  150.4868  138.6621  157.3630 H   0  0  0  0  0  0  0  0  0  0  0  0
  151.9148  138.4742  160.0505 H   0  0  0  0  0  0  0  0  0  0  0  0
  153.3974  137.2525  158.4899 H   0  0  0  0  0  0  0  0  0  0  0  0
  154.1299  138.7449  158.9806 H   0  0  0  0  0  0  0  0  0  0  0  0
  153.3882  138.6126  157.3791 H   0  0  0  0  0  0  0  0  0  0  0  0
  151.8190  140.6998  156.9119 H   0  0  0  0  0  0  0  0  0  0  0  0
  150.1949  140.3849  157.5060 H   0  0  0  0  0  0  0  0  0  0  0  0
  150.4679  142.7710  156.9716 H   0  0  0  0  0  0  0  0  0  0  0  0
  150.0513  142.5080  158.6436 H   0  0  0  0  0  0  0  0  0  0  0  0
  152.8233  143.1277  157.5278 H   0  0  0  0  0  0  0  0  0  0  0  0
  151.8529  144.1926  158.5133 H   0  0  0  0  0  0  0  0  0  0  0  0
  153.7004  142.9925  159.7377 H   0  0  0  0  0  0  0  0  0  0  0  0
  150.9329  142.3403  160.8469 H   0  0  0  0  0  0  0  0  0  0  0  0
  151.7872  143.8689  161.0318 H   0  0  0  0  0  0  0  0  0  0  0  0
  152.4367  142.4042  161.7554 H   0  0  0  0  0  0  0  0  0  0  0  0
  153.4115  140.5931  160.2821 H   0  0  0  0  0  0  0  0  0  0  0  0
  153.7169  140.8771  158.5911 H   0  0  0  0  0  0  0  0  0  0  0  0
  151.0508  140.4719  159.7186 H   0  0  0  0  0  0  0  0  0  0  0  0
  1  2  1  0  0  0  0
  1 21  1  0  0  0  0
  1 22  1  0  0  0  0
  1 23  1  0  0  0  0
  2 20  1  0  0  0  0
  2  3  2  0  0  0  0
  3  4  1  0  0  0  0
  3 24  1  0  0  0  0
  4  5  1  0  0  0  0
  4 19  2  0  0  0  0
  5  6  1  0  0  0  0
  6  7  2  0  0  0  0
  6  8  1  0  0  0  0
  8  9  1  0  0  0  0
  8 25  1  0  0  0  0
  9 10  1  0  0  0  0
  9 26  1  0  0  0  0
  9 27  1  0  0  0  0
 10 11  1  0  0  0  0
 10 12  1  0  0  0  0
 10 28  1  0  0  0  0
 11 29  1  0  0  0  0
 11 30  1  0  0  0  0
 11 31  1  0  0  0  0
 12 18  1  0  0  0  0
 12 13  1  0  0  0  0
 12 44  1  0  0  0  0
 13 14  1  0  0  0  0
 13 32  1  0  0  0  0
 13 33  1  0  0  0  0
 14 15  1  0  0  0  0
 14 34  1  0  0  0  0
 14 35  1  0  0  0  0
 15 16  1  0  0  0  0
 15 36  1  0  0  0  0
 15 37  1  0  0  0  0
 16 17  1  0  0  0  0
 16 18  1  0  0  0  0
 16 38  1  0  0  0  0
 17 39  1  0  0  0  0
 17 40  1  0  0  0  0
 17 41  1  0  0  0  0
 18 42  1  0  0  0  0
 18 43  1  0  0  0  0
 19 20  1  0  0  0  0
M  CHG  1   5  -1
M  CHG  1  12   1
M  END
> <s_m_source_file>
AV-unprocessed.smi

> <i_m_source_file_index>
2083

> <i_lp_mmshare_version>
43012

> <i_f3d_flags>
0

> <s_epik_input>
W0NIM11jMVtjSF1jKG5vMSlbTkhdQyg9TylbTkhdW0NIMl1bQ0BIXShbQ0gzXSlOMltDSDJdW0NIMl1bQ0gyXVtDQEBIXShbQ0gzXSlbQ0gyXTI=

> <s_epik_cmdline>
J2VwaWtfcHl0aG9uJywgJy1waCcsICc3LjAnLCAnLXRuJywgJzgnLCAnLW1hJywgJzIwMCcsICctbWV0YWxfYmluZGluZycsICctaW1hZScsICc8aW5maWxlLm1hZT4nLCAnLW9tYWUnLCAnPG91dGZpbGUubWFlPic=

> <r_epik_Ionization_Penalty>
6.22434

> <r_epik_Ionization_Penalty_Charging>
6.22425

> <r_epik_Ionization_Penalty_Neutral>
9.62407e-05

> <r_epik_State_Penalty>
6.22423

> <r_epik_Charging_Adjusted_Penalty>
12.4485

> <i_epik_Tot_Q>
0

> <i_epik_Tot_abs_Q>
2

> <r_epik_Metal_State_Penalty>
2.16764

> <b_epik_Metal_Only>
1

> <s_lp_Force_Field>
OPLS_2005

> <r_lp_Energy>
14.1674

> <b_lp_Chiralities_Consistent>
1

> <s_lp_Variant>
AV-unprocessed.smi:2083-12

> <Gold.Version>
5.8.1

> <Gold.Id.Protein>
6NUR|6NUR_protein|mol2

> <Gold.PLP.Fitness>
44.0426

> <Gold.PLP.PLP>
-33.8194

> <Gold.PLP.part.hbond>
-3.0000

> <Gold.PLP.part.metal>
0.0000

> <Gold.PLP.part.buried>
-6.1095

> <Gold.PLP.part.nonpolar>
-26.9560

> <Gold.PLP.part.repulsive>
1.3162

> <Gold.PLP.ligand.clash>
0.0000

> <Gold.PLP.ligand.torsion>
0.9671

> <Gold.PLP.Chemscore.Hbond>
3.9948

> <Gold.PLP.Chemscore.CHOScore>
0.0000

> <Gold.PLP.Chemscore.Metal>
0.0000

> <Gold.Chemscore.Hbonds>
donor molecule, donor type, donor heavy atom, donor atom, acceptor molecule, acceptor atom, score
      P1  H  6896  6907       L1     7  0.73
      P1  H  6931  6943       L1     5  0.03
      P1  H  6934  6947       L1     5  1.73

> <Gold.PLP.Chemscore.Internal.Correction>
0.1729

> <Gold.Rescore>
     Score         DG    S(hbond)    S(metal)    S(lipo)     H(rot)  DE(clash)    DE(int)     intcor
     15.21     -17.87       1.93        0.00      83.95       1.52       0.67       1.99       ----

> <Gold.Chemscore.Fitness>
15.2105

> <Gold.Chemscore.DG>
-17.8714

> <Gold.Chemscore.ZeroCoef>
-5.4800

> <Gold.Chemscore.Hbond>
1.9336

> <Gold.Chemscore.Metal>
0.0000

> <Gold.Chemscore.Lipo>
83.9465

> <Gold.Chemscore.Internal_Hbond>
0.0000

> <Gold.Chemscore.DEClash>
0.6678

> <Gold.Chemscore.DEInternal>
1.9930

> <Gold.Chemscore.Rot>
1.5190

> <Gold.Chemscore.Internal.Correction>
   9.000000E+99

> <Gold.Chemscore.Hbonds>
donor molecule, donor type, donor heavy atom, donor atom, acceptor molecule, acceptor atom, score
      P1  H  6896  6907       L1     7  0.72
      P1  H  6934  6947       L1     5  0.63

> <Gold.Chemscore.Hbond.Weighted>
-6.4583

> <Gold.Chemscore.Metal.Weighted>
-0.0000

> <Gold.Chemscore.Lipo.Weighted>
-9.8217

> <Gold.Chemscore.Internal_Hbond.Weighted>
0.0000

> <Gold.Chemscore.DEClash.Weighted>
0.6678

> <Gold.Chemscore.DEInternal.Weighted>
1.9930

> <Gold.Chemscore.Rot.Weighted>
3.8886

> <Gold.Chemscore.Internal.Correction.Weighted>
   9.000000E+99

> <Gold.Protein.RotatedTorsions>
[ 6907 6896 6895 6894 ] final  -53.23 input  -60.11 | X-H torsion
[ 7974 7965 7964 7962 ] final  148.73 input  175.53 | X-H torsion
[ 8008 7997 7996 7995 ] final   26.13 input   59.86 | X-H torsion
[ 10167 10162 10161 10158 ] final  137.57 input  -65.29 | X-H torsion
[ 10718 10713 10712 10709 ] final  165.94 input   66.30 | X-H torsion
[ 10763 10752 10751 10750 ] final -150.31 input  -60.55 | X-H torsion
[ 11005 11000 10999 10996 ] final  163.40 input  -57.11 | X-H torsion

> <Gold.Protein.ActiveResidues>
 VAL166  LYS551  ARG553  GLY616  TRP617  ASP618  TYR619  PRO620  LYS621  CYS622 
 ASP623  PHE694  ASN695  SER759  ASP760  ASP761  ALA762  ILE779  LEU786  VAL792 
 PHE793  MET794  SER795  GLU796  ALA797  LYS798  CYS799  TRP800  GLU811  SER814 

> <Gold.Protein.RotatedAtoms>
  150.8445  134.7749  159.6959 H   0  0  0  0  0  0  0  0  0  0  0  0  # atno 6907 bound_to 6896
  152.4525  134.5359  159.9834 H   0  0  0  0  0  0  0  0  0  0  0  0  # atno 6908 bound_to 6896
  151.5492  133.3382  159.2985 H   0  0  0  0  0  0  0  0  0  0  0  0  # atno 6909 bound_to 6896
  144.8491  139.6191  143.5982 H   0  0  0  0  0  0  0  0  0  0  0  0  # atno 7974 bound_to 7965
  155.0226  140.3149  155.4788 H   0  0  0  0  0  0  0  0  0  0  0  0  # atno 8008 bound_to 7997
  156.2889  140.2195  156.5286 H   0  0  0  0  0  0  0  0  0  0  0  0  # atno 8009 bound_to 7997
  154.7439  140.0471  157.0823 H   0  0  0  0  0  0  0  0  0  0  0  0  # atno 8010 bound_to 7997
  139.5140  144.6402  151.5589 H   0  0  0  0  0  0  0  0  0  0  0  0  # atno 10167 bound_to 10162
  157.0730  131.0371  151.2604 H   0  0  0  0  0  0  0  0  0  0  0  0  # atno 10718 bound_to 10713
  154.8126  135.3287  154.7263 H   0  0  0  0  0  0  0  0  0  0  0  0  # atno 10763 bound_to 10752
  153.7909  135.6911  153.4876 H   0  0  0  0  0  0  0  0  0  0  0  0  # atno 10764 bound_to 10752
  153.1917  135.4548  155.0104 H   0  0  0  0  0  0  0  0  0  0  0  0  # atno 10765 bound_to 10752
  140.2354  134.8092  157.3358 H   0  0  0  0  0  0  0  0  0  0  0  0  # atno 11005 bound_to 11000
  146.2770  139.6777  142.9256 LP  0  0  0  0  0  0  0  0  0  0  0  0  # atno 17320 bound_to 7965
  145.4536  141.0429  143.2790 LP  0  0  0  0  0  0  0  0  0  0  0  0  # atno 17321 bound_to 7965
  140.6166  143.9337  150.6493 LP  0  0  0  0  0  0  0  0  0  0  0  0  # atno 17342 bound_to 10162
  140.2597  143.3533  152.1334 LP  0  0  0  0  0  0  0  0  0  0  0  0  # atno 17343 bound_to 10162
  157.4862  130.7794  149.7462 LP  0  0  0  0  0  0  0  0  0  0  0  0  # atno 17370 bound_to 10713
  155.9945  130.3918  150.2857 LP  0  0  0  0  0  0  0  0  0  0  0  0  # atno 17371 bound_to 10713
  140.1708  134.4611  155.7833 LP  0  0  0  0  0  0  0  0  0  0  0  0  # atno 17394 bound_to 11000
  141.2215  133.6941  156.7704 LP  0  0  0  0  0  0  0  0  0  0  0  0  # atno 17395 bound_to 11000

$$$$
