AV-unprocessed.smi:2273|AV-procd|sdf|9165|dock1
  -GOLD-   2272012373D 1   1.00000     0.00000
 Structure written by MMmdl.
 53 54  0  0  0  0  0  0  0  0  1 V2000
  146.5628  142.8620  154.2326 C   0  0  0  0  0  0  0  0  0  0  0  0
  147.2319  141.5785  154.7476 C   0  0  0  0  0  0  0  0  0  0  0  0
  148.0852  140.8318  153.6910 C   0  0  0  0  0  0  0  0  0  0  0  0
  147.1908  140.0792  152.6741 C   0  0  0  0  0  0  0  0  0  0  0  0
  146.3192  138.9720  153.2867 C   0  0  0  0  0  0  0  0  0  0  0  0
  149.1232  139.8800  154.3420 C   0  0  1  0  0  0  0  0  0  0  0  0
  150.1087  140.5734  155.3065 C   0  0  0  0  0  0  0  0  0  0  0  0
  151.1081  139.5518  155.8776 C   0  0  1  0  0  0  0  0  0  0  0  0
  151.9734  140.1671  156.8860 N   0  0  0  0  0  0  0  0  0  0  0  0
  151.6135  140.8724  157.9739 C   0  0  0  0  0  0  0  0  0  0  0  0
  150.4319  141.1025  158.2269 O   0  0  0  0  0  0  0  0  0  0  0  0
  152.6477  141.3140  158.7183 N   0  0  0  0  0  0  0  0  0  0  0  0
  152.5642  142.1163  159.8662 C   0  0  0  0  0  0  0  0  0  0  0  0
  151.9937  143.3460  159.7686 C   0  0  0  0  0  0  0  0  0  0  0  0
  151.4102  143.8569  158.4607 C   0  0  0  0  0  0  0  0  0  0  0  0
  151.9195  144.1829  160.9480 C   0  0  0  0  0  0  0  0  0  0  0  0
  152.4213  143.7350  162.1066 C   0  0  0  0  0  0  0  0  0  0  0  0
  153.0343  142.4779  162.2068 N   0  0  0  0  0  0  0  0  0  0  0  0
  153.5694  142.0869  163.5135 C   0  0  0  0  0  0  0  0  0  0  0  0
  153.1714  141.6458  161.1347 C   0  0  0  0  0  0  0  0  0  0  0  0
  153.7848  140.5809  161.2364 O   0  0  0  0  0  0  0  0  0  0  0  0
  150.3263  138.3874  156.5032 C   0  0  0  0  0  0  0  0  0  0  0  0
  149.3190  137.8064  155.4977 C   0  0  0  0  0  0  0  0  0  0  0  0
  148.4458  138.8286  155.0276 O   0  0  0  0  0  0  0  0  0  0  0  0
  146.0712  143.3903  155.0497 H   0  0  0  0  0  0  0  0  0  0  0  0
  145.8019  142.6573  153.4808 H   0  0  0  0  0  0  0  0  0  0  0  0
  147.2958  143.5405  153.7956 H   0  0  0  0  0  0  0  0  0  0  0  0
  147.8517  141.8684  155.5934 H   0  0  0  0  0  0  0  0  0  0  0  0
  146.4732  140.9087  155.1540 H   0  0  0  0  0  0  0  0  0  0  0  0
  148.6444  141.5858  153.1352 H   0  0  0  0  0  0  0  0  0  0  0  0
  146.5594  140.7877  152.1369 H   0  0  0  0  0  0  0  0  0  0  0  0
  147.8108  139.6049  151.9154 H   0  0  0  0  0  0  0  0  0  0  0  0
  145.7996  138.4188  152.5040 H   0  0  0  0  0  0  0  0  0  0  0  0
  145.5577  139.3693  153.9565 H   0  0  0  0  0  0  0  0  0  0  0  0
  146.9243  138.2588  153.8467 H   0  0  0  0  0  0  0  0  0  0  0  0
  149.7248  139.4363  153.5494 H   0  0  0  0  0  0  0  0  0  0  0  0
  150.6346  141.3711  154.7829 H   0  0  0  0  0  0  0  0  0  0  0  0
  149.5770  141.0430  156.1329 H   0  0  0  0  0  0  0  0  0  0  0  0
  151.7186  139.1486  155.0675 H   0  0  0  0  0  0  0  0  0  0  0  0
  152.9657  140.0530  156.7369 H   0  0  0  0  0  0  0  0  0  0  0  0
  153.5759  141.1674  158.3502 H   0  0  0  0  0  0  0  0  0  0  0  0
  150.9752  144.8491  158.5828 H   0  0  0  0  0  0  0  0  0  0  0  0
  150.6253  143.1892  158.1045 H   0  0  0  0  0  0  0  0  0  0  0  0
  152.1852  143.9225  157.6965 H   0  0  0  0  0  0  0  0  0  0  0  0
  151.4576  145.1583  160.9020 H   0  0  0  0  0  0  0  0  0  0  0  0
  152.3926  144.3124  163.0191 H   0  0  0  0  0  0  0  0  0  0  0  0
  153.1850  141.1105  163.8128 H   0  0  0  0  0  0  0  0  0  0  0  0
  153.3057  142.7908  164.3037 H   0  0  0  0  0  0  0  0  0  0  0  0
  154.6580  142.0272  163.4759 H   0  0  0  0  0  0  0  0  0  0  0  0
  151.0109  137.6069  156.8374 H   0  0  0  0  0  0  0  0  0  0  0  0
  149.7895  138.7327  157.3880 H   0  0  0  0  0  0  0  0  0  0  0  0
  149.8346  137.3406  154.6565 H   0  0  0  0  0  0  0  0  0  0  0  0
  148.7228  137.0275  155.9733 H   0  0  0  0  0  0  0  0  0  0  0  0
  1  2  1  0  0  0  0
  1 25  1  0  0  0  0
  1 26  1  0  0  0  0
  1 27  1  0  0  0  0
  2  3  1  0  0  0  0
  2 28  1  0  0  0  0
  2 29  1  0  0  0  0
  3  4  1  0  0  0  0
  3  6  1  0  0  0  0
  3 30  1  0  0  0  0
  4  5  1  0  0  0  0
  4 31  1  0  0  0  0
  4 32  1  0  0  0  0
  5 33  1  0  0  0  0
  5 34  1  0  0  0  0
  5 35  1  0  0  0  0
  6 24  1  0  0  0  0
  6  7  1  0  0  0  0
  6 36  1  0  0  0  0
  7  8  1  0  0  0  0
  7 37  1  0  0  0  0
  7 38  1  0  0  0  0
  8  9  1  0  0  0  0
  8 22  1  0  0  0  0
  8 39  1  0  0  0  0
  9 10  1  0  0  0  0
  9 40  1  0  0  0  0
 10 11  2  0  0  0  0
 10 12  1  0  0  0  0
 12 13  1  0  0  0  0
 12 41  1  0  0  0  0
 13 20  1  0  0  0  0
 13 14  2  0  0  0  0
 14 15  1  0  0  0  0
 14 16  1  0  0  0  0
 15 42  1  0  0  0  0
 15 43  1  0  0  0  0
 15 44  1  0  0  0  0
 16 17  2  0  0  0  0
 16 45  1  0  0  0  0
 17 18  1  0  0  0  0
 17 46  1  0  0  0  0
 18 19  1  0  0  0  0
 18 20  1  0  0  0  0
 19 47  1  0  0  0  0
 19 48  1  0  0  0  0
 19 49  1  0  0  0  0
 20 21  2  0  0  0  0
 22 23  1  0  0  0  0
 22 50  1  0  0  0  0
 22 51  1  0  0  0  0
 23 24  1  0  0  0  0
 23 52  1  0  0  0  0
 23 53  1  0  0  0  0
M  END
> <s_m_source_file>
AV-unprocessed.smi

> <i_m_source_file_index>
2273

> <i_lp_mmshare_version>
43012

> <i_f3d_flags>
0

> <s_epik_input>
W0NIM11bQ0gyXVtDSF0oW0NIMl1bQ0gzXSlbQ0BASF0xW0NIMl1bQ0BIXShbQ0gyXVtDSDJdTzEpW05IXUMoPU8pW05IXWMyYyhbQ0gzXSlbY0hdW2NIXW4oW0NIM10pYzI9Tw==

> <s_epik_cmdline>
J2VwaWtfcHl0aG9uJywgJy1waCcsICc3LjAnLCAnLXRuJywgJzgnLCAnLW1hJywgJzIwMCcsICctbWV0YWxfYmluZGluZycsICctaW1hZScsICc8aW5maWxlLm1hZT4nLCAnLW9tYWUnLCAnPG91dGZpbGUubWFlPic=

> <r_lp_tautomer_probability>
1

> <r_epik_Ionization_Penalty>
2.66245e-05

> <r_epik_Ionization_Penalty_Charging>
6.91055e-06

> <r_epik_Ionization_Penalty_Neutral>
1.97139e-05

> <r_epik_State_Penalty>
-0

> <r_epik_Charging_Adjusted_Penalty>
6.91055e-06

> <i_epik_Tot_Q>
0

> <i_epik_Tot_abs_Q>
0

> <r_epik_Metal_State_Penalty>
-0

> <b_epik_Metal_Only>
0

> <s_lp_Force_Field>
OPLS_2005

> <r_lp_Energy>
39.8716

> <b_lp_Chiralities_Consistent>
1

> <s_lp_Variant>
AV-unprocessed.smi:2273-2

> <Gold.Version>
5.8.1

> <Gold.Id.Protein>
6NUR|6NUR_protein|mol2

> <Gold.PLP.Fitness>
50.0969

> <Gold.PLP.PLP>
-50.7570

> <Gold.PLP.part.hbond>
0.0000

> <Gold.PLP.part.metal>
0.0000

> <Gold.PLP.part.buried>
-2.7864

> <Gold.PLP.part.nonpolar>
-47.6817

> <Gold.PLP.part.repulsive>
0.3194

> <Gold.PLP.ligand.clash>
0.0000

> <Gold.PLP.ligand.torsion>
0.7714

> <Gold.PLP.Chemscore.Hbond>
0.0000

> <Gold.PLP.Chemscore.CHOScore>
0.0000

> <Gold.PLP.Chemscore.Metal>
0.0000

> <Gold.PLP.Chemscore.Internal.Correction>
0.8827

> <Gold.Rescore>
     Score         DG    S(hbond)    S(metal)    S(lipo)     H(rot)  DE(clash)    DE(int)     intcor
     14.41     -16.32       0.00        0.00     123.83       1.42       0.27       1.65       ----

> <Gold.Chemscore.Fitness>
14.4058

> <Gold.Chemscore.DG>
-16.3238

> <Gold.Chemscore.ZeroCoef>
-5.4800

> <Gold.Chemscore.Hbond>
0.0000

> <Gold.Chemscore.Metal>
0.0000

> <Gold.Chemscore.Lipo>
123.8319

> <Gold.Chemscore.Internal_Hbond>
0.0000

> <Gold.Chemscore.DEClash>
0.2676

> <Gold.Chemscore.DEInternal>
1.6504

> <Gold.Chemscore.Rot>
1.4236

> <Gold.Chemscore.Internal.Correction>
   9.000000E+99

> <Gold.Chemscore.Hbond.Weighted>
-0.0000

> <Gold.Chemscore.Metal.Weighted>
-0.0000

> <Gold.Chemscore.Lipo.Weighted>
-14.4883

> <Gold.Chemscore.Internal_Hbond.Weighted>
0.0000

> <Gold.Chemscore.DEClash.Weighted>
0.2676

> <Gold.Chemscore.DEInternal.Weighted>
1.6504

> <Gold.Chemscore.Rot.Weighted>
3.6445

> <Gold.Chemscore.Internal.Correction.Weighted>
   9.000000E+99

> <Gold.Protein.RotatedTorsions>
[ 6907 6896 6895 6894 ] final  -38.38 input  -60.11 | X-H torsion
[ 7974 7965 7964 7962 ] final  108.87 input  175.53 | X-H torsion
[ 8008 7997 7996 7995 ] final  -50.47 input   59.86 | X-H torsion
[ 10167 10162 10161 10158 ] final  151.14 input  -65.29 | X-H torsion
[ 10718 10713 10712 10709 ] final  151.46 input   66.30 | X-H torsion
[ 10763 10752 10751 10750 ] final  -68.41 input  -60.55 | X-H torsion
[ 11005 11000 10999 10996 ] final -142.32 input  -57.11 | X-H torsion

> <Gold.Protein.ActiveResidues>
 VAL166  LYS551  ARG553  GLY616  TRP617  ASP618  TYR619  PRO620  LYS621  CYS622 
 ASP623  PHE694  ASN695  SER759  ASP760  ASP761  ALA762  ILE779  LEU786  VAL792 
 PHE793  MET794  SER795  GLU796  ALA797  LYS798  CYS799  TRP800  GLU811  SER814 

> <Gold.Protein.RotatedAtoms>
  151.0031  134.9338  159.7964 H   0  0  0  0  0  0  0  0  0  0  0  0  # atno 6907 bound_to 6896
  152.5283  134.3128  159.9129 H   0  0  0  0  0  0  0  0  0  0  0  0  # atno 6908 bound_to 6896
  151.3133  133.4029  159.2683 H   0  0  0  0  0  0  0  0  0  0  0  0  # atno 6909 bound_to 6896
  145.2751  139.2652  143.3945 H   0  0  0  0  0  0  0  0  0  0  0  0  # atno 7974 bound_to 7965
  154.4063  140.1271  156.4672 H   0  0  0  0  0  0  0  0  0  0  0  0  # atno 8008 bound_to 7997
  155.7215  140.3492  155.4998 H   0  0  0  0  0  0  0  0  0  0  0  0  # atno 8009 bound_to 7997
  155.9210  140.1052  157.1197 H   0  0  0  0  0  0  0  0  0  0  0  0  # atno 8010 bound_to 7997
  139.4843  144.5465  151.7475 H   0  0  0  0  0  0  0  0  0  0  0  0  # atno 10167 bound_to 10162
  157.2704  131.0816  151.1603 H   0  0  0  0  0  0  0  0  0  0  0  0  # atno 10718 bound_to 10713
  154.3886  135.6058  153.5830 H   0  0  0  0  0  0  0  0  0  0  0  0  # atno 10763 bound_to 10752
  152.9787  135.5878  154.4325 H   0  0  0  0  0  0  0  0  0  0  0  0  # atno 10764 bound_to 10752
  154.4106  135.2844  155.2017 H   0  0  0  0  0  0  0  0  0  0  0  0  # atno 10765 bound_to 10752
  140.8237  134.2601  157.4889 H   0  0  0  0  0  0  0  0  0  0  0  0  # atno 11005 bound_to 11000
  146.3234  140.3204  142.8633 LP  0  0  0  0  0  0  0  0  0  0  0  0  # atno 17320 bound_to 7965
  144.9301  140.7966  143.5694 LP  0  0  0  0  0  0  0  0  0  0  0  0  # atno 17321 bound_to 7965
  140.5012  144.1166  150.5971 LP  0  0  0  0  0  0  0  0  0  0  0  0  # atno 17342 bound_to 10162
  140.4060  143.2680  151.9891 LP  0  0  0  0  0  0  0  0  0  0  0  0  # atno 17343 bound_to 10162
  157.3077  130.6874  149.6198 LP  0  0  0  0  0  0  0  0  0  0  0  0  # atno 17370 bound_to 10713
  155.9663  130.4373  150.5169 LP  0  0  0  0  0  0  0  0  0  0  0  0  # atno 17371 bound_to 10713
  139.8707  134.9549  156.4189 LP  0  0  0  0  0  0  0  0  0  0  0  0  # atno 17394 bound_to 11000
  140.9072  133.7737  155.9749 LP  0  0  0  0  0  0  0  0  0  0  0  0  # atno 17395 bound_to 11000

$$$$
