AV-unprocessed.smi:17|AV-procd|sdf|103|dock7
  -GOLD-   2262015253D 1   1.00000     0.00000
 Structure written by MMmdl.
 57 59  0  0  0  0  0  0  0  0  1 V2000
  142.4248  134.2635  160.2856 C   0  0  0  0  0  0  0  0  0  0  0  0
  142.9149  134.6482  158.8805 C   0  0  0  0  0  0  0  0  0  0  0  0
  144.3418  134.3836  158.6734 N   0  0  0  0  0  0  0  0  0  0  0  0
  144.8443  134.5427  157.4180 C   0  0  0  0  0  0  0  0  0  0  0  0
  146.1892  134.4680  157.2300 N   0  0  0  0  0  0  0  0  0  0  0  0
  146.7166  134.6269  156.0135 C   0  0  0  0  0  0  0  0  0  0  0  0
  146.0926  134.8645  154.8597 N   0  0  0  0  0  0  0  0  0  0  0  0
  144.7430  134.9384  155.0352 C   0  0  0  0  0  0  0  0  0  0  0  0
  144.0410  134.7955  156.2669 C   0  0  0  0  0  0  0  0  0  0  0  0
  142.6748  134.9249  156.0411 N   0  0  0  0  0  0  0  0  0  0  0  0
  142.5756  135.1312  154.7568 C   0  0  0  0  0  0  0  0  0  0  0  0
  143.7692  135.1478  154.0744 N   0  0  0  0  0  0  0  0  0  0  0  0
  143.9446  135.3471  152.6461 C   0  0  0  0  0  0  0  0  0  0  0  0
  145.2321  134.6826  152.0890 C   0  0  2  0  0  0  0  0  0  0  0  0
  145.6770  135.3376  150.7556 C   0  0  0  0  0  0  0  0  0  0  0  0
  144.6384  135.3163  149.7982 O   0  0  0  0  0  0  0  0  0  0  0  0
  145.0805  133.1331  151.9980 C   0  0  2  0  0  0  0  0  0  0  0  0
  146.2673  132.4364  151.3382 C   0  0  0  0  0  0  0  0  0  0  0  0
  145.9394  132.4877  149.8438 C   0  0  0  0  0  0  0  0  0  0  0  0
  144.5401  132.7340  149.7567 O   0  0  0  0  0  0  0  0  0  0  0  0
  143.9748  132.6402  151.0553 C   0  0  0  0  0  0  0  0  0  0  0  0
  145.2689  134.3267  159.8131 C   0  0  1  0  0  0  0  0  0  0  0  0
  146.0813  133.0205  159.8209 C   0  0  0  0  0  0  0  0  0  0  0  0
  146.1866  135.5657  159.8957 C   0  0  0  0  0  0  0  0  0  0  0  0
  146.5647  136.0791  161.6345 S   0  0  0  0  0  0  0  0  0  0  0  0
  147.4665  134.6208  162.3030 C   0  0  0  0  0  0  0  0  0  0  0  0
  147.4917  137.2212  161.6149 O   0  0  0  0  0  0  0  0  0  0  0  0
  145.2912  136.1832  162.3625 O   0  0  0  0  0  0  0  0  0  0  0  0
  141.3529  134.4376  160.3782 H   0  0  0  0  0  0  0  0  0  0  0  0
  142.9192  134.8520  161.0586 H   0  0  0  0  0  0  0  0  0  0  0  0
  142.6074  133.2105  160.4991 H   0  0  0  0  0  0  0  0  0  0  0  0
  142.3359  134.0830  158.1516 H   0  0  0  0  0  0  0  0  0  0  0  0
  142.6889  135.6932  158.6771 H   0  0  0  0  0  0  0  0  0  0  0  0
  147.7925  134.5514  155.9560 H   0  0  0  0  0  0  0  0  0  0  0  0
  141.6229  135.2707  154.2667 H   0  0  0  0  0  0  0  0  0  0  0  0
  143.0526  134.9565  152.1601 H   0  0  0  0  0  0  0  0  0  0  0  0
  143.9547  136.4182  152.4411 H   0  0  0  0  0  0  0  0  0  0  0  0
  146.0298  134.8892  152.8040 H   0  0  0  0  0  0  0  0  0  0  0  0
  145.9878  136.3708  150.9068 H   0  0  0  0  0  0  0  0  0  0  0  0
  146.5524  134.8410  150.3408 H   0  0  0  0  0  0  0  0  0  0  0  0
  145.0201  135.4083  148.9385 H   0  0  0  0  0  0  0  0  0  0  0  0
  144.9151  132.7378  153.0012 H   0  0  0  0  0  0  0  0  0  0  0  0
  147.2426  132.8636  151.5636 H   0  0  0  0  0  0  0  0  0  0  0  0
  146.2956  131.3948  151.6622 H   0  0  0  0  0  0  0  0  0  0  0  0
  146.4713  133.3017  149.3508 H   0  0  0  0  0  0  0  0  0  0  0  0
  146.2037  131.5564  149.3426 H   0  0  0  0  0  0  0  0  0  0  0  0
  143.7571  131.5904  151.2585 H   0  0  0  0  0  0  0  0  0  0  0  0
  143.0292  133.1732  151.1287 H   0  0  0  0  0  0  0  0  0  0  0  0
  144.6936  134.3302  160.7389 H   0  0  0  0  0  0  0  0  0  0  0  0
  146.6910  132.9456  160.7216 H   0  0  0  0  0  0  0  0  0  0  0  0
  146.7523  132.9588  158.9640 H   0  0  0  0  0  0  0  0  0  0  0  0
  145.4269  132.1487  159.7972 H   0  0  0  0  0  0  0  0  0  0  0  0
  147.1454  135.3223  159.4376 H   0  0  0  0  0  0  0  0  0  0  0  0
  145.7940  136.4231  159.3507 H   0  0  0  0  0  0  0  0  0  0  0  0
  147.6375  134.7630  163.3696 H   0  0  0  0  0  0  0  0  0  0  0  0
  148.4272  134.5162  161.8047 H   0  0  0  0  0  0  0  0  0  0  0  0
  146.8738  133.7193  162.1504 H   0  0  0  0  0  0  0  0  0  0  0  0
  1  2  1  0  0  0  0
  1 29  1  0  0  0  0
  1 30  1  0  0  0  0
  1 31  1  0  0  0  0
  2  3  1  0  0  0  0
  2 32  1  0  0  0  0
  2 33  1  0  0  0  0
  3  4  1  0  0  0  0
  3 22  1  0  0  0  0
  4  9  1  0  0  0  0
  4  5  2  0  0  0  0
  5  6  1  0  0  0  0
  6  7  2  0  0  0  0
  6 34  1  0  0  0  0
  7  8  1  0  0  0  0
  8 12  1  0  0  0  0
  8  9  2  0  0  0  0
  9 10  1  0  0  0  0
 10 11  2  0  0  0  0
 11 12  1  0  0  0  0
 11 35  1  0  0  0  0
 12 13  1  0  0  0  0
 13 14  1  0  0  0  0
 13 36  1  0  0  0  0
 13 37  1  0  0  0  0
 14 15  1  0  0  0  0
 14 17  1  0  0  0  0
 14 38  1  0  0  0  0
 15 16  1  0  0  0  0
 15 39  1  0  0  0  0
 15 40  1  0  0  0  0
 16 41  1  0  0  0  0
 17 21  1  0  0  0  0
 17 18  1  0  0  0  0
 17 42  1  0  0  0  0
 18 19  1  0  0  0  0
 18 43  1  0  0  0  0
 18 44  1  0  0  0  0
 19 20  1  0  0  0  0
 19 45  1  0  0  0  0
 19 46  1  0  0  0  0
 20 21  1  0  0  0  0
 21 47  1  0  0  0  0
 21 48  1  0  0  0  0
 22 23  1  0  0  0  0
 22 24  1  0  0  0  0
 22 49  1  0  0  0  0
 23 50  1  0  0  0  0
 23 51  1  0  0  0  0
 23 52  1  0  0  0  0
 24 25  1  0  0  0  0
 24 53  1  0  0  0  0
 24 54  1  0  0  0  0
 25 26  1  0  0  0  0
 25 27  2  0  0  0  0
 25 28  2  0  0  0  0
 26 55  1  0  0  0  0
 26 56  1  0  0  0  0
 26 57  1  0  0  0  0
M  END
> <s_m_source_file>
AV-unprocessed.smi

> <i_m_source_file_index>
17

> <i_lp_mmshare_version>
43012

> <i_f3d_flags>
0

> <s_epik_input>
W0NIM11TKD1PKSg9TylbQ0gyXVtDQEBIXShbQ0gzXSlOKFtDSDJdW0NIM10pYyhuW2NIXW4xKWMoYzEyKW5bY0hdbjJbQ0gyXVtDQEhdKFtDSDJdW09IXSlbQ0BASF0zW0NIMl1bQ0gyXU9bQ0gyXTM=

> <s_epik_cmdline>
J2VwaWtfcHl0aG9uJywgJy1waCcsICc3LjAnLCAnLXRuJywgJzgnLCAnLW1hJywgJzIwMCcsICctbWV0YWxfYmluZGluZycsICctaW1hZScsICc8aW5maWxlLm1hZT4nLCAnLW9tYWUnLCAnPG91dGZpbGUubWFlPic=

> <r_lp_tautomer_probability>
1

> <r_epik_Ionization_Penalty>
0.00119955

> <r_epik_Ionization_Penalty_Charging>
0

> <r_epik_Ionization_Penalty_Neutral>
0.00119955

> <r_epik_State_Penalty>
0.000665399

> <r_epik_Charging_Adjusted_Penalty>
0.000665399

> <i_epik_Tot_Q>
0

> <i_epik_Tot_abs_Q>
0

> <r_epik_Metal_State_Penalty>
-0

> <b_epik_Metal_Only>
0

> <s_lp_Force_Field>
OPLS_2005

> <r_lp_Energy>
34.7732

> <b_lp_Chiralities_Consistent>
1

> <s_lp_Variant>
AV-unprocessed.smi:17-5

> <Gold.Version>
5.8.1

> <Gold.Id.Protein>
6NUR|6NUR_protein|mol2

> <Gold.PLP.Fitness>
38.3880

> <Gold.PLP.PLP>
-31.0918

> <Gold.PLP.part.hbond>
-4.0000

> <Gold.PLP.part.metal>
0.0000

> <Gold.PLP.part.buried>
-5.1702

> <Gold.PLP.part.nonpolar>
-22.1005

> <Gold.PLP.part.repulsive>
0.3315

> <Gold.PLP.ligand.clash>
0.0000

> <Gold.PLP.ligand.torsion>
1.4588

> <Gold.PLP.Chemscore.Hbond>
2.8666

> <Gold.PLP.Chemscore.CHOScore>
0.0000

> <Gold.PLP.Chemscore.Metal>
0.0000

> <Gold.Chemscore.Hbonds>
donor molecule, donor type, donor heavy atom, donor atom, acceptor molecule, acceptor atom, score
      L1  H    16    41       P1  7921  1.00
      P1  H  6931  6943       L1    27  0.93
      P1  H  6934  6947       L1    27  0.82
      P1  H 11000 11005       L1    10  0.27

> <Gold.PLP.Chemscore.Internal.Correction>
1.6140

> <Gold.Rescore>
     Score         DG    S(hbond)    S(metal)    S(lipo)     H(rot)  DE(clash)    DE(int)     intcor
      5.66     -14.03       2.90        0.00      67.05       3.51       0.04       8.32       ----

> <Gold.Chemscore.Fitness>
5.6599

> <Gold.Chemscore.DG>
-14.0285

> <Gold.Chemscore.ZeroCoef>
-5.4800

> <Gold.Chemscore.Hbond>
2.8979

> <Gold.Chemscore.Metal>
0.0000

> <Gold.Chemscore.Lipo>
67.0477

> <Gold.Chemscore.Internal_Hbond>
0.0000

> <Gold.Chemscore.DEClash>
0.0437

> <Gold.Chemscore.DEInternal>
8.3249

> <Gold.Chemscore.Rot>
3.5059

> <Gold.Chemscore.Internal.Correction>
   9.000000E+99

> <Gold.Chemscore.Hbonds>
donor molecule, donor type, donor heavy atom, donor atom, acceptor molecule, acceptor atom, score
      L1  H    16    41       P1  7921  0.95
      P1  H  6931  6943       L1    27  0.91
      P1  H  6934  6947       L1    27  0.81
      P1  H 11000 11005       L1    10  0.09

> <Gold.Chemscore.Hbond.Weighted>
-9.6789

> <Gold.Chemscore.Metal.Weighted>
-0.0000

> <Gold.Chemscore.Lipo.Weighted>
-7.8446

> <Gold.Chemscore.Internal_Hbond.Weighted>
0.0000

> <Gold.Chemscore.DEClash.Weighted>
0.0437

> <Gold.Chemscore.DEInternal.Weighted>
8.3249

> <Gold.Chemscore.Rot.Weighted>
8.9750

> <Gold.Chemscore.Internal.Correction.Weighted>
   9.000000E+99

> <Gold.Protein.RotatedTorsions>
[ 6907 6896 6895 6894 ] final   41.13 input  -60.11 | X-H torsion
[ 7974 7965 7964 7962 ] final   76.99 input  175.53 | X-H torsion
[ 8008 7997 7996 7995 ] final  -14.87 input   59.86 | X-H torsion
[ 10167 10162 10161 10158 ] final  117.06 input  -65.29 | X-H torsion
[ 10718 10713 10712 10709 ] final -101.23 input   66.30 | X-H torsion
[ 10763 10752 10751 10750 ] final  -89.06 input  -60.55 | X-H torsion
[ 11005 11000 10999 10996 ] final  -52.80 input  -57.11 | X-H torsion

> <Gold.Protein.ActiveResidues>
 VAL166  LYS551  ARG553  GLY616  TRP617  ASP618  TYR619  PRO620  LYS621  CYS622 
 ASP623  PHE694  ASN695  SER759  ASP760  ASP761  ALA762  ILE779  LEU786  VAL792 
 PHE793  MET794  SER795  GLU796  ALA797  LYS798  CYS799  TRP800  GLU811  SER814 

> <Gold.Protein.RotatedAtoms>
  152.1913  134.8669  160.0517 H   0  0  0  0  0  0  0  0  0  0  0  0  # atno 6907 bound_to 6896
  151.9557  133.3674  159.4025 H   0  0  0  0  0  0  0  0  0  0  0  0  # atno 6908 bound_to 6896
  150.6936  134.4217  159.5252 H   0  0  0  0  0  0  0  0  0  0  0  0  # atno 6909 bound_to 6896
  145.6958  139.2567  143.1733 H   0  0  0  0  0  0  0  0  0  0  0  0  # atno 7974 bound_to 7965
  154.5175  140.2211  155.9038 H   0  0  0  0  0  0  0  0  0  0  0  0  # atno 8008 bound_to 7997
  156.1624  140.3139  155.8796 H   0  0  0  0  0  0  0  0  0  0  0  0  # atno 8009 bound_to 7997
  155.3724  140.0467  157.3036 H   0  0  0  0  0  0  0  0  0  0  0  0  # atno 8010 bound_to 7997
  139.6204  144.7100  151.2647 H   0  0  0  0  0  0  0  0  0  0  0  0  # atno 10167 bound_to 10162
  156.0188  130.5364  150.6933 H   0  0  0  0  0  0  0  0  0  0  0  0  # atno 10718 bound_to 10713
  154.6513  135.5354  153.7905 H   0  0  0  0  0  0  0  0  0  0  0  0  # atno 10763 bound_to 10752
  153.0388  135.6483  154.1013 H   0  0  0  0  0  0  0  0  0  0  0  0  # atno 10764 bound_to 10752
  154.0930  135.2938  155.3247 H   0  0  0  0  0  0  0  0  0  0  0  0  # atno 10765 bound_to 10752
  141.0943  133.6627  156.4077 H   0  0  0  0  0  0  0  0  0  0  0  0  # atno 11005 bound_to 11000
  146.0842  140.7730  142.9627 LP  0  0  0  0  0  0  0  0  0  0  0  0  # atno 17320 bound_to 7965
  144.6983  140.3535  143.7177 LP  0  0  0  0  0  0  0  0  0  0  0  0  # atno 17321 bound_to 7965
  140.7378  143.6666  150.8117 LP  0  0  0  0  0  0  0  0  0  0  0  0  # atno 17342 bound_to 10162
  140.0276  143.5477  152.2774 LP  0  0  0  0  0  0  0  0  0  0  0  0  # atno 17343 bound_to 10162
  157.4609  131.0883  151.0746 LP  0  0  0  0  0  0  0  0  0  0  0  0  # atno 17370 bound_to 10713
  157.1234  130.6071  149.5511 LP  0  0  0  0  0  0  0  0  0  0  0  0  # atno 17371 bound_to 10713
  140.5178  134.6333  157.5307 LP  0  0  0  0  0  0  0  0  0  0  0  0  # atno 17394 bound_to 11000
  139.9776  134.7190  155.9921 LP  0  0  0  0  0  0  0  0  0  0  0  0  # atno 17395 bound_to 11000

$$$$
