AV-unprocessed.smi:1554|AV-procd|sdf|6254|dock10
  -GOLD-   22720 6443D 1   1.00000     0.00000
 Structure written by MMmdl.
 48 50  0  0  0  0  0  0  0  0  2 V2000
  151.8446  144.7122  160.9884 C   0  0  0  0  0  0  0  0  0  0  0  0
  151.7933  143.6208  159.9327 C   0  0  0  0  0  0  0  0  0  0  0  0
  151.0063  143.8354  158.7788 C   0  0  0  0  0  0  0  0  0  0  0  0
  150.9786  142.8187  157.8317 C   0  0  0  0  0  0  0  0  0  0  0  0
  150.3093  142.7267  156.6096 N   0  3  0  0  0  0  0  0  0  0  0  0
  150.5871  141.5271  156.0285 C   0  0  0  0  0  0  0  0  0  0  0  0
  151.4241  140.8511  156.8613 N   0  0  0  0  0  0  0  0  0  0  0  0
  152.0159  139.5143  156.7075 C   0  0  0  0  0  0  0  0  0  0  0  0
  151.2167  138.6165  155.7403 C   0  0  2  0  0  0  0  0  0  0  0  0
  151.3588  139.0977  154.4191 O   0  0  0  0  0  0  0  0  0  0  0  0
  149.7102  138.5846  156.0661 C   0  0  0  0  0  0  0  0  0  0  0  0
  149.2705  137.4756  156.9133 N   0  0  0  0  0  0  0  0  0  0  0  0
  149.7241  137.6087  158.2959 C   0  0  0  0  0  0  0  0  0  0  0  0
  149.2810  136.4176  159.1624 C   0  0  0  0  0  0  0  0  0  0  0  0
  149.7486  135.2035  158.5848 O   0  0  0  0  0  0  0  0  0  0  0  0
  149.2867  135.0088  157.2511 C   0  0  2  0  0  0  0  0  0  0  0  0
  149.8420  133.6758  156.7389 C   0  0  0  0  0  0  0  0  0  0  0  0
  149.7400  136.1993  156.3841 C   0  0  0  0  0  0  0  0  0  0  0  0
  151.6985  141.6195  157.9994 C   0  0  0  0  0  0  0  0  0  0  0  0
  152.4792  141.3929  159.1308 C   0  0  0  0  0  0  0  0  0  0  0  0
  152.5216  142.4154  160.1054 C   0  0  0  0  0  0  0  0  0  0  0  0
  153.3660  142.1957  161.3491 C   0  0  0  0  0  0  0  0  0  0  0  0
  151.1912  145.5467  160.7318 H   0  0  0  0  0  0  0  0  0  0  0  0
  152.8586  145.1003  161.0869 H   0  0  0  0  0  0  0  0  0  0  0  0
  151.5248  144.3267  161.9567 H   0  0  0  0  0  0  0  0  0  0  0  0
  150.4492  144.7505  158.6405 H   0  0  0  0  0  0  0  0  0  0  0  0
  150.2105  141.1743  155.0790 H   0  0  0  0  0  0  0  0  0  0  0  0
  153.0278  139.6605  156.3275 H   0  0  0  0  0  0  0  0  0  0  0  0
  152.1247  139.0492  157.6874 H   0  0  0  0  0  0  0  0  0  0  0  0
  151.6293  137.6081  155.7517 H   0  0  0  0  0  0  0  0  0  0  0  0
  151.2201  138.3792  153.8215 H   0  0  0  0  0  0  0  0  0  0  0  0
  149.4545  139.5262  156.5546 H   0  0  0  0  0  0  0  0  0  0  0  0
  149.1404  138.5704  155.1353 H   0  0  0  0  0  0  0  0  0  0  0  0
  150.8118  137.6896  158.3230 H   0  0  0  0  0  0  0  0  0  0  0  0
  149.3307  138.5226  158.7392 H   0  0  0  0  0  0  0  0  0  0  0  0
  149.6851  136.5107  160.1706 H   0  0  0  0  0  0  0  0  0  0  0  0
  148.1941  136.3902  159.2538 H   0  0  0  0  0  0  0  0  0  0  0  0
  148.1965  134.9555  157.2580 H   0  0  0  0  0  0  0  0  0  0  0  0
  149.5072  133.4761  155.7207 H   0  0  0  0  0  0  0  0  0  0  0  0
  149.5091  132.8486  157.3661 H   0  0  0  0  0  0  0  0  0  0  0  0
  150.9324  133.6768  156.7395 H   0  0  0  0  0  0  0  0  0  0  0  0
  149.3695  136.0641  155.3673 H   0  0  0  0  0  0  0  0  0  0  0  0
  150.8295  136.2061  156.3193 H   0  0  0  0  0  0  0  0  0  0  0  0
  153.0299  140.4743  159.2671 H   0  0  0  0  0  0  0  0  0  0  0  0
  153.8888  141.2393  161.3129 H   0  0  0  0  0  0  0  0  0  0  0  0
  152.7400  142.1997  162.2416 H   0  0  0  0  0  0  0  0  0  0  0  0
  154.1166  142.9803  161.4473 H   0  0  0  0  0  0  0  0  0  0  0  0
  149.7056  143.4286  156.2007 H   0  0  0  0  0  0  0  0  0  0  0  0
  1  2  1  0  0  0  0
  1 23  1  0  0  0  0
  1 24  1  0  0  0  0
  1 25  1  0  0  0  0
  2 21  1  0  0  0  0
  2  3  2  0  0  0  0
  3  4  1  0  0  0  0
  3 26  1  0  0  0  0
  4 19  2  0  0  0  0
  4  5  1  0  0  0  0
  5  6  2  0  0  0  0
  5 48  1  0  0  0  0
  6  7  1  0  0  0  0
  6 27  1  0  0  0  0
  7  8  1  0  0  0  0
  7 19  1  0  0  0  0
  8  9  1  0  0  0  0
  8 28  1  0  0  0  0
  8 29  1  0  0  0  0
  9 10  1  0  0  0  0
  9 11  1  0  0  0  0
  9 30  1  0  0  0  0
 10 31  1  0  0  0  0
 11 12  1  0  0  0  0
 11 32  1  0  0  0  0
 11 33  1  0  0  0  0
 12 18  1  0  0  0  0
 12 13  1  0  0  0  0
 13 14  1  0  0  0  0
 13 34  1  0  0  0  0
 13 35  1  0  0  0  0
 14 15  1  0  0  0  0
 14 36  1  0  0  0  0
 14 37  1  0  0  0  0
 15 16  1  0  0  0  0
 16 17  1  0  0  0  0
 16 18  1  0  0  0  0
 16 38  1  0  0  0  0
 17 39  1  0  0  0  0
 17 40  1  0  0  0  0
 17 41  1  0  0  0  0
 18 42  1  0  0  0  0
 18 43  1  0  0  0  0
 19 20  1  0  0  0  0
 20 21  2  0  0  0  0
 20 44  1  0  0  0  0
 21 22  1  0  0  0  0
 22 45  1  0  0  0  0
 22 46  1  0  0  0  0
 22 47  1  0  0  0  0
M  CHG  1   5   1
M  END
> <s_m_source_file>
AV-unprocessed.smi

> <i_m_source_file_index>
1554

> <i_lp_mmshare_version>
43012

> <i_f3d_flags>
0

> <s_epik_input>
W0NIM11jKFtjSF0xKWMoW0NIM10pW2NIXWMoYzEyKW4oW2NIXW4yKVtDSDJdW0NASF0oW09IXSlbQ0gyXU4zW0NIMl1bQ0gyXU9bQ0BASF0oW0NIM10pW0NIMl0z

> <s_epik_cmdline>
J2VwaWtfcHl0aG9uJywgJy1waCcsICc3LjAnLCAnLXRuJywgJzgnLCAnLW1hJywgJzIwMCcsICctbWV0YWxfYmluZGluZycsICctaW1hZScsICc8aW5maWxlLm1hZT4nLCAnLW9tYWUnLCAnPG91dGZpbGUubWFlPic=

> <r_epik_Ionization_Penalty>
1.42504

> <r_epik_Ionization_Penalty_Charging>
1.21068

> <r_epik_Ionization_Penalty_Neutral>
0.214359

> <r_epik_State_Penalty>
1.46962

> <r_epik_Charging_Adjusted_Penalty>
2.6803

> <i_epik_Tot_Q>
1

> <i_epik_Tot_abs_Q>
1

> <r_epik_Metal_State_Penalty>
5.48754

> <b_epik_Metal_Only>
0

> <s_lp_Force_Field>
OPLS_2005

> <r_lp_Energy>
32.4448

> <b_lp_Chiralities_Consistent>
1

> <s_lp_Variant>
AV-unprocessed.smi:1554-15

> <Gold.Version>
5.8.1

> <Gold.Id.Protein>
6NUR|6NUR_protein|mol2

> <Gold.PLP.Fitness>
50.2149

> <Gold.PLP.PLP>
-39.9923

> <Gold.PLP.part.hbond>
-3.0000

> <Gold.PLP.part.metal>
0.0000

> <Gold.PLP.part.buried>
-5.4563

> <Gold.PLP.part.nonpolar>
-31.9490

> <Gold.PLP.part.repulsive>
0.0830

> <Gold.PLP.ligand.clash>
0.0000

> <Gold.PLP.ligand.torsion>
0.8903

> <Gold.PLP.Chemscore.Hbond>
4.0000

> <Gold.PLP.Chemscore.CHOScore>
0.0000

> <Gold.PLP.Chemscore.Metal>
0.0000

> <Gold.Chemscore.Hbonds>
donor molecule, donor type, donor heavy atom, donor atom, acceptor molecule, acceptor atom, score
      L1  H     5    48       P1  8028  2.00
      P1  H  6896  6908       L1    15  0.96
      P1  H  7989  7998       L1    10  1.00

> <Gold.PLP.Chemscore.Internal.Correction>
0.0031

> <Gold.Rescore>
     Score         DG    S(hbond)    S(metal)    S(lipo)     H(rot)  DE(clash)    DE(int)     intcor
     20.72     -22.94       2.86        0.00     112.35       2.04       0.29       1.93       ----

> <Gold.Chemscore.Fitness>
20.7215

> <Gold.Chemscore.DG>
-22.9419

> <Gold.Chemscore.ZeroCoef>
-5.4800

> <Gold.Chemscore.Hbond>
2.8581

> <Gold.Chemscore.Metal>
0.0000

> <Gold.Chemscore.Lipo>
112.3543

> <Gold.Chemscore.Internal_Hbond>
0.0000

> <Gold.Chemscore.DEClash>
0.2936

> <Gold.Chemscore.DEInternal>
1.9268

> <Gold.Chemscore.Rot>
2.0427

> <Gold.Chemscore.Internal.Correction>
   9.000000E+99

> <Gold.Chemscore.Hbonds>
donor molecule, donor type, donor heavy atom, donor atom, acceptor molecule, acceptor atom, score
      L1  H     5    48       P1  8028  0.99
      P1  H  6896  6908       L1    15  0.84
      P1  H  7989  7998       L1    10  0.81

> <Gold.Chemscore.Hbond.Weighted>
-9.5459

> <Gold.Chemscore.Metal.Weighted>
-0.0000

> <Gold.Chemscore.Lipo.Weighted>
-13.1455

> <Gold.Chemscore.Internal_Hbond.Weighted>
0.0000

> <Gold.Chemscore.DEClash.Weighted>
0.2936

> <Gold.Chemscore.DEInternal.Weighted>
1.9268

> <Gold.Chemscore.Rot.Weighted>
5.2294

> <Gold.Chemscore.Internal.Correction.Weighted>
   9.000000E+99

> <Gold.Protein.RotatedTorsions>
[ 6907 6896 6895 6894 ] final  151.38 input  -60.11 | X-H torsion
[ 7974 7965 7964 7962 ] final -177.81 input  175.53 | X-H torsion
[ 8008 7997 7996 7995 ] final  -58.94 input   59.86 | X-H torsion
[ 10167 10162 10161 10158 ] final  -22.79 input  -65.29 | X-H torsion
[ 10718 10713 10712 10709 ] final  -30.19 input   66.30 | X-H torsion
[ 10763 10752 10751 10750 ] final -165.39 input  -60.55 | X-H torsion
[ 11005 11000 10999 10996 ] final  165.55 input  -57.11 | X-H torsion

> <Gold.Protein.ActiveResidues>
 VAL166  LYS551  ARG553  GLY616  TRP617  ASP618  TYR619  PRO620  LYS621  CYS622 
 ASP623  PHE694  ASN695  SER759  ASP760  ASP761  ALA762  ILE779  LEU786  VAL792 
 PHE793  MET794  SER795  GLU796  ALA797  LYS798  CYS799  TRP800  GLU811  SER814 

> <Gold.Protein.RotatedAtoms>
  152.1015  133.4252  159.4588 H   0  0  0  0  0  0  0  0  0  0  0  0  # atno 6907 bound_to 6896
  150.6864  134.2755  159.4615 H   0  0  0  0  0  0  0  0  0  0  0  0  # atno 6908 bound_to 6896
  152.0616  134.9590  160.0625 H   0  0  0  0  0  0  0  0  0  0  0  0  # atno 6909 bound_to 6896
  144.7129  140.0962  143.6419 H   0  0  0  0  0  0  0  0  0  0  0  0  # atno 7974 bound_to 7965
  154.4330  140.1073  156.6036 H   0  0  0  0  0  0  0  0  0  0  0  0  # atno 8008 bound_to 7997
  155.5884  140.3492  155.4541 H   0  0  0  0  0  0  0  0  0  0  0  0  # atno 8009 bound_to 7997
  156.0265  140.1251  157.0292 H   0  0  0  0  0  0  0  0  0  0  0  0  # atno 8010 bound_to 7997
  140.7287  143.4503  151.0527 H   0  0  0  0  0  0  0  0  0  0  0  0  # atno 10167 bound_to 10162
  156.4029  130.4393  149.7309 H   0  0  0  0  0  0  0  0  0  0  0  0  # atno 10718 bound_to 10713
  154.6936  135.2975  154.9443 H   0  0  0  0  0  0  0  0  0  0  0  0  # atno 10763 bound_to 10752
  154.0398  135.6659  153.4793 H   0  0  0  0  0  0  0  0  0  0  0  0  # atno 10764 bound_to 10752
  153.0630  135.5104  154.8042 H   0  0  0  0  0  0  0  0  0  0  0  0  # atno 10765 bound_to 10752
  140.2572  134.7930  157.3557 H   0  0  0  0  0  0  0  0  0  0  0  0  # atno 11005 bound_to 11000
  145.9577  139.2778  143.1174 LP  0  0  0  0  0  0  0  0  0  0  0  0  # atno 17320 bound_to 7965
  145.9254  140.9086  143.0383 LP  0  0  0  0  0  0  0  0  0  0  0  0  # atno 17321 bound_to 7965
  139.8178  143.7861  152.3175 LP  0  0  0  0  0  0  0  0  0  0  0  0  # atno 17342 bound_to 10162
  139.7933  144.7402  150.9924 LP  0  0  0  0  0  0  0  0  0  0  0  0  # atno 17343 bound_to 10162
  156.4318  130.7819  151.2838 LP  0  0  0  0  0  0  0  0  0  0  0  0  # atno 17370 bound_to 10713
  157.7504  131.0152  150.3493 LP  0  0  0  0  0  0  0  0  0  0  0  0  # atno 17371 bound_to 10713
  140.1500  134.4862  155.7968 LP  0  0  0  0  0  0  0  0  0  0  0  0  # atno 17394 bound_to 11000
  141.2194  133.6858  156.7361 LP  0  0  0  0  0  0  0  0  0  0  0  0  # atno 17395 bound_to 11000

$$$$
