AV-unprocessed.smi:3027|AV-procd|sdf|11515|dock4
  -GOLD-   2272016453D 1   1.00000     0.00000
 Structure written by MMmdl.
 37 38  0  0  0  0  0  0  0  0  2 V2000
  150.9442  136.3954  156.0194 C   0  0  0  0  0  0  0  0  0  0  0  0
  150.7873  137.8056  155.5282 C   0  0  0  0  0  0  0  0  0  0  0  0
  150.7461  138.2625  154.1802 C   0  0  0  0  0  0  0  0  0  0  0  0
  150.6017  139.5744  154.0861 N   0  0  0  0  0  0  0  0  0  0  0  0
  150.5431  139.9996  155.3658 N   0  0  0  0  0  0  0  0  0  0  0  0
  150.3873  141.4137  155.6540 C   0  0  0  0  0  0  0  0  0  0  0  0
  150.6192  141.7512  157.1436 C   0  0  2  0  0  0  0  0  0  0  0  0
  149.3940  141.4326  158.0166 C   0  0  0  0  0  0  0  0  0  0  0  0
  150.9733  143.1805  157.3029 N   0  3  0  0  0  0  0  0  0  0  0  0
  150.9523  143.7020  158.6886 C   0  0  0  0  0  0  0  0  0  0  0  0
  151.4304  145.1523  158.7633 C   0  0  0  0  0  0  0  0  0  0  0  0
  151.8166  145.3600  160.2320 C   0  0  0  0  0  0  0  0  0  0  0  0
  152.1246  143.9636  160.7962 C   0  0  0  0  0  0  0  0  0  0  0  0
  151.9033  142.9771  159.6444 C   0  0  0  0  0  0  0  0  0  0  0  0
  150.6550  138.9536  156.2567 C   0  0  0  0  0  0  0  0  0  0  0  0
  150.6466  135.6679  155.2641 H   0  0  0  0  0  0  0  0  0  0  0  0
  150.3360  136.2060  156.9040 H   0  0  0  0  0  0  0  0  0  0  0  0
  151.9782  136.1766  156.2864 H   0  0  0  0  0  0  0  0  0  0  0  0
  150.8174  137.6818  153.2723 H   0  0  0  0  0  0  0  0  0  0  0  0
  151.0865  141.9550  155.0182 H   0  0  0  0  0  0  0  0  0  0  0  0
  149.3884  141.7287  155.3467 H   0  0  0  0  0  0  0  0  0  0  0  0
  151.4443  141.1426  157.5172 H   0  0  0  0  0  0  0  0  0  0  0  0
  149.1567  140.3687  158.0029 H   0  0  0  0  0  0  0  0  0  0  0  0
  148.5115  141.9745  157.6752 H   0  0  0  0  0  0  0  0  0  0  0  0
  149.5712  141.7077  159.0568 H   0  0  0  0  0  0  0  0  0  0  0  0
  151.8784  143.3492  156.8878 H   0  0  0  0  0  0  0  0  0  0  0  0
  149.9344  143.6527  159.0795 H   0  0  0  0  0  0  0  0  0  0  0  0
  152.3135  145.2874  158.1367 H   0  0  0  0  0  0  0  0  0  0  0  0
  150.6745  145.8630  158.4266 H   0  0  0  0  0  0  0  0  0  0  0  0
  152.6671  146.0357  160.3281 H   0  0  0  0  0  0  0  0  0  0  0  0
  150.9847  145.8034  160.7809 H   0  0  0  0  0  0  0  0  0  0  0  0
  153.1404  143.8959  161.1873 H   0  0  0  0  0  0  0  0  0  0  0  0
  151.4439  143.7405  161.6187 H   0  0  0  0  0  0  0  0  0  0  0  0
  151.5058  142.0226  159.9911 H   0  0  0  0  0  0  0  0  0  0  0  0
  152.8563  142.7832  159.1494 H   0  0  0  0  0  0  0  0  0  0  0  0
  150.6314  139.1110  157.3251 H   0  0  0  0  0  0  0  0  0  0  0  0
  150.2861  143.7114  156.7867 H   0  0  0  0  0  0  0  0  0  0  0  0
  1  2  1  0  0  0  0
  1 16  1  0  0  0  0
  1 17  1  0  0  0  0
  1 18  1  0  0  0  0
  2 15  2  0  0  0  0
  2  3  1  0  0  0  0
  3  4  2  0  0  0  0
  3 19  1  0  0  0  0
  4  5  1  0  0  0  0
  5  6  1  0  0  0  0
  5 15  1  0  0  0  0
  6  7  1  0  0  0  0
  6 20  1  0  0  0  0
  6 21  1  0  0  0  0
  7  8  1  0  0  0  0
  7  9  1  0  0  0  0
  7 22  1  0  0  0  0
  8 23  1  0  0  0  0
  8 24  1  0  0  0  0
  8 25  1  0  0  0  0
  9 10  1  0  0  0  0
  9 26  1  0  0  0  0
  9 37  1  0  0  0  0
 10 14  1  0  0  0  0
 10 11  1  0  0  0  0
 10 27  1  0  0  0  0
 11 12  1  0  0  0  0
 11 28  1  0  0  0  0
 11 29  1  0  0  0  0
 12 13  1  0  0  0  0
 12 30  1  0  0  0  0
 12 31  1  0  0  0  0
 13 14  1  0  0  0  0
 13 32  1  0  0  0  0
 13 33  1  0  0  0  0
 14 34  1  0  0  0  0
 14 35  1  0  0  0  0
 15 36  1  0  0  0  0
M  CHG  1   9   1
M  END
> <s_m_source_file>
AV-unprocessed.smi

> <i_m_source_file_index>
3027

> <i_lp_mmshare_version>
43012

> <i_f3d_flags>
0

> <s_epik_input>
W0NIM11jMVtjSF1ubihbY0hdMSlbQ0gyXVtDQEhdKFtDSDNdKVtOSF1bQ0hdMltDSDJdW0NIMl1bQ0gyXVtDSDJdMg==

> <s_epik_cmdline>
J2VwaWtfcHl0aG9uJywgJy1waCcsICc3LjAnLCAnLXRuJywgJzgnLCAnLW1hJywgJzIwMCcsICctbWV0YWxfYmluZGluZycsICctaW1hZScsICc8aW5maWxlLm1hZT4nLCAnLW9tYWUnLCAnPG91dGZpbGUubWFlPic=

> <r_lp_tautomer_probability>
1

> <r_epik_Ionization_Penalty>
0.00150056

> <r_epik_Ionization_Penalty_Charging>
0.00149132

> <r_epik_Ionization_Penalty_Neutral>
9.24096e-06

> <r_epik_State_Penalty>
0.00099871

> <r_epik_Charging_Adjusted_Penalty>
0.00249003

> <i_epik_Tot_Q>
1

> <i_epik_Tot_abs_Q>
1

> <r_epik_Metal_State_Penalty>
-0

> <b_epik_Metal_Only>
0

> <s_lp_Force_Field>
OPLS_2005

> <r_lp_Energy>
26.7441

> <b_lp_Chiralities_Consistent>
1

> <s_lp_Variant>
AV-unprocessed.smi:3027-1

> <Gold.Version>
5.8.1

> <Gold.Id.Protein>
6NUR|6NUR_protein|mol2

> <Gold.PLP.Fitness>
45.9169

> <Gold.PLP.PLP>
-34.7685

> <Gold.PLP.part.hbond>
-2.0000

> <Gold.PLP.part.metal>
0.0000

> <Gold.PLP.part.buried>
-4.1632

> <Gold.PLP.part.nonpolar>
-28.0944

> <Gold.PLP.part.repulsive>
0.1874

> <Gold.PLP.ligand.clash>
0.0000

> <Gold.PLP.ligand.torsion>
0.4248

> <Gold.PLP.Chemscore.Hbond>
2.9000

> <Gold.PLP.Chemscore.CHOScore>
1.0905

> <Gold.PLP.Chemscore.Metal>
0.0000

> <Gold.Chemscore.Hbonds>
donor molecule, donor type, donor heavy atom, donor atom, acceptor molecule, acceptor atom, score
      L1  H     9    37       P1  8028  1.92
      P1  H  7989  7998       L1     4  0.85
      L1  C     3    19       P1  7948  0.23
      L1  C     3    19       P1  7949  0.87

> <Gold.PLP.Chemscore.Internal.Correction>
0.0265

> <Gold.Rescore>
     Score         DG    S(hbond)    S(metal)    S(lipo)     H(rot)  DE(clash)    DE(int)     intcor
     18.32     -18.85       1.76        0.00      94.56       1.40       0.02       0.51       ----

> <Gold.Chemscore.Fitness>
18.3171

> <Gold.Chemscore.DG>
-18.8491

> <Gold.Chemscore.ZeroCoef>
-5.4800

> <Gold.Chemscore.Hbond>
1.7629

> <Gold.Chemscore.Metal>
0.0000

> <Gold.Chemscore.Lipo>
94.5550

> <Gold.Chemscore.Internal_Hbond>
0.0000

> <Gold.Chemscore.DEClash>
0.0249

> <Gold.Chemscore.DEInternal>
0.5071

> <Gold.Chemscore.Rot>
1.3991

> <Gold.Chemscore.Internal.Correction>
   9.000000E+99

> <Gold.Chemscore.Hbonds>
donor molecule, donor type, donor heavy atom, donor atom, acceptor molecule, acceptor atom, score
      L1  H     9    37       P1  8028  0.91
      P1  H  7989  7998       L1     4  0.15

> <Gold.Chemscore.Hbond.Weighted>
-5.8879

> <Gold.Chemscore.Metal.Weighted>
-0.0000

> <Gold.Chemscore.Lipo.Weighted>
-11.0629

> <Gold.Chemscore.Internal_Hbond.Weighted>
0.0000

> <Gold.Chemscore.DEClash.Weighted>
0.0249

> <Gold.Chemscore.DEInternal.Weighted>
0.5071

> <Gold.Chemscore.Rot.Weighted>
3.5818

> <Gold.Chemscore.Internal.Correction.Weighted>
   9.000000E+99

> <Gold.Protein.RotatedTorsions>
[ 6907 6896 6895 6894 ] final  140.03 input  -60.11 | X-H torsion
[ 7974 7965 7964 7962 ] final -170.40 input  175.53 | X-H torsion
[ 8008 7997 7996 7995 ] final -151.50 input   59.86 | X-H torsion
[ 10167 10162 10161 10158 ] final  121.29 input  -65.29 | X-H torsion
[ 10718 10713 10712 10709 ] final   -0.51 input   66.30 | X-H torsion
[ 10763 10752 10751 10750 ] final    4.66 input  -60.55 | X-H torsion
[ 11005 11000 10999 10996 ] final  152.56 input  -57.11 | X-H torsion

> <Gold.Protein.ActiveResidues>
 VAL166  LYS551  ARG553  GLY616  TRP617  ASP618  TYR619  PRO620  LYS621  CYS622 
 ASP623  PHE694  ASN695  SER759  ASP760  ASP761  ALA762  ILE779  LEU786  VAL792 
 PHE793  MET794  SER795  GLU796  ALA797  LYS798  CYS799  TRP800  GLU811  SER814 

> <Gold.Protein.RotatedAtoms>
  152.2479  133.5190  159.5307 H   0  0  0  0  0  0  0  0  0  0  0  0  # atno 6907 bound_to 6896
  150.7084  134.1001  159.3971 H   0  0  0  0  0  0  0  0  0  0  0  0  # atno 6908 bound_to 6896
  151.8921  135.0412  160.0549 H   0  0  0  0  0  0  0  0  0  0  0  0  # atno 6909 bound_to 6896
  144.7170  140.2077  143.6331 H   0  0  0  0  0  0  0  0  0  0  0  0  # atno 7974 bound_to 7965
  155.6404  140.0701  157.2620 H   0  0  0  0  0  0  0  0  0  0  0  0  # atno 8008 bound_to 7997
  154.4185  140.1751  156.1617 H   0  0  0  0  0  0  0  0  0  0  0  0  # atno 8009 bound_to 7997
  155.9860  140.3349  155.6711 H   0  0  0  0  0  0  0  0  0  0  0  0  # atno 8010 bound_to 7997
  139.5929  144.7031  151.3247 H   0  0  0  0  0  0  0  0  0  0  0  0  # atno 10167 bound_to 10162
  156.8193  130.5451  149.5699 H   0  0  0  0  0  0  0  0  0  0  0  0  # atno 10718 bound_to 10713
  153.2686  135.6930  153.7503 H   0  0  0  0  0  0  0  0  0  0  0  0  # atno 10763 bound_to 10752
  153.6535  135.3372  155.3107 H   0  0  0  0  0  0  0  0  0  0  0  0  # atno 10764 bound_to 10752
  154.8456  135.4460  154.1701 H   0  0  0  0  0  0  0  0  0  0  0  0  # atno 10765 bound_to 10752
  140.1318  134.8797  157.2214 H   0  0  0  0  0  0  0  0  0  0  0  0  # atno 11005 bound_to 11000
  145.8620  139.2228  143.1711 LP  0  0  0  0  0  0  0  0  0  0  0  0  # atno 17320 bound_to 7965
  146.0164  140.8388  142.9945 LP  0  0  0  0  0  0  0  0  0  0  0  0  # atno 17321 bound_to 7965
  140.7188  143.7194  150.7708 LP  0  0  0  0  0  0  0  0  0  0  0  0  # atno 17342 bound_to 10162
  140.0753  143.5021  152.2558 LP  0  0  0  0  0  0  0  0  0  0  0  0  # atno 17343 bound_to 10162
  156.0998  130.5960  150.9875 LP  0  0  0  0  0  0  0  0  0  0  0  0  # atno 17370 bound_to 10713
  157.6465  131.0903  150.8142 LP  0  0  0  0  0  0  0  0  0  0  0  0  # atno 17371 bound_to 10713
  140.2832  134.3326  155.7337 LP  0  0  0  0  0  0  0  0  0  0  0  0  # atno 17394 bound_to 11000
  141.2171  133.7491  156.9395 LP  0  0  0  0  0  0  0  0  0  0  0  0  # atno 17395 bound_to 11000

$$$$
