AV-unprocessed.smi:2427|AV-procd|sdf|9579|dock10
  -GOLD-   2272013213D 1   1.00000     0.00000
 Structure written by MMmdl.
 35 36  0  0  0  0  0  0  0  0  3 V2000
  153.0788  139.6985  157.6294 O   0  0  0  0  0  0  0  0  0  0  0  0
  152.0574  140.0418  158.2268 C   0  0  0  0  0  0  0  0  0  0  0  0
  150.6903  139.4382  157.8730 C   0  0  0  0  0  0  0  0  0  0  0  0
  150.7565  138.4060  156.8246 N   0  0  0  0  0  0  0  0  0  0  0  0
  150.2722  137.1258  157.1586 C   0  0  0  0  0  0  0  0  0  0  0  0
  150.2886  136.1028  156.2818 C   0  0  0  0  0  0  0  0  0  0  0  0
  149.7920  134.7935  156.6438 N   0  3  0  0  0  0  0  0  0  0  0  0
  149.4185  134.6038  157.7970 O   0  0  0  0  0  0  0  0  0  0  0  0
  149.7589  133.9120  155.7902 O   0  5  0  0  0  0  0  0  0  0  0  0
  150.8268  136.3571  154.9595 C   0  0  0  0  0  0  0  0  0  0  0  0
  151.2962  137.5781  154.6355 C   0  0  0  0  0  0  0  0  0  0  0  0
  151.2803  138.6890  155.5927 C   0  0  0  0  0  0  0  0  0  0  0  0
  151.7116  139.8055  155.3042 O   0  0  0  0  0  0  0  0  0  0  0  0
  152.0578  140.9415  159.2216 N   0  0  0  0  0  0  0  0  0  0  0  0
  153.2372  141.6325  159.7296 C   0  0  0  0  0  0  0  0  0  0  0  0
  153.0659  143.1604  159.6852 C   0  0  1  0  0  0  0  0  0  0  0  0
  152.9406  143.7278  158.2718 C   0  0  0  0  0  0  0  0  0  0  0  0
  152.1238  144.9982  158.4615 C   0  0  0  0  0  0  0  0  0  0  0  0
  151.6020  144.8986  159.8975 C   0  0  0  0  0  0  0  0  0  0  0  0
  151.8381  143.5514  160.2789 O   0  0  0  0  0  0  0  0  0  0  0  0
  150.2532  139.0251  158.7833 H   0  0  0  0  0  0  0  0  0  0  0  0
  150.0142  140.2413  157.5735 H   0  0  0  0  0  0  0  0  0  0  0  0
  149.8994  137.0377  158.1691 H   0  0  0  0  0  0  0  0  0  0  0  0
  150.8592  135.5702  154.2204 H   0  0  0  0  0  0  0  0  0  0  0  0
  151.6947  137.7446  153.6454 H   0  0  0  0  0  0  0  0  0  0  0  0
  151.1772  141.1604  159.6647 H   0  0  0  0  0  0  0  0  0  0  0  0
  153.4441  141.3053  160.7499 H   0  0  0  0  0  0  0  0  0  0  0  0
  154.0959  141.3327  159.1281 H   0  0  0  0  0  0  0  0  0  0  0  0
  153.8865  143.6578  160.2058 H   0  0  0  0  0  0  0  0  0  0  0  0
  153.9110  143.9123  157.8099 H   0  0  0  0  0  0  0  0  0  0  0  0
  152.3915  143.0357  157.6319 H   0  0  0  0  0  0  0  0  0  0  0  0
  152.7306  145.8946  158.3297 H   0  0  0  0  0  0  0  0  0  0  0  0
  151.3052  145.0384  157.7420 H   0  0  0  0  0  0  0  0  0  0  0  0
  152.1651  145.5611  160.5568 H   0  0  0  0  0  0  0  0  0  0  0  0
  150.5453  145.1544  159.9799 H   0  0  0  0  0  0  0  0  0  0  0  0
  1  2  2  0  0  0  0
  2  3  1  0  0  0  0
  2 14  1  0  0  0  0
  3  4  1  0  0  0  0
  3 21  1  0  0  0  0
  3 22  1  0  0  0  0
  4 12  1  0  0  0  0
  4  5  1  0  0  0  0
  5  6  2  0  0  0  0
  5 23  1  0  0  0  0
  6  7  1  0  0  0  0
  6 10  1  0  0  0  0
  7  8  2  0  0  0  0
  7  9  1  0  0  0  0
 10 11  2  0  0  0  0
 10 24  1  0  0  0  0
 11 12  1  0  0  0  0
 11 25  1  0  0  0  0
 12 13  2  0  0  0  0
 14 15  1  0  0  0  0
 14 26  1  0  0  0  0
 15 16  1  0  0  0  0
 15 27  1  0  0  0  0
 15 28  1  0  0  0  0
 16 20  1  0  0  0  0
 16 17  1  0  0  0  0
 16 29  1  0  0  0  0
 17 18  1  0  0  0  0
 17 30  1  0  0  0  0
 17 31  1  0  0  0  0
 18 19  1  0  0  0  0
 18 32  1  0  0  0  0
 18 33  1  0  0  0  0
 19 20  1  0  0  0  0
 19 34  1  0  0  0  0
 19 35  1  0  0  0  0
M  CHG  1   7   1
M  CHG  1   9  -1
M  END
> <s_m_source_file>
AV-unprocessed.smi

> <i_m_source_file_index>
2427

> <i_lp_mmshare_version>
43012

> <i_f3d_flags>
0

> <s_epik_input>
TzFbQ0gyXVtDSDJdW0NIMl1bQ0BIXTFbQ0gyXVtOSF1DKD1PKVtDSDJdbjJbY0hdYyhbTitdKD1PKVtPLV0pW2NIXVtjSF1jMj1P

> <s_epik_cmdline>
J2VwaWtfcHl0aG9uJywgJy1waCcsICc3LjAnLCAnLXRuJywgJzgnLCAnLW1hJywgJzIwMCcsICctbWV0YWxfYmluZGluZycsICctaW1hZScsICc8aW5maWxlLm1hZT4nLCAnLW9tYWUnLCAnPG91dGZpbGUubWFlPic=

> <r_lp_tautomer_probability>
1

> <r_epik_Ionization_Penalty>
2.69366e-08

> <r_epik_Ionization_Penalty_Charging>
7.76344e-11

> <r_epik_Ionization_Penalty_Neutral>
2.6859e-08

> <r_epik_State_Penalty>
-0

> <r_epik_Charging_Adjusted_Penalty>
7.76344e-11

> <i_epik_Tot_Q>
0

> <i_epik_Tot_abs_Q>
2

> <r_epik_Metal_State_Penalty>
-0

> <b_epik_Metal_Only>
0

> <s_lp_Force_Field>
OPLS_2005

> <r_lp_Energy>
28.9532

> <b_lp_Chiralities_Consistent>
1

> <s_lp_Variant>
AV-unprocessed.smi:2427-2

> <Gold.Version>
5.8.1

> <Gold.Id.Protein>
6NUR|6NUR_protein|mol2

> <Gold.PLP.Fitness>
45.9514

> <Gold.PLP.PLP>
-37.3697

> <Gold.PLP.part.hbond>
-2.9496

> <Gold.PLP.part.metal>
0.0000

> <Gold.PLP.part.buried>
-5.5773

> <Gold.PLP.part.nonpolar>
-29.7604

> <Gold.PLP.part.repulsive>
0.3045

> <Gold.PLP.ligand.clash>
0.0000

> <Gold.PLP.ligand.torsion>
0.0606

> <Gold.PLP.Chemscore.Hbond>
2.8880

> <Gold.PLP.Chemscore.CHOScore>
0.0000

> <Gold.PLP.Chemscore.Metal>
0.0000

> <Gold.Chemscore.Hbonds>
donor molecule, donor type, donor heavy atom, donor atom, acceptor molecule, acceptor atom, score
      P1  H  6896  6907       L1     8  0.88
      P1  H  7989  7998       L1    13  0.86
      P1  H  7997  8010       L1     1  1.00

> <Gold.PLP.Chemscore.Internal.Correction>
0.0388

> <Gold.Rescore>
     Score         DG    S(hbond)    S(metal)    S(lipo)     H(rot)  DE(clash)    DE(int)     intcor
     15.37     -19.50       2.78        0.00      82.18       1.90       0.04       4.10       ----

> <Gold.Chemscore.Fitness>
15.3672

> <Gold.Chemscore.DG>
-19.5003

> <Gold.Chemscore.ZeroCoef>
-5.4800

> <Gold.Chemscore.Hbond>
2.7787

> <Gold.Chemscore.Metal>
0.0000

> <Gold.Chemscore.Lipo>
82.1767

> <Gold.Chemscore.Internal_Hbond>
0.0000

> <Gold.Chemscore.DEClash>
0.0354

> <Gold.Chemscore.DEInternal>
4.0978

> <Gold.Chemscore.Rot>
1.9044

> <Gold.Chemscore.Internal.Correction>
   9.000000E+99

> <Gold.Chemscore.Hbonds>
donor molecule, donor type, donor heavy atom, donor atom, acceptor molecule, acceptor atom, score
      P1  H  6896  6907       L1     8  0.81
      P1  H  7989  7998       L1    13  0.80
      P1  H  7997  8010       L1     1  0.99

> <Gold.Chemscore.Hbond.Weighted>
-9.2809

> <Gold.Chemscore.Metal.Weighted>
-0.0000

> <Gold.Chemscore.Lipo.Weighted>
-9.6147

> <Gold.Chemscore.Internal_Hbond.Weighted>
0.0000

> <Gold.Chemscore.DEClash.Weighted>
0.0354

> <Gold.Chemscore.DEInternal.Weighted>
4.0978

> <Gold.Chemscore.Rot.Weighted>
4.8753

> <Gold.Chemscore.Internal.Correction.Weighted>
   9.000000E+99

> <Gold.Protein.RotatedTorsions>
[ 6907 6896 6895 6894 ] final -109.14 input  -60.11 | X-H torsion
[ 7974 7965 7964 7962 ] final -169.27 input  175.53 | X-H torsion
[ 8008 7997 7996 7995 ] final   37.78 input   59.86 | X-H torsion
[ 10167 10162 10161 10158 ] final   89.51 input  -65.29 | X-H torsion
[ 10718 10713 10712 10709 ] final -115.18 input   66.30 | X-H torsion
[ 10763 10752 10751 10750 ] final  -71.37 input  -60.55 | X-H torsion
[ 11005 11000 10999 10996 ] final  -13.56 input  -57.11 | X-H torsion

> <Gold.Protein.ActiveResidues>
 VAL166  LYS551  ARG553  GLY616  TRP617  ASP618  TYR619  PRO620  LYS621  CYS622 
 ASP623  PHE694  ASN695  SER759  ASP760  ASP761  ALA762  ILE779  LEU786  VAL792 
 PHE793  MET794  SER795  GLU796  ALA797  LYS798  CYS799  TRP800  GLU811  SER814 

> <Gold.Protein.RotatedAtoms>
  150.7544  133.9574  159.3504 H   0  0  0  0  0  0  0  0  0  0  0  0  # atno 6907 bound_to 6896
  151.7496  135.0833  160.0338 H   0  0  0  0  0  0  0  0  0  0  0  0  # atno 6908 bound_to 6896
  152.3475  133.6102  159.5956 H   0  0  0  0  0  0  0  0  0  0  0  0  # atno 6909 bound_to 6896
  144.7188  140.2246  143.6312 H   0  0  0  0  0  0  0  0  0  0  0  0  # atno 7974 bound_to 7965
  155.2094  140.3322  155.4331 H   0  0  0  0  0  0  0  0  0  0  0  0  # atno 8008 bound_to 7997
  156.2376  140.1880  156.7125 H   0  0  0  0  0  0  0  0  0  0  0  0  # atno 8009 bound_to 7997
  154.6088  140.0612  156.9452 H   0  0  0  0  0  0  0  0  0  0  0  0  # atno 8010 bound_to 7997
  139.8565  144.6566  150.9108 H   0  0  0  0  0  0  0  0  0  0  0  0  # atno 10167 bound_to 10162
  156.0878  130.6067  150.8872 H   0  0  0  0  0  0  0  0  0  0  0  0  # atno 10718 bound_to 10713
  154.4308  135.5964  153.6067 H   0  0  0  0  0  0  0  0  0  0  0  0  # atno 10763 bound_to 10752
  152.9799  135.5974  154.3841 H   0  0  0  0  0  0  0  0  0  0  0  0  # atno 10764 bound_to 10752
  154.3679  135.2841  155.2262 H   0  0  0  0  0  0  0  0  0  0  0  0  # atno 10765 bound_to 10752
  140.7774  133.8390  155.9261 H   0  0  0  0  0  0  0  0  0  0  0  0  # atno 11005 bound_to 11000
  145.8469  139.2156  143.1795 LP  0  0  0  0  0  0  0  0  0  0  0  0  # atno 17320 bound_to 7965
  146.0296  140.8271  142.9882 LP  0  0  0  0  0  0  0  0  0  0  0  0  # atno 17321 bound_to 7965
  140.7781  143.3781  151.1526 LP  0  0  0  0  0  0  0  0  0  0  0  0  # atno 17342 bound_to 10162
  139.7415  143.8918  152.3051 LP  0  0  0  0  0  0  0  0  0  0  0  0  # atno 17343 bound_to 10162
  157.6018  131.0941  150.8946 LP  0  0  0  0  0  0  0  0  0  0  0  0  # atno 17370 bound_to 10713
  156.9102  130.5278  149.5280 LP  0  0  0  0  0  0  0  0  0  0  0  0  # atno 17371 bound_to 10713
  140.9515  134.1772  157.4724 LP  0  0  0  0  0  0  0  0  0  0  0  0  # atno 17394 bound_to 11000
  139.8747  134.9911  156.5533 LP  0  0  0  0  0  0  0  0  0  0  0  0  # atno 17395 bound_to 11000

$$$$
