AV-unprocessed.smi:1824|AV-procd|sdf|7408|dock2
  -GOLD-   22720 9 83D 1   1.00000     0.00000
 Structure written by MMmdl.
 45 47  0  0  0  0  0  0  0  0  2 V2000
  151.6756  145.2830  158.9108 C   0  0  0  0  0  0  0  0  0  0  0  0
  151.4429  143.7727  159.0223 C   0  0  1  0  0  0  0  0  0  0  0  0
  151.4269  143.0820  157.6450 C   0  0  0  0  0  0  0  0  0  0  0  0
  151.2829  141.6322  157.7627 N   0  0  0  0  0  0  0  0  0  0  0  0
  151.2845  140.9537  156.4655 C   0  0  0  0  0  0  0  0  0  0  0  0
  149.9001  140.5272  155.9380 C   0  0  2  0  0  0  0  0  0  0  0  0
  150.0004  139.2062  155.4443 O   0  0  0  0  0  0  0  0  0  0  0  0
  149.4126  141.4621  154.8140 C   0  0  0  0  0  0  0  0  0  0  0  0
  147.9471  141.5072  154.7019 N   0  0  0  0  0  0  0  0  0  0  0  0
  147.1467  141.1688  153.6549 C   0  0  0  0  0  0  0  0  0  0  0  0
  145.8571  141.3837  154.0358 N   0  3  0  0  0  0  0  0  0  0  0  0
  145.8321  141.8681  155.3454 C   0  0  0  0  0  0  0  0  0  0  0  0
  144.7662  142.2320  156.1617 C   0  0  0  0  0  0  0  0  0  0  0  0
  145.0859  142.6947  157.4549 C   0  0  0  0  0  0  0  0  0  0  0  0
  144.0860  143.0626  158.2905 F   0  0  0  0  0  0  0  0  0  0  0  0
  146.4245  142.7825  157.8930 C   0  0  0  0  0  0  0  0  0  0  0  0
  146.6878  143.2344  159.1419 F   0  0  0  0  0  0  0  0  0  0  0  0
  147.4966  142.4092  157.0562 C   0  0  0  0  0  0  0  0  0  0  0  0
  147.1718  141.9514  155.7799 C   0  0  0  0  0  0  0  0  0  0  0  0
  152.3513  141.1232  158.6154 C   0  0  0  0  0  0  0  0  0  0  0  0
  152.3672  141.8076  159.9952 C   0  0  1  0  0  0  0  0  0  0  0  0
  153.5350  141.3308  160.8650 C   0  0  0  0  0  0  0  0  0  0  0  0
  152.4893  143.2153  159.8123 O   0  0  0  0  0  0  0  0  0  0  0  0
  150.8893  145.7582  158.3242 H   0  0  0  0  0  0  0  0  0  0  0  0
  152.6305  145.5011  158.4319 H   0  0  0  0  0  0  0  0  0  0  0  0
  151.6824  145.7492  159.8963 H   0  0  0  0  0  0  0  0  0  0  0  0
  150.4905  143.6017  159.5268 H   0  0  0  0  0  0  0  0  0  0  0  0
  150.6092  143.5000  157.0596 H   0  0  0  0  0  0  0  0  0  0  0  0
  152.3481  143.3188  157.1101 H   0  0  0  0  0  0  0  0  0  0  0  0
  151.7661  141.5987  155.7289 H   0  0  0  0  0  0  0  0  0  0  0  0
  151.9091  140.0611  156.5272 H   0  0  0  0  0  0  0  0  0  0  0  0
  149.1599  140.5402  156.7370 H   0  0  0  0  0  0  0  0  0  0  0  0
  150.2371  139.2495  154.5298 H   0  0  0  0  0  0  0  0  0  0  0  0
  149.7474  142.4813  155.0114 H   0  0  0  0  0  0  0  0  0  0  0  0
  149.8406  141.1832  153.8507 H   0  0  0  0  0  0  0  0  0  0  0  0
  147.4752  140.7964  152.6953 H   0  0  0  0  0  0  0  0  0  0  0  0
  143.7405  142.1683  155.8301 H   0  0  0  0  0  0  0  0  0  0  0  0
  148.5171  142.4872  157.4003 H   0  0  0  0  0  0  0  0  0  0  0  0
  152.2329  140.0472  158.7507 H   0  0  0  0  0  0  0  0  0  0  0  0
  153.3153  141.2710  158.1257 H   0  0  0  0  0  0  0  0  0  0  0  0
  151.4320  141.5981  160.5176 H   0  0  0  0  0  0  0  0  0  0  0  0
  153.4815  140.2560  161.0395 H   0  0  0  0  0  0  0  0  0  0  0  0
  153.5241  141.8255  161.8363 H   0  0  0  0  0  0  0  0  0  0  0  0
  154.4936  141.5464  160.3918 H   0  0  0  0  0  0  0  0  0  0  0  0
  145.0552  141.2127  153.4424 H   0  0  0  0  0  0  0  0  0  0  0  0
  1  2  1  0  0  0  0
  1 24  1  0  0  0  0
  1 25  1  0  0  0  0
  1 26  1  0  0  0  0
  2 23  1  0  0  0  0
  2  3  1  0  0  0  0
  2 27  1  0  0  0  0
  3  4  1  0  0  0  0
  3 28  1  0  0  0  0
  3 29  1  0  0  0  0
  4  5  1  0  0  0  0
  4 20  1  0  0  0  0
  5  6  1  0  0  0  0
  5 30  1  0  0  0  0
  5 31  1  0  0  0  0
  6  7  1  0  0  0  0
  6  8  1  0  0  0  0
  6 32  1  0  0  0  0
  7 33  1  0  0  0  0
  8  9  1  0  0  0  0
  8 34  1  0  0  0  0
  8 35  1  0  0  0  0
  9 19  1  0  0  0  0
  9 10  1  0  0  0  0
 10 11  2  0  0  0  0
 10 36  1  0  0  0  0
 11 12  1  0  0  0  0
 11 45  1  0  0  0  0
 12 19  2  0  0  0  0
 12 13  1  0  0  0  0
 13 14  2  0  0  0  0
 13 37  1  0  0  0  0
 14 15  1  0  0  0  0
 14 16  1  0  0  0  0
 16 17  1  0  0  0  0
 16 18  2  0  0  0  0
 18 19  1  0  0  0  0
 18 38  1  0  0  0  0
 20 21  1  0  0  0  0
 20 39  1  0  0  0  0
 20 40  1  0  0  0  0
 21 22  1  0  0  0  0
 21 23  1  0  0  0  0
 21 41  1  0  0  0  0
 22 42  1  0  0  0  0
 22 43  1  0  0  0  0
 22 44  1  0  0  0  0
M  CHG  1  11   1
M  END
> <s_m_source_file>
AV-unprocessed.smi

> <i_m_source_file_index>
1824

> <i_lp_mmshare_version>
43012

> <i_f3d_flags>
0

> <s_epik_input>
W0NIM11bQ0BASF0xW0NIMl1OKFtDSDJdW0NASF0oTzEpW0NIM10pW0NIMl1bQ0BIXShbT0hdKVtDSDJdbihbY0hdbjIpYyhjMjMpW2NIXWMoRiljKEYpW2NIXTM=

> <s_epik_cmdline>
J2VwaWtfcHl0aG9uJywgJy1waCcsICc3LjAnLCAnLXRuJywgJzgnLCAnLW1hJywgJzIwMCcsICctbWV0YWxfYmluZGluZycsICctaW1hZScsICc8aW5maWxlLm1hZT4nLCAnLW9tYWUnLCAnPG91dGZpbGUubWFlPic=

> <r_epik_Ionization_Penalty>
2.58709

> <r_epik_Ionization_Penalty_Charging>
2.37273

> <r_epik_Ionization_Penalty_Neutral>
0.214359

> <r_epik_State_Penalty>
2.71799

> <r_epik_Charging_Adjusted_Penalty>
5.09071

> <i_epik_Tot_Q>
1

> <i_epik_Tot_abs_Q>
1

> <r_epik_Metal_State_Penalty>
6.80217

> <b_epik_Metal_Only>
0

> <s_lp_Force_Field>
OPLS_2005

> <r_lp_Energy>
32.0118

> <b_lp_Chiralities_Consistent>
1

> <s_lp_Variant>
AV-unprocessed.smi:1824-16

> <Gold.Version>
5.8.1

> <Gold.Id.Protein>
6NUR|6NUR_protein|mol2

> <Gold.PLP.Fitness>
46.1156

> <Gold.PLP.PLP>
-40.1481

> <Gold.PLP.part.hbond>
-1.0000

> <Gold.PLP.part.metal>
0.0000

> <Gold.PLP.part.buried>
-4.9104

> <Gold.PLP.part.nonpolar>
-33.9159

> <Gold.PLP.part.repulsive>
0.0316

> <Gold.PLP.ligand.clash>
0.0000

> <Gold.PLP.ligand.torsion>
1.5385

> <Gold.PLP.Chemscore.Hbond>
2.0000

> <Gold.PLP.Chemscore.CHOScore>
1.0000

> <Gold.PLP.Chemscore.Metal>
0.0000

> <Gold.Chemscore.Hbonds>
donor molecule, donor type, donor heavy atom, donor atom, acceptor molecule, acceptor atom, score
      L1  H    11    45       P1 10175  2.00
      L1  C    10    36       P1  7957  0.54

> <Gold.PLP.Chemscore.Internal.Correction>
0.0446

> <Gold.Rescore>
     Score         DG    S(hbond)    S(metal)    S(lipo)     H(rot)  DE(clash)    DE(int)     intcor
     12.35     -14.02       0.97        0.00      95.93       2.32       0.14       1.53       ----

> <Gold.Chemscore.Fitness>
12.3491

> <Gold.Chemscore.DG>
-14.0176

> <Gold.Chemscore.ZeroCoef>
-5.4800

> <Gold.Chemscore.Hbond>
0.9746

> <Gold.Chemscore.Metal>
0.0000

> <Gold.Chemscore.Lipo>
95.9338

> <Gold.Chemscore.Internal_Hbond>
0.0000

> <Gold.Chemscore.DEClash>
0.1379

> <Gold.Chemscore.DEInternal>
1.5306

> <Gold.Chemscore.Rot>
2.3210

> <Gold.Chemscore.Internal.Correction>
   9.000000E+99

> <Gold.Chemscore.Hbonds>
donor molecule, donor type, donor heavy atom, donor atom, acceptor molecule, acceptor atom, score
      L1  H    11    45       P1 10175  0.30

> <Gold.Chemscore.Hbond.Weighted>
-3.2550

> <Gold.Chemscore.Metal.Weighted>
-0.0000

> <Gold.Chemscore.Lipo.Weighted>
-11.2243

> <Gold.Chemscore.Internal_Hbond.Weighted>
0.0000

> <Gold.Chemscore.DEClash.Weighted>
0.1379

> <Gold.Chemscore.DEInternal.Weighted>
1.5306

> <Gold.Chemscore.Rot.Weighted>
5.9416

> <Gold.Chemscore.Internal.Correction.Weighted>
   9.000000E+99

> <Gold.Protein.RotatedTorsions>
[ 6907 6896 6895 6894 ] final -123.73 input  -60.11 | X-H torsion
[ 7974 7965 7964 7962 ] final  156.81 input  175.53 | X-H torsion
[ 8008 7997 7996 7995 ] final -130.19 input   59.86 | X-H torsion
[ 10167 10162 10161 10158 ] final  127.88 input  -65.29 | X-H torsion
[ 10718 10713 10712 10709 ] final  171.91 input   66.30 | X-H torsion
[ 10763 10752 10751 10750 ] final   55.13 input  -60.55 | X-H torsion
[ 11005 11000 10999 10996 ] final  -18.09 input  -57.11 | X-H torsion

> <Gold.Protein.ActiveResidues>
 VAL166  LYS551  ARG553  GLY616  TRP617  ASP618  TYR619  PRO620  LYS621  CYS622 
 ASP623  PHE694  ASN695  SER759  ASP760  ASP761  ALA762  ILE779  LEU786  VAL792 
 PHE793  MET794  SER795  GLU796  ALA797  LYS798  CYS799  TRP800  GLU811  SER814 

> <Gold.Protein.RotatedAtoms>
  150.8699  133.7520  159.2964 H   0  0  0  0  0  0  0  0  0  0  0  0  # atno 6907 bound_to 6896
  151.5135  135.1064  159.9870 H   0  0  0  0  0  0  0  0  0  0  0  0  # atno 6908 bound_to 6896
  152.4688  133.7937  159.6971 H   0  0  0  0  0  0  0  0  0  0  0  0  # atno 6909 bound_to 6896
  144.7941  139.7255  143.6209 H   0  0  0  0  0  0  0  0  0  0  0  0  # atno 7974 bound_to 7965
  155.2917  140.0448  157.3023 H   0  0  0  0  0  0  0  0  0  0  0  0  # atno 8008 bound_to 7997
  154.5537  140.2325  155.8411 H   0  0  0  0  0  0  0  0  0  0  0  0  # atno 8009 bound_to 7997
  156.1989  140.3031  155.9492 H   0  0  0  0  0  0  0  0  0  0  0  0  # atno 8010 bound_to 7997
  139.5556  144.6846  151.4194 H   0  0  0  0  0  0  0  0  0  0  0  0  # atno 10167 bound_to 10162
  156.9867  131.0135  151.2867 H   0  0  0  0  0  0  0  0  0  0  0  0  # atno 10718 bound_to 10713
  152.9813  135.5721  154.5016 H   0  0  0  0  0  0  0  0  0  0  0  0  # atno 10763 bound_to 10752
  154.4534  135.2779  155.1766 H   0  0  0  0  0  0  0  0  0  0  0  0  # atno 10764 bound_to 10752
  154.3385  135.6234  153.5638 H   0  0  0  0  0  0  0  0  0  0  0  0  # atno 10765 bound_to 10752
  140.8233  133.8051  155.9682 H   0  0  0  0  0  0  0  0  0  0  0  0  # atno 11005 bound_to 11000
  146.2203  139.5623  142.9623 LP  0  0  0  0  0  0  0  0  0  0  0  0  # atno 17320 bound_to 7965
  145.5720  141.0393  143.2169 LP  0  0  0  0  0  0  0  0  0  0  0  0  # atno 17321 bound_to 7965
  140.6827  143.8044  150.7144 LP  0  0  0  0  0  0  0  0  0  0  0  0  # atno 17342 bound_to 10162
  140.1502  143.4364  152.2136 LP  0  0  0  0  0  0  0  0  0  0  0  0  # atno 17343 bound_to 10162
  157.5488  130.8168  149.8119 LP  0  0  0  0  0  0  0  0  0  0  0  0  # atno 17370 bound_to 10713
  156.0223  130.3791  150.1925 LP  0  0  0  0  0  0  0  0  0  0  0  0  # atno 17371 bound_to 10713
  140.9075  134.2301  157.5005 LP  0  0  0  0  0  0  0  0  0  0  0  0  # atno 17394 bound_to 11000
  139.8707  134.9735  156.4812 LP  0  0  0  0  0  0  0  0  0  0  0  0  # atno 17395 bound_to 11000

$$$$
