#       Name:                AV-unprocessed.smi:1159
#       Creating user name   scv26
#       Creation time:       Fri Mar 27 03:49:33 2020


#       File generated by GOLD software.
#

@<TRIPOS>MOLECULE
AV-unprocessed.smi:1159
    48    49     1
SMALL
NO_CHARGES


@<TRIPOS>ATOM
      1 ****        -0.2258  -1.2958   0.4836 O.2            1 S1                 0.0000
      2 ****        -0.5129  -0.2910  -0.1670 C.2            1 S1                 0.0000
      3 ****         0.3705   0.6012  -0.6464 N.am           1 S1                 0.0000
      4 ****         1.7876   0.5767  -0.5443 C.ar           1 S1                 0.0000
      5 ****         2.5499  -0.6029  -0.3724 C.ar           1 S1                 0.0000
      6 ****         3.9525  -0.5022  -0.3034 C.ar           1 S1                 0.0000
      7 ****         4.5515   0.7681  -0.4151 C.ar           1 S1                 0.0000
      8 ****         5.9263   0.8571  -0.3432 O.3            1 S1                 0.0000
      9 ****         6.5313   2.1438  -0.4418 C.3            1 S1                 0.0000
     10 ****         8.0526   1.9960  -0.3253 C.3            1 S1                 0.0000
     11 ****         8.5195   1.2451  -1.3224 F              1 S1                 0.0000
     12 ****         8.6188   3.2002  -0.3951 F              1 S1                 0.0000
     13 ****         8.3741   1.4399   0.8425 F              1 S1                 0.0000
     14 ****         3.8283   1.9011  -0.5947 N.ar           1 S1                 0.0000
     15 ****         2.4840   1.7973  -0.6619 C.ar           1 S1                 0.0000
     16 ****        -1.7709   0.0647  -0.4648 N.am           1 S1                 0.0000
     17 ****        -2.9801  -0.6666  -0.0818 C.3            1 S1                 0.0000
     18 ****        -3.4156  -0.2561   1.3429 C.3            1 S1                 0.0000
     19 ****        -4.3004  -1.2937   2.0523 C.3            1 S1                 0.0000
     20 ****        -5.6534  -1.5573   1.3753 C.3            1 S1                 0.0000
     21 ****        -5.5312  -2.2060  -0.0141 C.3            1 S1                 0.0000
     22 ****        -5.1959  -1.2423  -1.0550 N.am           1 S1                 0.0000
     23 ****        -4.0778  -0.5065  -1.1509 C.2            1 S1                 0.0000
     24 ****        -3.9332   0.2909  -2.0773 O.2            1 S1                 0.0000
     25 ****        -0.0194   1.4257  -1.0795 H              1 S1                 0.0000
     26 ****         2.0913  -1.5774  -0.3071 H              1 S1                 0.0000
     27 ****         4.5590  -1.3860  -0.1709 H              1 S1                 0.0000
     28 ****         6.2808   2.6071  -1.3975 H              1 S1                 0.0000
     29 ****         6.1644   2.7958   0.3527 H              1 S1                 0.0000
     30 ****         1.9466   2.7229  -0.8082 H              1 S1                 0.0000
     31 ****        -1.9111   0.9044  -1.0077 H              1 S1                 0.0000
     32 ****        -2.7206  -1.7271  -0.0711 H              1 S1                 0.0000
     33 ****        -2.5322  -0.1078   1.9656 H              1 S1                 0.0000
     34 ****        -3.9209   0.7104   1.3162 H              1 S1                 0.0000
     35 ****        -3.7529  -2.2320   2.1509 H              1 S1                 0.0000
     36 ****        -4.4844  -0.9506   3.0708 H              1 S1                 0.0000
     37 ****        -6.2239  -2.2290   2.0175 H              1 S1                 0.0000
     38 ****        -6.2352  -0.6364   1.3154 H              1 S1                 0.0000
     39 ****        -4.8103  -3.0247  -0.0057 H              1 S1                 0.0000
     40 ****        -6.4903  -2.6470  -0.2867 H              1 S1                 0.0000
     41 ****        -5.8910  -1.1111  -1.7758 H              1 S1                 0.0000
     42 ****         0.7306  -1.4995   0.6931 LP             1 S1                 0.0000
     43 ****        -0.9489  -1.9083   0.8027 LP             1 S1                 0.0000
     44 ****         6.2973   0.2990  -1.0853 LP             1 S1                 0.0000
     45 ****         6.2016   0.4682   0.5360 LP             1 S1                 0.0000
     46 ****         4.2790   2.7902  -0.6752 LP             1 S1                 0.0000
     47 ****        -3.0994   0.8396  -2.1392 LP             1 S1                 0.0000
     48 ****        -4.6495   0.3901  -2.7680 LP             1 S1                 0.0000
@<TRIPOS>BOND
    1    1    2 2     
    2    2    3 am    
    3    2   16 am    
    4    3    4 1     
    5    3   25 1     
    6    4   15 ar    
    7    4    5 ar    
    8    5    6 ar    
    9    5   26 1     
   10    6    7 ar    
   11    6   27 1     
   12    7    8 1     
   13    7   14 ar    
   14    8    9 1     
   15    9   10 1     
   16    9   28 1     
   17    9   29 1     
   18   10   11 1     
   19   10   12 1     
   20   10   13 1     
   21   14   15 ar    
   22   15   30 1     
   23   16   17 1     
   24   16   31 1     
   25   17   23 1     
   26   17   18 1     
   27   17   32 1     
   28   18   19 1     
   29   18   33 1     
   30   18   34 1     
   31   19   20 1     
   32   19   35 1     
   33   19   36 1     
   34   20   21 1     
   35   20   37 1     
   36   20   38 1     
   37   21   22 1     
   38   21   39 1     
   39   21   40 1     
   40   22   23 am    
   41   22   41 1     
   42   23   24 2     
   43    1   42 1     
   44    1   43 1     
   45    8   44 1     
   46    8   45 1     
   47   14   46 1     
   48   24   47 1     
   49   24   48 1     
@<TRIPOS>SUBSTRUCTURE
      1 S1             1
@<TRIPOS>SET
LONE_PAIRS      STATIC     ATOMS    <user>   **** ""
7 42 43 44 45 46 47 48
DONOR_HYDROGENS      STATIC     ATOMS    <user>   **** ""
3 25 31 41
ATOM$BLUE        STATIC     ATOMS    COLORGROUP SYSTEM
7 42 43 44 45 46 47 48
ATOM$RED        STATIC     ATOMS    COLORGROUP SYSTEM
3 25 31 41
