#       Name:                AV-unprocessed.smi:1983
#       Creating user name   scv26
#       Creation time:       Fri Mar 27 10:22:11 2020


#       File generated by GOLD software.
#

@<TRIPOS>MOLECULE
AV-unprocessed.smi:1983
    57    58     1
SMALL
NO_CHARGES


@<TRIPOS>ATOM
      1 ****        -5.1961   0.0404  -1.8721 C.3            1 S1                 0.0000
      2 ****        -4.9029  -0.9752  -2.9904 C.3            1 S1                 0.0000
      3 ****        -6.0923  -1.9159  -3.2507 C.3            1 S1                 0.0000
      4 ****        -7.1505  -1.2178  -3.8722 O.3            1 S1                 0.0000
      5 ****        -3.7277  -1.7735  -2.6520 N.am           1 S1                 0.0000
      6 ****        -2.4542  -1.4030  -2.8469 C.2            1 S1                 0.0000
      7 ****        -2.1138  -0.3296  -3.3441 O.2            1 S1                 0.0000
      8 ****        -1.5951  -2.3406  -2.4230 N.am           1 S1                 0.0000
      9 ****        -0.1399  -2.2299  -2.4753 C.3            1 S1                 0.0000
     10 ****         0.4992  -1.4825  -1.3104 C.ar           1 S1                 0.0000
     11 ****        -0.2153  -1.1128  -0.1497 C.ar           1 S1                 0.0000
     12 ****         0.4580  -0.4283   0.8799 C.ar           1 S1                 0.0000
     13 ****         1.8325  -0.1310   0.7285 C.ar           1 S1                 0.0000
     14 ****         2.5233   0.5565   1.7492 N.3            1 S1                 0.0000
     15 ****         3.9826   0.5903   1.6853 C.3            1 S1                 0.0000
     16 ****         4.5651   1.1149   3.0106 C.3            1 S1                 0.0000
     17 ****         6.0879   1.2707   2.9486 C.3            1 S1                 0.0000
     18 ****         3.9953   2.3893   3.2967 O.3            1 S1                 0.0000
     19 ****         2.5811   2.3287   3.4628 C.3            1 S1                 0.0000
     20 ****         2.0843   3.7249   3.8521 C.3            1 S1                 0.0000
     21 ****         1.9351   1.8294   2.1561 C.3            1 S1                 0.0000
     22 ****         2.5192  -0.4975  -0.3817 N.ar           1 S1                 0.0000
     23 ****         1.8676  -1.1498  -1.3673 C.ar           1 S1                 0.0000
     24 ****        -6.0616   0.6565  -2.1166 H              1 S1                 0.0000
     25 ****        -4.3524   0.7135  -1.7172 H              1 S1                 0.0000
     26 ****        -5.4014  -0.4593  -0.9248 H              1 S1                 0.0000
     27 ****        -4.6929  -0.4317  -3.9140 H              1 S1                 0.0000
     28 ****        -5.7967  -2.7284  -3.9157 H              1 S1                 0.0000
     29 ****        -6.4455  -2.3704  -2.3244 H              1 S1                 0.0000
     30 ****        -7.8598  -1.8226  -4.0275 H              1 S1                 0.0000
     31 ****        -3.8994  -2.6751  -2.2317 H              1 S1                 0.0000
     32 ****        -1.9725  -3.1893  -2.0278 H              1 S1                 0.0000
     33 ****         0.2700  -3.2398  -2.4948 H              1 S1                 0.0000
     34 ****         0.1638  -1.7595  -3.4123 H              1 S1                 0.0000
     35 ****        -1.2629  -1.3461  -0.0339 H              1 S1                 0.0000
     36 ****        -0.0800  -0.1540   1.7750 H              1 S1                 0.0000
     37 ****         4.3720  -0.4093   1.4877 H              1 S1                 0.0000
     38 ****         4.2916   1.2315   0.8584 H              1 S1                 0.0000
     39 ****         4.3204   0.4238   3.8195 H              1 S1                 0.0000
     40 ****         6.5721   0.3147   2.7476 H              1 S1                 0.0000
     41 ****         6.4792   1.6492   3.8932 H              1 S1                 0.0000
     42 ****         6.3817   1.9678   2.1632 H              1 S1                 0.0000
     43 ****         2.3467   1.6381   4.2749 H              1 S1                 0.0000
     44 ****         1.0046   3.7294   4.0028 H              1 S1                 0.0000
     45 ****         2.3176   4.4562   3.0778 H              1 S1                 0.0000
     46 ****         2.5512   4.0611   4.7784 H              1 S1                 0.0000
     47 ****         2.0910   2.5564   1.3578 H              1 S1                 0.0000
     48 ****         0.8587   1.7446   2.3003 H              1 S1                 0.0000
     49 ****         2.4600  -1.4161  -2.2304 H              1 S1                 0.0000
     50 ****        -6.8373  -0.8353  -4.7414 LP             1 S1                 0.0000
     51 ****        -7.4626  -0.4783  -3.2758 LP             1 S1                 0.0000
     52 ****        -2.8076   0.3306  -3.6317 LP             1 S1                 0.0000
     53 ****        -1.1434  -0.1178  -3.4604 LP             1 S1                 0.0000
     54 ****         2.3583  -0.0757   2.5062 LP             1 S1                 0.0000
     55 ****         4.2034   3.0107   2.5414 LP             1 S1                 0.0000
     56 ****         4.4026   2.7411   4.1395 LP             1 S1                 0.0000
     57 ****         3.4931  -0.2878  -0.4688 LP             1 S1                 0.0000
@<TRIPOS>BOND
    1    1    2 1     
    2    1   24 1     
    3    1   25 1     
    4    1   26 1     
    5    2    3 1     
    6    2    5 1     
    7    2   27 1     
    8    3    4 1     
    9    3   28 1     
   10    3   29 1     
   11    4   30 1     
   12    5    6 am    
   13    5   31 1     
   14    6    7 2     
   15    6    8 am    
   16    8    9 1     
   17    8   32 1     
   18    9   10 1     
   19    9   33 1     
   20    9   34 1     
   21   10   23 ar    
   22   10   11 ar    
   23   11   12 ar    
   24   11   35 1     
   25   12   13 ar    
   26   12   36 1     
   27   13   14 1     
   28   13   22 ar    
   29   14   21 1     
   30   14   15 1     
   31   15   16 1     
   32   15   37 1     
   33   15   38 1     
   34   16   17 1     
   35   16   18 1     
   36   16   39 1     
   37   17   40 1     
   38   17   41 1     
   39   17   42 1     
   40   18   19 1     
   41   19   20 1     
   42   19   21 1     
   43   19   43 1     
   44   20   44 1     
   45   20   45 1     
   46   20   46 1     
   47   21   47 1     
   48   21   48 1     
   49   22   23 ar    
   50   23   49 1     
   51    4   50 1     
   52    4   51 1     
   53    7   52 1     
   54    7   53 1     
   55   14   54 1     
   56   18   55 1     
   57   18   56 1     
   58   22   57 1     
@<TRIPOS>SUBSTRUCTURE
      1 S1             1
@<TRIPOS>SET
LONE_PAIRS      STATIC     ATOMS    <user>   **** ""
8 50 51 52 53 54 55 56 57
DONOR_HYDROGENS      STATIC     ATOMS    <user>   **** ""
3 30 31 32
ATOM$BLUE        STATIC     ATOMS    COLORGROUP SYSTEM
8 50 51 52 53 54 55 56 57
ATOM$RED        STATIC     ATOMS    COLORGROUP SYSTEM
3 30 31 32
