AV-unprocessed.smi:3158|AV-procd|sdf|12041|dock1
  -GOLD-   2272017463D 1   1.00000     0.00000
 Structure written by MMmdl.
 40 40  0  0  0  0  0  0  0  0  2 V2000
  141.8918  135.4321  153.3757 C   0  0  0  0  0  0  0  0  0  0  0  0
  142.8716  136.5010  152.8696 C   0  0  0  0  0  0  0  0  0  0  0  0
  143.6685  137.1916  153.9920 C   0  0  2  0  0  0  0  0  0  0  0  0
  142.7526  138.0081  154.9173 C   0  0  0  0  0  0  0  0  0  0  0  0
  144.6994  138.0549  153.4200 N   0  0  0  0  0  0  0  0  0  0  0  0
  146.0234  137.8607  153.5224 C   0  0  0  0  0  0  0  0  0  0  0  0
  146.5234  136.9133  154.1307 O   0  0  0  0  0  0  0  0  0  0  0  0
  146.9184  138.8930  152.8212 C   0  0  2  0  0  0  0  0  0  0  0  0
  146.5516  138.9794  151.3317 C   0  0  0  0  0  0  0  0  0  0  0  0
  148.3535  138.5605  152.9638 N   0  3  0  0  0  0  0  0  0  0  0  0
  148.8916  138.6634  154.3386 C   0  0  0  0  0  0  0  0  0  0  0  0
  150.3870  139.0141  154.3298 C   0  0  0  0  0  0  0  0  0  0  0  0
  150.7057  140.0398  155.3064 N   0  0  0  0  0  0  0  0  0  0  0  0
  151.5560  139.9579  156.3890 C   0  0  0  0  0  0  0  0  0  0  0  0
  151.5495  141.1775  157.0031 C   0  0  0  0  0  0  0  0  0  0  0  0
  150.6532  141.9497  156.2126 C   0  0  0  0  0  0  0  0  0  0  0  0
  150.1518  141.2668  155.1958 N   0  0  0  0  0  0  0  0  0  0  0  0
  141.3225  135.0076  152.5487 H   0  0  0  0  0  0  0  0  0  0  0  0
  141.1800  135.8563  154.0843 H   0  0  0  0  0  0  0  0  0  0  0  0
  142.4110  134.6119  153.8719 H   0  0  0  0  0  0  0  0  0  0  0  0
  143.5575  136.0494  152.1514 H   0  0  0  0  0  0  0  0  0  0  0  0
  142.3080  137.2535  152.3166 H   0  0  0  0  0  0  0  0  0  0  0  0
  144.1450  136.4113  154.5882 H   0  0  0  0  0  0  0  0  0  0  0  0
  141.9864  137.3759  155.3669 H   0  0  0  0  0  0  0  0  0  0  0  0
  142.2468  138.8063  154.3729 H   0  0  0  0  0  0  0  0  0  0  0  0
  143.3170  138.4647  155.7309 H   0  0  0  0  0  0  0  0  0  0  0  0
  144.3765  138.8557  152.8961 H   0  0  0  0  0  0  0  0  0  0  0  0
  146.7497  139.8732  153.2709 H   0  0  0  0  0  0  0  0  0  0  0  0
  145.5052  139.2563  151.1948 H   0  0  0  0  0  0  0  0  0  0  0  0
  146.7129  138.0278  150.8230 H   0  0  0  0  0  0  0  0  0  0  0  0
  147.1552  139.7323  150.8239 H   0  0  0  0  0  0  0  0  0  0  0  0
  148.4894  137.6147  152.6338 H   0  0  0  0  0  0  0  0  0  0  0  0
  148.3335  139.4296  154.8775 H   0  0  0  0  0  0  0  0  0  0  0  0
  148.7426  137.7262  154.8762 H   0  0  0  0  0  0  0  0  0  0  0  0
  150.9951  138.1291  154.5241 H   0  0  0  0  0  0  0  0  0  0  0  0
  150.6760  139.3823  153.3447 H   0  0  0  0  0  0  0  0  0  0  0  0
  152.0913  139.0507  156.6280 H   0  0  0  0  0  0  0  0  0  0  0  0
  152.1015  141.4736  157.8829 H   0  0  0  0  0  0  0  0  0  0  0  0
  150.3556  142.9795  156.3456 H   0  0  0  0  0  0  0  0  0  0  0  0
  148.8879  139.1840  152.3762 H   0  0  0  0  0  0  0  0  0  0  0  0
  1  2  1  0  0  0  0
  1 18  1  0  0  0  0
  1 19  1  0  0  0  0
  1 20  1  0  0  0  0
  2  3  1  0  0  0  0
  2 21  1  0  0  0  0
  2 22  1  0  0  0  0
  3  4  1  0  0  0  0
  3  5  1  0  0  0  0
  3 23  1  0  0  0  0
  4 24  1  0  0  0  0
  4 25  1  0  0  0  0
  4 26  1  0  0  0  0
  5  6  1  0  0  0  0
  5 27  1  0  0  0  0
  6  7  2  0  0  0  0
  6  8  1  0  0  0  0
  8  9  1  0  0  0  0
  8 10  1  0  0  0  0
  8 28  1  0  0  0  0
  9 29  1  0  0  0  0
  9 30  1  0  0  0  0
  9 31  1  0  0  0  0
 10 11  1  0  0  0  0
 10 32  1  0  0  0  0
 10 40  1  0  0  0  0
 11 12  1  0  0  0  0
 11 33  1  0  0  0  0
 11 34  1  0  0  0  0
 12 13  1  0  0  0  0
 12 35  1  0  0  0  0
 12 36  1  0  0  0  0
 13 17  1  0  0  0  0
 13 14  1  0  0  0  0
 14 15  2  0  0  0  0
 14 37  1  0  0  0  0
 15 16  1  0  0  0  0
 15 38  1  0  0  0  0
 16 17  2  0  0  0  0
 16 39  1  0  0  0  0
M  CHG  1  10   1
M  END
> <s_m_source_file>
AV-unprocessed.smi

> <i_m_source_file_index>
3158

> <i_lp_mmshare_version>
43012

> <i_f3d_flags>
0

> <s_epik_input>
W0NIM11bQ0gyXVtDQEhdKFtDSDNdKVtOSF1DKD1PKVtDQEhdKFtDSDNdKVtOSF1bQ0gyXVtDSDJdbjFbY0hdW2NIXVtjSF1uMQ==

> <s_epik_cmdline>
J2VwaWtfcHl0aG9uJywgJy1waCcsICc3LjAnLCAnLXRuJywgJzgnLCAnLW1hJywgJzIwMCcsICctbWV0YWxfYmluZGluZycsICctaW1hZScsICc8aW5maWxlLm1hZT4nLCAnLW9tYWUnLCAnPG91dGZpbGUubWFlPic=

> <r_lp_tautomer_probability>
1

> <r_epik_Ionization_Penalty>
0.20724

> <r_epik_Ionization_Penalty_Charging>
0.207237

> <r_epik_Ionization_Penalty_Neutral>
3.33806e-06

> <r_epik_State_Penalty>
0.197234

> <r_epik_Charging_Adjusted_Penalty>
0.404471

> <i_epik_Tot_Q>
1

> <i_epik_Tot_abs_Q>
1

> <r_epik_Metal_State_Penalty>
0.197524

> <b_epik_Metal_Only>
0

> <s_lp_Force_Field>
OPLS_2005

> <r_lp_Energy>
5.42496

> <b_lp_Chiralities_Consistent>
1

> <s_lp_Variant>
AV-unprocessed.smi:3158-1

> <Gold.Version>
5.8.1

> <Gold.Id.Protein>
6NUR|6NUR_protein|mol2

> <Gold.PLP.Fitness>
45.1437

> <Gold.PLP.PLP>
-31.2266

> <Gold.PLP.part.hbond>
-4.0000

> <Gold.PLP.part.metal>
0.0000

> <Gold.PLP.part.buried>
-2.0535

> <Gold.PLP.part.nonpolar>
-25.5159

> <Gold.PLP.part.repulsive>
0.2623

> <Gold.PLP.ligand.clash>
0.0000

> <Gold.PLP.ligand.torsion>
0.6011

> <Gold.PLP.Chemscore.Hbond>
4.0000

> <Gold.PLP.Chemscore.CHOScore>
1.0000

> <Gold.PLP.Chemscore.Metal>
0.0000

> <Gold.Chemscore.Hbonds>
donor molecule, donor type, donor heavy atom, donor atom, acceptor molecule, acceptor atom, score
      L1  H     5    27       P1 10175  1.00
      L1  H    10    32       P1  7948  2.00
      L1  H    10    40       P1  7957  1.00
      L1  C    16    39       P1  8028  1.00

> <Gold.PLP.Chemscore.Internal.Correction>
0.1191

> <Gold.Rescore>
     Score         DG    S(hbond)    S(metal)    S(lipo)     H(rot)  DE(clash)    DE(int)     intcor
     16.54     -17.43       3.00        0.00      65.04       2.21       0.12       0.77       ----

> <Gold.Chemscore.Fitness>
16.5379

> <Gold.Chemscore.DG>
-17.4305

> <Gold.Chemscore.ZeroCoef>
-5.4800

> <Gold.Chemscore.Hbond>
2.9961

> <Gold.Chemscore.Metal>
0.0000

> <Gold.Chemscore.Lipo>
65.0367

> <Gold.Chemscore.Internal_Hbond>
0.0000

> <Gold.Chemscore.DEClash>
0.1202

> <Gold.Chemscore.DEInternal>
0.7724

> <Gold.Chemscore.Rot>
2.2132

> <Gold.Chemscore.Internal.Correction>
   9.000000E+99

> <Gold.Chemscore.Hbonds>
donor molecule, donor type, donor heavy atom, donor atom, acceptor molecule, acceptor atom, score
      L1  H     5    27       P1 10175  1.00
      L1  H    10    32       P1  7948  0.99
      L1  H    10    40       P1  7957  1.00

> <Gold.Chemscore.Hbond.Weighted>
-10.0071

> <Gold.Chemscore.Metal.Weighted>
-0.0000

> <Gold.Chemscore.Lipo.Weighted>
-7.6093

> <Gold.Chemscore.Internal_Hbond.Weighted>
0.0000

> <Gold.Chemscore.DEClash.Weighted>
0.1202

> <Gold.Chemscore.DEInternal.Weighted>
0.7724

> <Gold.Chemscore.Rot.Weighted>
5.6658

> <Gold.Chemscore.Internal.Correction.Weighted>
   9.000000E+99

> <Gold.Protein.RotatedTorsions>
[ 6907 6896 6895 6894 ] final   62.85 input  -60.11 | X-H torsion
[ 7974 7965 7964 7962 ] final  172.94 input  175.53 | X-H torsion
[ 8008 7997 7996 7995 ] final  162.58 input   59.86 | X-H torsion
[ 10167 10162 10161 10158 ] final  162.11 input  -65.29 | X-H torsion
[ 10718 10713 10712 10709 ] final -106.94 input   66.30 | X-H torsion
[ 10763 10752 10751 10750 ] final  -21.49 input  -60.55 | X-H torsion
[ 11005 11000 10999 10996 ] final  -95.32 input  -57.11 | X-H torsion

> <Gold.Protein.ActiveResidues>
 VAL166  LYS551  ARG553  GLY616  TRP617  ASP618  TYR619  PRO620  LYS621  CYS622 
 ASP623  PHE694  ASN695  SER759  ASP760  ASP761  ALA762  ILE779  LEU786  VAL792 
 PHE793  MET794  SER795  GLU796  ALA797  LYS798  CYS799  TRP800  GLU811  SER814 

> <Gold.Protein.RotatedAtoms>
  152.4206  134.5963  159.9987 H   0  0  0  0  0  0  0  0  0  0  0  0  # atno 6907 bound_to 6896
  151.6114  133.3341  159.3076 H   0  0  0  0  0  0  0  0  0  0  0  0  # atno 6908 bound_to 6896
  150.8094  134.7277  159.6739 H   0  0  0  0  0  0  0  0  0  0  0  0  # atno 6909 bound_to 6896
  144.7255  139.9573  143.6434 H   0  0  0  0  0  0  0  0  0  0  0  0  # atno 7974 bound_to 7965
  156.2021  140.1746  156.7877 H   0  0  0  0  0  0  0  0  0  0  0  0  # atno 8008 bound_to 7997
  154.5605  140.0700  156.8843 H   0  0  0  0  0  0  0  0  0  0  0  0  # atno 8009 bound_to 7997
  155.2856  140.3352  155.4258 H   0  0  0  0  0  0  0  0  0  0  0  0  # atno 8010 bound_to 7997
  139.4857  144.4470  151.8879 H   0  0  0  0  0  0  0  0  0  0  0  0  # atno 10167 bound_to 10162
  156.0413  130.5638  150.7752 H   0  0  0  0  0  0  0  0  0  0  0  0  # atno 10718 bound_to 10713
  153.6370  135.6986  153.5255 H   0  0  0  0  0  0  0  0  0  0  0  0  # atno 10763 bound_to 10752
  153.2813  135.4185  155.1080 H   0  0  0  0  0  0  0  0  0  0  0  0  # atno 10764 bound_to 10752
  154.8508  135.3602  154.5914 H   0  0  0  0  0  0  0  0  0  0  0  0  # atno 10765 bound_to 10752
  141.1445  133.8018  157.0419 H   0  0  0  0  0  0  0  0  0  0  0  0  # atno 11005 bound_to 11000
  146.0664  139.3655  143.0549 LP  0  0  0  0  0  0  0  0  0  0  0  0  # atno 17320 bound_to 7965
  145.8025  140.9764  143.0991 LP  0  0  0  0  0  0  0  0  0  0  0  0  # atno 17321 bound_to 7965
  140.3924  144.2598  150.5898 LP  0  0  0  0  0  0  0  0  0  0  0  0  # atno 17342 bound_to 10162
  140.5133  143.2285  151.8501 LP  0  0  0  0  0  0  0  0  0  0  0  0  # atno 17343 bound_to 10162
  157.5235  131.0933  151.0048 LP  0  0  0  0  0  0  0  0  0  0  0  0  # atno 17370 bound_to 10713
  157.0373  130.5735  149.5351 LP  0  0  0  0  0  0  0  0  0  0  0  0  # atno 17371 bound_to 10713
  140.0687  134.9714  157.1431 LP  0  0  0  0  0  0  0  0  0  0  0  0  # atno 17394 bound_to 11000
  140.3742  134.2357  155.7175 LP  0  0  0  0  0  0  0  0  0  0  0  0  # atno 17395 bound_to 11000

$$$$
