AV-unprocessed.smi:213|AV-procd|sdf|1636|dock2
  -GOLD-   2262019593D 1   1.00000     0.00000
 Structure written by MMmdl.
 59 62  0  0  0  0  0  0  0  0  2 V2000
  150.8464  141.4905  155.9083 C   0  0  0  0  0  0  0  0  0  0  0  0
  150.4521  141.0284  157.3238 C   0  0  1  0  0  0  0  0  0  0  0  0
  149.6398  142.1022  158.0859 C   0  0  0  0  0  0  0  0  0  0  0  0
  150.3929  143.3680  158.2711 N   0  3  0  0  0  0  0  0  0  0  0  0
  149.9014  144.1555  159.4268 C   0  0  0  0  0  0  0  0  0  0  0  0
  150.6763  145.4785  159.5472 C   0  0  0  0  0  0  0  0  0  0  0  0
  152.0673  145.2074  159.6631 O   0  0  0  0  0  0  0  0  0  0  0  0
  152.5738  144.5290  158.5203 C   0  0  0  0  0  0  0  0  0  0  0  0
  151.8619  143.1747  158.3636 C   0  0  0  0  0  0  0  0  0  0  0  0
  149.7371  139.7459  157.2775 N   0  0  0  0  0  0  0  0  0  0  0  0
  148.4554  139.6470  156.5825 C   0  0  0  0  0  0  0  0  0  0  0  0
  150.0043  138.7852  158.2071 C   0  0  0  0  0  0  0  0  0  0  0  0
  151.2068  138.7876  158.8446 N   0  0  0  0  0  0  0  0  0  0  0  0
  151.4922  137.8646  159.7675 C   0  0  0  0  0  0  0  0  0  0  0  0
  150.7345  136.8567  160.2001 N   0  0  0  0  0  0  0  0  0  0  0  0
  149.5301  136.8378  159.5624 C   0  0  0  0  0  0  0  0  0  0  0  0
  149.0859  137.7530  158.5647 C   0  0  0  0  0  0  0  0  0  0  0  0
  147.8071  137.3997  158.1457 N   0  0  0  0  0  0  0  0  0  0  0  0
  147.5110  136.3475  158.8585 C   0  0  0  0  0  0  0  0  0  0  0  0
  148.4905  135.9423  159.7353 N   0  0  0  0  0  0  0  0  0  0  0  0
  148.4352  134.8094  160.6424 C   0  0  0  0  0  0  0  0  0  0  0  0
  148.6159  133.4616  159.9161 C   0  0  1  0  0  0  0  0  0  0  0  0
  149.9802  133.2921  159.5801 O   0  0  0  0  0  0  0  0  0  0  0  0
  148.1638  132.2706  160.7814 C   0  0  2  0  0  0  0  0  0  0  0  0
  148.7930  132.2201  162.1724 C   0  0  0  0  0  0  0  0  0  0  0  0
  148.5883  130.7703  162.5606 C   0  0  0  0  0  0  0  0  0  0  0  0
  148.6346  130.0368  161.2181 C   0  0  0  0  0  0  0  0  0  0  0  0
  148.5984  131.0439  160.2105 O   0  0  0  0  0  0  0  0  0  0  0  0
  151.4817  142.3755  155.9451 H   0  0  0  0  0  0  0  0  0  0  0  0
  149.9764  141.7382  155.2999 H   0  0  0  0  0  0  0  0  0  0  0  0
  151.4063  140.7132  155.3871 H   0  0  0  0  0  0  0  0  0  0  0  0
  151.3939  140.8579  157.8440 H   0  0  0  0  0  0  0  0  0  0  0  0
  148.7238  142.3076  157.5308 H   0  0  0  0  0  0  0  0  0  0  0  0
  149.3222  141.7335  159.0623 H   0  0  0  0  0  0  0  0  0  0  0  0
  148.8377  144.3652  159.3081 H   0  0  0  0  0  0  0  0  0  0  0  0
  150.0139  143.5716  160.3420 H   0  0  0  0  0  0  0  0  0  0  0  0
  150.4881  146.1211  158.6854 H   0  0  0  0  0  0  0  0  0  0  0  0
  150.3488  146.0270  160.4306 H   0  0  0  0  0  0  0  0  0  0  0  0
  152.4427  145.1442  157.6285 H   0  0  0  0  0  0  0  0  0  0  0  0
  153.6459  144.3768  158.6469 H   0  0  0  0  0  0  0  0  0  0  0  0
  152.0943  142.5327  159.2148 H   0  0  0  0  0  0  0  0  0  0  0  0
  152.2409  142.6719  157.4744 H   0  0  0  0  0  0  0  0  0  0  0  0
  147.6963  139.1785  157.2105 H   0  0  0  0  0  0  0  0  0  0  0  0
  148.5661  139.0548  155.6740 H   0  0  0  0  0  0  0  0  0  0  0  0
  148.0753  140.6266  156.2952 H   0  0  0  0  0  0  0  0  0  0  0  0
  152.4675  137.9445  160.2246 H   0  0  0  0  0  0  0  0  0  0  0  0
  146.5642  135.8358  158.7643 H   0  0  0  0  0  0  0  0  0  0  0  0
  149.2014  134.9378  161.4083 H   0  0  0  0  0  0  0  0  0  0  0  0
  147.4740  134.8359  161.1570 H   0  0  0  0  0  0  0  0  0  0  0  0
  148.0415  133.4718  158.9887 H   0  0  0  0  0  0  0  0  0  0  0  0
  150.0509  132.5791  158.9642 H   0  0  0  0  0  0  0  0  0  0  0  0
  147.0756  132.2487  160.8669 H   0  0  0  0  0  0  0  0  0  0  0  0
  149.8592  132.4439  162.1167 H   0  0  0  0  0  0  0  0  0  0  0  0
  148.3337  132.9160  162.8749 H   0  0  0  0  0  0  0  0  0  0  0  0
  149.3404  130.4135  163.2649 H   0  0  0  0  0  0  0  0  0  0  0  0
  147.6074  130.6429  163.0203 H   0  0  0  0  0  0  0  0  0  0  0  0
  149.5478  129.4514  161.1100 H   0  0  0  0  0  0  0  0  0  0  0  0
  147.7847  129.3620  161.1103 H   0  0  0  0  0  0  0  0  0  0  0  0
  150.2176  143.9305  157.4505 H   0  0  0  0  0  0  0  0  0  0  0  0
  1  2  1  0  0  0  0
  1 29  1  0  0  0  0
  1 30  1  0  0  0  0
  1 31  1  0  0  0  0
  2  3  1  0  0  0  0
  2 10  1  0  0  0  0
  2 32  1  0  0  0  0
  3  4  1  0  0  0  0
  3 33  1  0  0  0  0
  3 34  1  0  0  0  0
  4  9  1  0  0  0  0
  4  5  1  0  0  0  0
  4 59  1  0  0  0  0
  5  6  1  0  0  0  0
  5 35  1  0  0  0  0
  5 36  1  0  0  0  0
  6  7  1  0  0  0  0
  6 37  1  0  0  0  0
  6 38  1  0  0  0  0
  7  8  1  0  0  0  0
  8  9  1  0  0  0  0
  8 39  1  0  0  0  0
  8 40  1  0  0  0  0
  9 41  1  0  0  0  0
  9 42  1  0  0  0  0
 10 11  1  0  0  0  0
 10 12  1  0  0  0  0
 11 43  1  0  0  0  0
 11 44  1  0  0  0  0
 11 45  1  0  0  0  0
 12 17  1  0  0  0  0
 12 13  2  0  0  0  0
 13 14  1  0  0  0  0
 14 15  2  0  0  0  0
 14 46  1  0  0  0  0
 15 16  1  0  0  0  0
 16 20  1  0  0  0  0
 16 17  2  0  0  0  0
 17 18  1  0  0  0  0
 18 19  2  0  0  0  0
 19 20  1  0  0  0  0
 19 47  1  0  0  0  0
 20 21  1  0  0  0  0
 21 22  1  0  0  0  0
 21 48  1  0  0  0  0
 21 49  1  0  0  0  0
 22 23  1  0  0  0  0
 22 24  1  0  0  0  0
 22 50  1  0  0  0  0
 23 51  1  0  0  0  0
 24 28  1  0  0  0  0
 24 25  1  0  0  0  0
 24 52  1  0  0  0  0
 25 26  1  0  0  0  0
 25 53  1  0  0  0  0
 25 54  1  0  0  0  0
 26 27  1  0  0  0  0
 26 55  1  0  0  0  0
 26 56  1  0  0  0  0
 27 28  1  0  0  0  0
 27 57  1  0  0  0  0
 27 58  1  0  0  0  0
M  CHG  1   4   1
M  END
> <s_m_source_file>
AV-unprocessed.smi

> <i_m_source_file_index>
213

> <i_lp_mmshare_version>
43012

> <i_f3d_flags>
0

> <s_epik_input>
W0NIMl0xW0NIMl1PW0NIMl1bQ0gyXU4xW0NIMl1bQ0BASF0oW0NIM10pTihbQ0gzXSljKG5bY0hdbjIpYyhjMjMpbltjSF1uM1tDSDJdW0NASF0oW09IXSlbQ0BASF00W0NIMl1bQ0gyXVtDSDJdTzQ=

> <s_epik_cmdline>
J2VwaWtfcHl0aG9uJywgJy1waCcsICc3LjAnLCAnLXRuJywgJzgnLCAnLW1hJywgJzIwMCcsICctbWV0YWxfYmluZGluZycsICctaW1hZScsICc8aW5maWxlLm1hZT4nLCAnLW9tYWUnLCAnPG91dGZpbGUubWFlPic=

> <r_lp_tautomer_probability>
1

> <r_epik_Ionization_Penalty>
0.399679

> <r_epik_Ionization_Penalty_Charging>
0.399433

> <r_epik_Ionization_Penalty_Neutral>
0.000246213

> <r_epik_State_Penalty>
0.286032

> <r_epik_Charging_Adjusted_Penalty>
0.685465

> <i_epik_Tot_Q>
1

> <i_epik_Tot_abs_Q>
1

> <r_epik_Metal_State_Penalty>
0.286072

> <b_epik_Metal_Only>
0

> <s_lp_Force_Field>
OPLS_2005

> <r_lp_Energy>
43.5533

> <b_lp_Chiralities_Consistent>
1

> <s_lp_Variant>
AV-unprocessed.smi:213-4

> <Gold.Version>
5.8.1

> <Gold.Id.Protein>
6NUR|6NUR_protein|mol2

> <Gold.PLP.Fitness>
46.5703

> <Gold.PLP.PLP>
-36.5474

> <Gold.PLP.part.hbond>
-3.0000

> <Gold.PLP.part.metal>
0.0000

> <Gold.PLP.part.buried>
-7.1823

> <Gold.PLP.part.nonpolar>
-27.1700

> <Gold.PLP.part.repulsive>
0.0819

> <Gold.PLP.ligand.clash>
0.0000

> <Gold.PLP.ligand.torsion>
1.1890

> <Gold.PLP.Chemscore.Hbond>
3.8880

> <Gold.PLP.Chemscore.CHOScore>
0.0000

> <Gold.PLP.Chemscore.Metal>
0.0000

> <Gold.Chemscore.Hbonds>
donor molecule, donor type, donor heavy atom, donor atom, acceptor molecule, acceptor atom, score
      L1  H     4    59       P1  8028  0.42
      P1  H  6896  6909       L1    15  1.00

> <Gold.PLP.Chemscore.Internal.Correction>
0.7370

> <Gold.Rescore>
     Score         DG    S(hbond)    S(metal)    S(lipo)     H(rot)  DE(clash)    DE(int)     intcor
     12.59     -15.24       2.11        0.00      84.94       2.83       0.06       2.59       ----

> <Gold.Chemscore.Fitness>
12.5936

> <Gold.Chemscore.DG>
-15.2431

> <Gold.Chemscore.ZeroCoef>
-5.4800

> <Gold.Chemscore.Hbond>
2.1133

> <Gold.Chemscore.Metal>
0.0000

> <Gold.Chemscore.Lipo>
84.9382

> <Gold.Chemscore.Internal_Hbond>
0.0000

> <Gold.Chemscore.DEClash>
0.0594

> <Gold.Chemscore.DEInternal>
2.5902

> <Gold.Chemscore.Rot>
2.8254

> <Gold.Chemscore.Internal.Correction>
   9.000000E+99

> <Gold.Chemscore.Hbonds>
donor molecule, donor type, donor heavy atom, donor atom, acceptor molecule, acceptor atom, score
      L1  H     4    59       P1  8028  0.18
      P1  H  6896  6909       L1    15  0.42

> <Gold.Chemscore.Hbond.Weighted>
-7.0583

> <Gold.Chemscore.Metal.Weighted>
-0.0000

> <Gold.Chemscore.Lipo.Weighted>
-9.9378

> <Gold.Chemscore.Internal_Hbond.Weighted>
0.0000

> <Gold.Chemscore.DEClash.Weighted>
0.0594

> <Gold.Chemscore.DEInternal.Weighted>
2.5902

> <Gold.Chemscore.Rot.Weighted>
7.2330

> <Gold.Chemscore.Internal.Correction.Weighted>
   9.000000E+99

> <Gold.Protein.RotatedTorsions>
[ 6907 6896 6895 6894 ] final  109.62 input  -60.11 | X-H torsion
[ 7974 7965 7964 7962 ] final  -97.17 input  175.53 | X-H torsion
[ 8008 7997 7996 7995 ] final    9.18 input   59.86 | X-H torsion
[ 10167 10162 10161 10158 ] final   45.10 input  -65.29 | X-H torsion
[ 10718 10713 10712 10709 ] final  152.54 input   66.30 | X-H torsion
[ 10763 10752 10751 10750 ] final  -66.07 input  -60.55 | X-H torsion
[ 11005 11000 10999 10996 ] final  -93.74 input  -57.11 | X-H torsion

> <Gold.Protein.ActiveResidues>
 VAL166  LYS551  ARG553  GLY616  TRP617  ASP618  TYR619  PRO620  LYS621  CYS622 
 ASP623  PHE694  ASN695  SER759  ASP760  ASP761  ALA762  ILE779  LEU786  VAL792 
 PHE793  MET794  SER795  GLU796  ALA797  LYS798  CYS799  TRP800  GLU811  SER814 

> <Gold.Protein.RotatedAtoms>
  152.5059  133.8918  159.7397 H   0  0  0  0  0  0  0  0  0  0  0  0  # atno 6907 bound_to 6896
  150.9355  133.6708  159.2808 H   0  0  0  0  0  0  0  0  0  0  0  0  # atno 6908 bound_to 6896
  151.4038  135.0980  159.9616 H   0  0  0  0  0  0  0  0  0  0  0  0  # atno 6909 bound_to 6896
  145.3372  140.9453  143.2628 H   0  0  0  0  0  0  0  0  0  0  0  0  # atno 7974 bound_to 7965
  154.7766  140.2811  155.6096 H   0  0  0  0  0  0  0  0  0  0  0  0  # atno 8008 bound_to 7997
  156.2943  140.2631  156.2509 H   0  0  0  0  0  0  0  0  0  0  0  0  # atno 8009 bound_to 7997
  154.9835  140.0374  157.2278 H   0  0  0  0  0  0  0  0  0  0  0  0  # atno 8010 bound_to 7997
  140.3276  144.2629  150.6173 H   0  0  0  0  0  0  0  0  0  0  0  0  # atno 10167 bound_to 10162
  157.2565  131.0789  151.1695 H   0  0  0  0  0  0  0  0  0  0  0  0  # atno 10718 bound_to 10713
  154.3544  135.6129  153.5659 H   0  0  0  0  0  0  0  0  0  0  0  0  # atno 10763 bound_to 10752
  152.9796  135.5800  154.4706 H   0  0  0  0  0  0  0  0  0  0  0  0  # atno 10764 bound_to 10752
  154.4433  135.2851  155.1810 H   0  0  0  0  0  0  0  0  0  0  0  0  # atno 10765 bound_to 10752
  141.1489  133.7908  157.0202 H   0  0  0  0  0  0  0  0  0  0  0  0  # atno 11005 bound_to 11000
  144.8818  139.4894  143.6719 LP  0  0  0  0  0  0  0  0  0  0  0  0  # atno 17320 bound_to 7965
  146.3022  139.7462  142.9083 LP  0  0  0  0  0  0  0  0  0  0  0  0  # atno 17321 bound_to 7965
  140.5427  143.2220  151.8058 LP  0  0  0  0  0  0  0  0  0  0  0  0  # atno 17342 bound_to 10162
  139.4862  144.4580  151.9575 LP  0  0  0  0  0  0  0  0  0  0  0  0  # atno 17343 bound_to 10162
  157.3222  130.6943  149.6275 LP  0  0  0  0  0  0  0  0  0  0  0  0  # atno 17370 bound_to 10713
  155.9665  130.4332  150.4996 LP  0  0  0  0  0  0  0  0  0  0  0  0  # atno 17371 bound_to 10713
  140.0821  134.9642  157.1641 LP  0  0  0  0  0  0  0  0  0  0  0  0  # atno 17394 bound_to 11000
  140.3563  134.2544  155.7192 LP  0  0  0  0  0  0  0  0  0  0  0  0  # atno 17395 bound_to 11000

$$$$
