AV-unprocessed.smi:1095|AV-procd|sdf|4747|dock6
  -GOLD-   22720 3283D 1   1.00000     0.00000
 Structure written by MMmdl.
 50 51  0  0  0  0  0  0  0  0  1 V2000
  145.5223  143.8078  153.4530 C   0  0  0  0  0  0  0  0  0  0  0  0
  145.2581  143.1688  154.8236 C   0  0  0  0  0  0  0  0  0  0  0  0
  146.3146  142.1279  155.2470 C   0  0  2  0  0  0  0  0  0  0  0  0
  146.9258  142.4930  156.6139 C   0  0  0  0  0  0  0  0  0  0  0  0
  147.9738  141.4633  157.0645 C   0  0  0  0  0  0  0  0  0  0  0  0
  149.0988  141.3018  156.0252 C   0  0  1  0  0  0  0  0  0  0  0  0
  150.1486  140.2787  156.5075 C   0  0  0  0  0  0  0  0  0  0  0  0
  151.3504  140.9393  157.0044 N   0  0  0  0  0  0  0  0  0  0  0  0
  151.4661  141.5707  158.1831 C   0  0  0  0  0  0  0  0  0  0  0  0
  150.5245  141.7656  158.9511 O   0  0  0  0  0  0  0  0  0  0  0  0
  152.8757  142.0090  158.5754 C   0  0  0  0  0  0  0  0  0  0  0  0
  152.8015  142.8001  159.8580 C   0  0  0  0  0  0  0  0  0  0  0  0
  152.1555  144.0541  160.0749 C   0  0  0  0  0  0  0  0  0  0  0  0
  151.3942  144.8970  159.0921 C   0  0  0  0  0  0  0  0  0  0  0  0
  152.2960  144.4860  161.3167 N   0  0  0  0  0  0  0  0  0  0  0  0
  153.0273  143.5354  161.9317 N   0  0  0  0  0  0  0  0  0  0  0  0
  153.3728  143.6991  163.3304 C   0  0  0  0  0  0  0  0  0  0  0  0
  153.3550  142.5029  161.0747 C   0  0  0  0  0  0  0  0  0  0  0  0
  154.1757  141.3328  161.5124 C   0  0  0  0  0  0  0  0  0  0  0  0
  148.4943  140.9428  154.6499 C   0  0  0  0  0  0  0  0  0  0  0  0
  147.4382  141.9659  154.2022 C   0  0  0  0  0  0  0  0  0  0  0  0
  144.7045  144.4733  153.1757 H   0  0  0  0  0  0  0  0  0  0  0  0
  145.6101  143.0496  152.6744 H   0  0  0  0  0  0  0  0  0  0  0  0
  146.4369  144.4003  153.4527 H   0  0  0  0  0  0  0  0  0  0  0  0
  145.1801  143.9490  155.5816 H   0  0  0  0  0  0  0  0  0  0  0  0
  144.2804  142.6870  154.7865 H   0  0  0  0  0  0  0  0  0  0  0  0
  145.8113  141.1662  155.3578 H   0  0  0  0  0  0  0  0  0  0  0  0
  147.3861  143.4805  156.5607 H   0  0  0  0  0  0  0  0  0  0  0  0
  146.1405  142.5605  157.3677 H   0  0  0  0  0  0  0  0  0  0  0  0
  148.3937  141.7705  158.0228 H   0  0  0  0  0  0  0  0  0  0  0  0
  147.4881  140.5017  157.2357 H   0  0  0  0  0  0  0  0  0  0  0  0
  149.5992  142.2666  155.9267 H   0  0  0  0  0  0  0  0  0  0  0  0
  149.7376  139.6870  157.3259 H   0  0  0  0  0  0  0  0  0  0  0  0
  150.3835  139.5718  155.7100 H   0  0  0  0  0  0  0  0  0  0  0  0
  152.1848  140.8361  156.4452 H   0  0  0  0  0  0  0  0  0  0  0  0
  153.5143  141.1312  158.6795 H   0  0  0  0  0  0  0  0  0  0  0  0
  153.3055  142.5977  157.7642 H   0  0  0  0  0  0  0  0  0  0  0  0
  150.9065  144.2815  158.3370 H   0  0  0  0  0  0  0  0  0  0  0  0
  152.0609  145.5885  158.5767 H   0  0  0  0  0  0  0  0  0  0  0  0
  150.6193  145.4854  159.5849 H   0  0  0  0  0  0  0  0  0  0  0  0
  154.4429  143.8856  163.4222 H   0  0  0  0  0  0  0  0  0  0  0  0
  153.1197  142.7925  163.8806 H   0  0  0  0  0  0  0  0  0  0  0  0
  152.8282  144.5378  163.7664 H   0  0  0  0  0  0  0  0  0  0  0  0
  154.5356  140.7609  160.6573 H   0  0  0  0  0  0  0  0  0  0  0  0
  153.5892  140.6641  162.1425 H   0  0  0  0  0  0  0  0  0  0  0  0
  155.0474  141.6577  162.0808 H   0  0  0  0  0  0  0  0  0  0  0  0
  149.2738  140.8945  153.8895 H   0  0  0  0  0  0  0  0  0  0  0  0
  148.0454  139.9498  154.6928 H   0  0  0  0  0  0  0  0  0  0  0  0
  147.0263  141.6469  153.2452 H   0  0  0  0  0  0  0  0  0  0  0  0
  147.9194  142.9287  154.0245 H   0  0  0  0  0  0  0  0  0  0  0  0
  1  2  1  0  0  0  0
  1 22  1  0  0  0  0
  1 23  1  0  0  0  0
  1 24  1  0  0  0  0
  2  3  1  0  0  0  0
  2 25  1  0  0  0  0
  2 26  1  0  0  0  0
  3 21  1  0  0  0  0
  3  4  1  0  0  0  0
  3 27  1  0  0  0  0
  4  5  1  0  0  0  0
  4 28  1  0  0  0  0
  4 29  1  0  0  0  0
  5  6  1  0  0  0  0
  5 30  1  0  0  0  0
  5 31  1  0  0  0  0
  6  7  1  0  0  0  0
  6 20  1  0  0  0  0
  6 32  1  0  0  0  0
  7  8  1  0  0  0  0
  7 33  1  0  0  0  0
  7 34  1  0  0  0  0
  8  9  1  0  0  0  0
  8 35  1  0  0  0  0
  9 10  2  0  0  0  0
  9 11  1  0  0  0  0
 11 12  1  0  0  0  0
 11 36  1  0  0  0  0
 11 37  1  0  0  0  0
 12 18  2  0  0  0  0
 12 13  1  0  0  0  0
 13 14  1  0  0  0  0
 13 15  2  0  0  0  0
 14 38  1  0  0  0  0
 14 39  1  0  0  0  0
 14 40  1  0  0  0  0
 15 16  1  0  0  0  0
 16 17  1  0  0  0  0
 16 18  1  0  0  0  0
 17 41  1  0  0  0  0
 17 42  1  0  0  0  0
 17 43  1  0  0  0  0
 18 19  1  0  0  0  0
 19 44  1  0  0  0  0
 19 45  1  0  0  0  0
 19 46  1  0  0  0  0
 20 21  1  0  0  0  0
 20 47  1  0  0  0  0
 20 48  1  0  0  0  0
 21 49  1  0  0  0  0
 21 50  1  0  0  0  0
M  END
> <s_m_source_file>
AV-unprocessed.smi

> <i_m_source_file_index>
1095

> <i_lp_mmshare_version>
43012

> <i_f3d_flags>
0

> <s_epik_input>
W0NIM11bQ0gyXVtDQEBIXTFbQ0gyXVtDSDJdW0NASF0oW0NIMl1bQ0gyXTEpW0NIMl1bTkhdQyg9TylbQ0gyXWMyYyhbQ0gzXSlubihbQ0gzXSljMltDSDNd

> <s_epik_cmdline>
J2VwaWtfcHl0aG9uJywgJy1waCcsICc3LjAnLCAnLXRuJywgJzgnLCAnLW1hJywgJzIwMCcsICctbWV0YWxfYmluZGluZycsICctaW1hZScsICc8aW5maWxlLm1hZT4nLCAnLW9tYWUnLCAnPG91dGZpbGUubWFlPic=

> <r_lp_tautomer_probability>
1

> <r_epik_Ionization_Penalty>
0.00317479

> <r_epik_Ionization_Penalty_Charging>
0

> <r_epik_Ionization_Penalty_Neutral>
0.00317479

> <r_epik_State_Penalty>
0.00223767

> <r_epik_Charging_Adjusted_Penalty>
0.00223767

> <i_epik_Tot_Q>
0

> <i_epik_Tot_abs_Q>
0

> <r_epik_Metal_State_Penalty>
-0

> <b_epik_Metal_Only>
0

> <s_lp_Force_Field>
OPLS_2005

> <r_lp_Energy>
5.54232

> <b_lp_Chiralities_Consistent>
1

> <s_lp_Variant>
AV-unprocessed.smi:1095-1

> <Gold.Version>
5.8.1

> <Gold.Id.Protein>
6NUR|6NUR_protein|mol2

> <Gold.PLP.Fitness>
46.2586

> <Gold.PLP.PLP>
-49.2877

> <Gold.PLP.part.hbond>
-0.4496

> <Gold.PLP.part.metal>
0.0000

> <Gold.PLP.part.buried>
-6.7467

> <Gold.PLP.part.nonpolar>
-41.1062

> <Gold.PLP.part.repulsive>
0.2772

> <Gold.PLP.ligand.clash>
0.0000

> <Gold.PLP.ligand.torsion>
1.5281

> <Gold.PLP.Chemscore.Hbond>
0.0000

> <Gold.PLP.Chemscore.CHOScore>
0.0000

> <Gold.PLP.Chemscore.Metal>
0.0000

> <Gold.PLP.Chemscore.Internal.Correction>
0.0271

> <Gold.Rescore>
     Score         DG    S(hbond)    S(metal)    S(lipo)     H(rot)  DE(clash)    DE(int)     intcor
     14.44     -16.93       0.00        0.00     129.25       1.43       0.78       1.72       ----

> <Gold.Chemscore.Fitness>
14.4405

> <Gold.Chemscore.DG>
-16.9326

> <Gold.Chemscore.ZeroCoef>
-5.4800

> <Gold.Chemscore.Hbond>
0.0000

> <Gold.Chemscore.Metal>
0.0000

> <Gold.Chemscore.Lipo>
129.2530

> <Gold.Chemscore.Internal_Hbond>
0.0000

> <Gold.Chemscore.DEClash>
0.7758

> <Gold.Chemscore.DEInternal>
1.7163

> <Gold.Chemscore.Rot>
1.4336

> <Gold.Chemscore.Internal.Correction>
   9.000000E+99

> <Gold.Chemscore.Hbond.Weighted>
-0.0000

> <Gold.Chemscore.Metal.Weighted>
-0.0000

> <Gold.Chemscore.Lipo.Weighted>
-15.1226

> <Gold.Chemscore.Internal_Hbond.Weighted>
0.0000

> <Gold.Chemscore.DEClash.Weighted>
0.7758

> <Gold.Chemscore.DEInternal.Weighted>
1.7163

> <Gold.Chemscore.Rot.Weighted>
3.6700

> <Gold.Chemscore.Internal.Correction.Weighted>
   9.000000E+99

> <Gold.Protein.RotatedTorsions>
[ 6907 6896 6895 6894 ] final   -5.05 input  -60.11 | X-H torsion
[ 7974 7965 7964 7962 ] final    8.23 input  175.53 | X-H torsion
[ 8008 7997 7996 7995 ] final  -12.11 input   59.86 | X-H torsion
[ 10167 10162 10161 10158 ] final -139.26 input  -65.29 | X-H torsion
[ 10718 10713 10712 10709 ] final  -99.56 input   66.30 | X-H torsion
[ 10763 10752 10751 10750 ] final  105.22 input  -60.55 | X-H torsion
[ 11005 11000 10999 10996 ] final   -5.32 input  -57.11 | X-H torsion

> <Gold.Protein.ActiveResidues>
 VAL166  LYS551  ARG553  GLY616  TRP617  ASP618  TYR619  PRO620  LYS621  CYS622 
 ASP623  PHE694  ASN695  SER759  ASP760  ASP761  ALA762  ILE779  LEU786  VAL792 
 PHE793  MET794  SER795  GLU796  ALA797  LYS798  CYS799  TRP800  GLU811  SER814 

> <Gold.Protein.RotatedAtoms>
  151.4878  135.1056  159.9794 H   0  0  0  0  0  0  0  0  0  0  0  0  # atno 6907 bound_to 6896
  152.4753  133.8120  159.7019 H   0  0  0  0  0  0  0  0  0  0  0  0  # atno 6908 bound_to 6896
  150.8787  133.7340  159.2965 H   0  0  0  0  0  0  0  0  0  0  0  0  # atno 6909 bound_to 6896
  146.2418  139.9964  142.8420 H   0  0  0  0  0  0  0  0  0  0  0  0  # atno 7974 bound_to 7965
  154.5405  140.2284  155.8649 H   0  0  0  0  0  0  0  0  0  0  0  0  # atno 8008 bound_to 7997
  156.1854  140.3090  155.9190 H   0  0  0  0  0  0  0  0  0  0  0  0  # atno 8009 bound_to 7997
  155.3267  140.0443  157.3032 H   0  0  0  0  0  0  0  0  0  0  0  0  # atno 8010 bound_to 7997
  139.8397  143.7338  152.2663 H   0  0  0  0  0  0  0  0  0  0  0  0  # atno 10167 bound_to 10162
  156.0137  130.5288  150.6688 H   0  0  0  0  0  0  0  0  0  0  0  0  # atno 10718 bound_to 10713
  153.3764  135.3917  155.1825 H   0  0  0  0  0  0  0  0  0  0  0  0  # atno 10763 bound_to 10752
  154.8701  135.3715  154.4912 H   0  0  0  0  0  0  0  0  0  0  0  0  # atno 10764 bound_to 10752
  153.5385  135.7085  153.5709 H   0  0  0  0  0  0  0  0  0  0  0  0  # atno 10765 bound_to 10752
  140.6899  133.9080  155.8611 H   0  0  0  0  0  0  0  0  0  0  0  0  # atno 11005 bound_to 11000
  145.1456  140.9595  143.4463 LP  0  0  0  0  0  0  0  0  0  0  0  0  # atno 17320 bound_to 7965
  145.0254  139.3387  143.6051 LP  0  0  0  0  0  0  0  0  0  0  0  0  # atno 17321 bound_to 7965
  139.7571  144.7517  151.0419 LP  0  0  0  0  0  0  0  0  0  0  0  0  # atno 17342 bound_to 10162
  140.7799  143.4793  151.0039 LP  0  0  0  0  0  0  0  0  0  0  0  0  # atno 17343 bound_to 10162
  157.4415  131.0862  151.0938 LP  0  0  0  0  0  0  0  0  0  0  0  0  # atno 17370 bound_to 10713
  157.1481  130.6172  149.5574 LP  0  0  0  0  0  0  0  0  0  0  0  0  # atno 17371 bound_to 10713
  141.0250  134.0836  157.4078 LP  0  0  0  0  0  0  0  0  0  0  0  0  # atno 17394 bound_to 11000
  139.8926  135.0126  156.6857 LP  0  0  0  0  0  0  0  0  0  0  0  0  # atno 17395 bound_to 11000

$$$$
