AV-unprocessed.smi:2523|AV-procd|sdf|9921|dock7
  -GOLD-   2272013563D 1   1.00000     0.00000
 Structure written by MMmdl.
 34 36  0  0  0  0  0  0  0  0  1 V2000
  153.0335  136.9284  157.4582 C   0  0  0  0  0  0  0  0  0  0  0  0
  152.2462  137.7901  156.5794 N   0  0  0  0  0  0  0  0  0  0  0  0
  151.9984  137.2611  155.3074 N   0  0  0  0  0  0  0  0  0  0  0  0
  151.3080  137.9171  154.4277 C   0  0  0  0  0  0  0  0  0  0  0  0
  150.7916  139.2320  154.7955 C   0  0  0  0  0  0  0  0  0  0  0  0
  150.0164  140.2296  154.1429 C   0  0  0  0  0  0  0  0  0  0  0  0
  149.8000  141.2853  154.9254 N   0  0  0  0  0  0  0  0  0  0  0  0
  150.4243  141.0088  156.0993 N   0  0  0  0  0  0  0  0  0  0  0  0
  150.3753  141.9773  157.1837 C   0  0  0  0  0  0  0  0  0  0  0  0
  151.5742  142.9471  157.1744 C   0  0  1  0  0  0  0  0  0  0  0  0
  151.4326  143.8958  156.1343 O   0  0  0  0  0  0  0  0  0  0  0  0
  151.7525  143.6122  158.5300 C   0  0  0  0  0  0  0  0  0  0  0  0
  151.6649  145.0163  158.6555 C   0  0  0  0  0  0  0  0  0  0  0  0
  151.8197  145.6277  159.9147 C   0  0  0  0  0  0  0  0  0  0  0  0
  152.0624  144.8393  161.0557 C   0  0  0  0  0  0  0  0  0  0  0  0
  152.1495  143.4386  160.9369 C   0  0  0  0  0  0  0  0  0  0  0  0
  152.4452  142.4711  162.3345 Cl  0  0  0  0  0  0  0  0  0  0  0  0
  151.9939  142.8266  159.6773 C   0  0  0  0  0  0  0  0  0  0  0  0
  151.0219  139.7663  156.0202 C   0  0  0  0  0  0  0  0  0  0  0  0
  151.8093  139.0075  157.0219 C   0  0  0  0  0  0  0  0  0  0  0  0
  152.0362  139.4532  158.1469 O   0  0  0  0  0  0  0  0  0  0  0  0
  153.9454  137.4346  157.7779 H   0  0  0  0  0  0  0  0  0  0  0  0
  153.3274  136.0003  156.9651 H   0  0  0  0  0  0  0  0  0  0  0  0
  152.4603  136.6623  158.3475 H   0  0  0  0  0  0  0  0  0  0  0  0
  151.1150  137.5030  153.4383 H   0  0  0  0  0  0  0  0  0  0  0  0
  149.6082  140.2239  153.1430 H   0  0  0  0  0  0  0  0  0  0  0  0
  149.4334  142.5225  157.1316 H   0  0  0  0  0  0  0  0  0  0  0  0
  150.3517  141.4304  158.1277 H   0  0  0  0  0  0  0  0  0  0  0  0
  152.4774  142.3774  156.9510 H   0  0  0  0  0  0  0  0  0  0  0  0
  150.5248  144.1534  156.0859 H   0  0  0  0  0  0  0  0  0  0  0  0
  151.4747  145.6278  157.7855 H   0  0  0  0  0  0  0  0  0  0  0  0
  151.7510  146.7018  160.0050 H   0  0  0  0  0  0  0  0  0  0  0  0
  152.1802  145.3100  162.0206 H   0  0  0  0  0  0  0  0  0  0  0  0
  152.0582  141.7514  159.5951 H   0  0  0  0  0  0  0  0  0  0  0  0
  1  2  1  0  0  0  0
  1 22  1  0  0  0  0
  1 23  1  0  0  0  0
  1 24  1  0  0  0  0
  2 20  1  0  0  0  0
  2  3  1  0  0  0  0
  3  4  2  0  0  0  0
  4  5  1  0  0  0  0
  4 25  1  0  0  0  0
  5 19  2  0  0  0  0
  5  6  1  0  0  0  0
  6  7  2  0  0  0  0
  6 26  1  0  0  0  0
  7  8  1  0  0  0  0
  8  9  1  0  0  0  0
  8 19  1  0  0  0  0
  9 10  1  0  0  0  0
  9 27  1  0  0  0  0
  9 28  1  0  0  0  0
 10 11  1  0  0  0  0
 10 12  1  0  0  0  0
 10 29  1  0  0  0  0
 11 30  1  0  0  0  0
 12 18  1  0  0  0  0
 12 13  2  0  0  0  0
 13 14  1  0  0  0  0
 13 31  1  0  0  0  0
 14 15  2  0  0  0  0
 14 32  1  0  0  0  0
 15 16  1  0  0  0  0
 15 33  1  0  0  0  0
 16 17  1  0  0  0  0
 16 18  2  0  0  0  0
 18 34  1  0  0  0  0
 19 20  1  0  0  0  0
 20 21  2  0  0  0  0
M  END
> <s_m_source_file>
AV-unprocessed.smi

> <i_m_source_file_index>
2523

> <i_lp_mmshare_version>
43012

> <i_f3d_flags>
0

> <s_epik_input>
W2NIXTFubihbQ0gzXSljKD1PKWMoYzEyKW4obltjSF0yKVtDSDJdW0NASF0oW09IXSljM1tjSF1bY0hdW2NIXWMoQ2wpW2NIXTM=

> <s_epik_cmdline>
J2VwaWtfcHl0aG9uJywgJy1waCcsICc3LjAnLCAnLXRuJywgJzgnLCAnLW1hJywgJzIwMCcsICctbWV0YWxfYmluZGluZycsICctaW1hZScsICc8aW5maWxlLm1hZT4nLCAnLW9tYWUnLCAnPG91dGZpbGUubWFlPic=

> <r_lp_tautomer_probability>
1

> <r_epik_Ionization_Penalty>
8.52698e-06

> <r_epik_Ionization_Penalty_Charging>
1.65421e-10

> <r_epik_Ionization_Penalty_Neutral>
8.52681e-06

> <r_epik_State_Penalty>
-0

> <r_epik_Charging_Adjusted_Penalty>
1.65421e-10

> <i_epik_Tot_Q>
0

> <i_epik_Tot_abs_Q>
0

> <r_epik_Metal_State_Penalty>
-0

> <b_epik_Metal_Only>
0

> <s_lp_Force_Field>
OPLS_2005

> <r_lp_Energy>
26.9154

> <b_lp_Chiralities_Consistent>
1

> <s_lp_Variant>
AV-unprocessed.smi:2523-2

> <Gold.Version>
5.8.1

> <Gold.Id.Protein>
6NUR|6NUR_protein|mol2

> <Gold.PLP.Fitness>
57.6711

> <Gold.PLP.PLP>
-47.6110

> <Gold.PLP.part.hbond>
-1.3817

> <Gold.PLP.part.metal>
0.0000

> <Gold.PLP.part.buried>
-5.5735

> <Gold.PLP.part.nonpolar>
-41.4656

> <Gold.PLP.part.repulsive>
0.1729

> <Gold.PLP.ligand.clash>
0.0000

> <Gold.PLP.ligand.torsion>
0.5255

> <Gold.PLP.Chemscore.Hbond>
1.6406

> <Gold.PLP.Chemscore.CHOScore>
2.0545

> <Gold.PLP.Chemscore.Metal>
0.0000

> <Gold.Chemscore.Hbonds>
donor molecule, donor type, donor heavy atom, donor atom, acceptor molecule, acceptor atom, score
      L1  H    11    30       P1  8028  1.00
      P1  H 10752 10765       L1     3  0.91
      L1  C     4    25       P1  7948  0.02
      L1  C     4    25       P1  7949  1.00
      L1  C     6    26       P1  7957  0.90

> <Gold.PLP.Chemscore.Internal.Correction>
0.0258

> <Gold.Rescore>
     Score         DG    S(hbond)    S(metal)    S(lipo)     H(rot)  DE(clash)    DE(int)     intcor
     20.74     -21.48       1.81        0.00     127.09       1.93       0.30       0.44       ----

> <Gold.Chemscore.Fitness>
20.7357

> <Gold.Chemscore.DG>
-21.4778

> <Gold.Chemscore.ZeroCoef>
-5.4800

> <Gold.Chemscore.Hbond>
1.8142

> <Gold.Chemscore.Metal>
0.0000

> <Gold.Chemscore.Lipo>
127.0941

> <Gold.Chemscore.Internal_Hbond>
0.0000

> <Gold.Chemscore.DEClash>
0.2979

> <Gold.Chemscore.DEInternal>
0.4442

> <Gold.Chemscore.Rot>
1.9265

> <Gold.Chemscore.Internal.Correction>
   9.000000E+99

> <Gold.Chemscore.Hbonds>
donor molecule, donor type, donor heavy atom, donor atom, acceptor molecule, acceptor atom, score
      L1  H    11    30       P1  8028  1.00
      P1  H 10752 10765       L1     3  0.78

> <Gold.Chemscore.Hbond.Weighted>
-6.0595

> <Gold.Chemscore.Metal.Weighted>
-0.0000

> <Gold.Chemscore.Lipo.Weighted>
-14.8700

> <Gold.Chemscore.Internal_Hbond.Weighted>
0.0000

> <Gold.Chemscore.DEClash.Weighted>
0.2979

> <Gold.Chemscore.DEInternal.Weighted>
0.4442

> <Gold.Chemscore.Rot.Weighted>
4.9317

> <Gold.Chemscore.Internal.Correction.Weighted>
   9.000000E+99

> <Gold.Protein.RotatedTorsions>
[ 6907 6896 6895 6894 ] final -172.37 input  -60.11 | X-H torsion
[ 7974 7965 7964 7962 ] final    9.13 input  175.53 | X-H torsion
[ 8008 7997 7996 7995 ] final  173.45 input   59.86 | X-H torsion
[ 10167 10162 10161 10158 ] final   65.05 input  -65.29 | X-H torsion
[ 10718 10713 10712 10709 ] final  112.10 input   66.30 | X-H torsion
[ 10763 10752 10751 10750 ] final -176.69 input  -60.55 | X-H torsion
[ 11005 11000 10999 10996 ] final  113.57 input  -57.11 | X-H torsion

> <Gold.Protein.ActiveResidues>
 VAL166  LYS551  ARG553  GLY616  TRP617  ASP618  TYR619  PRO620  LYS621  CYS622 
 ASP623  PHE694  ASN695  SER759  ASP760  ASP761  ALA762  ILE779  LEU786  VAL792 
 PHE793  MET794  SER795  GLU796  ALA797  LYS798  CYS799  TRP800  GLU811  SER814 

> <Gold.Protein.RotatedAtoms>
  151.5388  133.3436  159.2931 H   0  0  0  0  0  0  0  0  0  0  0  0  # atno 6907 bound_to 6896
  150.8548  134.7886  159.7048 H   0  0  0  0  0  0  0  0  0  0  0  0  # atno 6908 bound_to 6896
  152.4585  134.5247  159.9845 H   0  0  0  0  0  0  0  0  0  0  0  0  # atno 6909 bound_to 6896
  146.2407  139.9830  142.8434 H   0  0  0  0  0  0  0  0  0  0  0  0  # atno 7974 bound_to 7965
  156.1074  140.1460  156.9385 H   0  0  0  0  0  0  0  0  0  0  0  0  # atno 8008 bound_to 7997
  154.4743  140.0899  156.7268 H   0  0  0  0  0  0  0  0  0  0  0  0  # atno 8009 bound_to 7997
  155.4655  140.3440  155.4321 H   0  0  0  0  0  0  0  0  0  0  0  0  # atno 8010 bound_to 7997
  140.1155  144.4779  150.6952 H   0  0  0  0  0  0  0  0  0  0  0  0  # atno 10167 bound_to 10162
  157.6410  131.0962  150.6846 H   0  0  0  0  0  0  0  0  0  0  0  0  # atno 10718 bound_to 10713
  154.5692  135.2826  155.0843 H   0  0  0  0  0  0  0  0  0  0  0  0  # atno 10763 bound_to 10752
  154.2222  135.6389  153.5152 H   0  0  0  0  0  0  0  0  0  0  0  0  # atno 10764 bound_to 10752
  153.0052  135.5517  154.6311 H   0  0  0  0  0  0  0  0  0  0  0  0  # atno 10765 bound_to 10752
  139.8956  134.9552  156.6759 H   0  0  0  0  0  0  0  0  0  0  0  0  # atno 11005 bound_to 11000
  145.1574  140.9655  143.4397 LP  0  0  0  0  0  0  0  0  0  0  0  0  # atno 17320 bound_to 7965
  145.0148  139.3477  143.6102 LP  0  0  0  0  0  0  0  0  0  0  0  0  # atno 17321 bound_to 7965
  140.6902  143.2371  151.5152 LP  0  0  0  0  0  0  0  0  0  0  0  0  # atno 17342 bound_to 10162
  139.5596  144.2188  152.1670 LP  0  0  0  0  0  0  0  0  0  0  0  0  # atno 17343 bound_to 10162
  156.7170  130.4669  149.5532 LP  0  0  0  0  0  0  0  0  0  0  0  0  # atno 17370 bound_to 10713
  156.1691  130.6425  151.0815 LP  0  0  0  0  0  0  0  0  0  0  0  0  # atno 17371 bound_to 10713
  140.7337  133.9037  155.8229 LP  0  0  0  0  0  0  0  0  0  0  0  0  # atno 17394 bound_to 11000
  141.0133  134.0991  157.4199 LP  0  0  0  0  0  0  0  0  0  0  0  0  # atno 17395 bound_to 11000

$$$$
