AV-unprocessed.smi:49|AV-procd|sdf|490|dock4
  -GOLD-   2262016353D 1   1.00000     0.00000
 Structure written by MMmdl.
 26 27  0  0  0  0  0  0  0  0  2 V2000
  153.0425  142.8125  160.1904 C   0  0  0  0  0  0  0  0  0  0  0  0
  153.2770  141.3750  159.7155 C   0  0  0  0  0  0  0  0  0  0  0  0
  152.5723  141.0844  158.4086 C   0  0  0  0  0  0  0  0  0  0  0  0
  151.8101  141.9354  157.7290 N   0  0  0  0  0  0  0  0  0  0  0  0
  151.4150  141.2767  156.6303 C   0  0  0  0  0  0  0  0  0  0  0  0
  150.5456  141.8832  155.5436 C   0  0  1  0  0  0  0  0  0  0  0  0
  150.2257  140.8660  154.4330 C   0  0  0  0  0  0  0  0  0  0  0  0
  148.7366  140.5842  154.6060 C   0  0  2  0  0  0  0  0  0  0  0  0
  148.1038  140.2048  153.4022 O   0  0  0  0  0  0  0  0  0  0  0  0
  148.2175  141.9113  155.1434 C   0  0  0  0  0  0  0  0  0  0  0  0
  149.2576  142.3659  156.0551 N   0  0  0  0  0  0  0  0  0  0  0  0
  151.9436  140.0421  156.6037 N   0  0  0  0  0  0  0  0  0  0  0  0
  152.6546  139.9398  157.7081 N   0  5  0  0  0  0  0  0  0  0  0  0
  151.0970  142.7164  155.1064 H   0  0  0  0  0  0  0  0  0  0  0  0
  148.5929  139.8027  155.3539 H   0  0  0  0  0  0  0  0  0  0  0  0
  153.5590  143.0004  161.1317 H   0  0  0  0  0  0  0  0  0  0  0  0
  151.9808  143.0047  160.3470 H   0  0  0  0  0  0  0  0  0  0  0  0
  153.4090  143.5319  159.4577 H   0  0  0  0  0  0  0  0  0  0  0  0
  154.3445  141.1940  159.5878 H   0  0  0  0  0  0  0  0  0  0  0  0
  152.9262  140.6705  160.4699 H   0  0  0  0  0  0  0  0  0  0  0  0
  150.4035  141.3349  153.4640 H   0  0  0  0  0  0  0  0  0  0  0  0
  150.8361  139.9628  154.4760 H   0  0  0  0  0  0  0  0  0  0  0  0
  148.7675  139.9146  152.7957 H   0  0  0  0  0  0  0  0  0  0  0  0
  148.1079  142.6266  154.3271 H   0  0  0  0  0  0  0  0  0  0  0  0
  147.2514  141.8173  155.6398 H   0  0  0  0  0  0  0  0  0  0  0  0
  149.2554  143.3801  156.0830 H   0  0  0  0  0  0  0  0  0  0  0  0
  1  2  1  0  0  0  0
  1 16  1  0  0  0  0
  1 17  1  0  0  0  0
  1 18  1  0  0  0  0
  2  3  1  0  0  0  0
  2 19  1  0  0  0  0
  2 20  1  0  0  0  0
  3 13  1  0  0  0  0
  3  4  2  0  0  0  0
  4  5  1  0  0  0  0
  5  6  1  0  0  0  0
  5 12  2  0  0  0  0
  6 14  1  0  0  0  0
  6 11  1  0  0  0  0
  6  7  1  0  0  0  0
  7  8  1  0  0  0  0
  7 21  1  0  0  0  0
  7 22  1  0  0  0  0
  8 15  1  0  0  0  0
  8  9  1  0  0  0  0
  8 10  1  0  0  0  0
  9 23  1  0  0  0  0
 10 11  1  0  0  0  0
 10 24  1  0  0  0  0
 10 25  1  0  0  0  0
 11 26  1  0  0  0  0
 12 13  1  0  0  0  0
M  CHG  1  13  -1
M  END
> <s_m_source_file>
AV-unprocessed.smi

> <i_m_source_file_index>
49

> <i_lp_mmshare_version>
43012

> <i_f3d_flags>
0

> <s_epik_input>
W0NIM11bQ0gyXWMxbmMobltuSF0xKVtDQEBIXTJbQ0gyXVtDQEBIXShbT0hdKVtDSDJdW05IXTI=

> <s_epik_cmdline>
J2VwaWtfcHl0aG9uJywgJy1waCcsICc3LjAnLCAnLXRuJywgJzgnLCAnLW1hJywgJzIwMCcsICctbWV0YWxfYmluZGluZycsICctaW1hZScsICc8aW5maWxlLm1hZT4nLCAnLW9tYWUnLCAnPG91dGZpbGUubWFlPic=

> <r_lp_tautomer_probability>
0.948284

> <r_epik_Ionization_Penalty>
20.726

> <r_epik_Ionization_Penalty_Charging>
17.6814

> <r_epik_Ionization_Penalty_Neutral>
3.04463

> <r_epik_State_Penalty>
7.95092

> <r_epik_Charging_Adjusted_Penalty>
25.6323

> <i_epik_Tot_Q>
-1

> <i_epik_Tot_abs_Q>
1

> <r_epik_Metal_State_Penalty>
4.146

> <b_epik_Metal_Only>
1

> <s_lp_Force_Field>
OPLS_2005

> <r_lp_Energy>
18.0563

> <b_lp_Chiralities_Consistent>
1

> <s_lp_Variant>
AV-unprocessed.smi:49-28

> <Gold.Version>
5.8.1

> <Gold.Id.Protein>
6NUR|6NUR_protein|mol2

> <Gold.PLP.Fitness>
34.4924

> <Gold.PLP.PLP>
-22.5530

> <Gold.PLP.part.hbond>
-3.0000

> <Gold.PLP.part.metal>
0.0000

> <Gold.PLP.part.buried>
-0.7711

> <Gold.PLP.part.nonpolar>
-17.5108

> <Gold.PLP.part.repulsive>
0.0220

> <Gold.PLP.ligand.clash>
0.0000

> <Gold.PLP.ligand.torsion>
0.0377

> <Gold.PLP.Chemscore.Hbond>
4.0000

> <Gold.PLP.Chemscore.CHOScore>
0.0000

> <Gold.PLP.Chemscore.Metal>
0.0000

> <Gold.Chemscore.Hbonds>
donor molecule, donor type, donor heavy atom, donor atom, acceptor molecule, acceptor atom, score
      L1  H     9    23       P1  7957  1.00
      L1  H    11    26       P1  8028  0.81
      P1  H  7997  8008       L1    13  1.70

> <Gold.PLP.Chemscore.Internal.Correction>
0.0149

> <Gold.Rescore>
     Score         DG    S(hbond)    S(metal)    S(lipo)     H(rot)  DE(clash)    DE(int)     intcor
     13.22     -14.89       2.46        0.00      49.99       1.82       1.54       0.13       ----

> <Gold.Chemscore.Fitness>
13.2242

> <Gold.Chemscore.DG>
-14.8889

> <Gold.Chemscore.ZeroCoef>
-5.4800

> <Gold.Chemscore.Hbond>
2.4627

> <Gold.Chemscore.Metal>
0.0000

> <Gold.Chemscore.Lipo>
49.9939

> <Gold.Chemscore.Internal_Hbond>
0.0000

> <Gold.Chemscore.DEClash>
1.5381

> <Gold.Chemscore.DEInternal>
0.1267

> <Gold.Chemscore.Rot>
1.8226

> <Gold.Chemscore.Internal.Correction>
   9.000000E+99

> <Gold.Chemscore.Hbonds>
donor molecule, donor type, donor heavy atom, donor atom, acceptor molecule, acceptor atom, score
      L1  H     9    23       P1  7957  0.94
      L1  H    11    26       P1  8028  0.77
      P1  H  7997  8008       L1    13  0.06

> <Gold.Chemscore.Hbond.Weighted>
-8.2255

> <Gold.Chemscore.Metal.Weighted>
-0.0000

> <Gold.Chemscore.Lipo.Weighted>
-5.8493

> <Gold.Chemscore.Internal_Hbond.Weighted>
0.0000

> <Gold.Chemscore.DEClash.Weighted>
1.5381

> <Gold.Chemscore.DEInternal.Weighted>
0.1267

> <Gold.Chemscore.Rot.Weighted>
4.6658

> <Gold.Chemscore.Internal.Correction.Weighted>
   9.000000E+99

> <Gold.Protein.RotatedTorsions>
[ 6907 6896 6895 6894 ] final  156.75 input  -60.11 | X-H torsion
[ 7974 7965 7964 7962 ] final   46.13 input  175.53 | X-H torsion
[ 8008 7997 7996 7995 ] final  -72.67 input   59.86 | X-H torsion
[ 10167 10162 10161 10158 ] final  138.35 input  -65.29 | X-H torsion
[ 10718 10713 10712 10709 ] final -144.36 input   66.30 | X-H torsion
[ 10763 10752 10751 10750 ] final  -11.99 input  -60.55 | X-H torsion
[ 11005 11000 10999 10996 ] final  115.38 input  -57.11 | X-H torsion

> <Gold.Protein.ActiveResidues>
 VAL166  LYS551  ARG553  GLY616  TRP617  ASP618  TYR619  PRO620  LYS621  CYS622 
 ASP623  PHE694  ASN695  SER759  ASP760  ASP761  ALA762  ILE779  LEU786  VAL792 
 PHE793  MET794  SER795  GLU796  ALA797  LYS798  CYS799  TRP800  GLU811  SER814 

> <Gold.Protein.RotatedAtoms>
  152.0251  133.3914  159.4273 H   0  0  0  0  0  0  0  0  0  0  0  0  # atno 6907 bound_to 6896
  150.6887  134.3583  159.4948 H   0  0  0  0  0  0  0  0  0  0  0  0  # atno 6908 bound_to 6896
  152.1362  134.9097  160.0607 H   0  0  0  0  0  0  0  0  0  0  0  0  # atno 6909 bound_to 6896
  146.0418  139.4889  142.9773 H   0  0  0  0  0  0  0  0  0  0  0  0  # atno 7974 bound_to 7965
  154.5185  140.0793  156.8126 H   0  0  0  0  0  0  0  0  0  0  0  0  # atno 8008 bound_to 7997
  155.3628  140.3419  155.4223 H   0  0  0  0  0  0  0  0  0  0  0  0  # atno 8009 bound_to 7997
  156.1654  140.1602  156.8527 H   0  0  0  0  0  0  0  0  0  0  0  0  # atno 8010 bound_to 7997
  139.5113  144.6358  151.5700 H   0  0  0  0  0  0  0  0  0  0  0  0  # atno 10167 bound_to 10162
  156.3692  130.7779  151.1957 H   0  0  0  0  0  0  0  0  0  0  0  0  # atno 10718 bound_to 10713
  153.4918  135.7017  153.5880 H   0  0  0  0  0  0  0  0  0  0  0  0  # atno 10763 bound_to 10752
  153.4049  135.3863  155.2012 H   0  0  0  0  0  0  0  0  0  0  0  0  # atno 10764 bound_to 10752
  154.8716  135.3890  154.4380 H   0  0  0  0  0  0  0  0  0  0  0  0  # atno 10765 bound_to 10752
  139.9008  134.9583  156.7037 H   0  0  0  0  0  0  0  0  0  0  0  0  # atno 11005 bound_to 11000
  145.6872  141.0174  143.1575 LP  0  0  0  0  0  0  0  0  0  0  0  0  # atno 17320 bound_to 7965
  144.7078  139.8490  143.7424 LP  0  0  0  0  0  0  0  0  0  0  0  0  # atno 17321 bound_to 7965
  140.6106  143.9442  150.6451 LP  0  0  0  0  0  0  0  0  0  0  0  0  # atno 17342 bound_to 10162
  140.2684  143.3474  152.1260 LP  0  0  0  0  0  0  0  0  0  0  0  0  # atno 17343 bound_to 10162
  157.7482  131.0377  150.4469 LP  0  0  0  0  0  0  0  0  0  0  0  0  # atno 17370 bound_to 10713
  156.4693  130.4049  149.6528 LP  0  0  0  0  0  0  0  0  0  0  0  0  # atno 17371 bound_to 10713
  140.7130  133.9206  155.8097 LP  0  0  0  0  0  0  0  0  0  0  0  0  # atno 17394 bound_to 11000
  141.0285  134.0789  157.4041 LP  0  0  0  0  0  0  0  0  0  0  0  0  # atno 17395 bound_to 11000

$$$$
