AV-unprocessed.smi:1683|AV-procd|sdf|6747|dock1
  -GOLD-   22720 7503D 1   1.00000     0.00000
 Structure written by MMmdl.
 36 37  0  0  0  0  0  0  0  0  1 V2000
  144.3959  136.4639  151.7572 O   0  0  0  0  0  0  0  0  0  0  0  0
  145.6093  136.2685  151.6809 C   0  0  0  0  0  0  0  0  0  0  0  0
  146.5304  137.2165  151.9066 N   0  0  0  0  0  0  0  0  0  0  0  0
  146.2493  138.5994  152.2803 C   0  0  0  0  0  0  0  0  0  0  0  0
  146.9806  139.0049  153.5738 C   0  0  2  0  0  0  0  0  0  0  0  0
  146.7756  140.4701  153.9623 C   0  0  0  0  0  0  0  0  0  0  0  0
  148.1730  140.9842  154.3209 C   0  0  0  0  0  0  0  0  0  0  0  0
  148.9557  139.7770  154.5589 N   0  0  0  0  0  0  0  0  0  0  0  0
  150.3993  139.9920  154.4797 C   0  0  0  0  0  0  0  0  0  0  0  0
  151.2163  138.8868  155.1775 C   0  0  0  0  0  0  0  0  0  0  0  0
  151.1503  137.7795  154.4392 F   0  0  0  0  0  0  0  0  0  0  0  0
  152.4989  139.2280  155.2999 F   0  0  0  0  0  0  0  0  0  0  0  0
  150.7120  138.6224  156.3832 F   0  0  0  0  0  0  0  0  0  0  0  0
  148.5040  138.8656  153.5178 C   0  0  0  0  0  0  0  0  0  0  0  0
  146.1835  135.0973  151.3603 N   0  0  0  0  0  0  0  0  0  0  0  0
  145.5342  133.8678  151.0813 C   0  0  0  0  0  0  0  0  0  0  0  0
  144.1571  133.7357  150.7552 C   0  0  0  0  0  0  0  0  0  0  0  0
  143.8299  132.4694  150.5402 N   0  0  0  0  0  0  0  0  0  0  0  0
  144.9855  131.7919  150.7254 N   0  0  0  0  0  0  0  0  0  0  0  0
  146.0495  132.6021  151.0558 C   0  0  0  0  0  0  0  0  0  0  0  0
  145.0318  130.7881  150.6227 H   0  0  0  0  0  0  0  0  0  0  0  0
  147.5033  136.9621  151.8159 H   0  0  0  0  0  0  0  0  0  0  0  0
  146.5006  139.2837  151.4680 H   0  0  0  0  0  0  0  0  0  0  0  0
  145.1729  138.6883  152.4289 H   0  0  0  0  0  0  0  0  0  0  0  0
  146.6144  138.3851  154.3944 H   0  0  0  0  0  0  0  0  0  0  0  0
  146.3502  141.0623  153.1514 H   0  0  0  0  0  0  0  0  0  0  0  0
  146.0991  140.5458  154.8144 H   0  0  0  0  0  0  0  0  0  0  0  0
  148.5887  141.5396  153.4782 H   0  0  0  0  0  0  0  0  0  0  0  0
  148.1574  141.6412  155.1906 H   0  0  0  0  0  0  0  0  0  0  0  0
  150.6757  140.0034  153.4245 H   0  0  0  0  0  0  0  0  0  0  0  0
  150.6620  140.9724  154.8802 H   0  0  0  0  0  0  0  0  0  0  0  0
  148.8377  137.8432  153.6986 H   0  0  0  0  0  0  0  0  0  0  0  0
  148.8832  139.1861  152.5456 H   0  0  0  0  0  0  0  0  0  0  0  0
  147.1921  135.0805  151.3192 H   0  0  0  0  0  0  0  0  0  0  0  0
  143.3995  134.5005  150.6683 H   0  0  0  0  0  0  0  0  0  0  0  0
  147.0406  132.2116  151.2338 H   0  0  0  0  0  0  0  0  0  0  0  0
  1  2  2  0  0  0  0
  2  3  1  0  0  0  0
  2 15  1  0  0  0  0
  3  4  1  0  0  0  0
  3 22  1  0  0  0  0
  4  5  1  0  0  0  0
  4 23  1  0  0  0  0
  4 24  1  0  0  0  0
  5 14  1  0  0  0  0
  5  6  1  0  0  0  0
  5 25  1  0  0  0  0
  6  7  1  0  0  0  0
  6 26  1  0  0  0  0
  6 27  1  0  0  0  0
  7  8  1  0  0  0  0
  7 28  1  0  0  0  0
  7 29  1  0  0  0  0
  8  9  1  0  0  0  0
  8 14  1  0  0  0  0
  9 10  1  0  0  0  0
  9 30  1  0  0  0  0
  9 31  1  0  0  0  0
 10 11  1  0  0  0  0
 10 12  1  0  0  0  0
 10 13  1  0  0  0  0
 14 32  1  0  0  0  0
 14 33  1  0  0  0  0
 15 16  1  0  0  0  0
 15 34  1  0  0  0  0
 16 20  2  0  0  0  0
 16 17  1  0  0  0  0
 17 18  2  0  0  0  0
 17 35  1  0  0  0  0
 18 19  1  0  0  0  0
 19 21  1  0  0  0  0
 19 20  1  0  0  0  0
 20 36  1  0  0  0  0
M  END
> <s_m_source_file>
AV-unprocessed.smi

> <i_m_source_file_index>
1683

> <i_lp_mmshare_version>
43012

> <i_f3d_flags>
0

> <s_epik_input>
W2NIXTFbbkhdbltjSF1jMVtOSF1DKD1PKVtOSF1bQ0gyXVtDQEBIXTJbQ0gyXVtDSDJdTihbQ0gyXTIpW0NIMl1DKEYpKEYpRg==

> <s_epik_cmdline>
J2VwaWtfcHl0aG9uJywgJy1waCcsICc3LjAnLCAnLXRuJywgJzgnLCAnLW1hJywgJzIwMCcsICctbWV0YWxfYmluZGluZycsICctaW1hZScsICc8aW5maWxlLm1hZT4nLCAnLW9tYWUnLCAnPG91dGZpbGUubWFlPic=

> <r_lp_tautomer_probability>
0.5

> <r_epik_Ionization_Penalty>
0.244885

> <r_epik_Ionization_Penalty_Charging>
0

> <r_epik_Ionization_Penalty_Neutral>
0.244885

> <r_epik_State_Penalty>
0.235951

> <r_epik_Charging_Adjusted_Penalty>
0.235951

> <i_epik_Tot_Q>
0

> <i_epik_Tot_abs_Q>
0

> <r_epik_Metal_State_Penalty>
0.23595

> <b_epik_Metal_Only>
0

> <s_lp_Force_Field>
OPLS_2005

> <r_lp_Energy>
32.4259

> <b_lp_Chiralities_Consistent>
1

> <s_lp_Variant>
AV-unprocessed.smi:1683-1

> <Gold.Version>
5.8.1

> <Gold.Id.Protein>
6NUR|6NUR_protein|mol2

> <Gold.PLP.Fitness>
40.2088

> <Gold.PLP.PLP>
-29.9856

> <Gold.PLP.part.hbond>
-2.0000

> <Gold.PLP.part.metal>
0.0000

> <Gold.PLP.part.buried>
-0.1510

> <Gold.PLP.part.nonpolar>
-30.6504

> <Gold.PLP.part.repulsive>
2.0692

> <Gold.PLP.ligand.clash>
0.0000

> <Gold.PLP.ligand.torsion>
0.4053

> <Gold.PLP.Chemscore.Hbond>
1.7007

> <Gold.PLP.Chemscore.CHOScore>
1.7536

> <Gold.PLP.Chemscore.Metal>
0.0000

> <Gold.Chemscore.Hbonds>
donor molecule, donor type, donor heavy atom, donor atom, acceptor molecule, acceptor atom, score
      L1  H     3    22       P1  7948  1.00
      L1  H    15    34       P1  7948  0.69
      L1  C    17    35       P1 10186  0.74
      L1  C    20    36       P1 10747  0.95

> <Gold.PLP.Chemscore.Internal.Correction>
0.6707

> <Gold.Rescore>
     Score         DG    S(hbond)    S(metal)    S(lipo)     H(rot)  DE(clash)    DE(int)     intcor
     11.80     -13.81       1.82        0.00      58.06       1.78       0.13       1.87       ----

> <Gold.Chemscore.Fitness>
11.8026

> <Gold.Chemscore.DG>
-13.8074

> <Gold.Chemscore.ZeroCoef>
-5.4800

> <Gold.Chemscore.Hbond>
1.8231

> <Gold.Chemscore.Metal>
0.0000

> <Gold.Chemscore.Lipo>
58.0638

> <Gold.Chemscore.Internal_Hbond>
0.0000

> <Gold.Chemscore.DEClash>
0.1322

> <Gold.Chemscore.DEInternal>
1.8725

> <Gold.Chemscore.Rot>
1.7793

> <Gold.Chemscore.Internal.Correction>
   9.000000E+99

> <Gold.Chemscore.Hbonds>
donor molecule, donor type, donor heavy atom, donor atom, acceptor molecule, acceptor atom, score
      L1  H     3    22       P1  7948  0.99
      L1  H    15    34       P1  7948  0.46

> <Gold.Chemscore.Hbond.Weighted>
-6.0890

> <Gold.Chemscore.Metal.Weighted>
-0.0000

> <Gold.Chemscore.Lipo.Weighted>
-6.7935

> <Gold.Chemscore.Internal_Hbond.Weighted>
0.0000

> <Gold.Chemscore.DEClash.Weighted>
0.1322

> <Gold.Chemscore.DEInternal.Weighted>
1.8725

> <Gold.Chemscore.Rot.Weighted>
4.5551

> <Gold.Chemscore.Internal.Correction.Weighted>
   9.000000E+99

> <Gold.Protein.RotatedTorsions>
[ 6907 6896 6895 6894 ] final  -35.31 input  -60.11 | X-H torsion
[ 7974 7965 7964 7962 ] final   55.11 input  175.53 | X-H torsion
[ 8008 7997 7996 7995 ] final -142.27 input   59.86 | X-H torsion
[ 10167 10162 10161 10158 ] final  -75.84 input  -65.29 | X-H torsion
[ 10718 10713 10712 10709 ] final  -26.40 input   66.30 | X-H torsion
[ 10763 10752 10751 10750 ] final   29.37 input  -60.55 | X-H torsion
[ 11005 11000 10999 10996 ] final  -35.69 input  -57.11 | X-H torsion

> <Gold.Protein.ActiveResidues>
 VAL166  LYS551  ARG553  GLY616  TRP617  ASP618  TYR619  PRO620  LYS621  CYS622 
 ASP623  PHE694  ASN695  SER759  ASP760  ASP761  ALA762  ILE779  LEU786  VAL792 
 PHE793  MET794  SER795  GLU796  ALA797  LYS798  CYS799  TRP800  GLU811  SER814 

> <Gold.Protein.RotatedAtoms>
  151.0414  134.9609  159.8163 H   0  0  0  0  0  0  0  0  0  0  0  0  # atno 6907 bound_to 6896
  152.5364  134.2654  159.8961 H   0  0  0  0  0  0  0  0  0  0  0  0  # atno 6908 bound_to 6896
  151.2666  133.4233  159.2653 H   0  0  0  0  0  0  0  0  0  0  0  0  # atno 6909 bound_to 6896
  145.9539  139.3997  143.0289 H   0  0  0  0  0  0  0  0  0  0  0  0  # atno 7974 bound_to 7965
  155.4914  140.0568  157.2953 H   0  0  0  0  0  0  0  0  0  0  0  0  # atno 8008 bound_to 7997
  154.4622  140.2001  156.0166 H   0  0  0  0  0  0  0  0  0  0  0  0  # atno 8009 bound_to 7997
  156.0910  140.3233  155.7820 H   0  0  0  0  0  0  0  0  0  0  0  0  # atno 8010 bound_to 7997
  140.4908  143.2381  151.7910 H   0  0  0  0  0  0  0  0  0  0  0  0  # atno 10167 bound_to 10162
  156.4516  130.4485  149.6986 H   0  0  0  0  0  0  0  0  0  0  0  0  # atno 10718 bound_to 10713
  153.0434  135.6490  154.0880 H   0  0  0  0  0  0  0  0  0  0  0  0  # atno 10763 bound_to 10752
  154.0582  135.2890  155.3331 H   0  0  0  0  0  0  0  0  0  0  0  0  # atno 10764 bound_to 10752
  154.6675  135.5368  153.8161 H   0  0  0  0  0  0  0  0  0  0  0  0  # atno 10765 bound_to 10752
  140.9816  133.7053  156.1694 H   0  0  0  0  0  0  0  0  0  0  0  0  # atno 11005 bound_to 11000
  145.8134  140.9715  143.0937 LP  0  0  0  0  0  0  0  0  0  0  0  0  # atno 17320 bound_to 7965
  144.6801  139.9949  143.7484 LP  0  0  0  0  0  0  0  0  0  0  0  0  # atno 17321 bound_to 7965
  139.4851  144.4651  151.9493 LP  0  0  0  0  0  0  0  0  0  0  0  0  # atno 17342 bound_to 10162
  140.3738  144.2822  150.5916 LP  0  0  0  0  0  0  0  0  0  0  0  0  # atno 17343 bound_to 10162
  156.3810  130.7579  151.2571 LP  0  0  0  0  0  0  0  0  0  0  0  0  # atno 17370 bound_to 10713
  157.7502  131.0296  150.4098 LP  0  0  0  0  0  0  0  0  0  0  0  0  # atno 17371 bound_to 10713
  140.7178  134.4392  157.5577 LP  0  0  0  0  0  0  0  0  0  0  0  0  # atno 17394 bound_to 11000
  139.8952  134.8687  156.2140 LP  0  0  0  0  0  0  0  0  0  0  0  0  # atno 17395 bound_to 11000

$$$$
