#       Name:                AV-unprocessed.smi:767
#       Creating user name   scv26
#       Creation time:       Fri Mar 27 01:07:47 2020


#       File generated by GOLD software.
#

@<TRIPOS>MOLECULE
AV-unprocessed.smi:767
    52    54     1
SMALL
NO_CHARGES


@<TRIPOS>ATOM
      1 ****        -0.9884   2.8062   4.0711 C.3            1 S1                 0.0000
      2 ****        -1.6562   2.2211   2.8449 C.ar           1 S1                 0.0000
      3 ****        -1.2477   2.5527   1.5356 C.ar           1 S1                 0.0000
      4 ****        -1.9130   1.9678   0.4388 C.ar           1 S1                 0.0000
      5 ****        -2.9695   1.0599   0.6717 C.ar           1 S1                 0.0000
      6 ****        -3.6860   0.3932  -0.4906 C.3            1 S1                 0.0000
      7 ****        -3.3441  -1.1026  -0.6528 C.3            1 S1                 0.0000
      8 ****        -1.9110  -1.3766  -0.5922 N.am           1 S1                 0.0000
      9 ****        -1.0206  -1.0485  -1.5381 C.2            1 S1                 0.0000
     10 ****        -1.3080  -0.4776  -2.5899 O.2            1 S1                 0.0000
     11 ****         0.2233  -1.3967  -1.1864 N.am           1 S1                 0.0000
     12 ****         1.4213  -1.1455  -1.9890 C.3            1 S1                 0.0000
     13 ****         2.6313  -1.9955  -1.5379 C.3            1 S1                 0.0000
     14 ****         2.5111  -3.1428  -0.5645 C.3            1 S1                 0.0000
     15 ****         2.8854  -2.4945   0.7721 C.3            1 S1                 0.0000
     16 ****         2.6835  -1.0971   0.5697 O.3            1 S1                 0.0000
     17 ****         3.1107  -0.7844  -0.7547 C.3            1 S1                 0.0000
     18 ****         2.1884   0.1408  -1.5748 C.3            1 S1                 0.0000
     19 ****         2.8904   0.8511  -2.7360 C.3            1 S1                 0.0000
     20 ****         1.4505   1.2322  -0.7885 C.3            1 S1                 0.0000
     21 ****        -3.3390   0.7717   2.0026 C.ar           1 S1                 0.0000
     22 ****        -2.6782   1.3547   3.0267 N.pl3          1 S1                 1.0000
     23 ****        -0.0044   3.2067   3.8245 H              1 S1                 0.0000
     24 ****        -0.8601   2.0447   4.8409 H              1 S1                 0.0000
     25 ****        -1.5941   3.6141   4.4819 H              1 S1                 0.0000
     26 ****        -0.4329   3.2428   1.3705 H              1 S1                 0.0000
     27 ****        -1.6068   2.2067  -0.5694 H              1 S1                 0.0000
     28 ****        -4.7616   0.5112  -0.3565 H              1 S1                 0.0000
     29 ****        -3.4404   0.9256  -1.4105 H              1 S1                 0.0000
     30 ****        -3.8100  -1.6678   0.1548 H              1 S1                 0.0000
     31 ****        -3.7641  -1.4917  -1.5816 H              1 S1                 0.0000
     32 ****        -1.5719  -1.8447   0.2355 H              1 S1                 0.0000
     33 ****         0.3609  -1.8546  -0.2971 H              1 S1                 0.0000
     34 ****         1.2487  -1.2167  -3.0643 H              1 S1                 0.0000
     35 ****         3.2936  -2.2033  -2.3798 H              1 S1                 0.0000
     36 ****         1.5032  -3.5566  -0.5381 H              1 S1                 0.0000
     37 ****         3.1900  -3.9608  -0.8065 H              1 S1                 0.0000
     38 ****         2.2886  -2.8695   1.6036 H              1 S1                 0.0000
     39 ****         3.9376  -2.6702   1.0008 H              1 S1                 0.0000
     40 ****         4.1822  -0.5951  -0.8360 H              1 S1                 0.0000
     41 ****         3.5991   1.5993  -2.3794 H              1 S1                 0.0000
     42 ****         2.1754   1.3563  -3.3862 H              1 S1                 0.0000
     43 ****         3.4501   0.1513  -3.3571 H              1 S1                 0.0000
     44 ****         2.1317   2.0176  -0.4600 H              1 S1                 0.0000
     45 ****         0.9696   0.8404   0.1077 H              1 S1                 0.0000
     46 ****         0.6756   1.7023  -1.3946 H              1 S1                 0.0000
     47 ****        -4.1320   0.0916   2.2778 H              1 S1                 0.0000
     48 ****        -2.9609   1.1285   3.9806 H              1 S1                 0.0000
     49 ****        -2.2577  -0.2292  -2.7807 LP             1 S1                 0.0000
     50 ****        -0.5919  -0.2620  -3.2537 LP             1 S1                 0.0000
     51 ****         3.2208  -0.5758   1.2328 LP             1 S1                 0.0000
     52 ****         1.7146  -0.8739   0.6766 LP             1 S1                 0.0000
@<TRIPOS>BOND
    1    1    2 1     
    2    1   23 1     
    3    1   24 1     
    4    1   25 1     
    5    2   22 ar    
    6    2    3 ar    
    7    3    4 ar    
    8    3   26 1     
    9    4    5 ar    
   10    4   27 1     
   11    5    6 1     
   12    5   21 ar    
   13    6    7 1     
   14    6   28 1     
   15    6   29 1     
   16    7    8 1     
   17    7   30 1     
   18    7   31 1     
   19    8    9 am    
   20    8   32 1     
   21    9   10 2     
   22    9   11 am    
   23   11   12 1     
   24   11   33 1     
   25   12   18 1     
   26   12   13 1     
   27   12   34 1     
   28   13   17 1     
   29   13   14 1     
   30   13   35 1     
   31   14   15 1     
   32   14   36 1     
   33   14   37 1     
   34   15   16 1     
   35   15   38 1     
   36   15   39 1     
   37   16   17 1     
   38   17   18 1     
   39   17   40 1     
   40   18   19 1     
   41   18   20 1     
   42   19   41 1     
   43   19   42 1     
   44   19   43 1     
   45   20   44 1     
   46   20   45 1     
   47   20   46 1     
   48   21   22 ar    
   49   21   47 1     
   50   22   48 1     
   51   10   49 1     
   52   10   50 1     
   53   16   51 1     
   54   16   52 1     
@<TRIPOS>SUBSTRUCTURE
      1 S1             1
@<TRIPOS>SET
LONE_PAIRS      STATIC     ATOMS    <user>   **** ""
4 49 50 51 52
DONOR_HYDROGENS      STATIC     ATOMS    <user>   **** ""
3 32 33 48
ATOM$BLUE        STATIC     ATOMS    COLORGROUP SYSTEM
4 49 50 51 52
ATOM$RED        STATIC     ATOMS    COLORGROUP SYSTEM
3 32 33 48
