#       Name:                AV-unprocessed.smi:1056
#       Creating user name   scv26
#       Creation time:       Fri Mar 27 03:14:30 2020


#       File generated by GOLD software.
#

@<TRIPOS>MOLECULE
AV-unprocessed.smi:1056
    50    52     1
SMALL
NO_CHARGES


@<TRIPOS>ATOM
      1 ****        -4.0386   4.7161   1.7482 C.3            1 S1                 0.0000
      2 ****        -3.3013   3.5431   1.1262 C.ar           1 S1                 0.0000
      3 ****        -3.0635   3.5414  -0.2668 C.ar           1 S1                 0.0000
      4 ****        -2.3806   2.4701  -0.8836 C.ar           1 S1                 0.0000
      5 ****        -2.0428   2.2653  -2.2106 N.2            1 S1                 0.0000
      6 ****        -1.4209   1.0915  -2.1499 C.2            1 S1                 0.0000
      7 ****        -1.3159   0.5105  -0.9396 N.pl3          1 S1                 0.0000
      8 ****        -0.6836  -0.7606  -0.6342 C.3            1 S1                 0.0000
      9 ****         0.8407  -0.6327  -0.4472 C.3            1 S1                 0.0000
     10 ****         1.1060   0.2332   0.6396 O.3            1 S1                 0.0000
     11 ****         1.4924  -2.0010  -0.1580 C.3            1 S1                 0.0000
     12 ****         2.9636  -2.0086  -0.0731 N.3            1 S1                 0.0000
     13 ****         3.6333  -1.6738  -1.3351 C.3            1 S1                 0.0000
     14 ****         3.4356  -2.7357  -2.4358 C.3            1 S1                 0.0000
     15 ****         3.5383  -4.0994  -1.9175 N.am           1 S1                 0.0000
     16 ****         3.5150  -4.4299  -0.6145 C.2            1 S1                 0.0000
     17 ****         3.5467  -5.6000  -0.2412 O.2            1 S1                 0.0000
     18 ****         3.4782  -3.2930   0.4269 C.3            1 S1                 0.0000
     19 ****        -1.9402   1.3911  -0.0625 C.ar           1 S1                 0.0000
     20 ****        -2.1703   1.3819   1.3245 C.ar           1 S1                 0.0000
     21 ****        -2.8532   2.4603   1.9248 C.ar           1 S1                 0.0000
     22 ****        -3.0951   2.4415   3.4237 C.3            1 S1                 0.0000
     23 ****        -4.2870   5.4714   1.0019 H              1 S1                 0.0000
     24 ****        -3.4252   5.1922   2.5136 H              1 S1                 0.0000
     25 ****        -4.9689   4.3812   2.2077 H              1 S1                 0.0000
     26 ****        -3.4044   4.3658  -0.8756 H              1 S1                 0.0000
     27 ****        -1.0163   0.6259  -3.0367 H              1 S1                 0.0000
     28 ****        -1.1478  -1.1769   0.2608 H              1 S1                 0.0000
     29 ****        -0.9045  -1.4523  -1.4481 H              1 S1                 0.0000
     30 ****         1.2545  -0.1899  -1.3519 H              1 S1                 0.0000
     31 ****         2.0427   0.2944   0.7499 H              1 S1                 0.0000
     32 ****         1.0796  -2.3662   0.7838 H              1 S1                 0.0000
     33 ****         1.1583  -2.7177  -0.9088 H              1 S1                 0.0000
     34 ****         3.3355  -0.6912  -1.6971 H              1 S1                 0.0000
     35 ****         4.7029  -1.5809  -1.1401 H              1 S1                 0.0000
     36 ****         2.4536  -2.6213  -2.8956 H              1 S1                 0.0000
     37 ****         4.1684  -2.5967  -3.2309 H              1 S1                 0.0000
     38 ****         3.5878  -4.8468  -2.5948 H              1 S1                 0.0000
     39 ****         4.5027  -3.1499   0.7725 H              1 S1                 0.0000
     40 ****         2.9170  -3.6175   1.3043 H              1 S1                 0.0000
     41 ****        -1.8201   0.5524   1.9210 H              1 S1                 0.0000
     42 ****        -2.7102   1.5275   3.8771 H              1 S1                 0.0000
     43 ****        -4.1620   2.4984   3.6401 H              1 S1                 0.0000
     44 ****        -2.5984   3.2868   3.9005 H              1 S1                 0.0000
     45 ****        -2.2198   2.8465  -3.0048 LP             1 S1                 0.0000
     46 ****         0.6909  -0.1330   1.4725 LP             1 S1                 0.0000
     47 ****         0.7282   1.1394   0.4496 LP             1 S1                 0.0000
     48 ****         3.1811  -1.2843   0.5812 LP             1 S1                 0.0000
     49 ****         3.5911  -6.3385  -0.9140 LP             1 S1                 0.0000
     50 ****         3.5280  -5.8139   0.7355 LP             1 S1                 0.0000
@<TRIPOS>BOND
    1    1    2 1     
    2    1   23 1     
    3    1   24 1     
    4    1   25 1     
    5    2   21 ar    
    6    2    3 ar    
    7    3    4 ar    
    8    3   26 1     
    9    4   19 ar    
   10    4    5 1     
   11    5    6 2     
   12    6    7 1     
   13    6   27 1     
   14    7    8 1     
   15    7   19 1     
   16    8    9 1     
   17    8   28 1     
   18    8   29 1     
   19    9   10 1     
   20    9   11 1     
   21    9   30 1     
   22   10   31 1     
   23   11   12 1     
   24   11   32 1     
   25   11   33 1     
   26   12   18 1     
   27   12   13 1     
   28   13   14 1     
   29   13   34 1     
   30   13   35 1     
   31   14   15 1     
   32   14   36 1     
   33   14   37 1     
   34   15   16 am    
   35   15   38 1     
   36   16   17 2     
   37   16   18 1     
   38   18   39 1     
   39   18   40 1     
   40   19   20 ar    
   41   20   21 ar    
   42   20   41 1     
   43   21   22 1     
   44   22   42 1     
   45   22   43 1     
   46   22   44 1     
   47    5   45 1     
   48   10   46 1     
   49   10   47 1     
   50   12   48 1     
   51   17   49 1     
   52   17   50 1     
@<TRIPOS>SUBSTRUCTURE
      1 S1             1
@<TRIPOS>SET
LONE_PAIRS      STATIC     ATOMS    <user>   **** ""
6 45 46 47 48 49 50
DONOR_HYDROGENS      STATIC     ATOMS    <user>   **** ""
2 31 38
ATOM$BLUE        STATIC     ATOMS    COLORGROUP SYSTEM
6 45 46 47 48 49 50
ATOM$RED        STATIC     ATOMS    COLORGROUP SYSTEM
2 31 38
