AV-unprocessed.smi:265|AV-procd|sdf|2016|dock10
  -GOLD-   2262021213D 1   1.00000     0.00000
 Structure written by MMmdl.
 52 56  0  0  0  0  0  0  0  0  1 V2000
  150.7483  123.8255  148.2504 C   0  0  0  0  0  0  0  0  0  0  0  0
  149.3288  124.2087  148.6967 C   0  0  1  0  0  0  0  0  0  0  0  0
  148.3598  123.8280  147.7207 O   0  0  0  0  0  0  0  0  0  0  0  0
  147.2500  123.1916  148.3438 C   0  0  0  0  0  0  0  0  0  0  0  0
  147.3447  123.5723  149.8175 C   0  0  0  0  0  0  0  0  0  0  0  0
  148.8489  123.6288  150.0465 C   0  0  1  0  0  0  0  0  0  0  0  0
  149.3304  122.3053  150.2126 O   0  0  0  0  0  0  0  0  0  0  0  0
  149.3015  124.4087  151.3077 C   0  0  0  0  0  0  0  0  0  0  0  0
  148.7350  125.7413  151.4448 N   0  0  0  0  0  0  0  0  0  0  0  0
  148.7571  126.7496  150.5063 C   0  0  0  0  0  0  0  0  0  0  0  0
  148.1878  127.8657  150.8724 N   0  0  0  0  0  0  0  0  0  0  0  0
  147.7580  127.6126  152.1683 C   0  0  0  0  0  0  0  0  0  0  0  0
  147.0841  128.3818  153.1515 C   0  0  0  0  0  0  0  0  0  0  0  0
  146.7049  129.6564  152.9237 N   0  0  0  0  0  0  0  0  0  0  0  0
  147.7294  130.6374  153.2815 C   0  0  0  0  0  0  0  0  0  0  0  0
  147.1695  132.0715  153.2168 C   0  0  0  0  0  0  0  0  0  0  0  0
  146.5362  132.3254  151.8412 C   0  0  2  0  0  0  0  0  0  0  0  0
  145.9026  133.5940  151.7737 O   0  0  0  0  0  0  0  0  0  0  0  0
  145.4352  133.9292  150.4623 C   0  0  0  0  0  0  0  0  0  0  0  0
  144.6666  132.7741  149.7846 C   0  0  0  0  0  0  0  0  0  0  0  0
  144.0091  132.9897  148.7691 O   0  0  0  0  0  0  0  0  0  0  0  0
  144.7765  131.5434  150.3113 N   0  0  0  0  0  0  0  0  0  0  0  0
  145.4443  131.2760  151.5777 C   0  0  1  0  0  0  0  0  0  0  0  0
  146.0529  129.8661  151.6313 C   0  0  0  0  0  0  0  0  0  0  0  0
  146.8199  127.7984  154.3500 N   0  0  0  0  0  0  0  0  0  0  0  0
  147.1983  126.5356  154.5722 C   0  0  0  0  0  0  0  0  0  0  0  0
  147.8373  125.6980  153.7513 N   0  0  0  0  0  0  0  0  0  0  0  0
  148.0979  126.2846  152.5471 C   0  0  0  0  0  0  0  0  0  0  0  0
  147.3173  132.2687  151.0795 H   0  0  0  0  0  0  0  0  0  0  0  0
  144.6821  131.3537  152.3553 H   0  0  0  0  0  0  0  0  0  0  0  0
  151.4855  124.1141  148.9998 H   0  0  0  0  0  0  0  0  0  0  0  0
  151.0084  124.3288  147.3192 H   0  0  0  0  0  0  0  0  0  0  0  0
  150.8423  122.7529  148.0790 H   0  0  0  0  0  0  0  0  0  0  0  0
  149.2686  125.2952  148.7312 H   0  0  0  0  0  0  0  0  0  0  0  0
  146.3074  123.4991  147.8909 H   0  0  0  0  0  0  0  0  0  0  0  0
  147.3488  122.1124  148.2198 H   0  0  0  0  0  0  0  0  0  0  0  0
  146.8920  124.5550  149.9472 H   0  0  0  0  0  0  0  0  0  0  0  0
  146.8256  122.8755  150.4766 H   0  0  0  0  0  0  0  0  0  0  0  0
  150.1995  122.3463  150.5813 H   0  0  0  0  0  0  0  0  0  0  0  0
  149.0426  123.8440  152.2048 H   0  0  0  0  0  0  0  0  0  0  0  0
  150.3882  124.5034  151.3157 H   0  0  0  0  0  0  0  0  0  0  0  0
  149.2083  126.6281  149.5321 H   0  0  0  0  0  0  0  0  0  0  0  0
  148.1044  130.4323  154.2853 H   0  0  0  0  0  0  0  0  0  0  0  0
  148.5753  130.5396  152.5994 H   0  0  0  0  0  0  0  0  0  0  0  0
  146.4227  132.2094  153.9998 H   0  0  0  0  0  0  0  0  0  0  0  0
  147.9625  132.7944  153.4088 H   0  0  0  0  0  0  0  0  0  0  0  0
  144.7945  134.8088  150.5293 H   0  0  0  0  0  0  0  0  0  0  0  0
  146.2865  134.1977  149.8356 H   0  0  0  0  0  0  0  0  0  0  0  0
  144.3046  130.7753  149.8564 H   0  0  0  0  0  0  0  0  0  0  0  0
  146.7784  129.7382  150.8264 H   0  0  0  0  0  0  0  0  0  0  0  0
  145.2738  129.1160  151.4877 H   0  0  0  0  0  0  0  0  0  0  0  0
  146.9554  126.1397  155.5475 H   0  0  0  0  0  0  0  0  0  0  0  0
  1  2  1  0  0  0  0
  1 31  1  0  0  0  0
  1 32  1  0  0  0  0
  1 33  1  0  0  0  0
  2  6  1  0  0  0  0
  2  3  1  0  0  0  0
  2 34  1  0  0  0  0
  3  4  1  0  0  0  0
  4  5  1  0  0  0  0
  4 35  1  0  0  0  0
  4 36  1  0  0  0  0
  5  6  1  0  0  0  0
  5 37  1  0  0  0  0
  5 38  1  0  0  0  0
  6  7  1  0  0  0  0
  6  8  1  0  0  0  0
  7 39  1  0  0  0  0
  8  9  1  0  0  0  0
  8 40  1  0  0  0  0
  8 41  1  0  0  0  0
  9 28  1  0  0  0  0
  9 10  1  0  0  0  0
 10 11  2  0  0  0  0
 10 42  1  0  0  0  0
 11 12  1  0  0  0  0
 12 28  2  0  0  0  0
 12 13  1  0  0  0  0
 13 14  1  0  0  0  0
 13 25  2  0  0  0  0
 14 24  1  0  0  0  0
 14 15  1  0  0  0  0
 15 16  1  0  0  0  0
 15 43  1  0  0  0  0
 15 44  1  0  0  0  0
 16 17  1  0  0  0  0
 16 45  1  0  0  0  0
 16 46  1  0  0  0  0
 17 29  1  0  0  0  0
 17 23  1  0  0  0  0
 17 18  1  0  0  0  0
 18 19  1  0  0  0  0
 19 20  1  0  0  0  0
 19 47  1  0  0  0  0
 19 48  1  0  0  0  0
 20 21  2  0  0  0  0
 20 22  1  0  0  0  0
 22 23  1  0  0  0  0
 22 49  1  0  0  0  0
 23 30  1  0  0  0  0
 23 24  1  0  0  0  0
 24 50  1  0  0  0  0
 24 51  1  0  0  0  0
 25 26  1  0  0  0  0
 26 27  2  0  0  0  0
 26 52  1  0  0  0  0
 27 28  1  0  0  0  0
M  END
> <s_m_source_file>
AV-unprocessed.smi

> <i_m_source_file_index>
265

> <i_lp_mmshare_version>
43012

> <i_f3d_flags>
0

> <s_epik_input>
W0NIMl0xW0NIMl1PW0NAQEhdKFtDSDNdKVtDQEBdMShbT0hdKVtDSDJdbihbY0hdbjIpYyhjMjMpbltjSF1uYzNOKFtDSDJdW0NIMl00KVtDSDJdW0NAQEhdKFtDQEhdNDUpW05IXUMoPU8pW0NIMl1PNQ==

> <s_epik_cmdline>
J2VwaWtfcHl0aG9uJywgJy1waCcsICc3LjAnLCAnLXRuJywgJzgnLCAnLW1hJywgJzIwMCcsICctbWV0YWxfYmluZGluZycsICctaW1hZScsICc8aW5maWxlLm1hZT4nLCAnLW9tYWUnLCAnPG91dGZpbGUubWFlPic=

> <r_lp_tautomer_probability>
1

> <r_epik_Ionization_Penalty>
0.00221504

> <r_epik_Ionization_Penalty_Charging>
0

> <r_epik_Ionization_Penalty_Neutral>
0.00221504

> <r_epik_State_Penalty>
-0

> <r_epik_Charging_Adjusted_Penalty>
0

> <i_epik_Tot_Q>
0

> <i_epik_Tot_abs_Q>
0

> <r_epik_Metal_State_Penalty>
-0

> <b_epik_Metal_Only>
0

> <s_lp_Force_Field>
OPLS_2005

> <r_lp_Energy>
49.8504

> <b_lp_Chiralities_Consistent>
1

> <s_lp_Variant>
AV-unprocessed.smi:265-2

> <Gold.Version>
5.8.1

> <Gold.Id.Protein>
6NUR|6NUR_protein|mol2

> <Gold.PLP.Fitness>
42.4322

> <Gold.PLP.PLP>
-42.8383

> <Gold.PLP.part.hbond>
-0.6130

> <Gold.PLP.part.metal>
0.0000

> <Gold.PLP.part.buried>
-6.6949

> <Gold.PLP.part.nonpolar>
-36.8069

> <Gold.PLP.part.repulsive>
1.0122

> <Gold.PLP.ligand.clash>
0.0000

> <Gold.PLP.ligand.torsion>
0.6657

> <Gold.PLP.Chemscore.Hbond>
0.0000

> <Gold.PLP.Chemscore.CHOScore>
0.2314

> <Gold.PLP.Chemscore.Metal>
0.0000

> <Gold.Chemscore.Hbonds>
donor molecule, donor type, donor heavy atom, donor atom, acceptor molecule, acceptor atom, score
      L1  C    10    42       P1 10769  0.34

> <Gold.PLP.Chemscore.Internal.Correction>
0.2310

> <Gold.Rescore>
     Score         DG    S(hbond)    S(metal)    S(lipo)     H(rot)  DE(clash)    DE(int)     intcor
      7.19      -9.49       0.00        0.00      83.42       2.25       0.55       1.75       ----

> <Gold.Chemscore.Fitness>
7.1884

> <Gold.Chemscore.DG>
-9.4917

> <Gold.Chemscore.ZeroCoef>
-5.4800

> <Gold.Chemscore.Hbond>
0.0000

> <Gold.Chemscore.Metal>
0.0000

> <Gold.Chemscore.Lipo>
83.4152

> <Gold.Chemscore.Internal_Hbond>
0.0000

> <Gold.Chemscore.DEClash>
0.5545

> <Gold.Chemscore.DEInternal>
1.7488

> <Gold.Chemscore.Rot>
2.2453

> <Gold.Chemscore.Internal.Correction>
   9.000000E+99

> <Gold.Chemscore.Hbond.Weighted>
-0.0000

> <Gold.Chemscore.Metal.Weighted>
-0.0000

> <Gold.Chemscore.Lipo.Weighted>
-9.7596

> <Gold.Chemscore.Internal_Hbond.Weighted>
0.0000

> <Gold.Chemscore.DEClash.Weighted>
0.5545

> <Gold.Chemscore.DEInternal.Weighted>
1.7488

> <Gold.Chemscore.Rot.Weighted>
5.7479

> <Gold.Chemscore.Internal.Correction.Weighted>
   9.000000E+99

> <Gold.Protein.RotatedTorsions>
[ 6907 6896 6895 6894 ] final -101.99 input  -60.11 | X-H torsion
[ 7974 7965 7964 7962 ] final  174.91 input  175.53 | X-H torsion
[ 8008 7997 7996 7995 ] final  -23.65 input   59.86 | X-H torsion
[ 10167 10162 10161 10158 ] final    6.81 input  -65.29 | X-H torsion
[ 10718 10713 10712 10709 ] final  -21.39 input   66.30 | X-H torsion
[ 10763 10752 10751 10750 ] final  102.38 input  -60.55 | X-H torsion
[ 11005 11000 10999 10996 ] final  -43.26 input  -57.11 | X-H torsion

> <Gold.Protein.ActiveResidues>
 VAL166  LYS551  ARG553  GLY616  TRP617  ASP618  TYR619  PRO620  LYS621  CYS622 
 ASP623  PHE694  ASN695  SER759  ASP760  ASP761  ALA762  ILE779  LEU786  VAL792 
 PHE793  MET794  SER795  GLU796  ALA797  LYS798  CYS799  TRP800  GLU811  SER814 

> <Gold.Protein.RotatedAtoms>
  150.7177  134.0649  159.3843 H   0  0  0  0  0  0  0  0  0  0  0  0  # atno 6907 bound_to 6896
  151.8630  135.0515  160.0480 H   0  0  0  0  0  0  0  0  0  0  0  0  # atno 6908 bound_to 6896
  152.2703  133.5340  159.5471 H   0  0  0  0  0  0  0  0  0  0  0  0  # atno 6909 bound_to 6896
  144.7212  139.9868  143.6439 H   0  0  0  0  0  0  0  0  0  0  0  0  # atno 7974 bound_to 7965
  154.4573  140.1975  156.0342 H   0  0  0  0  0  0  0  0  0  0  0  0  # atno 8008 bound_to 7997
  156.0772  140.3276  155.7620 H   0  0  0  0  0  0  0  0  0  0  0  0  # atno 8009 bound_to 7997
  155.5170  140.0566  157.2904 H   0  0  0  0  0  0  0  0  0  0  0  0  # atno 8010 bound_to 7997
  140.6407  143.7781  150.7424 H   0  0  0  0  0  0  0  0  0  0  0  0  # atno 10167 bound_to 10162
  156.5188  130.4627  149.6608 H   0  0  0  0  0  0  0  0  0  0  0  0  # atno 10718 bound_to 10713
  153.3388  135.4012  155.1555 H   0  0  0  0  0  0  0  0  0  0  0  0  # atno 10763 bound_to 10752
  154.8639  135.3628  154.5373 H   0  0  0  0  0  0  0  0  0  0  0  0  # atno 10764 bound_to 10752
  153.5816  135.7076  153.5520 H   0  0  0  0  0  0  0  0  0  0  0  0  # atno 10765 bound_to 10752
  141.0372  133.6795  156.2708 H   0  0  0  0  0  0  0  0  0  0  0  0  # atno 11005 bound_to 11000
  146.0444  139.3451  143.0678 LP  0  0  0  0  0  0  0  0  0  0  0  0  # atno 17320 bound_to 7965
  145.8294  140.9638  143.0857 LP  0  0  0  0  0  0  0  0  0  0  0  0  # atno 17321 bound_to 7965
  140.1412  143.4440  152.2193 LP  0  0  0  0  0  0  0  0  0  0  0  0  # atno 17342 bound_to 10162
  139.5616  144.7409  151.4138 LP  0  0  0  0  0  0  0  0  0  0  0  0  # atno 17343 bound_to 10162
  156.3169  130.7259  151.2164 LP  0  0  0  0  0  0  0  0  0  0  0  0  # atno 17370 bound_to 10713
  157.7440  131.0466  150.4902 LP  0  0  0  0  0  0  0  0  0  0  0  0  # atno 17371 bound_to 10713
  140.6301  134.5272  157.5558 LP  0  0  0  0  0  0  0  0  0  0  0  0  # atno 17394 bound_to 11000
  139.9249  134.8076  156.1099 LP  0  0  0  0  0  0  0  0  0  0  0  0  # atno 17395 bound_to 11000

$$$$
