AV-unprocessed.smi:3147|AV-procd|sdf|11990|dock2
  -GOLD-   2272017393D 1   1.00000     0.00000
 Structure written by MMmdl.
 36 37  0  0  0  0  0  0  0  0  1 V2000
  152.4094  143.8739  162.4068 C   0  0  0  0  0  0  0  0  0  0  0  0
  151.9133  144.1072  161.0126 C   0  0  0  0  0  0  0  0  0  0  0  0
  150.9154  145.0468  160.7652 N   0  0  0  0  0  0  0  0  0  0  0  0
  150.7371  144.9835  159.4535 C   0  0  0  0  0  0  0  0  0  0  0  0
  151.5189  144.0929  158.8285 N   0  0  0  0  0  0  0  0  0  0  0  0
  151.5372  143.8116  157.4005 C   0  0  0  0  0  0  0  0  0  0  0  0
  150.9644  142.4313  157.0557 C   0  0  0  0  0  0  0  0  0  0  0  0
  151.5589  141.3976  157.3654 O   0  0  0  0  0  0  0  0  0  0  0  0
  149.7883  142.4340  156.4106 N   0  0  0  0  0  0  0  0  0  0  0  0
  149.0562  141.2439  155.9927 C   0  0  0  0  0  0  0  0  0  0  0  0
  148.4935  141.3913  154.5692 C   0  0  1  0  0  0  0  0  0  0  0  0
  147.8685  140.1128  154.0192 C   0  0  0  0  0  0  0  0  0  0  0  0
  146.9870  140.6592  152.9184 C   0  0  0  0  0  0  0  0  0  0  0  0
  146.5004  141.9830  153.5089 C   0  0  0  0  0  0  0  0  0  0  0  0
  147.4224  142.3283  154.5411 O   0  0  0  0  0  0  0  0  0  0  0  0
  152.2979  143.5115  159.8282 C   0  0  0  0  0  0  0  0  0  0  0  0
  153.3231  142.4575  159.5529 C   0  0  0  0  0  0  0  0  0  0  0  0
  153.1793  143.1042  162.4436 H   0  0  0  0  0  0  0  0  0  0  0  0
  151.5987  143.5561  163.0625 H   0  0  0  0  0  0  0  0  0  0  0  0
  152.8366  144.7845  162.8275 H   0  0  0  0  0  0  0  0  0  0  0  0
  150.0180  145.5999  158.9342 H   0  0  0  0  0  0  0  0  0  0  0  0
  150.9711  144.5822  156.8763 H   0  0  0  0  0  0  0  0  0  0  0  0
  152.5673  143.8781  157.0470 H   0  0  0  0  0  0  0  0  0  0  0  0
  149.3695  143.3259  156.1898 H   0  0  0  0  0  0  0  0  0  0  0  0
  149.7085  140.3710  156.0512 H   0  0  0  0  0  0  0  0  0  0  0  0
  148.2454  141.0721  156.7012 H   0  0  0  0  0  0  0  0  0  0  0  0
  149.2689  141.7329  153.8811 H   0  0  0  0  0  0  0  0  0  0  0  0
  148.6084  139.3966  153.6604 H   0  0  0  0  0  0  0  0  0  0  0  0
  147.2576  139.6245  154.7800 H   0  0  0  0  0  0  0  0  0  0  0  0
  147.5841  140.8459  152.0248 H   0  0  0  0  0  0  0  0  0  0  0  0
  146.1721  139.9871  152.6482 H   0  0  0  0  0  0  0  0  0  0  0  0
  146.4480  142.7675  152.7534 H   0  0  0  0  0  0  0  0  0  0  0  0
  145.5095  141.8717  153.9499 H   0  0  0  0  0  0  0  0  0  0  0  0
  153.8731  142.1869  160.4532 H   0  0  0  0  0  0  0  0  0  0  0  0
  154.0476  142.8051  158.8161 H   0  0  0  0  0  0  0  0  0  0  0  0
  152.8541  141.5532  159.1650 H   0  0  0  0  0  0  0  0  0  0  0  0
  1  2  1  0  0  0  0
  1 18  1  0  0  0  0
  1 19  1  0  0  0  0
  1 20  1  0  0  0  0
  2 16  2  0  0  0  0
  2  3  1  0  0  0  0
  3  4  2  0  0  0  0
  4  5  1  0  0  0  0
  4 21  1  0  0  0  0
  5  6  1  0  0  0  0
  5 16  1  0  0  0  0
  6  7  1  0  0  0  0
  6 22  1  0  0  0  0
  6 23  1  0  0  0  0
  7  8  2  0  0  0  0
  7  9  1  0  0  0  0
  9 10  1  0  0  0  0
  9 24  1  0  0  0  0
 10 11  1  0  0  0  0
 10 25  1  0  0  0  0
 10 26  1  0  0  0  0
 11 15  1  0  0  0  0
 11 12  1  0  0  0  0
 11 27  1  0  0  0  0
 12 13  1  0  0  0  0
 12 28  1  0  0  0  0
 12 29  1  0  0  0  0
 13 14  1  0  0  0  0
 13 30  1  0  0  0  0
 13 31  1  0  0  0  0
 14 15  1  0  0  0  0
 14 32  1  0  0  0  0
 14 33  1  0  0  0  0
 16 17  1  0  0  0  0
 17 34  1  0  0  0  0
 17 35  1  0  0  0  0
 17 36  1  0  0  0  0
M  END
> <s_m_source_file>
AV-unprocessed.smi

> <i_m_source_file_index>
3147

> <i_lp_mmshare_version>
43012

> <i_f3d_flags>
0

> <s_epik_input>
W0NIM11jMW5bY0hdbihjMVtDSDNdKVtDSDJdQyg9TylbTkhdW0NIMl1bQ0BASF0yW0NIMl1bQ0gyXVtDSDJdTzI=

> <s_epik_cmdline>
J2VwaWtfcHl0aG9uJywgJy1waCcsICc3LjAnLCAnLXRuJywgJzgnLCAnLW1hJywgJzIwMCcsICctbWV0YWxfYmluZGluZycsICctaW1hZScsICc8aW5maWxlLm1hZT4nLCAnLW9tYWUnLCAnPG91dGZpbGUubWFlPic=

> <r_lp_tautomer_probability>
1

> <r_epik_Ionization_Penalty>
0.957393

> <r_epik_Ionization_Penalty_Charging>
0.957393

> <r_epik_Ionization_Penalty_Neutral>
1.43432e-07

> <r_epik_State_Penalty>
1.0022

> <r_epik_Charging_Adjusted_Penalty>
1.9596

> <i_epik_Tot_Q>
0

> <i_epik_Tot_abs_Q>
0

> <r_epik_Metal_State_Penalty>
0.374967

> <b_epik_Metal_Only>
0

> <s_lp_Force_Field>
OPLS_2005

> <r_lp_Energy>
18.0511

> <b_lp_Chiralities_Consistent>
1

> <s_lp_Variant>
AV-unprocessed.smi:3147-4

> <Gold.Version>
5.8.1

> <Gold.Id.Protein>
6NUR|6NUR_protein|mol2

> <Gold.PLP.Fitness>
42.5207

> <Gold.PLP.PLP>
-38.8466

> <Gold.PLP.part.hbond>
-1.0000

> <Gold.PLP.part.metal>
0.0000

> <Gold.PLP.part.buried>
-4.4344

> <Gold.PLP.part.nonpolar>
-35.4390

> <Gold.PLP.part.repulsive>
2.3493

> <Gold.PLP.ligand.clash>
0.0000

> <Gold.PLP.ligand.torsion>
0.3307

> <Gold.PLP.Chemscore.Hbond>
1.0000

> <Gold.PLP.Chemscore.CHOScore>
0.4365

> <Gold.PLP.Chemscore.Metal>
0.0000

> <Gold.Chemscore.Hbonds>
donor molecule, donor type, donor heavy atom, donor atom, acceptor molecule, acceptor atom, score
      L1  H     9    24       P1  8028  1.00
      L1  C     4    21       P1  8029  0.57

> <Gold.PLP.Chemscore.Internal.Correction>
0.0257

> <Gold.Rescore>
     Score         DG    S(hbond)    S(metal)    S(lipo)     H(rot)  DE(clash)    DE(int)     intcor
     14.83     -15.56       1.00        0.00      94.95       1.70       0.32       0.41       ----

> <Gold.Chemscore.Fitness>
14.8264

> <Gold.Chemscore.DG>
-15.5597

> <Gold.Chemscore.ZeroCoef>
-5.4800

> <Gold.Chemscore.Hbond>
0.9975

> <Gold.Chemscore.Metal>
0.0000

> <Gold.Chemscore.Lipo>
94.9451

> <Gold.Chemscore.Internal_Hbond>
0.0000

> <Gold.Chemscore.DEClash>
0.3228

> <Gold.Chemscore.DEInternal>
0.4104

> <Gold.Chemscore.Rot>
1.7034

> <Gold.Chemscore.Internal.Correction>
   9.000000E+99

> <Gold.Chemscore.Hbonds>
donor molecule, donor type, donor heavy atom, donor atom, acceptor molecule, acceptor atom, score
      L1  H     9    24       P1  8028  0.97

> <Gold.Chemscore.Hbond.Weighted>
-3.3318

> <Gold.Chemscore.Metal.Weighted>
-0.0000

> <Gold.Chemscore.Lipo.Weighted>
-11.1086

> <Gold.Chemscore.Internal_Hbond.Weighted>
0.0000

> <Gold.Chemscore.DEClash.Weighted>
0.3228

> <Gold.Chemscore.DEInternal.Weighted>
0.4104

> <Gold.Chemscore.Rot.Weighted>
4.3607

> <Gold.Chemscore.Internal.Correction.Weighted>
   9.000000E+99

> <Gold.Protein.RotatedTorsions>
[ 6907 6896 6895 6894 ] final -150.52 input  -60.11 | X-H torsion
[ 7974 7965 7964 7962 ] final  110.72 input  175.53 | X-H torsion
[ 8008 7997 7996 7995 ] final  -90.87 input   59.86 | X-H torsion
[ 10167 10162 10161 10158 ] final -119.65 input  -65.29 | X-H torsion
[ 10718 10713 10712 10709 ] final -173.81 input   66.30 | X-H torsion
[ 10763 10752 10751 10750 ] final   57.42 input  -60.55 | X-H torsion
[ 11005 11000 10999 10996 ] final -151.38 input  -57.11 | X-H torsion

> <Gold.Protein.ActiveResidues>
 VAL166  LYS551  ARG553  GLY616  TRP617  ASP618  TYR619  PRO620  LYS621  CYS622 
 ASP623  PHE694  ASN695  SER759  ASP760  ASP761  ALA762  ILE779  LEU786  VAL792 
 PHE793  MET794  SER795  GLU796  ALA797  LYS798  CYS799  TRP800  GLU811  SER814 

> <Gold.Protein.RotatedAtoms>
  151.1997  133.4618  159.2595 H   0  0  0  0  0  0  0  0  0  0  0  0  # atno 6907 bound_to 6896
  151.1081  135.0011  159.8491 H   0  0  0  0  0  0  0  0  0  0  0  0  # atno 6908 bound_to 6896
  152.5448  134.1919  159.8730 H   0  0  0  0  0  0  0  0  0  0  0  0  # atno 6909 bound_to 6896
  145.2514  139.2738  143.4065 H   0  0  0  0  0  0  0  0  0  0  0  0  # atno 7974 bound_to 7965
  154.7038  140.0525  157.0484 H   0  0  0  0  0  0  0  0  0  0  0  0  # atno 8008 bound_to 7997
  155.0648  140.3193  155.4630 H   0  0  0  0  0  0  0  0  0  0  0  0  # atno 8009 bound_to 7997
  156.2768  140.2092  156.5775 H   0  0  0  0  0  0  0  0  0  0  0  0  # atno 8010 bound_to 7997
  140.0444  143.5122  152.2114 H   0  0  0  0  0  0  0  0  0  0  0  0  # atno 10167 bound_to 10162
  156.7758  130.9465  151.3120 H   0  0  0  0  0  0  0  0  0  0  0  0  # atno 10718 bound_to 10713
  152.9849  135.5642  154.5387 H   0  0  0  0  0  0  0  0  0  0  0  0  # atno 10763 bound_to 10752
  154.4846  135.2790  155.1546 H   0  0  0  0  0  0  0  0  0  0  0  0  # atno 10764 bound_to 10752
  154.3041  135.6301  153.5490 H   0  0  0  0  0  0  0  0  0  0  0  0  # atno 10765 bound_to 10752
  140.7302  134.3629  157.5168 H   0  0  0  0  0  0  0  0  0  0  0  0  # atno 11005 bound_to 11000
  146.3301  140.2905  142.8615 LP  0  0  0  0  0  0  0  0  0  0  0  0  # atno 17320 bound_to 7965
  144.9500  140.8168  143.5578 LP  0  0  0  0  0  0  0  0  0  0  0  0  # atno 17321 bound_to 7965
  139.5993  144.7577  151.3210 LP  0  0  0  0  0  0  0  0  0  0  0  0  # atno 17342 bound_to 10162
  140.7245  143.7041  150.7821 LP  0  0  0  0  0  0  0  0  0  0  0  0  # atno 17343 bound_to 10162
  157.6670  130.9016  149.9954 LP  0  0  0  0  0  0  0  0  0  0  0  0  # atno 17370 bound_to 10713
  156.1249  130.3645  149.9826 LP  0  0  0  0  0  0  0  0  0  0  0  0  # atno 17371 bound_to 10713
  139.8828  134.9013  156.2808 LP  0  0  0  0  0  0  0  0  0  0  0  0  # atno 17394 bound_to 11000
  140.9927  133.7199  156.0839 LP  0  0  0  0  0  0  0  0  0  0  0  0  # atno 17395 bound_to 11000

$$$$
