#       Name:                AV-unprocessed.smi:2482
#       Creating user name   scv26
#       Creation time:       Fri Mar 27 13:42:29 2020


#       File generated by GOLD software.
#

@<TRIPOS>MOLECULE
AV-unprocessed.smi:2482
    40    41     1
SMALL
NO_CHARGES


@<TRIPOS>ATOM
      1 ****        -5.1556  -2.7780   0.2926 C.3            1 S1                 0.0000
      2 ****        -4.4066  -1.5004   0.6228 C.ar           1 S1                 0.0000
      3 ****        -5.1789  -0.4286   0.9030 N.ar           1 S1                 0.0000
      4 ****        -4.5597   0.7291   1.2068 C.ar           1 S1                 0.0000
      5 ****        -3.1596   0.8703   1.2426 C.ar           1 S1                 0.0000
      6 ****        -2.3388  -0.2399   0.9437 C.ar           1 S1                 0.0000
      7 ****        -1.0011  -0.1229   0.9791 N.pl3          1 S1                -1.0000
      8 ****        -0.3249   0.2425  -0.1374 C.2            1 S1                 0.0000
      9 ****        -0.7732   0.5151  -1.2528 O.2            1 S1                 0.0000
     10 ****         1.1891   0.2909   0.1182 C.3            1 S1                 0.0000
     11 ****         2.0242   0.2246  -1.1807 C.3            1 S1                 0.0000
     12 ****         3.4666   0.3367  -0.8671 N.4            1 S1                 1.0000
     13 ****         4.3217   0.2244  -2.0674 C.3            1 S1                 0.0000
     14 ****         3.7407   1.5614  -0.0816 C.3            1 S1                 0.0000
     15 ****         2.8529   1.5990   1.1733 C.3            1 S1                 0.0000
     16 ****         1.4857   1.5105   0.7939 O.3            1 S1                 0.0000
     17 ****        -2.9916  -1.4609   0.6317 C.ar           1 S1                 0.0000
     18 ****        -2.0782  -2.8888   0.2653 Cl             1 S1                 0.0000
     19 ****        -4.8909  -3.1252  -0.7064 H              1 S1                 0.0000
     20 ****        -6.2358  -2.6292   0.3220 H              1 S1                 0.0000
     21 ****        -4.9034  -3.5605   1.0086 H              1 S1                 0.0000
     22 ****        -5.1993   1.5702   1.4293 H              1 S1                 0.0000
     23 ****        -2.7218   1.8253   1.4941 H              1 S1                 0.0000
     24 ****         1.4639  -0.5520   0.7572 H              1 S1                 0.0000
     25 ****         1.8372  -0.7180  -1.6977 H              1 S1                 0.0000
     26 ****         1.7436   1.0290  -1.8633 H              1 S1                 0.0000
     27 ****         4.1273   1.0405  -2.7646 H              1 S1                 0.0000
     28 ****         4.1368  -0.7183  -2.5836 H              1 S1                 0.0000
     29 ****         5.3763   0.2527  -1.7920 H              1 S1                 0.0000
     30 ****         4.7924   1.5883   0.2059 H              1 S1                 0.0000
     31 ****         3.5527   2.4424  -0.6974 H              1 S1                 0.0000
     32 ****         3.1067   0.7868   1.8563 H              1 S1                 0.0000
     33 ****         3.0088   2.5315   1.7161 H              1 S1                 0.0000
     34 ****         3.6934  -0.4475  -0.2721 H              1 S1                 0.0000
     35 ****        -6.1768  -0.4919   0.8857 LP             1 S1                 0.0000
     36 ****        -0.5048  -0.3051   1.8280 LP             1 S1                 0.0000
     37 ****        -1.7589   0.4798  -1.4178 LP             1 S1                 0.0000
     38 ****        -0.1513   0.7715  -1.9926 LP             1 S1                 0.0000
     39 ****         0.9195   1.5684   1.6162 LP             1 S1                 0.0000
     40 ****         1.2705   2.2751   0.1865 LP             1 S1                 0.0000
@<TRIPOS>BOND
    1    1    2 1     
    2    1   19 1     
    3    1   20 1     
    4    1   21 1     
    5    2   17 ar    
    6    2    3 ar    
    7    3    4 ar    
    8    4    5 ar    
    9    4   22 1     
   10    5    6 ar    
   11    5   23 1     
   12    6    7 1     
   13    6   17 ar    
   14    7    8 1     
   15    8    9 2     
   16    8   10 1     
   17   10   16 1     
   18   10   11 1     
   19   10   24 1     
   20   11   12 1     
   21   11   25 1     
   22   11   26 1     
   23   12   13 1     
   24   12   14 1     
   25   12   34 1     
   26   13   27 1     
   27   13   28 1     
   28   13   29 1     
   29   14   15 1     
   30   14   30 1     
   31   14   31 1     
   32   15   16 1     
   33   15   32 1     
   34   15   33 1     
   35   17   18 1     
   36    3   35 1     
   37    7   36 1     
   38    9   37 1     
   39    9   38 1     
   40   16   39 1     
   41   16   40 1     
@<TRIPOS>SUBSTRUCTURE
      1 S1             1
@<TRIPOS>SET
LONE_PAIRS      STATIC     ATOMS    <user>   **** ""
6 35 36 37 38 39 40
DONOR_HYDROGENS      STATIC     ATOMS    <user>   **** ""
1 34
ATOM$BLUE        STATIC     ATOMS    COLORGROUP SYSTEM
6 35 36 37 38 39 40
ATOM$RED        STATIC     ATOMS    COLORGROUP SYSTEM
1 34
