#       Name:                AV-unprocessed.smi:251
#       Creating user name   scv26
#       Creation time:       Thu Mar 26 21:05:31 2020


#       File generated by GOLD software.
#

@<TRIPOS>MOLECULE
AV-unprocessed.smi:251
    57    61     1
SMALL
NO_CHARGES


@<TRIPOS>ATOM
      1 ****        -0.9871   1.7929   4.1828 O.3            1 S1                 0.0000
      2 ****        -1.8558   1.3121   3.1763 C.3            1 S1                 0.0000
      3 ****        -1.8906  -0.2424   3.1197 C.3            1 S1                 0.0000
      4 ****        -0.4654  -0.8227   2.8760 C.3            1 S1                 0.0000
      5 ****         0.1853  -0.3590   1.6583 N.pl3          1 S1                 0.0000
      6 ****         0.9944   0.7459   1.5281 C.2            1 S1                 0.0000
      7 ****         1.4616   0.9543   0.3285 N.2            1 S1                 0.0000
      8 ****         0.9582  -0.0984  -0.4287 C.ar           1 S1                 0.0000
      9 ****         1.0687  -0.4935  -1.7963 C.ar           1 S1                 0.0000
     10 ****         1.7774   0.1789  -2.7415 N.pl3          1 S1                 0.0000
     11 ****         2.7735   1.1879  -2.3943 C.3            1 S1                 0.0000
     12 ****         3.4898   1.5044  -3.6843 C.3            1 S1                 0.0000
     13 ****         2.7412   1.9802  -4.9131 C.3            1 S1                 0.0000
     14 ****         3.0506   0.5108  -4.7148 C.3            1 S1                 0.0000
     15 ****         4.0155  -0.2097  -5.6480 C.3            1 S1                 0.0000
     16 ****         4.6635  -1.1724  -4.9919 F              1 S1                 0.0000
     17 ****         3.3391  -0.7524  -6.6600 F              1 S1                 0.0000
     18 ****         4.9177   0.6360  -6.1465 F              1 S1                 0.0000
     19 ****         2.0379  -0.4050  -4.0571 C.3            1 S1                 0.0000
     20 ****         0.4020  -1.6176  -2.1713 N.ar           1 S1                 0.0000
     21 ****        -0.3099  -2.3160  -1.2832 C.ar           1 S1                 0.0000
     22 ****        -0.4953  -2.0701   0.0137 N.ar           1 S1                 0.0000
     23 ****         0.1578  -0.9377   0.4005 C.ar           1 S1                 0.0000
     24 ****        -2.4423  -0.8416   4.4378 C.3            1 S1                 0.0000
     25 ****        -3.9450  -0.5744   4.6379 C.3            1 S1                 0.0000
     26 ****        -4.6776  -1.0770   3.5281 O.3            1 S1                 0.0000
     27 ****        -4.3275  -0.4446   2.3042 C.3            1 S1                 0.0000
     28 ****        -2.8423  -0.6964   1.9843 C.3            1 S1                 0.0000
     29 ****        -1.0230   2.7374   4.1840 H              1 S1                 0.0000
     30 ****        -2.8420   1.7301   3.3699 H              1 S1                 0.0000
     31 ****        -1.5405   1.7293   2.2200 H              1 S1                 0.0000
     32 ****         0.1887  -0.5840   3.7157 H              1 S1                 0.0000
     33 ****        -0.5035  -1.9122   2.8392 H              1 S1                 0.0000
     34 ****         1.2224   1.4024   2.3554 H              1 S1                 0.0000
     35 ****         2.3085   2.0898  -1.9959 H              1 S1                 0.0000
     36 ****         3.4819   0.7941  -1.6645 H              1 S1                 0.0000
     37 ****         4.5450   1.7603  -3.6111 H              1 S1                 0.0000
     38 ****         1.7096   2.3032  -4.7868 H              1 S1                 0.0000
     39 ****         3.3083   2.5304  -5.6610 H              1 S1                 0.0000
     40 ****         2.4446  -1.4112  -3.9520 H              1 S1                 0.0000
     41 ****         1.1284  -0.4524  -4.6569 H              1 S1                 0.0000
     42 ****        -0.8019  -3.1973  -1.6674 H              1 S1                 0.0000
     43 ****        -2.2932  -1.9224   4.4330 H              1 S1                 0.0000
     44 ****        -1.8825  -0.4698   5.2963 H              1 S1                 0.0000
     45 ****        -4.2926  -1.0791   5.5393 H              1 S1                 0.0000
     46 ****        -4.1501   0.4871   4.7788 H              1 S1                 0.0000
     47 ****        -4.9502  -0.8583   1.5108 H              1 S1                 0.0000
     48 ****        -4.5546   0.6207   2.3512 H              1 S1                 0.0000
     49 ****        -2.5854  -0.2036   1.0460 H              1 S1                 0.0000
     50 ****        -2.7139  -1.7655   1.8107 H              1 S1                 0.0000
     51 ****        -0.0526   1.4911   3.9942 LP             1 S1                 0.0000
     52 ****        -1.2768   1.4432   5.0737 LP             1 S1                 0.0000
     53 ****         2.0497   1.7027   0.0219 LP             1 S1                 0.0000
     54 ****         0.4452  -1.9246  -3.1220 LP             1 S1                 0.0000
     55 ****        -1.0428  -2.6425   0.6242 LP             1 S1                 0.0000
     56 ****        -5.6524  -0.9303   3.6960 LP             1 S1                 0.0000
     57 ****        -4.4977  -2.0571   3.4441 LP             1 S1                 0.0000
@<TRIPOS>BOND
    1    1    2 1     
    2    1   29 1     
    3    2    3 1     
    4    2   30 1     
    5    2   31 1     
    6    3   28 1     
    7    3    4 1     
    8    3   24 1     
    9    4    5 1     
   10    4   32 1     
   11    4   33 1     
   12    5   23 1     
   13    5    6 1     
   14    6    7 2     
   15    6   34 1     
   16    7    8 1     
   17    8   23 ar    
   18    8    9 ar    
   19    9   10 1     
   20    9   20 ar    
   21   10   19 1     
   22   10   11 1     
   23   11   12 1     
   24   11   35 1     
   25   11   36 1     
   26   12   14 1     
   27   12   13 1     
   28   12   37 1     
   29   13   14 1     
   30   13   38 1     
   31   13   39 1     
   32   14   15 1     
   33   14   19 1     
   34   15   16 1     
   35   15   17 1     
   36   15   18 1     
   37   19   40 1     
   38   19   41 1     
   39   20   21 ar    
   40   21   22 ar    
   41   21   42 1     
   42   22   23 ar    
   43   24   25 1     
   44   24   43 1     
   45   24   44 1     
   46   25   26 1     
   47   25   45 1     
   48   25   46 1     
   49   26   27 1     
   50   27   28 1     
   51   27   47 1     
   52   27   48 1     
   53   28   49 1     
   54   28   50 1     
   55    1   51 1     
   56    1   52 1     
   57    7   53 1     
   58   20   54 1     
   59   22   55 1     
   60   26   56 1     
   61   26   57 1     
@<TRIPOS>SUBSTRUCTURE
      1 S1             1
@<TRIPOS>SET
LONE_PAIRS      STATIC     ATOMS    <user>   **** ""
7 51 52 53 54 55 56 57
DONOR_HYDROGENS      STATIC     ATOMS    <user>   **** ""
1 29
ATOM$BLUE        STATIC     ATOMS    COLORGROUP SYSTEM
7 51 52 53 54 55 56 57
ATOM$RED        STATIC     ATOMS    COLORGROUP SYSTEM
1 29
