AV-unprocessed.smi:2534|AV-procd|sdf|9975|dock9
  -GOLD-   2272014 23D 1   1.00000     0.00000
 Structure written by MMmdl.
 40 42  0  0  0  0  0  0  0  0  1 V2000
  147.6141  140.7965  154.3179 C   0  0  0  0  0  0  0  0  0  0  0  0
  149.1035  140.4482  154.4485 C   0  0  2  0  0  0  0  0  0  0  0  0
  149.3056  138.9724  154.8444 C   0  0  0  0  0  0  0  0  0  0  0  0
  150.7979  138.6278  154.9901 C   0  0  0  0  0  0  0  0  0  0  0  0
  151.5124  139.5466  156.0098 C   0  0  2  0  0  0  0  0  0  0  0  0
  152.8979  139.2837  155.8952 O   0  0  0  0  0  0  0  0  0  0  0  0
  151.0990  139.3031  157.4895 C   0  0  0  0  0  0  0  0  0  0  0  0
  151.9690  139.9338  158.4755 N   0  0  0  0  0  0  0  0  0  0  0  0
  152.1589  141.2789  158.4441 N   0  0  0  0  0  0  0  0  0  0  0  0
  152.9929  141.5532  159.4444 C   0  0  0  0  0  0  0  0  0  0  0  0
  153.3826  140.3812  160.1481 C   0  0  0  0  0  0  0  0  0  0  0  0
  154.2539  140.1005  161.2839 C   0  0  0  0  0  0  0  0  0  0  0  0
  154.3892  138.8686  161.6629 N   0  0  0  0  0  0  0  0  0  0  0  0
  153.7249  137.8256  161.0081 N   0  0  0  0  0  0  0  0  0  0  0  0
  154.0114  136.5071  161.5719 C   0  0  0  0  0  0  0  0  0  0  0  0
  152.8856  137.9828  159.9380 C   0  0  0  0  0  0  0  0  0  0  0  0
  152.3074  137.0581  159.3676 O   0  0  0  0  0  0  0  0  0  0  0  0
  152.7209  139.3908  159.5002 C   0  0  0  0  0  0  0  0  0  0  0  0
  151.3029  141.0227  155.6034 C   0  0  0  0  0  0  0  0  0  0  0  0
  149.8148  141.3844  155.4447 C   0  0  0  0  0  0  0  0  0  0  0  0
  147.0921  140.6687  155.2668 H   0  0  0  0  0  0  0  0  0  0  0  0
  147.1247  140.1598  153.5804 H   0  0  0  0  0  0  0  0  0  0  0  0
  147.4791  141.8308  154.0006 H   0  0  0  0  0  0  0  0  0  0  0  0
  149.5613  140.5957  153.4691 H   0  0  0  0  0  0  0  0  0  0  0  0
  148.7828  138.7592  155.7773 H   0  0  0  0  0  0  0  0  0  0  0  0
  148.8573  138.3234  154.0913 H   0  0  0  0  0  0  0  0  0  0  0  0
  150.9179  137.5770  155.2522 H   0  0  0  0  0  0  0  0  0  0  0  0
  151.2697  138.7384  154.0122 H   0  0  0  0  0  0  0  0  0  0  0  0
  153.0184  138.3522  155.7913 H   0  0  0  0  0  0  0  0  0  0  0  0
  150.0801  139.6510  157.6570 H   0  0  0  0  0  0  0  0  0  0  0  0
  151.0717  138.2356  157.7076 H   0  0  0  0  0  0  0  0  0  0  0  0
  153.2862  142.5780  159.6193 H   0  0  0  0  0  0  0  0  0  0  0  0
  154.7746  140.9094  161.7959 H   0  0  0  0  0  0  0  0  0  0  0  0
  153.4972  135.6887  161.0663 H   0  0  0  0  0  0  0  0  0  0  0  0
  153.7173  136.4774  162.6217 H   0  0  0  0  0  0  0  0  0  0  0  0
  155.0813  136.3026  161.5173 H   0  0  0  0  0  0  0  0  0  0  0  0
  151.7707  141.6874  156.3308 H   0  0  0  0  0  0  0  0  0  0  0  0
  151.8062  141.2151  154.6544 H   0  0  0  0  0  0  0  0  0  0  0  0
  149.7299  142.4171  155.1048 H   0  0  0  0  0  0  0  0  0  0  0  0
  149.3165  141.3449  156.4137 H   0  0  0  0  0  0  0  0  0  0  0  0
  1  2  1  0  0  0  0
  1 21  1  0  0  0  0
  1 22  1  0  0  0  0
  1 23  1  0  0  0  0
  2 20  1  0  0  0  0
  2  3  1  0  0  0  0
  2 24  1  0  0  0  0
  3  4  1  0  0  0  0
  3 25  1  0  0  0  0
  3 26  1  0  0  0  0
  4  5  1  0  0  0  0
  4 27  1  0  0  0  0
  4 28  1  0  0  0  0
  5  6  1  0  0  0  0
  5  7  1  0  0  0  0
  5 19  1  0  0  0  0
  6 29  1  0  0  0  0
  7  8  1  0  0  0  0
  7 30  1  0  0  0  0
  7 31  1  0  0  0  0
  8 18  1  0  0  0  0
  8  9  1  0  0  0  0
  9 10  2  0  0  0  0
 10 11  1  0  0  0  0
 10 32  1  0  0  0  0
 11 18  2  0  0  0  0
 11 12  1  0  0  0  0
 12 13  2  0  0  0  0
 12 33  1  0  0  0  0
 13 14  1  0  0  0  0
 14 15  1  0  0  0  0
 14 16  1  0  0  0  0
 15 34  1  0  0  0  0
 15 35  1  0  0  0  0
 15 36  1  0  0  0  0
 16 17  2  0  0  0  0
 16 18  1  0  0  0  0
 19 20  1  0  0  0  0
 19 37  1  0  0  0  0
 19 38  1  0  0  0  0
 20 39  1  0  0  0  0
 20 40  1  0  0  0  0
M  END
> <s_m_source_file>
AV-unprocessed.smi

> <i_m_source_file_index>
2534

> <i_lp_mmshare_version>
43012

> <i_f3d_flags>
0

> <s_epik_input>
W0NIMl0xW0NIMl1bQ0BIXShbQ0gzXSlbQ0gyXVtDSDJdW0NAQF0xKFtPSF0pW0NIMl1uKG5bY0hdMiljKGMyMyljKD1PKW4oW0NIM10pbltjSF0z

> <s_epik_cmdline>
J2VwaWtfcHl0aG9uJywgJy1waCcsICc3LjAnLCAnLXRuJywgJzgnLCAnLW1hJywgJzIwMCcsICctbWV0YWxfYmluZGluZycsICctaW1hZScsICc8aW5maWxlLm1hZT4nLCAnLW9tYWUnLCAnPG91dGZpbGUubWFlPic=

> <r_lp_tautomer_probability>
1

> <r_epik_Ionization_Penalty>
4.4666e-07

> <r_epik_Ionization_Penalty_Charging>
3.10141e-10

> <r_epik_Ionization_Penalty_Neutral>
4.46349e-07

> <r_epik_State_Penalty>
-0

> <r_epik_Charging_Adjusted_Penalty>
3.10141e-10

> <i_epik_Tot_Q>
0

> <i_epik_Tot_abs_Q>
0

> <r_epik_Metal_State_Penalty>
-0

> <b_epik_Metal_Only>
0

> <s_lp_Force_Field>
OPLS_2005

> <r_lp_Energy>
31.0433

> <b_lp_Chiralities_Consistent>
1

> <s_lp_Variant>
AV-unprocessed.smi:2534-2

> <Gold.Version>
5.8.1

> <Gold.Id.Protein>
6NUR|6NUR_protein|mol2

> <Gold.PLP.Fitness>
40.2756

> <Gold.PLP.PLP>
-34.8891

> <Gold.PLP.part.hbond>
-1.9461

> <Gold.PLP.part.metal>
0.0000

> <Gold.PLP.part.buried>
-4.2221

> <Gold.PLP.part.nonpolar>
-29.5615

> <Gold.PLP.part.repulsive>
0.0000

> <Gold.PLP.ligand.clash>
0.0000

> <Gold.PLP.ligand.torsion>
0.1021

> <Gold.PLP.Chemscore.Hbond>
1.8613

> <Gold.PLP.Chemscore.CHOScore>
0.0000

> <Gold.PLP.Chemscore.Metal>
0.0000

> <Gold.Chemscore.Hbonds>
donor molecule, donor type, donor heavy atom, donor atom, acceptor molecule, acceptor atom, score
      P1  H  6896  6908       L1    17  0.86
      P1  H  7997  8008       L1     6  1.00

> <Gold.PLP.Chemscore.Internal.Correction>
0.0069

> <Gold.Rescore>
     Score         DG    S(hbond)    S(metal)    S(lipo)     H(rot)  DE(clash)    DE(int)     intcor
     17.33     -17.73       1.93        0.00      86.31       1.68       0.17       0.23       ----

> <Gold.Chemscore.Fitness>
17.3265

> <Gold.Chemscore.DG>
-17.7338

> <Gold.Chemscore.ZeroCoef>
-5.4800

> <Gold.Chemscore.Hbond>
1.9298

> <Gold.Chemscore.Metal>
0.0000

> <Gold.Chemscore.Lipo>
86.3087

> <Gold.Chemscore.Internal_Hbond>
0.0000

> <Gold.Chemscore.DEClash>
0.1739

> <Gold.Chemscore.DEInternal>
0.2333

> <Gold.Chemscore.Rot>
1.6758

> <Gold.Chemscore.Internal.Correction>
   9.000000E+99

> <Gold.Chemscore.Hbonds>
donor molecule, donor type, donor heavy atom, donor atom, acceptor molecule, acceptor atom, score
      P1  H  6896  6908       L1    17  0.83
      P1  H  7997  8008       L1     6  0.84

> <Gold.Chemscore.Hbond.Weighted>
-6.4456

> <Gold.Chemscore.Metal.Weighted>
-0.0000

> <Gold.Chemscore.Lipo.Weighted>
-10.0981

> <Gold.Chemscore.Internal_Hbond.Weighted>
0.0000

> <Gold.Chemscore.DEClash.Weighted>
0.1739

> <Gold.Chemscore.DEInternal.Weighted>
0.2333

> <Gold.Chemscore.Rot.Weighted>
4.2899

> <Gold.Chemscore.Internal.Correction.Weighted>
   9.000000E+99

> <Gold.Protein.RotatedTorsions>
[ 6907 6896 6895 6894 ] final -110.57 input  -60.11 | X-H torsion
[ 7974 7965 7964 7962 ] final  145.30 input  175.53 | X-H torsion
[ 8008 7997 7996 7995 ] final  -20.99 input   59.86 | X-H torsion
[ 10167 10162 10161 10158 ] final  115.55 input  -65.29 | X-H torsion
[ 10718 10713 10712 10709 ] final -144.14 input   66.30 | X-H torsion
[ 10763 10752 10751 10750 ] final -155.27 input  -60.55 | X-H torsion
[ 11005 11000 10999 10996 ] final   75.51 input  -57.11 | X-H torsion

> <Gold.Protein.ActiveResidues>
 VAL166  LYS551  ARG553  GLY616  TRP617  ASP618  TYR619  PRO620  LYS621  CYS622 
 ASP623  PHE694  ASN695  SER759  ASP760  ASP761  ALA762  ILE779  LEU786  VAL792 
 PHE793  MET794  SER795  GLU796  ALA797  LYS798  CYS799  TRP800  GLU811  SER814 

> <Gold.Protein.RotatedAtoms>
  150.7633  133.9362  159.3441 H   0  0  0  0  0  0  0  0  0  0  0  0  # atno 6907 bound_to 6896
  151.7266  135.0881  160.0302 H   0  0  0  0  0  0  0  0  0  0  0  0  # atno 6908 bound_to 6896
  152.3616  133.6267  159.6055 H   0  0  0  0  0  0  0  0  0  0  0  0  # atno 6909 bound_to 6896
  144.8764  139.5766  143.5863 H   0  0  0  0  0  0  0  0  0  0  0  0  # atno 7974 bound_to 7965
  154.4734  140.2047  155.9938 H   0  0  0  0  0  0  0  0  0  0  0  0  # atno 8008 bound_to 7997
  156.1049  140.3238  155.7962 H   0  0  0  0  0  0  0  0  0  0  0  0  # atno 8009 bound_to 7997
  155.4735  140.0533  157.2967 H   0  0  0  0  0  0  0  0  0  0  0  0  # atno 8010 bound_to 7997
  139.6309  144.7114  151.2434 H   0  0  0  0  0  0  0  0  0  0  0  0  # atno 10167 bound_to 10162
  156.3664  130.7765  151.1940 H   0  0  0  0  0  0  0  0  0  0  0  0  # atno 10718 bound_to 10713
  154.7799  135.3171  154.8012 H   0  0  0  0  0  0  0  0  0  0  0  0  # atno 10763 bound_to 10752
  153.8727  135.6842  153.4777 H   0  0  0  0  0  0  0  0  0  0  0  0  # atno 10764 bound_to 10752
  153.1432  135.4730  154.9464 H   0  0  0  0  0  0  0  0  0  0  0  0  # atno 10765 bound_to 10752
  139.9340  134.7524  156.1280 H   0  0  0  0  0  0  0  0  0  0  0  0  # atno 11005 bound_to 11000
  146.2965  139.7295  142.9122 LP  0  0  0  0  0  0  0  0  0  0  0  0  # atno 17320 bound_to 7965
  145.4035  141.0388  143.3057 LP  0  0  0  0  0  0  0  0  0  0  0  0  # atno 17321 bound_to 7965
  140.7438  143.6481  150.8273 LP  0  0  0  0  0  0  0  0  0  0  0  0  # atno 17342 bound_to 10162
  140.0106  143.5646  152.2840 LP  0  0  0  0  0  0  0  0  0  0  0  0  # atno 17343 bound_to 10162
  157.7479  131.0385  150.4505 LP  0  0  0  0  0  0  0  0  0  0  0  0  # atno 17370 bound_to 10713
  156.4725  130.4056  149.6510 LP  0  0  0  0  0  0  0  0  0  0  0  0  # atno 17371 bound_to 10713
  141.0944  133.6701  156.2613 LP  0  0  0  0  0  0  0  0  0  0  0  0  # atno 17394 bound_to 11000
  140.6125  134.5444  157.5535 LP  0  0  0  0  0  0  0  0  0  0  0  0  # atno 17395 bound_to 11000

$$$$
