AV-unprocessed.smi:311|AV-procd|sdf|2297|dock6
  -GOLD-   2262022193D 1   1.00000     0.00000
 Structure written by MMmdl.
 44 46  0  0  0  0  0  0  0  0  2 V2000
  149.6099  133.8844  154.7298 C   0  0  0  0  0  0  0  0  0  0  0  0
  150.2322  132.8920  155.6700 C   0  0  0  0  0  0  0  0  0  0  0  0
  150.7697  133.3108  156.8034 N   0  0  0  0  0  0  0  0  0  0  0  0
  151.2654  132.1678  157.4379 O   0  0  0  0  0  0  0  0  0  0  0  0
  151.0033  131.0926  156.6523 C   0  0  0  0  0  0  0  0  0  0  0  0
  151.4701  129.7683  157.1549 C   0  0  0  0  0  0  0  0  0  0  0  0
  150.3493  131.4810  155.5150 C   0  0  0  0  0  0  0  0  0  0  0  0
  149.8756  130.6354  154.3613 C   0  0  0  0  0  0  0  0  0  0  0  0
  148.3663  130.8084  154.2051 C   0  0  0  0  0  0  0  0  0  0  0  0
  147.6368  130.7742  155.1958 O   0  0  0  0  0  0  0  0  0  0  0  0
  147.9169  131.0272  152.9599 N   0  0  0  0  0  0  0  0  0  0  0  0
  146.5353  131.3345  152.6066 C   0  0  2  0  0  0  0  0  0  0  0  0
  145.8934  130.2853  151.7064 C   0  0  0  0  0  0  0  0  0  0  0  0
  144.7251  131.0608  151.0953 C   0  0  0  0  0  0  0  0  0  0  0  0
  145.2052  132.4517  150.9335 N   0  3  1  0  0  0  0  0  0  0  0  0
  144.1617  133.4936  151.0940 C   0  0  0  0  0  0  0  0  0  0  0  0
  144.7685  134.8958  150.9059 C   0  0  0  0  0  0  0  0  0  0  0  0
  146.0053  135.1414  151.7958 C   0  0  0  0  0  0  0  0  0  0  0  0
  146.3839  133.9095  152.6337 C   0  0  0  0  0  0  0  0  0  0  0  0
  146.4228  132.6248  151.7754 C   0  0  1  0  0  0  0  0  0  0  0  0
  150.1767  133.9460  153.8006 H   0  0  0  0  0  0  0  0  0  0  0  0
  149.5723  134.8850  155.1626 H   0  0  0  0  0  0  0  0  0  0  0  0
  148.5896  133.5960  154.4774 H   0  0  0  0  0  0  0  0  0  0  0  0
  150.7804  128.9764  156.8634 H   0  0  0  0  0  0  0  0  0  0  0  0
  151.5437  129.7663  158.2428 H   0  0  0  0  0  0  0  0  0  0  0  0
  152.4527  129.5281  156.7487 H   0  0  0  0  0  0  0  0  0  0  0  0
  150.3779  130.9093  153.4325 H   0  0  0  0  0  0  0  0  0  0  0  0
  150.0936  129.5793  154.5226 H   0  0  0  0  0  0  0  0  0  0  0  0
  148.5922  131.0279  152.2089 H   0  0  0  0  0  0  0  0  0  0  0  0
  145.9218  131.4185  153.5064 H   0  0  0  0  0  0  0  0  0  0  0  0
  146.5870  129.9749  150.9232 H   0  0  0  0  0  0  0  0  0  0  0  0
  145.5728  129.3959  152.2498 H   0  0  0  0  0  0  0  0  0  0  0  0
  144.3924  130.6396  150.1463 H   0  0  0  0  0  0  0  0  0  0  0  0
  143.8796  131.0384  151.7850 H   0  0  0  0  0  0  0  0  0  0  0  0
  143.3694  133.3278  150.3632 H   0  0  0  0  0  0  0  0  0  0  0  0
  143.7022  133.4108  152.0805 H   0  0  0  0  0  0  0  0  0  0  0  0
  145.0519  135.0247  149.8604 H   0  0  0  0  0  0  0  0  0  0  0  0
  144.0100  135.6535  151.1054 H   0  0  0  0  0  0  0  0  0  0  0  0
  146.8500  135.4203  151.1649 H   0  0  0  0  0  0  0  0  0  0  0  0
  145.8293  135.9913  152.4560 H   0  0  0  0  0  0  0  0  0  0  0  0
  147.3500  134.0721  153.1124 H   0  0  0  0  0  0  0  0  0  0  0  0
  145.6633  133.7934  153.4447 H   0  0  0  0  0  0  0  0  0  0  0  0
  147.2622  132.6864  151.0805 H   0  0  0  0  0  0  0  0  0  0  0  0
  145.5314  132.5290  149.9808 H   0  0  0  0  0  0  0  0  0  0  0  0
  1  2  1  0  0  0  0
  1 21  1  0  0  0  0
  1 22  1  0  0  0  0
  1 23  1  0  0  0  0
  2  7  1  0  0  0  0
  2  3  2  0  0  0  0
  3  4  1  0  0  0  0
  4  5  1  0  0  0  0
  5  6  1  0  0  0  0
  5  7  2  0  0  0  0
  6 24  1  0  0  0  0
  6 25  1  0  0  0  0
  6 26  1  0  0  0  0
  7  8  1  0  0  0  0
  8  9  1  0  0  0  0
  8 27  1  0  0  0  0
  8 28  1  0  0  0  0
  9 10  2  0  0  0  0
  9 11  1  0  0  0  0
 11 12  1  0  0  0  0
 11 29  1  0  0  0  0
 12 20  1  0  0  0  0
 12 13  1  0  0  0  0
 12 30  1  0  0  0  0
 13 14  1  0  0  0  0
 13 31  1  0  0  0  0
 13 32  1  0  0  0  0
 14 15  1  0  0  0  0
 14 33  1  0  0  0  0
 14 34  1  0  0  0  0
 15 20  1  0  0  0  0
 15 16  1  0  0  0  0
 15 44  1  0  0  0  0
 16 17  1  0  0  0  0
 16 35  1  0  0  0  0
 16 36  1  0  0  0  0
 17 18  1  0  0  0  0
 17 37  1  0  0  0  0
 17 38  1  0  0  0  0
 18 19  1  0  0  0  0
 18 39  1  0  0  0  0
 18 40  1  0  0  0  0
 19 20  1  0  0  0  0
 19 41  1  0  0  0  0
 19 42  1  0  0  0  0
 20 43  1  0  0  0  0
M  CHG  1  15   1
M  END
> <s_m_source_file>
AV-unprocessed.smi

> <i_m_source_file_index>
311

> <i_lp_mmshare_version>
43012

> <i_f3d_flags>
0

> <s_epik_input>
W0NIM11jMW5vYyhbQ0gzXSljMVtDSDJdQyg9TylbTkhdW0NASF0oW0NIMl1bQ0gyXTIpW0NAQEhdKE4yMylbQ0gyXVtDSDJdW0NIMl1bQ0gyXTM=

> <s_epik_cmdline>
J2VwaWtfcHl0aG9uJywgJy1waCcsICc3LjAnLCAnLXRuJywgJzgnLCAnLW1hJywgJzIwMCcsICctbWV0YWxfYmluZGluZycsICctaW1hZScsICc8aW5maWxlLm1hZT4nLCAnLW9tYWUnLCAnPG91dGZpbGUubWFlPic=

> <r_epik_Ionization_Penalty>
0.00173669

> <r_epik_Ionization_Penalty_Charging>
0.0017366

> <r_epik_Ionization_Penalty_Neutral>
9.2145e-08

> <r_epik_State_Penalty>
0.00117499

> <r_epik_Charging_Adjusted_Penalty>
0.00291159

> <i_epik_Tot_Q>
1

> <i_epik_Tot_abs_Q>
1

> <r_epik_Metal_State_Penalty>
-0

> <b_epik_Metal_Only>
0

> <s_lp_Force_Field>
OPLS_2005

> <r_lp_Energy>
32.9133

> <b_lp_Chiralities_Consistent>
1

> <s_lp_Variant>
AV-unprocessed.smi:311-1

> <Gold.Version>
5.8.1

> <Gold.Id.Protein>
6NUR|6NUR_protein|mol2

> <Gold.PLP.Fitness>
40.2138

> <Gold.PLP.PLP>
-34.5846

> <Gold.PLP.part.hbond>
-2.0000

> <Gold.PLP.part.metal>
0.0000

> <Gold.PLP.part.buried>
-4.7344

> <Gold.PLP.part.nonpolar>
-28.1572

> <Gold.PLP.part.repulsive>
0.0610

> <Gold.PLP.ligand.clash>
0.0000

> <Gold.PLP.ligand.torsion>
0.1917

> <Gold.PLP.Chemscore.Hbond>
2.0000

> <Gold.PLP.Chemscore.CHOScore>
0.0000

> <Gold.PLP.Chemscore.Metal>
0.0000

> <Gold.Chemscore.Hbonds>
donor molecule, donor type, donor heavy atom, donor atom, acceptor molecule, acceptor atom, score
      L1  H    11    29       P1 10747  1.00
      P1  H  6896  6909       L1     4  0.22

> <Gold.PLP.Chemscore.Internal.Correction>
0.0126

> <Gold.Rescore>
     Score         DG    S(hbond)    S(metal)    S(lipo)     H(rot)  DE(clash)    DE(int)     intcor
     17.53     -17.86       1.71        0.00      86.57       1.36       0.06       0.27       ----

> <Gold.Chemscore.Fitness>
17.5318

> <Gold.Chemscore.DG>
-17.8576

> <Gold.Chemscore.ZeroCoef>
-5.4800

> <Gold.Chemscore.Hbond>
1.7130

> <Gold.Chemscore.Metal>
0.0000

> <Gold.Chemscore.Lipo>
86.5746

> <Gold.Chemscore.Internal_Hbond>
0.0000

> <Gold.Chemscore.DEClash>
0.0589

> <Gold.Chemscore.DEInternal>
0.2669

> <Gold.Chemscore.Rot>
1.3567

> <Gold.Chemscore.Internal.Correction>
   9.000000E+99

> <Gold.Chemscore.Hbonds>
donor molecule, donor type, donor heavy atom, donor atom, acceptor molecule, acceptor atom, score
      L1  H    11    29       P1 10747  0.86

> <Gold.Chemscore.Hbond.Weighted>
-5.7215

> <Gold.Chemscore.Metal.Weighted>
-0.0000

> <Gold.Chemscore.Lipo.Weighted>
-10.1292

> <Gold.Chemscore.Internal_Hbond.Weighted>
0.0000

> <Gold.Chemscore.DEClash.Weighted>
0.0589

> <Gold.Chemscore.DEInternal.Weighted>
0.2669

> <Gold.Chemscore.Rot.Weighted>
3.4731

> <Gold.Chemscore.Internal.Correction.Weighted>
   9.000000E+99

> <Gold.Protein.RotatedTorsions>
[ 6907 6896 6895 6894 ] final  -40.57 input  -60.11 | X-H torsion
[ 7974 7965 7964 7962 ] final  -94.49 input  175.53 | X-H torsion
[ 8008 7997 7996 7995 ] final   69.21 input   59.86 | X-H torsion
[ 10167 10162 10161 10158 ] final  -67.13 input  -65.29 | X-H torsion
[ 10718 10713 10712 10709 ] final   71.01 input   66.30 | X-H torsion
[ 10763 10752 10751 10750 ] final  -48.27 input  -60.55 | X-H torsion
[ 11005 11000 10999 10996 ] final   73.47 input  -57.11 | X-H torsion

> <Gold.Protein.ActiveResidues>
 VAL166  LYS551  ARG553  GLY616  TRP617  ASP618  TYR619  PRO620  LYS621  CYS622 
 ASP623  PHE694  ASN695  SER759  ASP760  ASP761  ALA762  ILE779  LEU786  VAL792 
 PHE793  MET794  SER795  GLU796  ALA797  LYS798  CYS799  TRP800  GLU811  SER814 

> <Gold.Protein.RotatedAtoms>
  150.9769  134.9132  159.7821 H   0  0  0  0  0  0  0  0  0  0  0  0  # atno 6907 bound_to 6896
  152.5209  134.3463  159.9245 H   0  0  0  0  0  0  0  0  0  0  0  0  # atno 6908 bound_to 6896
  151.3471  133.3899  159.2711 H   0  0  0  0  0  0  0  0  0  0  0  0  # atno 6909 bound_to 6896
  145.3726  140.9507  143.2438 H   0  0  0  0  0  0  0  0  0  0  0  0  # atno 7974 bound_to 7965
  155.7202  140.3493  155.5012 H   0  0  0  0  0  0  0  0  0  0  0  0  # atno 8008 bound_to 7997
  155.9277  140.1078  157.1179 H   0  0  0  0  0  0  0  0  0  0  0  0  # atno 8009 bound_to 7997
  154.4080  140.1237  156.4748 H   0  0  0  0  0  0  0  0  0  0  0  0  # atno 8010 bound_to 7997
  140.5606  143.2313  151.6735 H   0  0  0  0  0  0  0  0  0  0  0  0  # atno 10167 bound_to 10162
  157.6429  130.9506  150.0729 H   0  0  0  0  0  0  0  0  0  0  0  0  # atno 10718 bound_to 10713
  154.0749  135.6599  153.4829 H   0  0  0  0  0  0  0  0  0  0  0  0  # atno 10763 bound_to 10752
  153.0377  135.5166  154.7530 H   0  0  0  0  0  0  0  0  0  0  0  0  # atno 10764 bound_to 10752
  154.6607  135.3014  154.9837 H   0  0  0  0  0  0  0  0  0  0  0  0  # atno 10765 bound_to 10752
  139.9438  134.7349  156.1030 H   0  0  0  0  0  0  0  0  0  0  0  0  # atno 11005 bound_to 11000
  144.8565  139.5242  143.6832 LP  0  0  0  0  0  0  0  0  0  0  0  0  # atno 17320 bound_to 7965
  146.2878  139.7054  142.9183 LP  0  0  0  0  0  0  0  0  0  0  0  0  # atno 17321 bound_to 7965
  139.5068  144.3668  152.0509 LP  0  0  0  0  0  0  0  0  0  0  0  0  # atno 17342 bound_to 10162
  140.2794  144.3876  150.6124 LP  0  0  0  0  0  0  0  0  0  0  0  0  # atno 17343 bound_to 10162
  156.1728  130.3647  149.9141 LP  0  0  0  0  0  0  0  0  0  0  0  0  # atno 17370 bound_to 10713
  156.7113  130.8971  151.3609 LP  0  0  0  0  0  0  0  0  0  0  0  0  # atno 17371 bound_to 10713
  141.1082  133.6652  156.2915 LP  0  0  0  0  0  0  0  0  0  0  0  0  # atno 17394 bound_to 11000
  140.5884  134.5675  157.5494 LP  0  0  0  0  0  0  0  0  0  0  0  0  # atno 17395 bound_to 11000

$$$$
