#       Name:                AV-unprocessed.smi:101
#       Creating user name   scv26
#       Creation time:       Thu Mar 26 17:41:32 2020


#       File generated by GOLD software.
#

@<TRIPOS>MOLECULE
AV-unprocessed.smi:101
    56    58     1
SMALL
NO_CHARGES


@<TRIPOS>ATOM
      1 ****         0.2039   3.0693  -0.3574 C.3            1 S1                 0.0000
      2 ****        -1.0717   2.3057  -0.0417 C.2            1 S1                 0.0000
      3 ****        -1.0644   1.1049   0.5923 C.2            1 S1                 0.0000
      4 ****        -2.2152   0.3913   0.9073 N.am           1 S1                 0.0000
      5 ****        -2.1764  -0.9389   1.6330 C.3            1 S1                 0.0000
      6 ****        -0.8977  -1.1444   2.1635 O.3            1 S1                 0.0000
      7 ****        -0.3600  -2.3795   1.7036 C.3            1 S1                 0.0000
      8 ****         1.1725  -2.2998   1.6149 C.3            1 S1                 0.0000
      9 ****         1.5507  -1.4054   0.5804 O.3            1 S1                 0.0000
     10 ****         2.7914  -0.8903   0.5296 C.2            1 S1                 0.0000
     11 ****         3.6732  -1.1428   1.3528 O.2            1 S1                 0.0000
     12 ****         2.9805   0.0285  -0.6296 C.ar           1 S1                 0.0000
     13 ****         4.1950   0.7412  -0.7596 C.ar           1 S1                 0.0000
     14 ****         4.3977   1.6206  -1.8409 C.ar           1 S1                 0.0000
     15 ****         3.3901   1.7949  -2.8073 C.ar           1 S1                 0.0000
     16 ****         2.1799   1.0871  -2.6927 C.ar           1 S1                 0.0000
     17 ****         1.9739   0.2094  -1.6107 C.ar           1 S1                 0.0000
     18 ****        -1.0904  -2.6601   0.3897 C.3            1 S1                 0.0000
     19 ****        -1.0951  -4.0310   0.0384 O.3            1 S1                 0.0000
     20 ****        -2.4795  -2.0995   0.6628 C.3            1 S1                 0.0000
     21 ****        -3.3507  -3.0434   1.2591 O.3            1 S1                 0.0000
     22 ****        -3.4725   0.9266   0.5587 C.2            1 S1                 0.0000
     23 ****        -4.5318   0.3523   0.8091 O.2            1 S1                 0.0000
     24 ****        -3.4807   2.1544  -0.0998 N.am           1 S1                 0.0000
     25 ****        -2.3504   2.9022  -0.4373 C.2            1 S1                 0.0000
     26 ****        -2.4853   3.9752  -1.0230 O.2            1 S1                 0.0000
     27 ****        -4.3798   2.5376  -0.3534 H              1 S1                 0.0000
     28 ****         1.0890   2.5559   0.0193 H              1 S1                 0.0000
     29 ****         0.1785   4.0604   0.0969 H              1 S1                 0.0000
     30 ****         0.3192   3.1896  -1.4350 H              1 S1                 0.0000
     31 ****        -0.1020   0.7011   0.8644 H              1 S1                 0.0000
     32 ****        -2.8940  -0.8390   2.4504 H              1 S1                 0.0000
     33 ****        -0.6384  -3.1350   2.4403 H              1 S1                 0.0000
     34 ****         1.5771  -1.9769   2.5752 H              1 S1                 0.0000
     35 ****         1.5887  -3.2842   1.3991 H              1 S1                 0.0000
     36 ****         4.9828   0.6235  -0.0293 H              1 S1                 0.0000
     37 ****         5.3282   2.1618  -1.9283 H              1 S1                 0.0000
     38 ****         3.5463   2.4696  -3.6361 H              1 S1                 0.0000
     39 ****         1.4056   1.2194  -3.4339 H              1 S1                 0.0000
     40 ****         1.0311  -0.3145  -1.5514 H              1 S1                 0.0000
     41 ****        -0.6473  -2.0889  -0.4266 H              1 S1                 0.0000
     42 ****        -1.6444  -4.1441  -0.7223 H              1 S1                 0.0000
     43 ****        -2.9488  -1.7433  -0.2551 H              1 S1                 0.0000
     44 ****        -4.1778  -2.6197   1.4315 H              1 S1                 0.0000
     45 ****        -0.9544  -1.1615   3.1617 LP             1 S1                 0.0000
     46 ****        -0.2983  -0.3973   1.8764 LP             1 S1                 0.0000
     47 ****         3.4840  -1.7635   2.1136 LP             1 S1                 0.0000
     48 ****         4.5779  -0.7270   1.2598 LP             1 S1                 0.0000
     49 ****        -1.4553  -4.5726   0.7980 LP             1 S1                 0.0000
     50 ****        -0.1637  -4.3287  -0.1710 LP             1 S1                 0.0000
     51 ****        -2.9553  -3.3733   2.1163 LP             1 S1                 0.0000
     52 ****        -3.4895  -3.8144   0.6376 LP             1 S1                 0.0000
     53 ****        -4.5231  -0.5308   1.2782 LP             1 S1                 0.0000
     54 ****        -5.4013   0.7687   0.5434 LP             1 S1                 0.0000
     55 ****        -1.6805   4.5160  -1.2675 LP             1 S1                 0.0000
     56 ****        -3.3998   4.3068  -1.2548 LP             1 S1                 0.0000
@<TRIPOS>BOND
    1    1    2 1     
    2    1   28 1     
    3    1   29 1     
    4    1   30 1     
    5    2   25 1     
    6    2    3 2     
    7    3    4 1     
    8    3   31 1     
    9    4    5 1     
   10    4   22 1     
   11    5   20 1     
   12    5    6 1     
   13    5   32 1     
   14    6    7 1     
   15    7    8 1     
   16    7   18 1     
   17    7   33 1     
   18    8    9 1     
   19    8   34 1     
   20    8   35 1     
   21    9   10 1     
   22   10   11 2     
   23   10   12 1     
   24   12   17 ar    
   25   12   13 ar    
   26   13   14 ar    
   27   13   36 1     
   28   14   15 ar    
   29   14   37 1     
   30   15   16 ar    
   31   15   38 1     
   32   16   17 ar    
   33   16   39 1     
   34   17   40 1     
   35   18   19 1     
   36   18   20 1     
   37   18   41 1     
   38   19   42 1     
   39   20   21 1     
   40   20   43 1     
   41   21   44 1     
   42   22   23 2     
   43   22   24 1     
   44   24   27 1     
   45   24   25 1     
   46   25   26 2     
   47    6   45 1     
   48    6   46 1     
   49   11   47 1     
   50   11   48 1     
   51   19   49 1     
   52   19   50 1     
   53   21   51 1     
   54   21   52 1     
   55   23   53 1     
   56   23   54 1     
   57   26   55 1     
   58   26   56 1     
@<TRIPOS>SUBSTRUCTURE
      1 S1             1
@<TRIPOS>SET
LONE_PAIRS      STATIC     ATOMS    <user>   **** ""
12 45 46 47 48 49 50 51 52 53 54 55 56
DONOR_HYDROGENS      STATIC     ATOMS    <user>   **** ""
3 42 44 27
ATOM$BLUE        STATIC     ATOMS    COLORGROUP SYSTEM
12 45 46 47 48 49 50 51 52 53 54 55 56
ATOM$RED        STATIC     ATOMS    COLORGROUP SYSTEM
3 42 44 27
