AV-unprocessed.smi:648|AV-procd|sdf|3171|dock6
  -GOLD-   22720 0 93D 1   1.00000     0.00000
 Structure written by MMmdl.
 46 47  0  0  0  0  0  0  0  0  2 V2000
  141.7905  135.1035  153.2076 C   0  0  0  0  0  0  0  0  0  0  0  0
  143.2625  134.7654  152.9289 C   0  0  1  0  0  0  0  0  0  0  0  0
  143.3956  133.8643  151.6862 C   0  0  0  0  0  0  0  0  0  0  0  0
  144.8537  133.4682  151.3526 C   0  0  0  0  0  0  0  0  0  0  0  0
  145.3584  132.3674  152.3136 C   0  0  0  0  0  0  0  0  0  0  0  0
  144.8763  132.8520  149.9367 C   0  0  0  0  0  0  0  0  0  0  0  0
  145.7691  134.7296  151.3380 C   0  0  0  0  0  0  0  0  0  0  0  0
  145.6097  135.7631  152.4956 C   0  0  1  0  0  0  0  0  0  0  0  0
  146.2976  135.2544  153.7924 C   0  0  0  0  0  0  0  0  0  0  0  0
  147.6535  134.9158  153.5702 O   0  0  0  0  0  0  0  0  0  0  0  0
  146.3528  137.0045  152.1276 N   0  3  0  0  0  0  0  0  0  0  0  0
  146.2970  138.1770  153.0318 C   0  0  0  0  0  0  0  0  0  0  0  0
  146.9306  139.4051  152.3625 C   0  0  0  0  0  0  0  0  0  0  0  0
  147.1213  140.4936  153.3012 N   0  0  0  0  0  0  0  0  0  0  0  0
  146.2544  141.1136  154.1034 C   0  0  0  0  0  0  0  0  0  0  0  0
  146.7982  142.0735  154.8386 N   0  0  0  0  0  0  0  0  0  0  0  0
  148.0932  141.9818  154.4129 C   0  0  0  0  0  0  0  0  0  0  0  0
  148.3408  141.0491  153.4930 N   0  0  0  0  0  0  0  0  0  0  0  0
  144.0994  136.0445  152.7379 C   0  0  0  0  0  0  0  0  0  0  0  0
  141.3426  135.6516  152.3780 H   0  0  0  0  0  0  0  0  0  0  0  0
  141.6907  135.7158  154.1042 H   0  0  0  0  0  0  0  0  0  0  0  0
  141.2033  134.1979  153.3631 H   0  0  0  0  0  0  0  0  0  0  0  0
  143.6252  134.2246  153.8015 H   0  0  0  0  0  0  0  0  0  0  0  0
  142.7909  132.9653  151.8147 H   0  0  0  0  0  0  0  0  0  0  0  0
  142.9623  134.3917  150.8348 H   0  0  0  0  0  0  0  0  0  0  0  0
  146.4272  132.1899  152.1911 H   0  0  0  0  0  0  0  0  0  0  0  0
  144.8522  131.4209  152.1200 H   0  0  0  0  0  0  0  0  0  0  0  0
  145.1725  132.5852  153.3606 H   0  0  0  0  0  0  0  0  0  0  0  0
  145.8836  132.5440  149.6534 H   0  0  0  0  0  0  0  0  0  0  0  0
  144.5262  133.5569  149.1815 H   0  0  0  0  0  0  0  0  0  0  0  0
  144.2353  131.9719  149.8735 H   0  0  0  0  0  0  0  0  0  0  0  0
  146.8135  134.4254  151.2553 H   0  0  0  0  0  0  0  0  0  0  0  0
  145.5616  135.2448  150.4014 H   0  0  0  0  0  0  0  0  0  0  0  0
  146.2953  135.9909  154.5875 H   0  0  0  0  0  0  0  0  0  0  0  0
  145.7849  134.3734  154.1813 H   0  0  0  0  0  0  0  0  0  0  0  0
  148.0740  135.6350  153.1225 H   0  0  0  0  0  0  0  0  0  0  0  0
  147.3263  136.7482  152.0397 H   0  0  0  0  0  0  0  0  0  0  0  0
  145.2684  138.4045  153.3068 H   0  0  0  0  0  0  0  0  0  0  0  0
  146.8376  137.9541  153.9522 H   0  0  0  0  0  0  0  0  0  0  0  0
  147.8978  139.1464  151.9293 H   0  0  0  0  0  0  0  0  0  0  0  0
  146.3016  139.7625  151.5458 H   0  0  0  0  0  0  0  0  0  0  0  0
  145.2056  140.8593  154.1517 H   0  0  0  0  0  0  0  0  0  0  0  0
  148.8769  142.6209  154.7921 H   0  0  0  0  0  0  0  0  0  0  0  0
  143.6695  136.5700  151.8857 H   0  0  0  0  0  0  0  0  0  0  0  0
  143.9690  136.7083  153.5933 H   0  0  0  0  0  0  0  0  0  0  0  0
  146.0259  137.2927  151.2166 H   0  0  0  0  0  0  0  0  0  0  0  0
  1  2  1  0  0  0  0
  1 20  1  0  0  0  0
  1 21  1  0  0  0  0
  1 22  1  0  0  0  0
  2 19  1  0  0  0  0
  2  3  1  0  0  0  0
  2 23  1  0  0  0  0
  3  4  1  0  0  0  0
  3 24  1  0  0  0  0
  3 25  1  0  0  0  0
  4  5  1  0  0  0  0
  4  6  1  0  0  0  0
  4  7  1  0  0  0  0
  5 26  1  0  0  0  0
  5 27  1  0  0  0  0
  5 28  1  0  0  0  0
  6 29  1  0  0  0  0
  6 30  1  0  0  0  0
  6 31  1  0  0  0  0
  7  8  1  0  0  0  0
  7 32  1  0  0  0  0
  7 33  1  0  0  0  0
  8  9  1  0  0  0  0
  8 11  1  0  0  0  0
  8 19  1  0  0  0  0
  9 10  1  0  0  0  0
  9 34  1  0  0  0  0
  9 35  1  0  0  0  0
 10 36  1  0  0  0  0
 11 12  1  0  0  0  0
 11 37  1  0  0  0  0
 11 46  1  0  0  0  0
 12 13  1  0  0  0  0
 12 38  1  0  0  0  0
 12 39  1  0  0  0  0
 13 14  1  0  0  0  0
 13 40  1  0  0  0  0
 13 41  1  0  0  0  0
 14 18  1  0  0  0  0
 14 15  1  0  0  0  0
 15 16  2  0  0  0  0
 15 42  1  0  0  0  0
 16 17  1  0  0  0  0
 17 18  2  0  0  0  0
 17 43  1  0  0  0  0
 19 44  1  0  0  0  0
 19 45  1  0  0  0  0
M  CHG  1  11   1
M  END
> <s_m_source_file>
AV-unprocessed.smi

> <i_m_source_file_index>
648

> <i_lp_mmshare_version>
43012

> <i_f3d_flags>
0

> <s_epik_input>
W0NIM11DMShbQ0gzXSlbQ0gyXVtDQEBIXShbQ0gzXSlbQ0gyXVtDQF0oW0NIMl0xKShbQ0gyXVtPSF0pW05IXVtDSDJdW0NIMl1uMltjSF1uW2NIXW4y

> <s_epik_cmdline>
J2VwaWtfcHl0aG9uJywgJy1waCcsICc3LjAnLCAnLXRuJywgJzgnLCAnLW1hJywgJzIwMCcsICctbWV0YWxfYmluZGluZycsICctaW1hZScsICc8aW5maWxlLm1hZT4nLCAnLW9tYWUnLCAnPG91dGZpbGUubWFlPic=

> <r_lp_tautomer_probability>
1

> <r_epik_Ionization_Penalty>
0.00942316

> <r_epik_Ionization_Penalty_Charging>
0.00942185

> <r_epik_Ionization_Penalty_Neutral>
1.31257e-06

> <r_epik_State_Penalty>
0.00715409

> <r_epik_Charging_Adjusted_Penalty>
0.0165759

> <i_epik_Tot_Q>
1

> <i_epik_Tot_abs_Q>
1

> <r_epik_Metal_State_Penalty>
0.00715563

> <b_epik_Metal_Only>
0

> <s_lp_Force_Field>
OPLS_2005

> <r_lp_Energy>
31.5534

> <b_lp_Chiralities_Consistent>
1

> <s_lp_Variant>
AV-unprocessed.smi:648-2

> <Gold.Version>
5.8.1

> <Gold.Id.Protein>
6NUR|6NUR_protein|mol2

> <Gold.PLP.Fitness>
45.6427

> <Gold.PLP.PLP>
-30.2508

> <Gold.PLP.part.hbond>
-2.2265

> <Gold.PLP.part.metal>
0.0000

> <Gold.PLP.part.buried>
-2.1814

> <Gold.PLP.part.nonpolar>
-27.6660

> <Gold.PLP.part.repulsive>
2.3297

> <Gold.PLP.ligand.clash>
0.0000

> <Gold.PLP.ligand.torsion>
0.0981

> <Gold.PLP.Chemscore.Hbond>
3.1927

> <Gold.PLP.Chemscore.CHOScore>
1.9937

> <Gold.PLP.Chemscore.Metal>
0.0000

> <Gold.Chemscore.Hbonds>
donor molecule, donor type, donor heavy atom, donor atom, acceptor molecule, acceptor atom, score
      L1  H    10    36       P1  7948  0.99
      L1  H    11    37       P1  7948  2.00
      P1  H  8011  8017       L1    18  0.19
      L1  C    15    42       P1 10175  1.00
      L1  C    17    43       P1  8028  1.00

> <Gold.PLP.Chemscore.Internal.Correction>
0.0291

> <Gold.Rescore>
     Score         DG    S(hbond)    S(metal)    S(lipo)     H(rot)  DE(clash)    DE(int)     intcor
     11.08     -11.33       1.94        0.00      63.95       3.17       0.11       0.14       ----

> <Gold.Chemscore.Fitness>
11.0755

> <Gold.Chemscore.DG>
-11.3280

> <Gold.Chemscore.ZeroCoef>
-5.4800

> <Gold.Chemscore.Hbond>
1.9443

> <Gold.Chemscore.Metal>
0.0000

> <Gold.Chemscore.Lipo>
63.9494

> <Gold.Chemscore.Internal_Hbond>
0.0000

> <Gold.Chemscore.DEClash>
0.1101

> <Gold.Chemscore.DEInternal>
0.1424

> <Gold.Chemscore.Rot>
3.1750

> <Gold.Chemscore.Internal.Correction>
   9.000000E+99

> <Gold.Chemscore.Hbonds>
donor molecule, donor type, donor heavy atom, donor atom, acceptor molecule, acceptor atom, score
      L1  H    10    36       P1  7948  0.94
      L1  H    11    37       P1  7948  1.00
      P1  H  8011  8017       L1    18  0.02

> <Gold.Chemscore.Hbond.Weighted>
-6.4938

> <Gold.Chemscore.Metal.Weighted>
-0.0000

> <Gold.Chemscore.Lipo.Weighted>
-7.4821

> <Gold.Chemscore.Internal_Hbond.Weighted>
0.0000

> <Gold.Chemscore.DEClash.Weighted>
0.1101

> <Gold.Chemscore.DEInternal.Weighted>
0.1424

> <Gold.Chemscore.Rot.Weighted>
8.1279

> <Gold.Chemscore.Internal.Correction.Weighted>
   9.000000E+99

> <Gold.Protein.RotatedTorsions>
[ 6907 6896 6895 6894 ] final  -10.28 input  -60.11 | X-H torsion
[ 7974 7965 7964 7962 ] final   90.28 input  175.53 | X-H torsion
[ 8008 7997 7996 7995 ] final  -92.86 input   59.86 | X-H torsion
[ 10167 10162 10161 10158 ] final -138.84 input  -65.29 | X-H torsion
[ 10718 10713 10712 10709 ] final -159.11 input   66.30 | X-H torsion
[ 10763 10752 10751 10750 ] final  119.85 input  -60.55 | X-H torsion
[ 11005 11000 10999 10996 ] final  153.30 input  -57.11 | X-H torsion

> <Gold.Protein.ActiveResidues>
 VAL166  LYS551  ARG553  GLY616  TRP617  ASP618  TYR619  PRO620  LYS621  CYS622 
 ASP623  PHE694  ASN695  SER759  ASP760  ASP761  ALA762  ILE779  LEU786  VAL792 
 PHE793  MET794  SER795  GLU796  ALA797  LYS798  CYS799  TRP800  GLU811  SER814 

> <Gold.Protein.RotatedAtoms>
  151.4044  135.0976  159.9565 H   0  0  0  0  0  0  0  0  0  0  0  0  # atno 6907 bound_to 6896
  152.5040  133.8857  159.7379 H   0  0  0  0  0  0  0  0  0  0  0  0  # atno 6908 bound_to 6896
  150.9338  133.6679  159.2833 H   0  0  0  0  0  0  0  0  0  0  0  0  # atno 6909 bound_to 6896
  145.5211  139.2279  143.2671 H   0  0  0  0  0  0  0  0  0  0  0  0  # atno 7974 bound_to 7965
  154.7284  140.0504  157.0704 H   0  0  0  0  0  0  0  0  0  0  0  0  # atno 8008 bound_to 7997
  155.0334  140.3160  155.4731 H   0  0  0  0  0  0  0  0  0  0  0  0  # atno 8009 bound_to 7997
  156.2835  140.2146  156.5456 H   0  0  0  0  0  0  0  0  0  0  0  0  # atno 8010 bound_to 7997
  139.8438  143.7287  152.2662 H   0  0  0  0  0  0  0  0  0  0  0  0  # atno 10167 bound_to 10162
  156.5635  130.8657  151.2817 H   0  0  0  0  0  0  0  0  0  0  0  0  # atno 10718 bound_to 10713
  153.5894  135.3469  155.2905 H   0  0  0  0  0  0  0  0  0  0  0  0  # atno 10763 bound_to 10752
  154.8655  135.4201  154.2533 H   0  0  0  0  0  0  0  0  0  0  0  0  # atno 10764 bound_to 10752
  153.3337  135.7046  153.6997 H   0  0  0  0  0  0  0  0  0  0  0  0  # atno 10765 bound_to 10752
  140.1385  134.8754  157.2300 H   0  0  0  0  0  0  0  0  0  0  0  0  # atno 11005 bound_to 11000
  146.2105  140.6023  142.9061 LP  0  0  0  0  0  0  0  0  0  0  0  0  # atno 17320 bound_to 7965
  144.7676  140.5565  143.6692 LP  0  0  0  0  0  0  0  0  0  0  0  0  # atno 17321 bound_to 7965
  139.7532  144.7528  151.0474 LP  0  0  0  0  0  0  0  0  0  0  0  0  # atno 17342 bound_to 10162
  140.7795  143.4835  150.9986 LP  0  0  0  0  0  0  0  0  0  0  0  0  # atno 17343 bound_to 10162
  157.7363  130.9777  150.2131 LP  0  0  0  0  0  0  0  0  0  0  0  0  # atno 17370 bound_to 10713
  156.2778  130.3729  149.7966 LP  0  0  0  0  0  0  0  0  0  0  0  0  # atno 17371 bound_to 10713
  140.2752  134.3414  155.7360 LP  0  0  0  0  0  0  0  0  0  0  0  0  # atno 17394 bound_to 11000
  141.2182  133.7446  156.9281 LP  0  0  0  0  0  0  0  0  0  0  0  0  # atno 17395 bound_to 11000

$$$$
