AV-unprocessed.smi:3206|AV-procd|sdf|12256|dock9
  -GOLD-   2272018 93D 1   1.00000     0.00000
 Structure written by MMmdl.
 42 43  0  0  0  0  0  0  0  0  2 V2000
  151.9505  145.8641  160.1718 C   0  0  0  0  0  0  0  0  0  0  0  0
  152.2120  144.5655  159.3952 C   0  0  2  0  0  0  0  0  0  0  0  0
  151.1358  144.3229  158.3208 C   0  0  0  0  0  0  0  0  0  0  0  0
  151.3924  143.0188  157.5477 C   0  0  0  0  0  0  0  0  0  0  0  0
  151.4764  141.8025  158.4907 C   0  0  1  0  0  0  0  0  0  0  0  0
  151.7332  140.5083  157.6968 C   0  0  0  0  0  0  0  0  0  0  0  0
  150.5893  140.1677  156.8281 N   0  3  0  0  0  0  0  0  0  0  0  0
  150.5989  140.8533  155.5199 C   0  0  0  0  0  0  0  0  0  0  0  0
  150.1155  139.9299  154.3910 C   0  0  0  0  0  0  0  0  0  0  0  0
  150.5134  138.4982  154.5864 C   0  0  0  0  0  0  0  0  0  0  0  0
  149.6585  137.4807  154.6009 N   0  0  0  0  0  0  0  0  0  0  0  0
  150.5211  136.4386  154.7828 C   0  0  0  0  0  0  0  0  0  0  0  0
  151.8096  136.7606  154.8618 N   0  0  0  0  0  0  0  0  0  0  0  0
  151.7869  138.1067  154.7294 N   0  0  0  0  0  0  0  0  0  0  0  0
  153.0197  138.8705  154.7549 C   0  0  0  0  0  0  0  0  0  0  0  0
  152.5581  142.0489  159.5643 C   0  0  0  0  0  0  0  0  0  0  0  0
  152.3048  143.3523  160.3393 C   0  0  0  0  0  0  0  0  0  0  0  0
  150.9993  145.8238  160.7036 H   0  0  0  0  0  0  0  0  0  0  0  0
  151.9212  146.7239  159.5018 H   0  0  0  0  0  0  0  0  0  0  0  0
  152.7350  146.0469  160.9064 H   0  0  0  0  0  0  0  0  0  0  0  0
  153.1732  144.6736  158.8901 H   0  0  0  0  0  0  0  0  0  0  0  0
  150.1508  144.2803  158.7879 H   0  0  0  0  0  0  0  0  0  0  0  0
  151.1097  145.1610  157.6234 H   0  0  0  0  0  0  0  0  0  0  0  0
  150.5970  142.8705  156.8163 H   0  0  0  0  0  0  0  0  0  0  0  0
  152.3192  143.1104  156.9795 H   0  0  0  0  0  0  0  0  0  0  0  0
  150.5111  141.7061  158.9909 H   0  0  0  0  0  0  0  0  0  0  0  0
  152.6157  140.6295  157.0669 H   0  0  0  0  0  0  0  0  0  0  0  0
  151.9383  139.6805  158.3772 H   0  0  0  0  0  0  0  0  0  0  0  0
  150.5936  139.1704  156.6682 H   0  0  0  0  0  0  0  0  0  0  0  0
  149.9694  141.7431  155.5687 H   0  0  0  0  0  0  0  0  0  0  0  0
  151.6138  141.1903  155.3066 H   0  0  0  0  0  0  0  0  0  0  0  0
  149.0303  139.9915  154.3047 H   0  0  0  0  0  0  0  0  0  0  0  0
  150.5116  140.2739  153.4346 H   0  0  0  0  0  0  0  0  0  0  0  0
  150.1898  135.4130  154.8527 H   0  0  0  0  0  0  0  0  0  0  0  0
  153.0827  139.4986  153.8661 H   0  0  0  0  0  0  0  0  0  0  0  0
  153.8837  138.2048  154.7767 H   0  0  0  0  0  0  0  0  0  0  0  0
  153.0399  139.5034  155.6423 H   0  0  0  0  0  0  0  0  0  0  0  0
  152.5907  141.2169  160.2683 H   0  0  0  0  0  0  0  0  0  0  0  0
  153.5417  142.0930  159.0945 H   0  0  0  0  0  0  0  0  0  0  0  0
  153.1038  143.5060  161.0654 H   0  0  0  0  0  0  0  0  0  0  0  0
  151.3816  143.2595  160.9133 H   0  0  0  0  0  0  0  0  0  0  0  0
  149.7357  140.4108  157.3111 H   0  0  0  0  0  0  0  0  0  0  0  0
  1  2  1  0  0  0  0
  1 18  1  0  0  0  0
  1 19  1  0  0  0  0
  1 20  1  0  0  0  0
  2 17  1  0  0  0  0
  2  3  1  0  0  0  0
  2 21  1  0  0  0  0
  3  4  1  0  0  0  0
  3 22  1  0  0  0  0
  3 23  1  0  0  0  0
  4  5  1  0  0  0  0
  4 24  1  0  0  0  0
  4 25  1  0  0  0  0
  5  6  1  0  0  0  0
  5 16  1  0  0  0  0
  5 26  1  0  0  0  0
  6  7  1  0  0  0  0
  6 27  1  0  0  0  0
  6 28  1  0  0  0  0
  7  8  1  0  0  0  0
  7 29  1  0  0  0  0
  7 42  1  0  0  0  0
  8  9  1  0  0  0  0
  8 30  1  0  0  0  0
  8 31  1  0  0  0  0
  9 10  1  0  0  0  0
  9 32  1  0  0  0  0
  9 33  1  0  0  0  0
 10 14  1  0  0  0  0
 10 11  2  0  0  0  0
 11 12  1  0  0  0  0
 12 13  2  0  0  0  0
 12 34  1  0  0  0  0
 13 14  1  0  0  0  0
 14 15  1  0  0  0  0
 15 35  1  0  0  0  0
 15 36  1  0  0  0  0
 15 37  1  0  0  0  0
 16 17  1  0  0  0  0
 16 38  1  0  0  0  0
 16 39  1  0  0  0  0
 17 40  1  0  0  0  0
 17 41  1  0  0  0  0
M  CHG  1   7   1
M  END
> <s_m_source_file>
AV-unprocessed.smi

> <i_m_source_file_index>
3206

> <i_lp_mmshare_version>
43012

> <i_f3d_flags>
0

> <s_epik_input>
W0NIM11bQ0BASF0xW0NIMl1bQ0gyXVtDQEhdKFtDSDJdW0NIMl0xKVtDSDJdW05IXVtDSDJdW0NIMl1jMm5bY0hdbm4yW0NIM10=

> <s_epik_cmdline>
J2VwaWtfcHl0aG9uJywgJy1waCcsICc3LjAnLCAnLXRuJywgJzgnLCAnLW1hJywgJzIwMCcsICctbWV0YWxfYmluZGluZycsICctaW1hZScsICc8aW5maWxlLm1hZT4nLCAnLW9tYWUnLCAnPG91dGZpbGUubWFlPic=

> <r_lp_tautomer_probability>
1

> <r_epik_Ionization_Penalty>
0.00114491

> <r_epik_Ionization_Penalty_Charging>
0.00114083

> <r_epik_Ionization_Penalty_Neutral>
4.0852e-06

> <r_epik_State_Penalty>
-0

> <r_epik_Charging_Adjusted_Penalty>
0.00114083

> <i_epik_Tot_Q>
1

> <i_epik_Tot_abs_Q>
1

> <r_epik_Metal_State_Penalty>
-0

> <b_epik_Metal_Only>
0

> <s_lp_Force_Field>
OPLS_2005

> <r_lp_Energy>
13.9676

> <b_lp_Chiralities_Consistent>
1

> <s_lp_Variant>
AV-unprocessed.smi:3206-1

> <Gold.Version>
5.8.1

> <Gold.Id.Protein>
6NUR|6NUR_protein|mol2

> <Gold.PLP.Fitness>
44.7583

> <Gold.PLP.PLP>
-42.9205

> <Gold.PLP.part.hbond>
-1.0000

> <Gold.PLP.part.metal>
0.0000

> <Gold.PLP.part.buried>
-3.6100

> <Gold.PLP.part.nonpolar>
-38.9012

> <Gold.PLP.part.repulsive>
0.3370

> <Gold.PLP.ligand.clash>
0.0000

> <Gold.PLP.ligand.torsion>
0.5885

> <Gold.PLP.Chemscore.Hbond>
1.0000

> <Gold.PLP.Chemscore.CHOScore>
0.0000

> <Gold.PLP.Chemscore.Metal>
0.0000

> <Gold.Chemscore.Hbonds>
donor molecule, donor type, donor heavy atom, donor atom, acceptor molecule, acceptor atom, score
      P1  H 10752 10765       L1    13  1.00

> <Gold.PLP.Chemscore.Internal.Correction>
0.0149

> <Gold.Rescore>
     Score         DG    S(hbond)    S(metal)    S(lipo)     H(rot)  DE(clash)    DE(int)     intcor
     14.52     -15.48       0.98        0.00     102.35       2.05       0.04       0.92       ----

> <Gold.Chemscore.Fitness>
14.5206

> <Gold.Chemscore.DG>
-15.4826

> <Gold.Chemscore.ZeroCoef>
-5.4800

> <Gold.Chemscore.Hbond>
0.9830

> <Gold.Chemscore.Metal>
0.0000

> <Gold.Chemscore.Lipo>
102.3466

> <Gold.Chemscore.Internal_Hbond>
0.0000

> <Gold.Chemscore.DEClash>
0.0447

> <Gold.Chemscore.DEInternal>
0.9173

> <Gold.Chemscore.Rot>
2.0528

> <Gold.Chemscore.Internal.Correction>
   9.000000E+99

> <Gold.Chemscore.Hbonds>
donor molecule, donor type, donor heavy atom, donor atom, acceptor molecule, acceptor atom, score
      P1  H 10752 10765       L1    13  0.95

> <Gold.Chemscore.Hbond.Weighted>
-3.2831

> <Gold.Chemscore.Metal.Weighted>
-0.0000

> <Gold.Chemscore.Lipo.Weighted>
-11.9745

> <Gold.Chemscore.Internal_Hbond.Weighted>
0.0000

> <Gold.Chemscore.DEClash.Weighted>
0.0447

> <Gold.Chemscore.DEInternal.Weighted>
0.9173

> <Gold.Chemscore.Rot.Weighted>
5.2551

> <Gold.Chemscore.Internal.Correction.Weighted>
   9.000000E+99

> <Gold.Protein.RotatedTorsions>
[ 6907 6896 6895 6894 ] final  162.43 input  -60.11 | X-H torsion
[ 7974 7965 7964 7962 ] final   78.79 input  175.53 | X-H torsion
[ 8008 7997 7996 7995 ] final -136.75 input   59.86 | X-H torsion
[ 10167 10162 10161 10158 ] final  -36.73 input  -65.29 | X-H torsion
[ 10718 10713 10712 10709 ] final  -70.73 input   66.30 | X-H torsion
[ 10763 10752 10751 10750 ] final -171.26 input  -60.55 | X-H torsion
[ 11005 11000 10999 10996 ] final -149.05 input  -57.11 | X-H torsion

> <Gold.Protein.ActiveResidues>
 VAL166  LYS551  ARG553  GLY616  TRP617  ASP618  TYR619  PRO620  LYS621  CYS622 
 ASP623  PHE694  ASN695  SER759  ASP760  ASP761  ALA762  ILE779  LEU786  VAL792 
 PHE793  MET794  SER795  GLU796  ALA797  LYS798  CYS799  TRP800  GLU811  SER814 

> <Gold.Protein.RotatedAtoms>
  151.9405  133.3636  159.3963 H   0  0  0  0  0  0  0  0  0  0  0  0  # atno 6907 bound_to 6896
  150.6999  134.4444  159.5316 H   0  0  0  0  0  0  0  0  0  0  0  0  # atno 6908 bound_to 6896
  152.2100  134.8510  160.0549 H   0  0  0  0  0  0  0  0  0  0  0  0  # atno 6909 bound_to 6896
  145.6725  139.2501  143.1860 H   0  0  0  0  0  0  0  0  0  0  0  0  # atno 7974 bound_to 7965
  155.4005  140.0505  157.3037 H   0  0  0  0  0  0  0  0  0  0  0  0  # atno 8008 bound_to 7997
  154.4993  140.2150  155.9341 H   0  0  0  0  0  0  0  0  0  0  0  0  # atno 8009 bound_to 7997
  156.1447  140.3147  155.8556 H   0  0  0  0  0  0  0  0  0  0  0  0  # atno 8010 bound_to 7997
  140.7136  143.3389  151.2401 H   0  0  0  0  0  0  0  0  0  0  0  0  # atno 10167 bound_to 10162
  156.0394  130.4337  150.2339 H   0  0  0  0  0  0  0  0  0  0  0  0  # atno 10718 bound_to 10713
  154.6325  135.2888  155.0200 H   0  0  0  0  0  0  0  0  0  0  0  0  # atno 10763 bound_to 10752
  154.1355  135.6526  153.4935 H   0  0  0  0  0  0  0  0  0  0  0  0  # atno 10764 bound_to 10752
  153.0286  135.5320  154.7158 H   0  0  0  0  0  0  0  0  0  0  0  0  # atno 10765 bound_to 10752
  140.7548  134.3365  157.5117 H   0  0  0  0  0  0  0  0  0  0  0  0  # atno 11005 bound_to 11000
  146.1033  140.7518  142.9538 LP  0  0  0  0  0  0  0  0  0  0  0  0  # atno 17320 bound_to 7965
  144.7052  140.3822  143.7124 LP  0  0  0  0  0  0  0  0  0  0  0  0  # atno 17321 bound_to 7965
  139.6892  143.9722  152.2850 LP  0  0  0  0  0  0  0  0  0  0  0  0  # atno 17342 bound_to 10162
  139.9377  144.6701  150.8298 LP  0  0  0  0  0  0  0  0  0  0  0  0  # atno 17343 bound_to 10162
  157.0436  131.0042  151.3276 LP  0  0  0  0  0  0  0  0  0  0  0  0  # atno 17370 bound_to 10713
  157.5192  130.7987  149.7789 LP  0  0  0  0  0  0  0  0  0  0  0  0  # atno 17371 bound_to 10713
  139.8781  134.9165  156.3156 LP  0  0  0  0  0  0  0  0  0  0  0  0  # atno 17394 bound_to 11000
  140.9718  133.7323  156.0545 LP  0  0  0  0  0  0  0  0  0  0  0  0  # atno 17395 bound_to 11000

$$$$
