#       Name:                AV-unprocessed.smi:308
#       Creating user name   scv26
#       Creation time:       Thu Mar 26 22:19:14 2020


#       File generated by GOLD software.
#

@<TRIPOS>MOLECULE
AV-unprocessed.smi:308
    53    54     1
SMALL
NO_CHARGES


@<TRIPOS>ATOM
      1 ****        -4.3027   4.5052  -1.7294 C.3            1 S1                 0.0000
      2 ****        -3.3054   3.3407  -1.8596 C.3            1 S1                 0.0000
      3 ****        -3.8058   2.0490  -1.1871 C.3            1 S1                 0.0000
      4 ****        -3.7308   2.1253   0.3482 C.3            1 S1                 0.0000
      5 ****        -2.3511   2.4533   0.8017 N.4            1 S1                 1.0000
      6 ****        -2.1710   2.3860   2.2776 C.3            1 S1                 0.0000
      7 ****        -1.6676   1.0041   2.7394 C.3            1 S1                 0.0000
      8 ****        -0.3736   0.7139   2.1167 N.pl3          1 S1                -1.0000
      9 ****         0.0604  -0.5275   1.7702 C.2            1 S1                 0.0000
     10 ****        -0.5360  -1.6009   1.9116 O.2            1 S1                 0.0000
     11 ****         1.2945  -0.4998   1.2358 N.am           1 S1                 0.0000
     12 ****         2.0753  -1.5697   0.7204 C.ar           1 S1                 0.0000
     13 ****         3.4740  -1.3998   0.6720 C.ar           1 S1                 0.0000
     14 ****         4.2879  -2.4252   0.1484 C.ar           1 S1                 0.0000
     15 ****         3.6952  -3.6169  -0.3367 C.ar           1 S1                 0.0000
     16 ****         4.4409  -4.6871  -0.8766 N.pl3          1 S1                 0.0000
     17 ****         3.7526  -5.8798  -1.3576 C.3            1 S1                 0.0000
     18 ****         5.8898  -4.5789  -0.9853 C.3            1 S1                 0.0000
     19 ****         2.3453  -3.7273  -0.2826 N.pl3          1 S1                 1.0000
     20 ****         1.5292  -2.7713   0.2111 C.ar           1 S1                 0.0000
     21 ****        -1.8719   3.7332   0.2202 C.3            1 S1                 0.0000
     22 ****        -1.9076   3.6917  -1.3180 C.3            1 S1                 0.0000
     23 ****        -4.4730   4.7883  -0.6910 H              1 S1                 0.0000
     24 ****        -5.2684   4.2421  -2.1616 H              1 S1                 0.0000
     25 ****        -3.9398   5.3885  -2.2557 H              1 S1                 0.0000
     26 ****        -3.2047   3.1391  -2.9269 H              1 S1                 0.0000
     27 ****        -4.8264   1.8290  -1.5023 H              1 S1                 0.0000
     28 ****        -3.1975   1.2099  -1.5277 H              1 S1                 0.0000
     29 ****        -4.4293   2.8714   0.7284 H              1 S1                 0.0000
     30 ****        -4.0429   1.1676   0.7655 H              1 S1                 0.0000
     31 ****        -1.4485   3.1357   2.6046 H              1 S1                 0.0000
     32 ****        -3.1051   2.6395   2.7808 H              1 S1                 0.0000
     33 ****        -1.5926   1.0021   3.8268 H              1 S1                 0.0000
     34 ****        -2.4259   0.2596   2.4937 H              1 S1                 0.0000
     35 ****         1.7491   0.4015   1.2512 H              1 S1                 0.0000
     36 ****         3.9263  -0.4899   1.0391 H              1 S1                 0.0000
     37 ****         5.3572  -2.2777   0.1276 H              1 S1                 0.0000
     38 ****         3.2011  -6.3564  -0.5464 H              1 S1                 0.0000
     39 ****         4.4554  -6.6109  -1.7575 H              1 S1                 0.0000
     40 ****         3.0506  -5.6235  -2.1517 H              1 S1                 0.0000
     41 ****         6.1646  -3.7285  -1.6101 H              1 S1                 0.0000
     42 ****         6.3221  -5.4741  -1.4329 H              1 S1                 0.0000
     43 ****         6.3394  -4.4491  -0.0005 H              1 S1                 0.0000
     44 ****         0.4761  -3.0042   0.1643 H              1 S1                 0.0000
     45 ****        -2.4763   4.5578   0.6001 H              1 S1                 0.0000
     46 ****        -0.8466   3.9187   0.5428 H              1 S1                 0.0000
     47 ****        -1.1926   2.9446  -1.6661 H              1 S1                 0.0000
     48 ****        -1.5708   4.6450  -1.7273 H              1 S1                 0.0000
     49 ****        -1.7402   1.7371   0.4333 H              1 S1                 0.0000
     50 ****         1.9176  -4.5819  -0.6392 H              1 S1                 0.0000
     51 ****         0.2354   1.4855   1.9329 LP             1 S1                 0.0000
     52 ****        -1.4472  -1.6162   2.3233 LP             1 S1                 0.0000
     53 ****        -0.1073  -2.4540   1.6142 LP             1 S1                 0.0000
@<TRIPOS>BOND
    1    1    2 1     
    2    1   23 1     
    3    1   24 1     
    4    1   25 1     
    5    2   22 1     
    6    2    3 1     
    7    2   26 1     
    8    3    4 1     
    9    3   27 1     
   10    3   28 1     
   11    4    5 1     
   12    4   29 1     
   13    4   30 1     
   14    5    6 1     
   15    5   21 1     
   16    5   49 1     
   17    6    7 1     
   18    6   31 1     
   19    6   32 1     
   20    7    8 1     
   21    7   33 1     
   22    7   34 1     
   23    8    9 1     
   24    9   10 2     
   25    9   11 am    
   26   11   12 1     
   27   11   35 1     
   28   12   20 ar    
   29   12   13 ar    
   30   13   14 ar    
   31   13   36 1     
   32   14   15 ar    
   33   14   37 1     
   34   15   16 1     
   35   15   19 ar    
   36   16   17 1     
   37   16   18 1     
   38   17   38 1     
   39   17   39 1     
   40   17   40 1     
   41   18   41 1     
   42   18   42 1     
   43   18   43 1     
   44   19   20 ar    
   45   19   50 1     
   46   20   44 1     
   47   21   22 1     
   48   21   45 1     
   49   21   46 1     
   50   22   47 1     
   51   22   48 1     
   52    8   51 1     
   53   10   52 1     
   54   10   53 1     
@<TRIPOS>SUBSTRUCTURE
      1 S1             1
@<TRIPOS>SET
LONE_PAIRS      STATIC     ATOMS    <user>   **** ""
3 51 52 53
DONOR_HYDROGENS      STATIC     ATOMS    <user>   **** ""
3 49 35 50
ATOM$BLUE        STATIC     ATOMS    COLORGROUP SYSTEM
3 51 52 53
ATOM$RED        STATIC     ATOMS    COLORGROUP SYSTEM
3 49 35 50
