#       Name:                AV-unprocessed.smi:213
#       Creating user name   scv26
#       Creation time:       Thu Mar 26 19:59:46 2020


#       File generated by GOLD software.
#

@<TRIPOS>MOLECULE
AV-unprocessed.smi:213
    68    71     1
SMALL
NO_CHARGES


@<TRIPOS>ATOM
      1 ****        -4.6195  -0.5413   1.0072 C.3            1 S1                 0.0000
      2 ****        -3.2958  -0.7156   0.2390 C.3            1 S1                 0.0000
      3 ****        -3.5194  -0.8910  -1.2818 C.3            1 S1                 0.0000
      4 ****        -4.2670  -2.1300  -1.6133 N.4            1 S1                 1.0000
      5 ****        -4.9222  -2.0579  -2.9411 C.3            1 S1                 0.0000
      6 ****        -5.7244  -3.3406  -3.2174 C.3            1 S1                 0.0000
      7 ****        -4.8643  -4.4694  -3.1283 O.3            1 S1                 0.0000
      8 ****        -4.2956  -4.6034  -1.8316 C.3            1 S1                 0.0000
      9 ****        -3.4466  -3.3626  -1.5071 C.3            1 S1                 0.0000
     10 ****        -2.3741   0.3927   0.5225 N.pl3          1 S1                 0.0000
     11 ****        -2.7805   1.7702   0.2521 C.3            1 S1                 0.0000
     12 ****        -1.0344   0.1565   0.6105 C.ar           1 S1                 0.0000
     13 ****        -0.5196  -0.9835   0.0740 N.ar           1 S1                 0.0000
     14 ****         0.7908  -1.2363   0.1363 C.ar           1 S1                 0.0000
     15 ****         1.7565  -0.4992   0.6852 N.ar           1 S1                 0.0000
     16 ****         1.2524   0.6418   1.2345 C.ar           1 S1                 0.0000
     17 ****        -0.1141   1.0456   1.2425 C.ar           1 S1                 0.0000
     18 ****        -0.2358   2.2617   1.9073 N.2            1 S1                 0.0000
     19 ****         0.9839   2.5618   2.2611 C.2            1 S1                 0.0000
     20 ****         1.9401   1.6426   1.8964 N.pl3          1 S1                 0.0000
     21 ****         3.3664   1.7159   2.1602 C.3            1 S1                 0.0000
     22 ****         4.1706   2.1894   0.9332 C.3            1 S1                 0.0000
     23 ****         3.7201   3.4746   0.5479 O.3            1 S1                 0.0000
     24 ****         5.6822   2.2563   1.2203 C.3            1 S1                 0.0000
     25 ****         6.5386   2.6724   0.0258 C.3            1 S1                 0.0000
     26 ****         7.9100   2.1713   0.4290 C.3            1 S1                 0.0000
     27 ****         7.5975   0.9412   1.2844 C.3            1 S1                 0.0000
     28 ****         6.1922   0.9641   1.5199 O.3            1 S1                 0.0000
     29 ****        -5.2572  -1.4186   0.8981 H              1 S1                 0.0000
     30 ****        -5.1874   0.3207   0.6565 H              1 S1                 0.0000
     31 ****        -4.4357  -0.4069   2.0737 H              1 S1                 0.0000
     32 ****        -2.8471  -1.6234   0.6405 H              1 S1                 0.0000
     33 ****        -4.0711  -0.0280  -1.6564 H              1 S1                 0.0000
     34 ****        -2.5701  -0.8962  -1.8194 H              1 S1                 0.0000
     35 ****        -5.5885  -1.1953  -2.9803 H              1 S1                 0.0000
     36 ****        -4.1661  -1.9157  -3.7151 H              1 S1                 0.0000
     37 ****        -6.5532  -3.4419  -2.5146 H              1 S1                 0.0000
     38 ****        -6.1576  -3.3051  -4.2172 H              1 S1                 0.0000
     39 ****        -5.0822  -4.7432  -1.0882 H              1 S1                 0.0000
     40 ****        -3.6745  -5.4991  -1.8098 H              1 S1                 0.0000
     41 ****        -2.6016  -3.3010  -2.1949 H              1 S1                 0.0000
     42 ****        -3.0325  -3.4645  -0.5045 H              1 S1                 0.0000
     43 ****        -2.0283   2.3001  -0.3339 H              1 S1                 0.0000
     44 ****        -2.9309   2.3075   1.1886 H              1 S1                 0.0000
     45 ****        -3.7137   1.8131  -0.3082 H              1 S1                 0.0000
     46 ****         1.1119  -2.1619  -0.3182 H              1 S1                 0.0000
     47 ****         1.2209   3.4676   2.8001 H              1 S1                 0.0000
     48 ****         3.5308   2.3835   3.0072 H              1 S1                 0.0000
     49 ****         3.7026   0.7271   2.4743 H              1 S1                 0.0000
     50 ****         3.9918   1.5083   0.1000 H              1 S1                 0.0000
     51 ****         3.8921   4.0770   1.2551 H              1 S1                 0.0000
     52 ****         5.8838   2.9152   2.0671 H              1 S1                 0.0000
     53 ****         6.2059   2.1607  -0.8783 H              1 S1                 0.0000
     54 ****         6.5178   3.7463  -0.1616 H              1 S1                 0.0000
     55 ****         8.5425   1.9415  -0.4290 H              1 S1                 0.0000
     56 ****         8.4190   2.9241   1.0322 H              1 S1                 0.0000
     57 ****         7.8620   0.0161   0.7719 H              1 S1                 0.0000
     58 ****         8.1408   0.9724   2.2295 H              1 S1                 0.0000
     59 ****        -5.0111  -2.2080  -0.9346 H              1 S1                 0.0000
     60 ****        -4.1266  -4.3669  -3.7956 LP             1 S1                 0.0000
     61 ****        -5.3905  -5.2938  -3.3371 LP             1 S1                 0.0000
     62 ****        -1.1290  -1.6392  -0.3718 LP             1 S1                 0.0000
     63 ****         2.7243  -0.7506   0.6929 LP             1 S1                 0.0000
     64 ****        -1.0697   2.7872   2.0760 LP             1 S1                 0.0000
     65 ****         2.7382   3.4458   0.3606 LP             1 S1                 0.0000
     66 ****         4.2075   3.7707  -0.2735 LP             1 S1                 0.0000
     67 ****         5.7454   0.2860   0.9364 LP             1 S1                 0.0000
     68 ****         6.0116   0.7488   2.4796 LP             1 S1                 0.0000
@<TRIPOS>BOND
    1    1    2 1     
    2    1   29 1     
    3    1   30 1     
    4    1   31 1     
    5    2    3 1     
    6    2   10 1     
    7    2   32 1     
    8    3    4 1     
    9    3   33 1     
   10    3   34 1     
   11    4    9 1     
   12    4    5 1     
   13    4   59 1     
   14    5    6 1     
   15    5   35 1     
   16    5   36 1     
   17    6    7 1     
   18    6   37 1     
   19    6   38 1     
   20    7    8 1     
   21    8    9 1     
   22    8   39 1     
   23    8   40 1     
   24    9   41 1     
   25    9   42 1     
   26   10   11 1     
   27   10   12 1     
   28   11   43 1     
   29   11   44 1     
   30   11   45 1     
   31   12   17 ar    
   32   12   13 ar    
   33   13   14 ar    
   34   14   15 ar    
   35   14   46 1     
   36   15   16 ar    
   37   16   20 1     
   38   16   17 ar    
   39   17   18 1     
   40   18   19 2     
   41   19   20 1     
   42   19   47 1     
   43   20   21 1     
   44   21   22 1     
   45   21   48 1     
   46   21   49 1     
   47   22   23 1     
   48   22   24 1     
   49   22   50 1     
   50   23   51 1     
   51   24   28 1     
   52   24   25 1     
   53   24   52 1     
   54   25   26 1     
   55   25   53 1     
   56   25   54 1     
   57   26   27 1     
   58   26   55 1     
   59   26   56 1     
   60   27   28 1     
   61   27   57 1     
   62   27   58 1     
   63    7   60 1     
   64    7   61 1     
   65   13   62 1     
   66   15   63 1     
   67   18   64 1     
   68   23   65 1     
   69   23   66 1     
   70   28   67 1     
   71   28   68 1     
@<TRIPOS>SUBSTRUCTURE
      1 S1             1
@<TRIPOS>SET
LONE_PAIRS      STATIC     ATOMS    <user>   **** ""
9 60 61 62 63 64 65 66 67 68
DONOR_HYDROGENS      STATIC     ATOMS    <user>   **** ""
2 59 51
ATOM$BLUE        STATIC     ATOMS    COLORGROUP SYSTEM
9 60 61 62 63 64 65 66 67 68
ATOM$RED        STATIC     ATOMS    COLORGROUP SYSTEM
2 59 51
