AV-unprocessed.smi:3332|AV-procd|sdf|12830|dock1
  -GOLD-   2272019213D 1   1.00000     0.00000
 Structure written by MMmdl.
 41 42  0  0  0  0  0  0  0  0  1 V2000
  152.0941  144.9469  159.1045 C   0  0  0  0  0  0  0  0  0  0  0  0
  151.5513  144.0702  160.2379 C   0  0  0  0  0  0  0  0  0  0  0  0
  152.3037  142.7789  160.3700 C   0  0  0  0  0  0  0  0  0  0  0  0
  152.3758  141.9148  159.2742 N   0  0  0  0  0  0  0  0  0  0  0  0
  153.0748  140.8074  159.5332 C   0  0  0  0  0  0  0  0  0  0  0  0
  153.2469  139.6930  158.5503 C   0  0  0  0  0  0  0  0  0  0  0  0
  151.9256  139.1828  157.9434 C   0  0  0  0  0  0  0  0  0  0  0  0
  150.9720  140.2676  157.7186 N   0  0  0  0  0  0  0  0  0  0  0  0
  150.5408  140.6900  156.5195 C   0  0  0  0  0  0  0  0  0  0  0  0
  150.9951  140.2764  155.4522 O   0  0  0  0  0  0  0  0  0  0  0  0
  149.4063  141.7219  156.5378 C   0  0  0  0  0  0  0  0  0  0  0  0
  148.1302  141.2839  155.7820 C   0  0  1  0  0  0  0  0  0  0  0  0
  146.8639  141.9376  156.2827 C   0  0  0  0  0  0  0  0  0  0  0  0
  146.1744  142.5363  155.3150 C   0  0  0  0  0  0  0  0  0  0  0  0
  146.8388  142.4098  153.9727 C   0  0  0  0  0  0  0  0  0  0  0  0
  148.1565  141.6621  154.2784 C   0  0  0  0  0  0  0  0  0  0  0  0
  153.6879  140.7487  161.1791 S   0  0  0  0  0  0  0  0  0  0  0  0
  152.9595  142.3057  161.4827 C   0  0  0  0  0  0  0  0  0  0  0  0
  153.0793  142.9581  162.8195 C   0  0  0  0  0  0  0  0  0  0  0  0
  151.5331  145.8786  159.0317 H   0  0  0  0  0  0  0  0  0  0  0  0
  152.0210  144.4382  158.1427 H   0  0  0  0  0  0  0  0  0  0  0  0
  153.1415  145.2002  159.2719 H   0  0  0  0  0  0  0  0  0  0  0  0
  151.5902  144.6294  161.1729 H   0  0  0  0  0  0  0  0  0  0  0  0
  150.4943  143.8674  160.0606 H   0  0  0  0  0  0  0  0  0  0  0  0
  153.9027  140.0406  157.7510 H   0  0  0  0  0  0  0  0  0  0  0  0
  153.7716  138.8725  159.0401 H   0  0  0  0  0  0  0  0  0  0  0  0
  152.1222  138.6848  156.9938 H   0  0  0  0  0  0  0  0  0  0  0  0
  151.4982  138.4228  158.5994 H   0  0  0  0  0  0  0  0  0  0  0  0
  150.5479  140.6741  158.5396 H   0  0  0  0  0  0  0  0  0  0  0  0
  149.1515  141.9407  157.5764 H   0  0  0  0  0  0  0  0  0  0  0  0
  149.7852  142.6506  156.1100 H   0  0  0  0  0  0  0  0  0  0  0  0
  148.0000  140.2048  155.8776 H   0  0  0  0  0  0  0  0  0  0  0  0
  146.5601  141.8913  157.3181 H   0  0  0  0  0  0  0  0  0  0  0  0
  145.2343  143.0512  155.4480 H   0  0  0  0  0  0  0  0  0  0  0  0
  146.2005  141.8429  153.2943 H   0  0  0  0  0  0  0  0  0  0  0  0
  147.0209  143.3945  153.5410 H   0  0  0  0  0  0  0  0  0  0  0  0
  149.0049  142.3097  154.0530 H   0  0  0  0  0  0  0  0  0  0  0  0
  148.2608  140.7750  153.6526 H   0  0  0  0  0  0  0  0  0  0  0  0
  153.5069  143.9565  162.7250 H   0  0  0  0  0  0  0  0  0  0  0  0
  153.7198  142.3801  163.4861 H   0  0  0  0  0  0  0  0  0  0  0  0
  152.1006  143.0518  163.2912 H   0  0  0  0  0  0  0  0  0  0  0  0
  1  2  1  0  0  0  0
  1 20  1  0  0  0  0
  1 21  1  0  0  0  0
  1 22  1  0  0  0  0
  2  3  1  0  0  0  0
  2 23  1  0  0  0  0
  2 24  1  0  0  0  0
  3 18  2  0  0  0  0
  3  4  1  0  0  0  0
  4  5  2  0  0  0  0
  5  6  1  0  0  0  0
  5 17  1  0  0  0  0
  6  7  1  0  0  0  0
  6 25  1  0  0  0  0
  6 26  1  0  0  0  0
  7  8  1  0  0  0  0
  7 27  1  0  0  0  0
  7 28  1  0  0  0  0
  8  9  1  0  0  0  0
  8 29  1  0  0  0  0
  9 10  2  0  0  0  0
  9 11  1  0  0  0  0
 11 12  1  0  0  0  0
 11 30  1  0  0  0  0
 11 31  1  0  0  0  0
 12 16  1  0  0  0  0
 12 13  1  0  0  0  0
 12 32  1  0  0  0  0
 13 14  2  0  0  0  0
 13 33  1  0  0  0  0
 14 15  1  0  0  0  0
 14 34  1  0  0  0  0
 15 16  1  0  0  0  0
 15 35  1  0  0  0  0
 15 36  1  0  0  0  0
 16 37  1  0  0  0  0
 16 38  1  0  0  0  0
 17 18  1  0  0  0  0
 18 19  1  0  0  0  0
 19 39  1  0  0  0  0
 19 40  1  0  0  0  0
 19 41  1  0  0  0  0
M  END
> <s_m_source_file>
AV-unprocessed.smi

> <i_m_source_file_index>
3332

> <i_lp_mmshare_version>
43012

> <i_f3d_flags>
0

> <s_epik_input>
W0NIM11bQ0gyXWMxbmMoc2MxW0NIM10pW0NIMl1bQ0gyXVtOSF1DKD1PKVtDSDJdW0NAQEhdMltDSF09W0NIXVtDSDJdW0NIMl0y

> <s_epik_cmdline>
J2VwaWtfcHl0aG9uJywgJy1waCcsICc3LjAnLCAnLXRuJywgJzgnLCAnLW1hJywgJzIwMCcsICctbWV0YWxfYmluZGluZycsICctaW1hZScsICc8aW5maWxlLm1hZT4nLCAnLW9tYWUnLCAnPG91dGZpbGUubWFlPic=

> <r_epik_Ionization_Penalty>
0.00221844

> <r_epik_Ionization_Penalty_Charging>
0

> <r_epik_Ionization_Penalty_Neutral>
0.00221844

> <r_epik_State_Penalty>
0.00152607

> <r_epik_Charging_Adjusted_Penalty>
0.00152607

> <i_epik_Tot_Q>
0

> <i_epik_Tot_abs_Q>
0

> <r_epik_Metal_State_Penalty>
-0

> <b_epik_Metal_Only>
0

> <s_lp_Force_Field>
OPLS_2005

> <r_lp_Energy>
6.79719

> <b_lp_Chiralities_Consistent>
1

> <s_lp_Variant>
AV-unprocessed.smi:3332-2

> <Gold.Version>
5.8.1

> <Gold.Id.Protein>
6NUR|6NUR_protein|mol2

> <Gold.PLP.Fitness>
45.4605

> <Gold.PLP.PLP>
-43.4117

> <Gold.PLP.part.hbond>
-1.0000

> <Gold.PLP.part.metal>
0.0000

> <Gold.PLP.part.buried>
-3.0495

> <Gold.PLP.part.nonpolar>
-38.1733

> <Gold.PLP.part.repulsive>
0.0859

> <Gold.PLP.ligand.clash>
0.0000

> <Gold.PLP.ligand.torsion>
0.5227

> <Gold.PLP.Chemscore.Hbond>
0.9913

> <Gold.PLP.Chemscore.CHOScore>
0.0000

> <Gold.PLP.Chemscore.Metal>
0.0000

> <Gold.Chemscore.Hbonds>
donor molecule, donor type, donor heavy atom, donor atom, acceptor molecule, acceptor atom, score
      P1  H  7989  7998       L1    10  0.73

> <Gold.PLP.Chemscore.Internal.Correction>
0.1203

> <Gold.Rescore>
     Score         DG    S(hbond)    S(metal)    S(lipo)     H(rot)  DE(clash)    DE(int)     intcor
     17.59     -19.20       0.96        0.00     122.84       1.51       1.38       0.23       ----

> <Gold.Chemscore.Fitness>
17.5874

> <Gold.Chemscore.DG>
-19.1996

> <Gold.Chemscore.ZeroCoef>
-5.4800

> <Gold.Chemscore.Hbond>
0.9621

> <Gold.Chemscore.Metal>
0.0000

> <Gold.Chemscore.Lipo>
122.8412

> <Gold.Chemscore.Internal_Hbond>
0.0000

> <Gold.Chemscore.DEClash>
1.3787

> <Gold.Chemscore.DEInternal>
0.2335

> <Gold.Chemscore.Rot>
1.5103

> <Gold.Chemscore.Internal.Correction>
   9.000000E+99

> <Gold.Chemscore.Hbonds>
donor molecule, donor type, donor heavy atom, donor atom, acceptor molecule, acceptor atom, score
      P1  H  7989  7998       L1    10  0.70

> <Gold.Chemscore.Hbond.Weighted>
-3.2136

> <Gold.Chemscore.Metal.Weighted>
-0.0000

> <Gold.Chemscore.Lipo.Weighted>
-14.3724

> <Gold.Chemscore.Internal_Hbond.Weighted>
0.0000

> <Gold.Chemscore.DEClash.Weighted>
1.3787

> <Gold.Chemscore.DEInternal.Weighted>
0.2335

> <Gold.Chemscore.Rot.Weighted>
3.8664

> <Gold.Chemscore.Internal.Correction.Weighted>
   9.000000E+99

> <Gold.Protein.RotatedTorsions>
[ 6907 6896 6895 6894 ] final  -83.27 input  -60.11 | X-H torsion
[ 7974 7965 7964 7962 ] final   63.14 input  175.53 | X-H torsion
[ 8008 7997 7996 7995 ] final   52.65 input   59.86 | X-H torsion
[ 10167 10162 10161 10158 ] final -178.69 input  -65.29 | X-H torsion
[ 10718 10713 10712 10709 ] final  -56.69 input   66.30 | X-H torsion
[ 10763 10752 10751 10750 ] final  160.20 input  -60.55 | X-H torsion
[ 11005 11000 10999 10996 ] final  -89.56 input  -57.11 | X-H torsion

> <Gold.Protein.ActiveResidues>
 VAL166  LYS551  ARG553  GLY616  TRP617  ASP618  TYR619  PRO620  LYS621  CYS622 
 ASP623  PHE694  ASN695  SER759  ASP760  ASP761  ALA762  ILE779  LEU786  VAL792 
 PHE793  MET794  SER795  GLU796  ALA797  LYS798  CYS799  TRP800  GLU811  SER814 

> <Gold.Protein.RotatedAtoms>
  150.6887  134.3538  159.4920 H   0  0  0  0  0  0  0  0  0  0  0  0  # atno 6907 bound_to 6896
  152.1376  134.9085  160.0564 H   0  0  0  0  0  0  0  0  0  0  0  0  # atno 6908 bound_to 6896
  152.0231  133.3872  159.4303 H   0  0  0  0  0  0  0  0  0  0  0  0  # atno 6909 bound_to 6896
  145.8653  139.3341  143.0795 H   0  0  0  0  0  0  0  0  0  0  0  0  # atno 7974 bound_to 7965
  155.4553  140.3460  155.4306 H   0  0  0  0  0  0  0  0  0  0  0  0  # atno 8008 bound_to 7997
  156.1195  140.1483  156.9255 H   0  0  0  0  0  0  0  0  0  0  0  0  # atno 8009 bound_to 7997
  154.4813  140.0869  156.7362 H   0  0  0  0  0  0  0  0  0  0  0  0  # atno 8010 bound_to 7997
  139.5420  144.2336  152.0914 H   0  0  0  0  0  0  0  0  0  0  0  0  # atno 10167 bound_to 10162
  156.1269  130.4162  150.0339 H   0  0  0  0  0  0  0  0  0  0  0  0  # atno 10718 bound_to 10713
  154.2437  135.2774  155.2844 H   0  0  0  0  0  0  0  0  0  0  0  0  # atno 10763 bound_to 10752
  154.5523  135.5671  153.6936 H   0  0  0  0  0  0  0  0  0  0  0  0  # atno 10764 bound_to 10752
  152.9994  135.6277  154.2582 H   0  0  0  0  0  0  0  0  0  0  0  0  # atno 10765 bound_to 10752
  141.1582  133.7637  156.9612 H   0  0  0  0  0  0  0  0  0  0  0  0  # atno 11005 bound_to 11000
  145.9201  140.9121  143.0409 LP  0  0  0  0  0  0  0  0  0  0  0  0  # atno 17320 bound_to 7965
  144.6726  140.1277  143.7446 LP  0  0  0  0  0  0  0  0  0  0  0  0  # atno 17321 bound_to 7965
  140.1817  144.4838  150.6525 LP  0  0  0  0  0  0  0  0  0  0  0  0  # atno 17342 bound_to 10162
  140.6654  143.2266  151.5755 LP  0  0  0  0  0  0  0  0  0  0  0  0  # atno 17343 bound_to 10162
  156.8262  130.9376  151.3639 LP  0  0  0  0  0  0  0  0  0  0  0  0  # atno 17370 bound_to 10713
  157.6450  130.8836  149.9520 LP  0  0  0  0  0  0  0  0  0  0  0  0  # atno 17371 bound_to 10713
  140.1192  134.9428  157.2178 LP  0  0  0  0  0  0  0  0  0  0  0  0  # atno 17394 bound_to 11000
  140.3094  134.3041  155.7270 LP  0  0  0  0  0  0  0  0  0  0  0  0  # atno 17395 bound_to 11000

$$$$
