#       Name:                AV-unprocessed.smi:1396
#       Creating user name   scv26
#       Creation time:       Fri Mar 27 05:29:51 2020


#       File generated by GOLD software.
#

@<TRIPOS>MOLECULE
AV-unprocessed.smi:1396
    54    55     1
SMALL
NO_CHARGES


@<TRIPOS>ATOM
      1 ****        -5.1261  -4.7276  -1.2387 C.3            1 S1                 0.0000
      2 ****        -4.7299  -3.8091  -0.1825 N.am           1 S1                 0.0000
      3 ****        -5.2803  -2.6023   0.0142 C.2            1 S1                 0.0000
      4 ****        -6.1911  -2.1525  -0.6806 O.2            1 S1                 0.0000
      5 ****        -4.7214  -1.7744   1.1777 C.3            1 S1                 0.0000
      6 ****        -3.2696  -1.4900   1.0971 N.3            1 S1                 0.0000
      7 ****        -2.8489  -0.7813   2.3106 C.3            1 S1                 0.0000
      8 ****        -1.3230  -0.5848   2.3224 C.3            1 S1                 0.0000
      9 ****        -0.8575   0.1965   1.0863 C.3            1 S1                 0.0000
     10 ****         0.6000   0.2711   1.0643 N.am           1 S1                 0.0000
     11 ****         1.3150   1.1719   0.3758 C.2            1 S1                 0.0000
     12 ****         0.8084   2.0630  -0.3055 O.2            1 S1                 0.0000
     13 ****         2.6340   0.9787   0.5462 N.am           1 S1                 0.0000
     14 ****         3.7145   1.6642  -0.0719 C.ar           1 S1                 0.0000
     15 ****         4.9849   1.5778   0.5319 C.ar           1 S1                 0.0000
     16 ****         6.0787   2.2251  -0.0729 C.ar           1 S1                 0.0000
     17 ****         5.8693   2.9344  -1.2722 C.ar           1 S1                 0.0000
     18 ****         6.9452   3.5647  -1.8633 O.3            1 S1                 0.0000
     19 ****         6.7292   4.2706  -3.0806 C.3            1 S1                 0.0000
     20 ****         4.6538   3.0142  -1.8675 N.ar           1 S1                 0.0000
     21 ****         3.6082   2.3928  -1.2819 C.ar           1 S1                 0.0000
     22 ****        -1.3922  -0.5031  -0.1744 C.3            1 S1                 0.0000
     23 ****        -2.9149  -0.7077  -0.0964 C.3            1 S1                 0.0000
     24 ****        -4.5431  -5.6460  -1.1714 H              1 S1                 0.0000
     25 ****        -4.9541  -4.2854  -2.2208 H              1 S1                 0.0000
     26 ****        -6.1820  -4.9872  -1.1531 H              1 S1                 0.0000
     27 ****        -3.9843  -4.1014   0.4330 H              1 S1                 0.0000
     28 ****        -5.2763  -0.8366   1.2435 H              1 S1                 0.0000
     29 ****        -4.9337  -2.3239   2.0960 H              1 S1                 0.0000
     30 ****        -3.3544   0.1834   2.3832 H              1 S1                 0.0000
     31 ****        -3.1359  -1.3553   3.1925 H              1 S1                 0.0000
     32 ****        -1.0263  -0.0582   3.2302 H              1 S1                 0.0000
     33 ****        -0.8332  -1.5595   2.3556 H              1 S1                 0.0000
     34 ****        -1.2695   1.2060   1.1397 H              1 S1                 0.0000
     35 ****         1.0981  -0.4224   1.6027 H              1 S1                 0.0000
     36 ****         2.8971   0.2705   1.2156 H              1 S1                 0.0000
     37 ****         5.1229   1.0237   1.4489 H              1 S1                 0.0000
     38 ****         7.0610   2.1760   0.3733 H              1 S1                 0.0000
     39 ****         7.6707   4.7034  -3.4187 H              1 S1                 0.0000
     40 ****         6.0182   5.0874  -2.9474 H              1 S1                 0.0000
     41 ****         6.3689   3.6072  -3.8682 H              1 S1                 0.0000
     42 ****         2.6786   2.4733  -1.8229 H              1 S1                 0.0000
     43 ****        -1.1489   0.0816  -1.0624 H              1 S1                 0.0000
     44 ****        -0.9038  -1.4709  -0.2996 H              1 S1                 0.0000
     45 ****        -3.2315  -1.2165  -1.0066 H              1 S1                 0.0000
     46 ****        -3.4261   0.2565  -0.0803 H              1 S1                 0.0000
     47 ****        -6.5575  -2.6945  -1.4369 LP             1 S1                 0.0000
     48 ****        -6.5647  -1.2449  -0.4890 LP             1 S1                 0.0000
     49 ****        -2.7897  -2.3641   1.0227 LP             1 S1                 0.0000
     50 ****        -0.1866   2.1418  -0.3659 LP             1 S1                 0.0000
     51 ****         1.3919   2.7083  -0.7987 LP             1 S1                 0.0000
     52 ****         7.6350   2.8641  -2.0460 LP             1 S1                 0.0000
     53 ****         7.3046   4.2213  -1.2002 LP             1 S1                 0.0000
     54 ****         4.5346   3.5217  -2.7209 LP             1 S1                 0.0000
@<TRIPOS>BOND
    1    1    2 1     
    2    1   24 1     
    3    1   25 1     
    4    1   26 1     
    5    2    3 am    
    6    2   27 1     
    7    3    4 2     
    8    3    5 1     
    9    5    6 1     
   10    5   28 1     
   11    5   29 1     
   12    6   23 1     
   13    6    7 1     
   14    7    8 1     
   15    7   30 1     
   16    7   31 1     
   17    8    9 1     
   18    8   32 1     
   19    8   33 1     
   20    9   10 1     
   21    9   22 1     
   22    9   34 1     
   23   10   11 am    
   24   10   35 1     
   25   11   12 2     
   26   11   13 am    
   27   13   14 1     
   28   13   36 1     
   29   14   21 ar    
   30   14   15 ar    
   31   15   16 ar    
   32   15   37 1     
   33   16   17 ar    
   34   16   38 1     
   35   17   18 1     
   36   17   20 ar    
   37   18   19 1     
   38   19   39 1     
   39   19   40 1     
   40   19   41 1     
   41   20   21 ar    
   42   21   42 1     
   43   22   23 1     
   44   22   43 1     
   45   22   44 1     
   46   23   45 1     
   47   23   46 1     
   48    4   47 1     
   49    4   48 1     
   50    6   49 1     
   51   12   50 1     
   52   12   51 1     
   53   18   52 1     
   54   18   53 1     
   55   20   54 1     
@<TRIPOS>SUBSTRUCTURE
      1 S1             1
@<TRIPOS>SET
LONE_PAIRS      STATIC     ATOMS    <user>   **** ""
8 47 48 49 50 51 52 53 54
DONOR_HYDROGENS      STATIC     ATOMS    <user>   **** ""
3 27 35 36
ATOM$BLUE        STATIC     ATOMS    COLORGROUP SYSTEM
8 47 48 49 50 51 52 53 54
ATOM$RED        STATIC     ATOMS    COLORGROUP SYSTEM
3 27 35 36
