AV-unprocessed.smi:778|AV-procd|sdf|3703|dock5
  -GOLD-   22720 1123D 1   1.00000     0.00000
 Structure written by MMmdl.
 40 41  0  0  0  0  0  0  0  0  1 V2000
  146.6887  138.4516  150.9945 N   0  0  0  0  0  0  0  0  0  0  0  0
  147.0668  138.9968  151.9424 C   0  0  0  0  0  0  0  0  0  0  0  0
  147.5427  139.6829  153.1357 C   0  0  0  0  0  0  0  0  0  0  0  0
  146.8129  140.7626  153.6782 C   0  0  0  0  0  0  0  0  0  0  0  0
  147.2252  141.4205  154.7832 N   0  0  0  0  0  0  0  0  0  0  0  0
  148.3622  140.9957  155.3404 C   0  0  0  0  0  0  0  0  0  0  0  0
  148.9440  141.8425  156.8004 S   0  0  0  0  0  0  0  0  0  0  0  0
  150.6259  141.1808  157.0114 C   0  0  0  0  0  0  0  0  0  0  0  0
  151.1337  141.3942  158.4397 C   0  0  0  0  0  0  0  0  0  0  0  0
  151.2340  142.7902  158.6771 O   0  0  0  0  0  0  0  0  0  0  0  0
  152.5595  143.2971  158.7803 C   0  0  0  0  0  0  0  0  0  0  0  0
  153.4271  142.5557  159.8226 C   0  0  0  0  0  0  0  0  0  0  0  0
  152.8240  142.4431  161.2309 C   0  0  0  0  0  0  0  0  0  0  0  0
  152.4965  143.7872  161.9014 C   0  0  0  0  0  0  0  0  0  0  0  0
  151.2428  144.4525  161.3150 C   0  0  0  0  0  0  0  0  0  0  0  0
  151.4727  145.3163  160.0616 C   0  0  0  0  0  0  0  0  0  0  0  0
  152.5056  144.8158  159.0310 C   0  0  0  0  0  0  0  0  0  0  0  0
  149.1374  139.9931  154.9212 N   0  0  0  0  0  0  0  0  0  0  0  0
  148.7348  139.3278  153.8167 C   0  0  0  0  0  0  0  0  0  0  0  0
  149.5571  138.2817  153.3940 N   0  0  0  0  0  0  0  0  0  0  0  0
  145.8923  141.1040  153.2271 H   0  0  0  0  0  0  0  0  0  0  0  0
  150.6196  140.1153  156.7802 H   0  0  0  0  0  0  0  0  0  0  0  0
  151.2988  141.6656  156.3032 H   0  0  0  0  0  0  0  0  0  0  0  0
  150.4502  140.9198  159.1437 H   0  0  0  0  0  0  0  0  0  0  0  0
  152.1116  140.9263  158.5614 H   0  0  0  0  0  0  0  0  0  0  0  0
  153.0466  143.1673  157.8122 H   0  0  0  0  0  0  0  0  0  0  0  0
  153.6471  141.5511  159.4621 H   0  0  0  0  0  0  0  0  0  0  0  0
  154.3986  143.0463  159.8910 H   0  0  0  0  0  0  0  0  0  0  0  0
  151.9325  141.8152  161.2020 H   0  0  0  0  0  0  0  0  0  0  0  0
  153.5368  141.9092  161.8601 H   0  0  0  0  0  0  0  0  0  0  0  0
  152.3085  143.5910  162.9575 H   0  0  0  0  0  0  0  0  0  0  0  0
  153.3517  144.4633  161.8709 H   0  0  0  0  0  0  0  0  0  0  0  0
  150.4940  143.6886  161.1025 H   0  0  0  0  0  0  0  0  0  0  0  0
  150.7901  145.0867  162.0781 H   0  0  0  0  0  0  0  0  0  0  0  0
  150.5108  145.4435  159.5636 H   0  0  0  0  0  0  0  0  0  0  0  0
  151.7699  146.3182  160.3729 H   0  0  0  0  0  0  0  0  0  0  0  0
  153.4982  145.1631  159.3195 H   0  0  0  0  0  0  0  0  0  0  0  0
  152.2949  145.3174  158.0857 H   0  0  0  0  0  0  0  0  0  0  0  0
  149.3347  137.7296  152.5782 H   0  0  0  0  0  0  0  0  0  0  0  0
  150.3957  138.0358  153.9003 H   0  0  0  0  0  0  0  0  0  0  0  0
  1  2  3  0  0  0  0
  2  3  1  0  0  0  0
  3 19  1  0  0  0  0
  3  4  2  0  0  0  0
  4  5  1  0  0  0  0
  4 21  1  0  0  0  0
  5  6  2  0  0  0  0
  6  7  1  0  0  0  0
  6 18  1  0  0  0  0
  7  8  1  0  0  0  0
  8  9  1  0  0  0  0
  8 22  1  0  0  0  0
  8 23  1  0  0  0  0
  9 10  1  0  0  0  0
  9 24  1  0  0  0  0
  9 25  1  0  0  0  0
 10 11  1  0  0  0  0
 11 17  1  0  0  0  0
 11 12  1  0  0  0  0
 11 26  1  0  0  0  0
 12 13  1  0  0  0  0
 12 27  1  0  0  0  0
 12 28  1  0  0  0  0
 13 14  1  0  0  0  0
 13 29  1  0  0  0  0
 13 30  1  0  0  0  0
 14 15  1  0  0  0  0
 14 31  1  0  0  0  0
 14 32  1  0  0  0  0
 15 16  1  0  0  0  0
 15 33  1  0  0  0  0
 15 34  1  0  0  0  0
 16 17  1  0  0  0  0
 16 35  1  0  0  0  0
 16 36  1  0  0  0  0
 17 37  1  0  0  0  0
 17 38  1  0  0  0  0
 18 19  2  0  0  0  0
 19 20  1  0  0  0  0
 20 39  1  0  0  0  0
 20 40  1  0  0  0  0
M  END
> <s_m_source_file>
AV-unprocessed.smi

> <i_m_source_file_index>
778

> <i_lp_mmshare_version>
43012

> <i_f3d_flags>
0

> <s_epik_input>
TiNDYzFbY0hdbmMobmMxW05IMl0pU1tDSDJdW0NIMl1PW0NIXTJbQ0gyXVtDSDJdW0NIMl1bQ0gyXVtDSDJdW0NIMl0y

> <s_epik_cmdline>
J2VwaWtfcHl0aG9uJywgJy1waCcsICc3LjAnLCAnLXRuJywgJzgnLCAnLW1hJywgJzIwMCcsICctbWV0YWxfYmluZGluZycsICctaW1hZScsICc8aW5maWxlLm1hZT4nLCAnLW9tYWUnLCAnPG91dGZpbGUubWFlPic=

> <r_lp_tautomer_probability>
1

> <r_epik_Ionization_Penalty>
5.1519e-05

> <r_epik_Ionization_Penalty_Charging>
0

> <r_epik_Ionization_Penalty_Neutral>
5.1519e-05

> <r_epik_State_Penalty>
-0

> <r_epik_Charging_Adjusted_Penalty>
0

> <i_epik_Tot_Q>
0

> <i_epik_Tot_abs_Q>
0

> <r_epik_Metal_State_Penalty>
-0

> <b_epik_Metal_Only>
0

> <s_lp_Force_Field>
OPLS_2005

> <r_lp_Energy>
14.4265

> <b_lp_Chiralities_Consistent>
1

> <s_lp_Variant>
AV-unprocessed.smi:778-1

> <Gold.Version>
5.8.1

> <Gold.Id.Protein>
6NUR|6NUR_protein|mol2

> <Gold.PLP.Fitness>
48.9280

> <Gold.PLP.PLP>
-41.0314

> <Gold.PLP.part.hbond>
-3.0000

> <Gold.PLP.part.metal>
0.0000

> <Gold.PLP.part.buried>
2.0412

> <Gold.PLP.part.nonpolar>
-41.5359

> <Gold.PLP.part.repulsive>
1.3133

> <Gold.PLP.ligand.clash>
0.0000

> <Gold.PLP.ligand.torsion>
0.5580

> <Gold.PLP.Chemscore.Hbond>
2.0000

> <Gold.PLP.Chemscore.CHOScore>
1.0000

> <Gold.PLP.Chemscore.Metal>
0.0000

> <Gold.Chemscore.Hbonds>
donor molecule, donor type, donor heavy atom, donor atom, acceptor molecule, acceptor atom, score
      L1  H    20    39       P1  7948  1.00
      P1  H  7954  7966       L1     1  1.00
      L1  C     4    21       P1 10175  1.00

> <Gold.PLP.Chemscore.Internal.Correction>
0.0125

> <Gold.Rescore>
     Score         DG    S(hbond)    S(metal)    S(lipo)     H(rot)  DE(clash)    DE(int)     intcor
     15.78     -18.40       1.62        0.00     113.43       2.26       2.04       0.58       ----

> <Gold.Chemscore.Fitness>
15.7759

> <Gold.Chemscore.DG>
-18.4032

> <Gold.Chemscore.ZeroCoef>
-5.4800

> <Gold.Chemscore.Hbond>
1.6249

> <Gold.Chemscore.Metal>
0.0000

> <Gold.Chemscore.Lipo>
113.4350

> <Gold.Chemscore.Internal_Hbond>
0.0000

> <Gold.Chemscore.DEClash>
2.0444

> <Gold.Chemscore.DEInternal>
0.5830

> <Gold.Chemscore.Rot>
2.2562

> <Gold.Chemscore.Internal.Correction>
   9.000000E+99

> <Gold.Chemscore.Hbonds>
donor molecule, donor type, donor heavy atom, donor atom, acceptor molecule, acceptor atom, score
      L1  H    20    39       P1  7948  0.82
      P1  H  7954  7966       L1     1  0.75

> <Gold.Chemscore.Hbond.Weighted>
-5.4272

> <Gold.Chemscore.Metal.Weighted>
-0.0000

> <Gold.Chemscore.Lipo.Weighted>
-13.2719

> <Gold.Chemscore.Internal_Hbond.Weighted>
0.0000

> <Gold.Chemscore.DEClash.Weighted>
2.0444

> <Gold.Chemscore.DEInternal.Weighted>
0.5830

> <Gold.Chemscore.Rot.Weighted>
5.7759

> <Gold.Chemscore.Internal.Correction.Weighted>
   9.000000E+99

> <Gold.Protein.RotatedTorsions>
[ 6907 6896 6895 6894 ] final   -4.90 input  -60.11 | X-H torsion
[ 7974 7965 7964 7962 ] final  -40.22 input  175.53 | X-H torsion
[ 8008 7997 7996 7995 ] final   -4.53 input   59.86 | X-H torsion
[ 10167 10162 10161 10158 ] final   28.39 input  -65.29 | X-H torsion
[ 10718 10713 10712 10709 ] final  178.15 input   66.30 | X-H torsion
[ 10763 10752 10751 10750 ] final   87.84 input  -60.55 | X-H torsion
[ 11005 11000 10999 10996 ] final  152.61 input  -57.11 | X-H torsion

> <Gold.Protein.ActiveResidues>
 VAL166  LYS551  ARG553  GLY616  TRP617  ASP618  TYR619  PRO620  LYS621  CYS622 
 ASP623  PHE694  ASN695  SER759  ASP760  ASP761  ALA762  ILE779  LEU786  VAL792 
 PHE793  MET794  SER795  GLU796  ALA797  LYS798  CYS799  TRP800  GLU811  SER814 

> <Gold.Protein.RotatedAtoms>
  151.4902  135.1057  159.9801 H   0  0  0  0  0  0  0  0  0  0  0  0  # atno 6907 bound_to 6896
  152.4744  133.8099  159.7008 H   0  0  0  0  0  0  0  0  0  0  0  0  # atno 6908 bound_to 6896
  150.8772  133.7360  159.2969 H   0  0  0  0  0  0  0  0  0  0  0  0  # atno 6909 bound_to 6896
  146.0325  140.6713  142.9126 H   0  0  0  0  0  0  0  0  0  0  0  0  # atno 7974 bound_to 7965
  154.6133  140.2481  155.7641 H   0  0  0  0  0  0  0  0  0  0  0  0  # atno 8008 bound_to 7997
  156.2384  140.2942  156.0325 H   0  0  0  0  0  0  0  0  0  0  0  0  # atno 8009 bound_to 7997
  155.2016  140.0394  157.2908 H   0  0  0  0  0  0  0  0  0  0  0  0  # atno 8010 bound_to 7997
  140.4857  144.0546  150.6280 H   0  0  0  0  0  0  0  0  0  0  0  0  # atno 10167 bound_to 10162
  156.8948  130.9859  151.3044 H   0  0  0  0  0  0  0  0  0  0  0  0  # atno 10718 bound_to 10713
  153.1709  135.4528  154.9900 H   0  0  0  0  0  0  0  0  0  0  0  0  # atno 10763 bound_to 10752
  154.7965  135.3239  154.7657 H   0  0  0  0  0  0  0  0  0  0  0  0  # atno 10764 bound_to 10752
  153.8133  135.6953  153.4892 H   0  0  0  0  0  0  0  0  0  0  0  0  # atno 10765 bound_to 10752
  140.1323  134.8793  157.2221 H   0  0  0  0  0  0  0  0  0  0  0  0  # atno 11005 bound_to 11000
  144.7037  140.3761  143.7135 LP  0  0  0  0  0  0  0  0  0  0  0  0  # atno 17320 bound_to 7965
  145.7018  139.1663  143.2589 LP  0  0  0  0  0  0  0  0  0  0  0  0  # atno 17321 bound_to 7965
  140.3801  143.2807  152.0180 LP  0  0  0  0  0  0  0  0  0  0  0  0  # atno 17342 bound_to 10162
  139.4841  144.6161  151.7343 LP  0  0  0  0  0  0  0  0  0  0  0  0  # atno 17343 bound_to 10162
  157.6062  130.8549  149.8878 LP  0  0  0  0  0  0  0  0  0  0  0  0  # atno 17370 bound_to 10713
  156.0611  130.3700  150.0980 LP  0  0  0  0  0  0  0  0  0  0  0  0  # atno 17371 bound_to 10713
  140.2826  134.3332  155.7338 LP  0  0  0  0  0  0  0  0  0  0  0  0  # atno 17394 bound_to 11000
  141.2172  133.7487  156.9386 LP  0  0  0  0  0  0  0  0  0  0  0  0  # atno 17395 bound_to 11000

$$$$
