AV-unprocessed.smi:3132|AV-procd|sdf|11935|dock2
  -GOLD-   2272017323D 1   1.00000     0.00000
 Structure written by MMmdl.
 33 34  0  0  0  0  0  0  0  0  1 V2000
  150.2719  139.4503  156.4637 C   0  0  0  0  0  0  0  0  0  0  0  0
  150.0248  140.9200  156.8373 C   0  0  2  0  0  0  0  0  0  0  0  0
  149.9128  141.8105  155.5855 C   0  0  0  0  0  0  0  0  0  0  0  0
  148.7195  141.5245  154.8097 N   0  0  0  0  0  0  0  0  0  0  0  0
  147.5222  142.2285  154.8218 C   0  0  0  0  0  0  0  0  0  0  0  0
  146.6833  141.5919  153.9354 C   0  0  0  0  0  0  0  0  0  0  0  0
  147.3402  140.5029  153.3675 N   0  0  0  0  0  0  0  0  0  0  0  0
  148.5404  140.5275  153.9326 C   0  0  0  0  0  0  0  0  0  0  0  0
  151.1033  141.4023  157.6970 N   0  0  0  0  0  0  0  0  0  0  0  0
  150.9923  142.3581  158.6331 C   0  0  0  0  0  0  0  0  0  0  0  0
  149.9322  142.9311  158.8853 O   0  0  0  0  0  0  0  0  0  0  0  0
  152.2712  142.7454  159.3898 C   0  0  1  0  0  0  0  0  0  0  0  0
  152.0735  143.8614  160.4337 C   0  0  0  0  0  0  0  0  0  0  0  0
  152.5477  143.2385  161.7356 C   0  0  0  0  0  0  0  0  0  0  0  0
  153.4596  142.1169  161.2592 C   0  0  0  0  0  0  0  0  0  0  0  0
  152.7701  141.6267  160.1227 O   0  0  0  0  0  0  0  0  0  0  0  0
  149.4671  139.0651  155.8369 H   0  0  0  0  0  0  0  0  0  0  0  0
  150.3249  138.8201  157.3520 H   0  0  0  0  0  0  0  0  0  0  0  0
  151.2067  139.3319  155.9145 H   0  0  0  0  0  0  0  0  0  0  0  0
  149.0782  140.9774  157.3781 H   0  0  0  0  0  0  0  0  0  0  0  0
  149.9078  142.8658  155.8622 H   0  0  0  0  0  0  0  0  0  0  0  0
  150.7781  141.6608  154.9384 H   0  0  0  0  0  0  0  0  0  0  0  0
  147.3693  143.0974  155.4448 H   0  0  0  0  0  0  0  0  0  0  0  0
  145.6658  141.8322  153.6643 H   0  0  0  0  0  0  0  0  0  0  0  0
  149.3067  139.8007  153.7060 H   0  0  0  0  0  0  0  0  0  0  0  0
  152.0147  140.9894  157.5593 H   0  0  0  0  0  0  0  0  0  0  0  0
  153.0288  143.0489  158.6657 H   0  0  0  0  0  0  0  0  0  0  0  0
  152.6904  144.7226  160.1750 H   0  0  0  0  0  0  0  0  0  0  0  0
  151.0438  144.2112  160.5208 H   0  0  0  0  0  0  0  0  0  0  0  0
  153.0516  143.9486  162.3916 H   0  0  0  0  0  0  0  0  0  0  0  0
  151.6989  142.8179  162.2761 H   0  0  0  0  0  0  0  0  0  0  0  0
  154.4366  142.5019  160.9628 H   0  0  0  0  0  0  0  0  0  0  0  0
  153.6036  141.3403  162.0104 H   0  0  0  0  0  0  0  0  0  0  0  0
  1  2  1  0  0  0  0
  1 17  1  0  0  0  0
  1 18  1  0  0  0  0
  1 19  1  0  0  0  0
  2  3  1  0  0  0  0
  2  9  1  0  0  0  0
  2 20  1  0  0  0  0
  3  4  1  0  0  0  0
  3 21  1  0  0  0  0
  3 22  1  0  0  0  0
  4  8  1  0  0  0  0
  4  5  1  0  0  0  0
  5  6  2  0  0  0  0
  5 23  1  0  0  0  0
  6  7  1  0  0  0  0
  6 24  1  0  0  0  0
  7  8  2  0  0  0  0
  8 25  1  0  0  0  0
  9 10  1  0  0  0  0
  9 26  1  0  0  0  0
 10 11  2  0  0  0  0
 10 12  1  0  0  0  0
 12 16  1  0  0  0  0
 12 13  1  0  0  0  0
 12 27  1  0  0  0  0
 13 14  1  0  0  0  0
 13 28  1  0  0  0  0
 13 29  1  0  0  0  0
 14 15  1  0  0  0  0
 14 30  1  0  0  0  0
 14 31  1  0  0  0  0
 15 16  1  0  0  0  0
 15 32  1  0  0  0  0
 15 33  1  0  0  0  0
M  END
> <s_m_source_file>
AV-unprocessed.smi

> <i_m_source_file_index>
3132

> <i_lp_mmshare_version>
43012

> <i_f3d_flags>
0

> <s_epik_input>
W2NIXTFuW2NIXVtjSF1uMVtDSDJdW0NAQEhdKFtDSDNdKVtOSF1DKD1PKVtDQEBIXTJbQ0gyXVtDSDJdW0NIMl1PMg==

> <s_epik_cmdline>
J2VwaWtfcHl0aG9uJywgJy1waCcsICc3LjAnLCAnLXRuJywgJzgnLCAnLW1hJywgJzIwMCcsICctbWV0YWxfYmluZGluZycsICctaW1hZScsICc8aW5maWxlLm1hZT4nLCAnLW9tYWUnLCAnPG91dGZpbGUubWFlPic=

> <r_lp_tautomer_probability>
1

> <r_epik_Ionization_Penalty>
0.630322

> <r_epik_Ionization_Penalty_Charging>
0.630322

> <r_epik_Ionization_Penalty_Neutral>
3.82652e-08

> <r_epik_State_Penalty>
0.647117

> <r_epik_Charging_Adjusted_Penalty>
1.27744

> <i_epik_Tot_Q>
0

> <i_epik_Tot_abs_Q>
0

> <r_epik_Metal_State_Penalty>
0.309095

> <b_epik_Metal_Only>
0

> <s_lp_Force_Field>
OPLS_2005

> <r_lp_Energy>
19.804

> <b_lp_Chiralities_Consistent>
1

> <s_lp_Variant>
AV-unprocessed.smi:3132-7

> <Gold.Version>
5.8.1

> <Gold.Id.Protein>
6NUR|6NUR_protein|mol2

> <Gold.PLP.Fitness>
37.5133

> <Gold.PLP.PLP>
-32.0950

> <Gold.PLP.part.hbond>
-0.4794

> <Gold.PLP.part.metal>
0.0000

> <Gold.PLP.part.buried>
-2.4500

> <Gold.PLP.part.nonpolar>
-29.9529

> <Gold.PLP.part.repulsive>
0.9383

> <Gold.PLP.ligand.clash>
0.0000

> <Gold.PLP.ligand.torsion>
0.7053

> <Gold.PLP.Chemscore.Hbond>
0.0000

> <Gold.PLP.Chemscore.CHOScore>
2.2584

> <Gold.PLP.Chemscore.Metal>
0.0000

> <Gold.Chemscore.Hbonds>
donor molecule, donor type, donor heavy atom, donor atom, acceptor molecule, acceptor atom, score
      L1  C     5    23       P1  8028  0.75
      L1  C     6    24       P1 10175  0.46
      L1  C     8    25       P1  7957  0.42

> <Gold.PLP.Chemscore.Internal.Correction>
0.0535

> <Gold.Rescore>
     Score         DG    S(hbond)    S(metal)    S(lipo)     H(rot)  DE(clash)    DE(int)     intcor
      8.98      -9.67       0.00        0.00      76.57       1.86       0.00       0.69       ----

> <Gold.Chemscore.Fitness>
8.9787

> <Gold.Chemscore.DG>
-9.6677

> <Gold.Chemscore.ZeroCoef>
-5.4800

> <Gold.Chemscore.Hbond>
0.0000

> <Gold.Chemscore.Metal>
0.0000

> <Gold.Chemscore.Lipo>
76.5694

> <Gold.Chemscore.Internal_Hbond>
0.0000

> <Gold.Chemscore.DEClash>
0.0038

> <Gold.Chemscore.DEInternal>
0.6853

> <Gold.Chemscore.Rot>
1.8636

> <Gold.Chemscore.Internal.Correction>
   9.000000E+99

> <Gold.Chemscore.Hbond.Weighted>
-0.0000

> <Gold.Chemscore.Metal.Weighted>
-0.0000

> <Gold.Chemscore.Lipo.Weighted>
-8.9586

> <Gold.Chemscore.Internal_Hbond.Weighted>
0.0000

> <Gold.Chemscore.DEClash.Weighted>
0.0038

> <Gold.Chemscore.DEInternal.Weighted>
0.6853

> <Gold.Chemscore.Rot.Weighted>
4.7709

> <Gold.Chemscore.Internal.Correction.Weighted>
   9.000000E+99

> <Gold.Protein.RotatedTorsions>
[ 6907 6896 6895 6894 ] final  -54.12 input  -60.11 | X-H torsion
[ 7974 7965 7964 7962 ] final  -20.92 input  175.53 | X-H torsion
[ 8008 7997 7996 7995 ] final   -6.04 input   59.86 | X-H torsion
[ 10167 10162 10161 10158 ] final  -76.43 input  -65.29 | X-H torsion
[ 10718 10713 10712 10709 ] final  -65.55 input   66.30 | X-H torsion
[ 10763 10752 10751 10750 ] final  -36.79 input  -60.55 | X-H torsion
[ 11005 11000 10999 10996 ] final  -25.03 input  -57.11 | X-H torsion

> <Gold.Protein.ActiveResidues>
 VAL166  LYS551  ARG553  GLY616  TRP617  ASP618  TYR619  PRO620  LYS621  CYS622 
 ASP623  PHE694  ASN695  SER759  ASP760  ASP761  ALA762  ILE779  LEU786  VAL792 
 PHE793  MET794  SER795  GLU796  ALA797  LYS798  CYS799  TRP800  GLU811  SER814 

> <Gold.Protein.RotatedAtoms>
  150.8366  134.7641  159.6897 H   0  0  0  0  0  0  0  0  0  0  0  0  # atno 6907 bound_to 6896
  152.4461  134.5487  159.9870 H   0  0  0  0  0  0  0  0  0  0  0  0  # atno 6908 bound_to 6896
  151.5636  133.3362  159.3012 H   0  0  0  0  0  0  0  0  0  0  0  0  # atno 6909 bound_to 6896
  146.1761  140.4269  142.8513 H   0  0  0  0  0  0  0  0  0  0  0  0  # atno 7974 bound_to 7965
  154.5978  140.2443  155.7833 H   0  0  0  0  0  0  0  0  0  0  0  0  # atno 8008 bound_to 7997
  156.2291  140.2973  156.0094 H   0  0  0  0  0  0  0  0  0  0  0  0  # atno 8009 bound_to 7997
  155.2263  140.0402  157.2946 H   0  0  0  0  0  0  0  0  0  0  0  0  # atno 8010 bound_to 7997
  140.4857  143.2391  151.7987 H   0  0  0  0  0  0  0  0  0  0  0  0  # atno 10167 bound_to 10162
  156.0663  130.4249  150.1580 H   0  0  0  0  0  0  0  0  0  0  0  0  # atno 10718 bound_to 10713
  153.8855  135.6817  153.4764 H   0  0  0  0  0  0  0  0  0  0  0  0  # atno 10763 bound_to 10752
  153.1210  135.4740  154.9192 H   0  0  0  0  0  0  0  0  0  0  0  0  # atno 10764 bound_to 10752
  154.7648  135.3221  154.8260 H   0  0  0  0  0  0  0  0  0  0  0  0  # atno 10765 bound_to 10752
  140.8900  133.7595  156.0409 H   0  0  0  0  0  0  0  0  0  0  0  0  # atno 11005 bound_to 11000
  144.8239  140.6596  143.6335 LP  0  0  0  0  0  0  0  0  0  0  0  0  # atno 17320 bound_to 7965
  145.4206  139.1564  143.4076 LP  0  0  0  0  0  0  0  0  0  0  0  0  # atno 17321 bound_to 7965
  139.4841  144.4714  151.9420 LP  0  0  0  0  0  0  0  0  0  0  0  0  # atno 17342 bound_to 10162
  140.3800  144.2748  150.5909 LP  0  0  0  0  0  0  0  0  0  0  0  0  # atno 17343 bound_to 10162
  156.9639  130.9813  151.3473 LP  0  0  0  0  0  0  0  0  0  0  0  0  # atno 17370 bound_to 10713
  157.5707  130.8308  149.8387 LP  0  0  0  0  0  0  0  0  0  0  0  0  # atno 17371 bound_to 10713
  140.8359  134.3124  157.5332 LP  0  0  0  0  0  0  0  0  0  0  0  0  # atno 17394 bound_to 11000
  139.8728  134.9389  156.3727 LP  0  0  0  0  0  0  0  0  0  0  0  0  # atno 17395 bound_to 11000

$$$$
