AV-unprocessed.smi:441|AV-procd|sdf|2582|dock2
  -GOLD-   2262022573D 1   1.00000     0.00000
 Structure written by MMmdl.
 34 35  0  0  0  0  0  0  0  0  1 V2000
  155.2420  140.4091  159.3340 O   0  0  0  0  0  0  0  0  0  0  0  0
  154.1307  139.9501  159.6024 C   0  0  0  0  0  0  0  0  0  0  0  0
  153.8463  138.4469  159.4672 C   0  0  0  0  0  0  0  0  0  0  0  0
  154.1639  137.6812  160.6819 N   0  0  0  0  0  0  0  0  0  0  0  0
  154.3639  138.4635  161.8060 N   0  0  0  0  0  0  0  0  0  0  0  0
  154.6309  137.8984  162.9327 C   0  0  0  0  0  0  0  0  0  0  0  0
  154.7353  136.4625  163.0689 C   0  0  0  0  0  0  0  0  0  0  0  0
  155.0961  135.7616  164.6070 Cl  0  0  0  0  0  0  0  0  0  0  0  0
  154.5436  135.7051  161.9597 C   0  0  0  0  0  0  0  0  0  0  0  0
  154.6543  133.9804  162.0430 Cl  0  0  0  0  0  0  0  0  0  0  0  0
  154.2371  136.3146  160.6581 C   0  0  0  0  0  0  0  0  0  0  0  0
  154.0582  135.6626  159.6285 O   0  0  0  0  0  0  0  0  0  0  0  0
  153.0993  140.7091  160.0031 N   0  0  0  0  0  0  0  0  0  0  0  0
  153.1399  142.1556  160.1960 C   0  0  0  0  0  0  0  0  0  0  0  0
  152.5691  142.5072  161.5830 C   0  0  0  0  0  0  0  0  0  0  0  0
  152.5353  144.0274  161.8093 C   0  0  0  0  0  0  0  0  0  0  0  0
  151.7498  144.7394  160.6971 C   0  0  0  0  0  0  0  0  0  0  0  0
  152.3177  144.3964  159.3111 C   0  0  0  0  0  0  0  0  0  0  0  0
  152.3526  142.8766  159.0819 C   0  0  0  0  0  0  0  0  0  0  0  0
  152.8001  138.2956  159.1944 H   0  0  0  0  0  0  0  0  0  0  0  0
  154.4250  138.0702  158.6220 H   0  0  0  0  0  0  0  0  0  0  0  0
  154.7931  138.4735  163.8445 H   0  0  0  0  0  0  0  0  0  0  0  0
  152.2212  140.2498  160.1965 H   0  0  0  0  0  0  0  0  0  0  0  0
  154.1794  142.4884  160.1653 H   0  0  0  0  0  0  0  0  0  0  0  0
  151.5591  142.1059  161.6799 H   0  0  0  0  0  0  0  0  0  0  0  0
  153.1661  142.0343  162.3638 H   0  0  0  0  0  0  0  0  0  0  0  0
  152.0899  144.2493  162.7795 H   0  0  0  0  0  0  0  0  0  0  0  0
  153.5546  144.4140  161.8417 H   0  0  0  0  0  0  0  0  0  0  0  0
  150.7003  144.4457  160.7454 H   0  0  0  0  0  0  0  0  0  0  0  0
  151.7770  145.8179  160.8540 H   0  0  0  0  0  0  0  0  0  0  0  0
  151.7200  144.8753  158.5353 H   0  0  0  0  0  0  0  0  0  0  0  0
  153.3260  144.8021  159.2189 H   0  0  0  0  0  0  0  0  0  0  0  0
  152.7971  142.6665  158.1085 H   0  0  0  0  0  0  0  0  0  0  0  0
  151.3318  142.4940  159.0436 H   0  0  0  0  0  0  0  0  0  0  0  0
  1  2  2  0  0  0  0
  2  3  1  0  0  0  0
  2 13  1  0  0  0  0
  3  4  1  0  0  0  0
  3 20  1  0  0  0  0
  3 21  1  0  0  0  0
  4 11  1  0  0  0  0
  4  5  1  0  0  0  0
  5  6  2  0  0  0  0
  6  7  1  0  0  0  0
  6 22  1  0  0  0  0
  7  8  1  0  0  0  0
  7  9  2  0  0  0  0
  9 10  1  0  0  0  0
  9 11  1  0  0  0  0
 11 12  2  0  0  0  0
 13 14  1  0  0  0  0
 13 23  1  0  0  0  0
 14 19  1  0  0  0  0
 14 15  1  0  0  0  0
 14 24  1  0  0  0  0
 15 16  1  0  0  0  0
 15 25  1  0  0  0  0
 15 26  1  0  0  0  0
 16 17  1  0  0  0  0
 16 27  1  0  0  0  0
 16 28  1  0  0  0  0
 17 18  1  0  0  0  0
 17 29  1  0  0  0  0
 17 30  1  0  0  0  0
 18 19  1  0  0  0  0
 18 31  1  0  0  0  0
 18 32  1  0  0  0  0
 19 33  1  0  0  0  0
 19 34  1  0  0  0  0
M  END
> <s_m_source_file>
AV-unprocessed.smi

> <i_m_source_file_index>
441

> <i_lp_mmshare_version>
43012

> <i_f3d_flags>
0

> <s_epik_input>
W0NIMl0xW0NIMl1bQ0gyXVtDSDJdW0NIMl1bQ0hdMVtOSF1DKD1PKVtDSDJdbjJuW2NIXWMoQ2wpYyhDbCljMj1P

> <s_epik_cmdline>
J2VwaWtfcHl0aG9uJywgJy1waCcsICc3LjAnLCAnLXRuJywgJzgnLCAnLW1hJywgJzIwMCcsICctbWV0YWxfYmluZGluZycsICctaW1hZScsICc8aW5maWxlLm1hZT4nLCAnLW9tYWUnLCAnPG91dGZpbGUubWFlPic=

> <r_lp_tautomer_probability>
1

> <r_epik_Ionization_Penalty>
1.90776e-08

> <r_epik_Ionization_Penalty_Charging>
3.07389e-11

> <r_epik_Ionization_Penalty_Neutral>
1.90469e-08

> <r_epik_State_Penalty>
-0

> <r_epik_Charging_Adjusted_Penalty>
3.07389e-11

> <i_epik_Tot_Q>
0

> <i_epik_Tot_abs_Q>
0

> <r_epik_Metal_State_Penalty>
-0

> <b_epik_Metal_Only>
0

> <s_lp_Force_Field>
OPLS_2005

> <r_lp_Energy>
22.7857

> <b_lp_Chiralities_Consistent>
1

> <s_lp_Variant>
AV-unprocessed.smi:441-1

> <Gold.Version>
5.8.1

> <Gold.Id.Protein>
6NUR|6NUR_protein|mol2

> <Gold.PLP.Fitness>
43.2031

> <Gold.PLP.PLP>
-39.0280

> <Gold.PLP.part.hbond>
-2.0000

> <Gold.PLP.part.metal>
0.0000

> <Gold.PLP.part.buried>
-2.7444

> <Gold.PLP.part.nonpolar>
-34.1502

> <Gold.PLP.part.repulsive>
0.1027

> <Gold.PLP.ligand.clash>
0.0000

> <Gold.PLP.ligand.torsion>
0.6393

> <Gold.PLP.Chemscore.Hbond>
1.8160

> <Gold.PLP.Chemscore.CHOScore>
0.0000

> <Gold.PLP.Chemscore.Metal>
0.0000

> <Gold.Chemscore.Hbonds>
donor molecule, donor type, donor heavy atom, donor atom, acceptor molecule, acceptor atom, score
      P1  H  6896  6907       L1    12  1.00
      P1  H  7997  8008       L1     1  0.82

> <Gold.PLP.Chemscore.Internal.Correction>
0.0056

> <Gold.Rescore>
     Score         DG    S(hbond)    S(metal)    S(lipo)     H(rot)  DE(clash)    DE(int)     intcor
     19.22     -19.86       1.92        0.00     101.16       1.51       0.09       0.55       ----

> <Gold.Chemscore.Fitness>
19.2247

> <Gold.Chemscore.DG>
-19.8557

> <Gold.Chemscore.ZeroCoef>
-5.4800

> <Gold.Chemscore.Hbond>
1.9194

> <Gold.Chemscore.Metal>
0.0000

> <Gold.Chemscore.Lipo>
101.1550

> <Gold.Chemscore.Internal_Hbond>
0.0000

> <Gold.Chemscore.DEClash>
0.0859

> <Gold.Chemscore.DEInternal>
0.5451

> <Gold.Chemscore.Rot>
1.5118

> <Gold.Chemscore.Internal.Correction>
   9.000000E+99

> <Gold.Chemscore.Hbonds>
donor molecule, donor type, donor heavy atom, donor atom, acceptor molecule, acceptor atom, score
      P1  H  6896  6907       L1    12  0.45
      P1  H  7997  8008       L1     1  0.31

> <Gold.Chemscore.Hbond.Weighted>
-6.4108

> <Gold.Chemscore.Metal.Weighted>
-0.0000

> <Gold.Chemscore.Lipo.Weighted>
-11.8351

> <Gold.Chemscore.Internal_Hbond.Weighted>
0.0000

> <Gold.Chemscore.DEClash.Weighted>
0.0859

> <Gold.Chemscore.DEInternal.Weighted>
0.5451

> <Gold.Chemscore.Rot.Weighted>
3.8702

> <Gold.Chemscore.Internal.Correction.Weighted>
   9.000000E+99

> <Gold.Protein.RotatedTorsions>
[ 6907 6896 6895 6894 ] final   63.29 input  -60.11 | X-H torsion
[ 7974 7965 7964 7962 ] final  155.11 input  175.53 | X-H torsion
[ 8008 7997 7996 7995 ] final -137.40 input   59.86 | X-H torsion
[ 10167 10162 10161 10158 ] final -146.05 input  -65.29 | X-H torsion
[ 10718 10713 10712 10709 ] final  178.12 input   66.30 | X-H torsion
[ 10763 10752 10751 10750 ] final   81.65 input  -60.55 | X-H torsion
[ 11005 11000 10999 10996 ] final   31.15 input  -57.11 | X-H torsion

> <Gold.Protein.ActiveResidues>
 VAL166  LYS551  ARG553  GLY616  TRP617  ASP618  TYR619  PRO620  LYS621  CYS622 
 ASP623  PHE694  ASN695  SER759  ASP760  ASP761  ALA762  ILE779  LEU786  VAL792 
 PHE793  MET794  SER795  GLU796  ALA797  LYS798  CYS799  TRP800  GLU811  SER814 

> <Gold.Protein.RotatedAtoms>
  152.4241  134.5901  159.9971 H   0  0  0  0  0  0  0  0  0  0  0  0  # atno 6907 bound_to 6896
  151.6042  133.3347  159.3062 H   0  0  0  0  0  0  0  0  0  0  0  0  # atno 6908 bound_to 6896
  150.8130  134.7333  159.6770 H   0  0  0  0  0  0  0  0  0  0  0  0  # atno 6909 bound_to 6896
  144.8046  139.7024  143.6167 H   0  0  0  0  0  0  0  0  0  0  0  0  # atno 7974 bound_to 7965
  155.4111  140.0512  157.3031 H   0  0  0  0  0  0  0  0  0  0  0  0  # atno 8008 bound_to 7997
  154.4946  140.2133  155.9435 H   0  0  0  0  0  0  0  0  0  0  0  0  # atno 8009 bound_to 7997
  156.1388  140.3158  155.8467 H   0  0  0  0  0  0  0  0  0  0  0  0  # atno 8010 bound_to 7997
  139.7749  143.8184  152.2630 H   0  0  0  0  0  0  0  0  0  0  0  0  # atno 10167 bound_to 10162
  156.8953  130.9861  151.3043 H   0  0  0  0  0  0  0  0  0  0  0  0  # atno 10718 bound_to 10713
  153.1135  135.4757  154.9075 H   0  0  0  0  0  0  0  0  0  0  0  0  # atno 10763 bound_to 10752
  154.7504  135.3104  154.8569 H   0  0  0  0  0  0  0  0  0  0  0  0  # atno 10764 bound_to 10752
  153.9152  135.6861  153.4803 H   0  0  0  0  0  0  0  0  0  0  0  0  # atno 10765 bound_to 10752
  140.2869  134.2908  155.7786 H   0  0  0  0  0  0  0  0  0  0  0  0  # atno 11005 bound_to 11000
  146.2334  139.5858  142.9540 LP  0  0  0  0  0  0  0  0  0  0  0  0  # atno 17320 bound_to 7965
  145.5470  141.0416  143.2299 LP  0  0  0  0  0  0  0  0  0  0  0  0  # atno 17321 bound_to 7965
  139.8230  144.7287  150.9548 LP  0  0  0  0  0  0  0  0  0  0  0  0  # atno 17342 bound_to 10162
  140.7816  143.4141  151.0945 LP  0  0  0  0  0  0  0  0  0  0  0  0  # atno 17343 bound_to 10162
  157.6059  130.8547  149.8875 LP  0  0  0  0  0  0  0  0  0  0  0  0  # atno 17370 bound_to 10713
  156.0609  130.3700  150.0985 LP  0  0  0  0  0  0  0  0  0  0  0  0  # atno 17371 bound_to 10713
  141.2153  133.7561  156.9566 LP  0  0  0  0  0  0  0  0  0  0  0  0  # atno 17394 bound_to 11000
  140.1231  134.9404  157.2232 LP  0  0  0  0  0  0  0  0  0  0  0  0  # atno 17395 bound_to 11000

$$$$
