AV-unprocessed.smi:2079|AV-procd|sdf|8482|dock8
  -GOLD-   2272011183D 1   1.00000     0.00000
 Structure written by MMmdl.
 41 42  0  0  0  0  0  0  0  0  3 V2000
  149.2165  141.1186  154.6178 C   0  0  0  0  0  0  0  0  0  0  0  0
  150.0628  139.8938  154.6926 C   0  0  0  0  0  0  0  0  0  0  0  0
  149.7710  138.5605  154.6355 C   0  0  0  0  0  0  0  0  0  0  0  0
  151.0438  137.9430  154.7753 C   0  0  0  0  0  0  0  0  0  0  0  0
  151.2835  136.6225  154.7675 N   0  5  0  0  0  0  0  0  0  0  0  0
  150.4022  135.7670  155.3341 C   0  0  0  0  0  0  0  0  0  0  0  0
  150.4045  135.3794  156.5048 O   0  0  0  0  0  0  0  0  0  0  0  0
  149.4563  135.3330  154.4911 N   0  0  0  0  0  0  0  0  0  0  0  0
  148.3894  134.4038  154.8361 C   0  0  0  0  0  0  0  0  0  0  0  0
  147.0192  135.0121  154.4884 C   0  0  0  0  0  0  0  0  0  0  0  0
  146.7314  135.0094  153.0246 N   0  3  1  0  0  0  0  0  0  0  0  0
  146.5023  133.6254  152.5152 C   0  0  0  0  0  0  0  0  0  0  0  0
  146.3327  133.5892  150.9902 C   0  0  0  0  0  0  0  0  0  0  0  0
  145.1773  134.4909  150.5585 C   0  0  0  0  0  0  0  0  0  0  0  0
  145.4222  135.9077  151.0818 C   0  0  0  0  0  0  0  0  0  0  0  0
  145.6243  135.9366  152.6140 C   0  0  2  0  0  0  0  0  0  0  0  0
  145.8577  137.4000  153.0457 C   0  0  0  0  0  0  0  0  0  0  0  0
  152.0236  138.8239  154.8911 N   0  0  0  0  0  0  0  0  0  0  0  0
  151.4019  140.0776  154.8458 O   0  0  0  0  0  0  0  0  0  0  0  0
  148.5837  141.0964  153.7303 H   0  0  0  0  0  0  0  0  0  0  0  0
  149.8299  142.0189  154.5722 H   0  0  0  0  0  0  0  0  0  0  0  0
  148.5708  141.1935  155.4926 H   0  0  0  0  0  0  0  0  0  0  0  0
  148.8021  138.0994  154.5154 H   0  0  0  0  0  0  0  0  0  0  0  0
  149.4878  135.6731  153.5411 H   0  0  0  0  0  0  0  0  0  0  0  0
  148.5364  133.4702  154.2908 H   0  0  0  0  0  0  0  0  0  0  0  0
  148.4712  134.1781  155.8988 H   0  0  0  0  0  0  0  0  0  0  0  0
  146.2207  134.4924  155.0202 H   0  0  0  0  0  0  0  0  0  0  0  0
  147.0348  136.0266  154.8785 H   0  0  0  0  0  0  0  0  0  0  0  0
  147.3361  132.9740  152.7689 H   0  0  0  0  0  0  0  0  0  0  0  0
  145.6187  133.2039  152.9972 H   0  0  0  0  0  0  0  0  0  0  0  0
  147.2564  133.9104  150.5070 H   0  0  0  0  0  0  0  0  0  0  0  0
  146.1488  132.5663  150.6600 H   0  0  0  0  0  0  0  0  0  0  0  0
  145.0880  134.4983  149.4717 H   0  0  0  0  0  0  0  0  0  0  0  0
  144.2348  134.1056  150.9498 H   0  0  0  0  0  0  0  0  0  0  0  0
  146.2985  136.3292  150.5865 H   0  0  0  0  0  0  0  0  0  0  0  0
  144.5794  136.5411  150.8024 H   0  0  0  0  0  0  0  0  0  0  0  0
  144.7038  135.5878  153.0854 H   0  0  0  0  0  0  0  0  0  0  0  0
  145.1281  138.0631  152.5797 H   0  0  0  0  0  0  0  0  0  0  0  0
  146.8487  137.7492  152.7543 H   0  0  0  0  0  0  0  0  0  0  0  0
  145.7439  137.5437  154.1193 H   0  0  0  0  0  0  0  0  0  0  0  0
  147.5666  135.3531  152.5724 H   0  0  0  0  0  0  0  0  0  0  0  0
  1  2  1  0  0  0  0
  1 20  1  0  0  0  0
  1 21  1  0  0  0  0
  1 22  1  0  0  0  0
  2 19  1  0  0  0  0
  2  3  2  0  0  0  0
  3  4  1  0  0  0  0
  3 23  1  0  0  0  0
  4  5  1  0  0  0  0
  4 18  2  0  0  0  0
  5  6  1  0  0  0  0
  6  7  2  0  0  0  0
  6  8  1  0  0  0  0
  8  9  1  0  0  0  0
  8 24  1  0  0  0  0
  9 10  1  0  0  0  0
  9 25  1  0  0  0  0
  9 26  1  0  0  0  0
 10 11  1  0  0  0  0
 10 27  1  0  0  0  0
 10 28  1  0  0  0  0
 11 16  1  0  0  0  0
 11 12  1  0  0  0  0
 11 41  1  0  0  0  0
 12 13  1  0  0  0  0
 12 29  1  0  0  0  0
 12 30  1  0  0  0  0
 13 14  1  0  0  0  0
 13 31  1  0  0  0  0
 13 32  1  0  0  0  0
 14 15  1  0  0  0  0
 14 33  1  0  0  0  0
 14 34  1  0  0  0  0
 15 16  1  0  0  0  0
 15 35  1  0  0  0  0
 15 36  1  0  0  0  0
 16 17  1  0  0  0  0
 16 37  1  0  0  0  0
 17 38  1  0  0  0  0
 17 39  1  0  0  0  0
 17 40  1  0  0  0  0
 18 19  1  0  0  0  0
M  CHG  1   5  -1
M  CHG  1  11   1
M  END
> <s_m_source_file>
AV-unprocessed.smi

> <i_m_source_file_index>
2079

> <i_lp_mmshare_version>
43012

> <i_f3d_flags>
0

> <s_epik_input>
W0NIM11jMVtjSF1jKG5vMSlbTkhdQyg9TylbTkhdW0NIMl1bQ0gyXU4yW0NIMl1bQ0gyXVtDSDJdW0NIMl1bQ0BIXTJbQ0gzXQ==

> <s_epik_cmdline>
J2VwaWtfcHl0aG9uJywgJy1waCcsICc3LjAnLCAnLXRuJywgJzgnLCAnLW1hJywgJzIwMCcsICctbWV0YWxfYmluZGluZycsICctaW1hZScsICc8aW5maWxlLm1hZT4nLCAnLW9tYWUnLCAnPG91dGZpbGUubWFlPic=

> <r_epik_Ionization_Penalty>
6.22371

> <r_epik_Ionization_Penalty_Charging>
6.22362

> <r_epik_Ionization_Penalty_Neutral>
9.40454e-05

> <r_epik_State_Penalty>
6.22363

> <r_epik_Charging_Adjusted_Penalty>
12.4472

> <i_epik_Tot_Q>
0

> <i_epik_Tot_abs_Q>
2

> <r_epik_Metal_State_Penalty>
2.16675

> <b_epik_Metal_Only>
1

> <s_lp_Force_Field>
OPLS_2005

> <r_lp_Energy>
8.88901

> <b_lp_Chiralities_Consistent>
1

> <s_lp_Variant>
AV-unprocessed.smi:2079-8

> <Gold.Version>
5.8.1

> <Gold.Id.Protein>
6NUR|6NUR_protein|mol2

> <Gold.PLP.Fitness>
47.0106

> <Gold.PLP.PLP>
-31.4668

> <Gold.PLP.part.hbond>
-3.9087

> <Gold.PLP.part.metal>
0.0000

> <Gold.PLP.part.buried>
-4.8956

> <Gold.PLP.part.nonpolar>
-23.7019

> <Gold.PLP.part.repulsive>
0.3167

> <Gold.PLP.ligand.clash>
0.0000

> <Gold.PLP.ligand.torsion>
1.1652

> <Gold.PLP.Chemscore.Hbond>
5.9413

> <Gold.PLP.Chemscore.CHOScore>
0.0000

> <Gold.PLP.Chemscore.Metal>
0.0000

> <Gold.Chemscore.Hbonds>
donor molecule, donor type, donor heavy atom, donor atom, acceptor molecule, acceptor atom, score
      L1  H     8    24       P1  7948  1.00
      L1  H    11    41       P1  7948  2.00
      P1  H  7989  7998       L1    19  0.85
      P1  H 10752 10764       L1     5  2.00

> <Gold.PLP.Chemscore.Internal.Correction>
0.0505

> <Gold.Rescore>
     Score         DG    S(hbond)    S(metal)    S(lipo)     H(rot)  DE(clash)    DE(int)     intcor
     17.58     -18.65       3.12        0.00      57.24       1.54       0.07       1.01       ----

> <Gold.Chemscore.Fitness>
17.5793

> <Gold.Chemscore.DG>
-18.6520

> <Gold.Chemscore.ZeroCoef>
-5.4800

> <Gold.Chemscore.Hbond>
3.1197

> <Gold.Chemscore.Metal>
0.0000

> <Gold.Chemscore.Lipo>
57.2365

> <Gold.Chemscore.Internal_Hbond>
0.0000

> <Gold.Chemscore.DEClash>
0.0652

> <Gold.Chemscore.DEInternal>
1.0074

> <Gold.Chemscore.Rot>
1.5409

> <Gold.Chemscore.Internal.Correction>
   9.000000E+99

> <Gold.Chemscore.Hbonds>
donor molecule, donor type, donor heavy atom, donor atom, acceptor molecule, acceptor atom, score
      L1  H     8    24       P1  7948  0.26
      L1  H    11    41       P1  7948  1.00
      P1  H  7989  7998       L1    19  0.12
      P1  H 10752 10764       L1     5  0.44

> <Gold.Chemscore.Hbond.Weighted>
-10.4199

> <Gold.Chemscore.Metal.Weighted>
-0.0000

> <Gold.Chemscore.Lipo.Weighted>
-6.6967

> <Gold.Chemscore.Internal_Hbond.Weighted>
0.0000

> <Gold.Chemscore.DEClash.Weighted>
0.0652

> <Gold.Chemscore.DEInternal.Weighted>
1.0074

> <Gold.Chemscore.Rot.Weighted>
3.9446

> <Gold.Chemscore.Internal.Correction.Weighted>
   9.000000E+99

> <Gold.Protein.RotatedTorsions>
[ 6907 6896 6895 6894 ] final -106.15 input  -60.11 | X-H torsion
[ 7974 7965 7964 7962 ] final  -69.13 input  175.53 | X-H torsion
[ 8008 7997 7996 7995 ] final -138.65 input   59.86 | X-H torsion
[ 10167 10162 10161 10158 ] final  -29.46 input  -65.29 | X-H torsion
[ 10718 10713 10712 10709 ] final -118.98 input   66.30 | X-H torsion
[ 10763 10752 10751 10750 ] final  -56.53 input  -60.55 | X-H torsion
[ 11005 11000 10999 10996 ] final -179.44 input  -57.11 | X-H torsion

> <Gold.Protein.ActiveResidues>
 VAL166  LYS551  ARG553  GLY616  TRP617  ASP618  TYR619  PRO620  LYS621  CYS622 
 ASP623  PHE694  ASN695  SER759  ASP760  ASP761  ALA762  ILE779  LEU786  VAL792 
 PHE793  MET794  SER795  GLU796  ALA797  LYS798  CYS799  TRP800  GLU811  SER814 

> <Gold.Protein.RotatedAtoms>
  150.7374  134.0020  159.3641 H   0  0  0  0  0  0  0  0  0  0  0  0  # atno 6907 bound_to 6896
  151.7974  135.0716  160.0405 H   0  0  0  0  0  0  0  0  0  0  0  0  # atno 6908 bound_to 6896
  152.3165  133.5771  159.5751 H   0  0  0  0  0  0  0  0  0  0  0  0  # atno 6909 bound_to 6896
  145.7077  140.9091  143.0697 H   0  0  0  0  0  0  0  0  0  0  0  0  # atno 7974 bound_to 7965
  155.4319  140.0525  157.3018 H   0  0  0  0  0  0  0  0  0  0  0  0  # atno 8008 bound_to 7997
  154.4856  140.2099  155.9621 H   0  0  0  0  0  0  0  0  0  0  0  0  # atno 8009 bound_to 7997
  156.1270  140.3178  155.8297 H   0  0  0  0  0  0  0  0  0  0  0  0  # atno 8010 bound_to 7997
  140.7260  143.3927  151.1401 H   0  0  0  0  0  0  0  0  0  0  0  0  # atno 10167 bound_to 10162
  156.1147  130.6276  150.9360 H   0  0  0  0  0  0  0  0  0  0  0  0  # atno 10718 bound_to 10713
  154.2081  135.6399  153.5107 H   0  0  0  0  0  0  0  0  0  0  0  0  # atno 10763 bound_to 10752
  152.9996  135.5467  154.6244 H   0  0  0  0  0  0  0  0  0  0  0  0  # atno 10764 bound_to 10752
  154.5674  135.2914  155.0834 H   0  0  0  0  0  0  0  0  0  0  0  0  # atno 10765 bound_to 10752
  140.4186  134.6627  157.4652 H   0  0  0  0  0  0  0  0  0  0  0  0  # atno 11005 bound_to 11000
  144.6950  139.9032  143.7459 LP  0  0  0  0  0  0  0  0  0  0  0  0  # atno 17320 bound_to 7965
  146.0741  139.3729  143.0505 LP  0  0  0  0  0  0  0  0  0  0  0  0  # atno 17321 bound_to 7965
  139.7535  143.8743  152.3083 LP  0  0  0  0  0  0  0  0  0  0  0  0  # atno 17342 bound_to 10162
  139.8605  144.7120  150.9106 LP  0  0  0  0  0  0  0  0  0  0  0  0  # atno 17343 bound_to 10162
  157.6330  131.0919  150.8404 LP  0  0  0  0  0  0  0  0  0  0  0  0  # atno 17370 bound_to 10713
  156.8510  130.5080  149.5312 LP  0  0  0  0  0  0  0  0  0  0  0  0  # atno 17371 bound_to 10713
  140.0216  134.6538  155.9231 LP  0  0  0  0  0  0  0  0  0  0  0  0  # atno 17394 bound_to 11000
  141.1793  133.6544  156.4955 LP  0  0  0  0  0  0  0  0  0  0  0  0  # atno 17395 bound_to 11000

$$$$
