AV-unprocessed.smi:1802|AV-procd|sdf|7274|dock6
  -GOLD-   22720 8533D 1   1.00000     0.00000
 Structure written by MMmdl.
 41 42  0  0  0  0  0  0  0  0  2 V2000
  152.1131  145.0199  158.8248 C   0  0  0  0  0  0  0  0  0  0  0  0
  152.3256  143.5906  158.3067 C   0  0  1  0  0  0  0  0  0  0  0  0
  152.5593  142.6033  159.4626 C   0  0  0  0  0  0  0  0  0  0  0  0
  152.7403  141.1808  158.9187 C   0  0  0  0  0  0  0  0  0  0  0  0
  151.5506  140.7745  158.0347 C   0  0  0  0  0  0  0  0  0  0  0  0
  151.3564  141.7421  156.9242 N   0  3  1  0  0  0  0  0  0  0  0  0
  150.3074  141.3022  155.9700 C   0  0  0  0  0  0  0  0  0  0  0  0
  150.6636  139.9733  155.2824 C   0  0  0  0  0  0  0  0  0  0  0  0
  149.5311  139.4658  154.3742 C   0  0  0  0  0  0  0  0  0  0  0  0
  149.5944  138.0203  154.1888 N   0  0  0  0  0  0  0  0  0  0  0  0
  149.8435  137.1348  155.1647 C   0  0  0  0  0  0  0  0  0  0  0  0
  150.0650  137.4604  156.3314 O   0  0  0  0  0  0  0  0  0  0  0  0
  149.8171  135.8731  154.7000 N   0  0  0  0  0  0  0  0  0  0  0  0
  150.0259  134.6668  155.4202 C   0  0  0  0  0  0  0  0  0  0  0  0
  150.5227  134.6209  156.6664 N   0  0  0  0  0  0  0  0  0  0  0  0
  150.6247  133.3183  157.1377 N   0  0  0  0  0  0  0  0  0  0  0  0
  150.2021  132.4341  156.2297 C   0  0  0  0  0  0  0  0  0  0  0  0
  149.6391  133.1066  154.7091 S   0  0  0  0  0  0  0  0  0  0  0  0
  151.1425  143.1229  157.4351 C   0  0  0  0  0  0  0  0  0  0  0  0
  151.2277  145.0860  159.4581 H   0  0  0  0  0  0  0  0  0  0  0  0
  151.9863  145.7220  158.0001 H   0  0  0  0  0  0  0  0  0  0  0  0
  152.9684  145.3554  159.4120 H   0  0  0  0  0  0  0  0  0  0  0  0
  153.2206  143.5983  157.6827 H   0  0  0  0  0  0  0  0  0  0  0  0
  153.4386  142.8949  160.0379 H   0  0  0  0  0  0  0  0  0  0  0  0
  151.7138  142.6274  160.1516 H   0  0  0  0  0  0  0  0  0  0  0  0
  153.6636  141.1227  158.3406 H   0  0  0  0  0  0  0  0  0  0  0  0
  152.8486  140.4776  159.7451 H   0  0  0  0  0  0  0  0  0  0  0  0
  151.7329  139.7779  157.6306 H   0  0  0  0  0  0  0  0  0  0  0  0
  150.6390  140.7145  158.6317 H   0  0  0  0  0  0  0  0  0  0  0  0
  149.3715  141.1559  156.5112 H   0  0  0  0  0  0  0  0  0  0  0  0
  150.1169  142.0849  155.2341 H   0  0  0  0  0  0  0  0  0  0  0  0
  151.5707  140.0813  154.6879 H   0  0  0  0  0  0  0  0  0  0  0  0
  150.8827  139.2262  156.0466 H   0  0  0  0  0  0  0  0  0  0  0  0
  148.5579  139.7437  154.7827 H   0  0  0  0  0  0  0  0  0  0  0  0
  149.6009  139.9376  153.3939 H   0  0  0  0  0  0  0  0  0  0  0  0
  149.4230  137.6704  153.2572 H   0  0  0  0  0  0  0  0  0  0  0  0
  149.6176  135.7605  153.7170 H   0  0  0  0  0  0  0  0  0  0  0  0
  150.2222  131.3786  156.4575 H   0  0  0  0  0  0  0  0  0  0  0  0
  150.2143  143.1577  158.0085 H   0  0  0  0  0  0  0  0  0  0  0  0
  151.0218  143.8144  156.6017 H   0  0  0  0  0  0  0  0  0  0  0  0
  152.2244  141.7498  156.4075 H   0  0  0  0  0  0  0  0  0  0  0  0
  1  2  1  0  0  0  0
  1 20  1  0  0  0  0
  1 21  1  0  0  0  0
  1 22  1  0  0  0  0
  2 19  1  0  0  0  0
  2  3  1  0  0  0  0
  2 23  1  0  0  0  0
  3  4  1  0  0  0  0
  3 24  1  0  0  0  0
  3 25  1  0  0  0  0
  4  5  1  0  0  0  0
  4 26  1  0  0  0  0
  4 27  1  0  0  0  0
  5  6  1  0  0  0  0
  5 28  1  0  0  0  0
  5 29  1  0  0  0  0
  6  7  1  0  0  0  0
  6 19  1  0  0  0  0
  6 41  1  0  0  0  0
  7  8  1  0  0  0  0
  7 30  1  0  0  0  0
  7 31  1  0  0  0  0
  8  9  1  0  0  0  0
  8 32  1  0  0  0  0
  8 33  1  0  0  0  0
  9 10  1  0  0  0  0
  9 34  1  0  0  0  0
  9 35  1  0  0  0  0
 10 11  1  0  0  0  0
 10 36  1  0  0  0  0
 11 12  2  0  0  0  0
 11 13  1  0  0  0  0
 13 14  1  0  0  0  0
 13 37  1  0  0  0  0
 14 18  1  0  0  0  0
 14 15  2  0  0  0  0
 15 16  1  0  0  0  0
 16 17  2  0  0  0  0
 17 18  1  0  0  0  0
 17 38  1  0  0  0  0
 19 39  1  0  0  0  0
 19 40  1  0  0  0  0
M  CHG  1   6   1
M  END
> <s_m_source_file>
AV-unprocessed.smi

> <i_m_source_file_index>
1802

> <i_lp_mmshare_version>
43012

> <i_f3d_flags>
0

> <s_epik_input>
W0NIM11bQ0BASF0xW0NIMl1bQ0gyXVtDSDJdTihbQ0gyXTEpW0NIMl1bQ0gyXVtDSDJdW05IXUMoPU8pW05IXWMybm5bY0hdczI=

> <s_epik_cmdline>
J2VwaWtfcHl0aG9uJywgJy1waCcsICc3LjAnLCAnLXRuJywgJzgnLCAnLW1hJywgJzIwMCcsICctbWV0YWxfYmluZGluZycsICctaW1hZScsICc8aW5maWxlLm1hZT4nLCAnLW9tYWUnLCAnPG91dGZpbGUubWFlPic=

> <r_lp_tautomer_probability>
1

> <r_epik_Ionization_Penalty>
0.00272894

> <r_epik_Ionization_Penalty_Charging>
0.000288442

> <r_epik_Ionization_Penalty_Neutral>
0.0024405

> <r_epik_State_Penalty>
-0

> <r_epik_Charging_Adjusted_Penalty>
0.000288442

> <i_epik_Tot_Q>
1

> <i_epik_Tot_abs_Q>
1

> <r_epik_Metal_State_Penalty>
0.350525

> <b_epik_Metal_Only>
0

> <s_lp_Force_Field>
OPLS_2005

> <r_lp_Energy>
15.2014

> <b_lp_Chiralities_Consistent>
1

> <s_lp_Variant>
AV-unprocessed.smi:1802-4

> <Gold.Version>
5.8.1

> <Gold.Id.Protein>
6NUR|6NUR_protein|mol2

> <Gold.PLP.Fitness>
45.3945

> <Gold.PLP.PLP>
-37.6166

> <Gold.PLP.part.hbond>
-3.0000

> <Gold.PLP.part.metal>
0.0000

> <Gold.PLP.part.buried>
-3.8083

> <Gold.PLP.part.nonpolar>
-31.5906

> <Gold.PLP.part.repulsive>
0.1699

> <Gold.PLP.ligand.clash>
0.0000

> <Gold.PLP.ligand.torsion>
0.3099

> <Gold.PLP.Chemscore.Hbond>
2.7862

> <Gold.PLP.Chemscore.CHOScore>
0.0000

> <Gold.PLP.Chemscore.Metal>
0.0000

> <Gold.Chemscore.Hbonds>
donor molecule, donor type, donor heavy atom, donor atom, acceptor molecule, acceptor atom, score
      L1  H    10    36       P1  7948  1.00
      L1  H    13    37       P1  7948  1.00
      P1  H  6896  6909       L1    16  0.67

> <Gold.PLP.Chemscore.Internal.Correction>
0.0390

> <Gold.Rescore>
     Score         DG    S(hbond)    S(metal)    S(lipo)     H(rot)  DE(clash)    DE(int)     intcor
     15.70     -18.80       2.25        0.00      92.86       1.98       0.14       2.97       ----

> <Gold.Chemscore.Fitness>
15.6970

> <Gold.Chemscore.DG>
-18.8034

> <Gold.Chemscore.ZeroCoef>
-5.4800

> <Gold.Chemscore.Hbond>
2.2531

> <Gold.Chemscore.Metal>
0.0000

> <Gold.Chemscore.Lipo>
92.8620

> <Gold.Chemscore.Internal_Hbond>
0.0000

> <Gold.Chemscore.DEClash>
0.1394

> <Gold.Chemscore.DEInternal>
2.9670

> <Gold.Chemscore.Rot>
1.9793

> <Gold.Chemscore.Internal.Correction>
   9.000000E+99

> <Gold.Chemscore.Hbonds>
donor molecule, donor type, donor heavy atom, donor atom, acceptor molecule, acceptor atom, score
      L1  H    10    36       P1  7948  0.87
      L1  H    13    37       P1  7948  0.25
      P1  H  6896  6909       L1    16  0.36

> <Gold.Chemscore.Hbond.Weighted>
-7.5255

> <Gold.Chemscore.Metal.Weighted>
-0.0000

> <Gold.Chemscore.Lipo.Weighted>
-10.8648

> <Gold.Chemscore.Internal_Hbond.Weighted>
0.0000

> <Gold.Chemscore.DEClash.Weighted>
0.1394

> <Gold.Chemscore.DEInternal.Weighted>
2.9670

> <Gold.Chemscore.Rot.Weighted>
5.0670

> <Gold.Chemscore.Internal.Correction.Weighted>
   9.000000E+99

> <Gold.Protein.RotatedTorsions>
[ 6907 6896 6895 6894 ] final  -27.52 input  -60.11 | X-H torsion
[ 7974 7965 7964 7962 ] final  -35.60 input  175.53 | X-H torsion
[ 8008 7997 7996 7995 ] final   82.57 input   59.86 | X-H torsion
[ 10167 10162 10161 10158 ] final  160.25 input  -65.29 | X-H torsion
[ 10718 10713 10712 10709 ] final   52.94 input   66.30 | X-H torsion
[ 10763 10752 10751 10750 ] final -111.37 input  -60.55 | X-H torsion
[ 11005 11000 10999 10996 ] final   80.83 input  -57.11 | X-H torsion

> <Gold.Protein.ActiveResidues>
 VAL166  LYS551  ARG553  GLY616  TRP617  ASP618  TYR619  PRO620  LYS621  CYS622 
 ASP623  PHE694  ASN695  SER759  ASP760  ASP761  ALA762  ILE779  LEU786  VAL792 
 PHE793  MET794  SER795  GLU796  ALA797  LYS798  CYS799  TRP800  GLU811  SER814 

> <Gold.Protein.RotatedAtoms>
  151.1457  135.0202  159.8645 H   0  0  0  0  0  0  0  0  0  0  0  0  # atno 6907 bound_to 6896
  152.5453  134.1447  159.8503 H   0  0  0  0  0  0  0  0  0  0  0  0  # atno 6908 bound_to 6896
  151.1527  133.4851  159.2628 H   0  0  0  0  0  0  0  0  0  0  0  0  # atno 6909 bound_to 6896
  146.0732  140.6179  142.8943 H   0  0  0  0  0  0  0  0  0  0  0  0  # atno 7974 bound_to 7965
  155.9124  140.3426  155.6109 H   0  0  0  0  0  0  0  0  0  0  0  0  # atno 8008 bound_to 7997
  155.7371  140.0803  157.2281 H   0  0  0  0  0  0  0  0  0  0  0  0  # atno 8009 bound_to 7997
  154.4057  140.1577  156.2562 H   0  0  0  0  0  0  0  0  0  0  0  0  # atno 8010 bound_to 7997
  139.4838  144.4652  151.8651 H   0  0  0  0  0  0  0  0  0  0  0  0  # atno 10167 bound_to 10162
  157.5121  130.8508  149.8448 H   0  0  0  0  0  0  0  0  0  0  0  0  # atno 10718 bound_to 10713
  154.8297  135.4530  154.1029 H   0  0  0  0  0  0  0  0  0  0  0  0  # atno 10763 bound_to 10752
  153.2313  135.6906  153.7893 H   0  0  0  0  0  0  0  0  0  0  0  0  # atno 10764 bound_to 10752
  153.7275  135.3332  155.3255 H   0  0  0  0  0  0  0  0  0  0  0  0  # atno 10765 bound_to 10752
  139.9120  134.7951  156.1961 H   0  0  0  0  0  0  0  0  0  0  0  0  # atno 11005 bound_to 11000
  144.7245  140.4480  143.6983 LP  0  0  0  0  0  0  0  0  0  0  0  0  # atno 17320 bound_to 7965
  145.6353  139.1542  143.2946 LP  0  0  0  0  0  0  0  0  0  0  0  0  # atno 17321 bound_to 7965
  140.4117  144.2360  150.5888 LP  0  0  0  0  0  0  0  0  0  0  0  0  # atno 17342 bound_to 10162
  140.4960  143.2332  151.8749 LP  0  0  0  0  0  0  0  0  0  0  0  0  # atno 17343 bound_to 10162
  156.0296  130.3769  150.1725 LP  0  0  0  0  0  0  0  0  0  0  0  0  # atno 17370 bound_to 10713
  156.9915  130.9895  151.3413 LP  0  0  0  0  0  0  0  0  0  0  0  0  # atno 17371 bound_to 10713
  141.0553  133.6868  156.1849 LP  0  0  0  0  0  0  0  0  0  0  0  0  # atno 17394 bound_to 11000
  140.6746  134.4832  157.5588 LP  0  0  0  0  0  0  0  0  0  0  0  0  # atno 17395 bound_to 11000

$$$$
