AV-unprocessed.smi:496|AV-procd|sdf|2723|dock9
  -GOLD-   2262023173D 1   1.00000     0.00000
 Structure written by MMmdl.
 42 44  0  0  0  0  0  0  0  0  3 V2000
  150.8993  138.2722  154.4543 C   0  0  0  0  0  0  0  0  0  0  0  0
  151.4788  139.5447  154.6823 O   0  0  0  0  0  0  0  0  0  0  0  0
  152.1780  139.6063  155.9131 C   0  0  0  0  0  0  0  0  0  0  0  0
  151.2244  140.1136  157.0018 C   0  0  0  0  0  0  0  0  0  0  0  0
  151.9520  140.5039  158.2250 N   0  0  0  0  0  0  0  0  0  0  0  0
  152.6301  139.7614  159.1597 C   0  0  0  0  0  0  0  0  0  0  0  0
  152.8468  138.2709  159.1972 C   0  0  1  0  0  0  0  0  0  0  0  0
  153.5444  137.8064  157.9103 C   0  0  0  0  0  0  0  0  0  0  0  0
  153.6514  137.8807  160.3569 N   0  5  0  0  0  0  0  0  0  0  0  0
  153.9425  136.5931  160.6956 C   0  0  0  0  0  0  0  0  0  0  0  0
  154.1429  135.6133  159.9700 O   0  0  0  0  0  0  0  0  0  0  0  0
  154.0162  136.4016  162.1635 C   0  0  0  0  0  0  0  0  0  0  0  0
  153.6112  137.2254  163.1804 C   0  0  0  0  0  0  0  0  0  0  0  0
  153.9212  136.5597  164.3985 C   0  0  0  0  0  0  0  0  0  0  0  0
  154.4927  135.3724  164.0422 C   0  0  0  0  0  0  0  0  0  0  0  0
  154.5588  135.2594  162.6883 O   0  0  0  0  0  0  0  0  0  0  0  0
  153.1107  140.6389  160.0876 N   0  3  0  0  0  0  0  0  0  0  0  0
  152.7273  141.9391  159.7665 C   0  0  0  0  0  0  0  0  0  0  0  0
  152.9692  143.1457  160.4153 C   0  0  0  0  0  0  0  0  0  0  0  0
  152.4240  144.3027  159.8218 C   0  0  0  0  0  0  0  0  0  0  0  0
  151.6717  144.2316  158.6315 C   0  0  0  0  0  0  0  0  0  0  0  0
  151.4341  143.0015  157.9833 C   0  0  0  0  0  0  0  0  0  0  0  0
  151.9791  141.8612  158.5746 C   0  0  0  0  0  0  0  0  0  0  0  0
  150.3648  138.2772  153.5045 H   0  0  0  0  0  0  0  0  0  0  0  0
  150.1876  138.0152  155.2399 H   0  0  0  0  0  0  0  0  0  0  0  0
  151.6633  137.4951  154.4058 H   0  0  0  0  0  0  0  0  0  0  0  0
  152.5596  138.6176  156.1732 H   0  0  0  0  0  0  0  0  0  0  0  0
  153.0340  140.2776  155.8258 H   0  0  0  0  0  0  0  0  0  0  0  0
  150.6627  140.9760  156.6420 H   0  0  0  0  0  0  0  0  0  0  0  0
  150.4792  139.3590  157.2531 H   0  0  0  0  0  0  0  0  0  0  0  0
  151.8589  137.8090  159.2239 H   0  0  0  0  0  0  0  0  0  0  0  0
  152.9561  138.0713  157.0312 H   0  0  0  0  0  0  0  0  0  0  0  0
  153.6763  136.7237  157.9012 H   0  0  0  0  0  0  0  0  0  0  0  0
  154.5288  138.2632  157.8003 H   0  0  0  0  0  0  0  0  0  0  0  0
  153.1477  138.1935  163.0605 H   0  0  0  0  0  0  0  0  0  0  0  0
  153.7478  136.9058  165.4064 H   0  0  0  0  0  0  0  0  0  0  0  0
  154.8897  134.5340  164.5951 H   0  0  0  0  0  0  0  0  0  0  0  0
  153.5426  143.1992  161.3292 H   0  0  0  0  0  0  0  0  0  0  0  0
  152.5841  145.2629  160.2902 H   0  0  0  0  0  0  0  0  0  0  0  0
  151.2675  145.1391  158.2066 H   0  0  0  0  0  0  0  0  0  0  0  0
  150.8536  142.9596  157.0740 H   0  0  0  0  0  0  0  0  0  0  0  0
  153.6463  140.3450  160.8944 H   0  0  0  0  0  0  0  0  0  0  0  0
  1  2  1  0  0  0  0
  1 24  1  0  0  0  0
  1 25  1  0  0  0  0
  1 26  1  0  0  0  0
  2  3  1  0  0  0  0
  3  4  1  0  0  0  0
  3 27  1  0  0  0  0
  3 28  1  0  0  0  0
  4  5  1  0  0  0  0
  4 29  1  0  0  0  0
  4 30  1  0  0  0  0
  5 23  1  0  0  0  0
  5  6  1  0  0  0  0
  6  7  1  0  0  0  0
  6 17  2  0  0  0  0
  7  8  1  0  0  0  0
  7  9  1  0  0  0  0
  7 31  1  0  0  0  0
  8 32  1  0  0  0  0
  8 33  1  0  0  0  0
  8 34  1  0  0  0  0
  9 10  1  0  0  0  0
 10 11  2  0  0  0  0
 10 12  1  0  0  0  0
 12 16  1  0  0  0  0
 12 13  2  0  0  0  0
 13 14  1  0  0  0  0
 13 35  1  0  0  0  0
 14 15  2  0  0  0  0
 14 36  1  0  0  0  0
 15 16  1  0  0  0  0
 15 37  1  0  0  0  0
 17 18  1  0  0  0  0
 17 42  1  0  0  0  0
 18 23  2  0  0  0  0
 18 19  1  0  0  0  0
 19 20  2  0  0  0  0
 19 38  1  0  0  0  0
 20 21  1  0  0  0  0
 20 39  1  0  0  0  0
 21 22  2  0  0  0  0
 21 40  1  0  0  0  0
 22 23  1  0  0  0  0
 22 41  1  0  0  0  0
M  CHG  1   9  -1
M  CHG  1  17   1
M  END
> <s_m_source_file>
AV-unprocessed.smi

> <i_m_source_file_index>
496

> <i_lp_mmshare_version>
43012

> <i_f3d_flags>
0

> <s_epik_input>
W2NIXTFbY0hdW2NIXVtjSF1jKGMxMiluKFtDSDJdW0NIMl1PW0NIM10pYyhuMilbQ0BIXShbQ0gzXSlbTkhdQyg9TyljM1tjSF1bY0hdW2NIXW8z

> <s_epik_cmdline>
J2VwaWtfcHl0aG9uJywgJy1waCcsICc3LjAnLCAnLXRuJywgJzgnLCAnLW1hJywgJzIwMCcsICctbWV0YWxfYmluZGluZycsICctaW1hZScsICc8aW5maWxlLm1hZT4nLCAnLW9tYWUnLCAnPG91dGZpbGUubWFlPic=

> <r_epik_Ionization_Penalty>
6.2189

> <r_epik_Ionization_Penalty_Charging>
6.2189

> <r_epik_Ionization_Penalty_Neutral>
2.56052e-12

> <r_epik_State_Penalty>
7.14475

> <r_epik_Charging_Adjusted_Penalty>
13.3636

> <i_epik_Tot_Q>
0

> <i_epik_Tot_abs_Q>
2

> <r_epik_Metal_State_Penalty>
3.17915

> <b_epik_Metal_Only>
1

> <s_lp_Force_Field>
OPLS_2005

> <r_lp_Energy>
11.4028

> <b_lp_Chiralities_Consistent>
1

> <s_lp_Variant>
AV-unprocessed.smi:496-8

> <Gold.Version>
5.8.1

> <Gold.Id.Protein>
6NUR|6NUR_protein|mol2

> <Gold.PLP.Fitness>
55.3391

> <Gold.PLP.PLP>
-50.4734

> <Gold.PLP.part.hbond>
-2.0000

> <Gold.PLP.part.metal>
0.0000

> <Gold.PLP.part.buried>
-6.5690

> <Gold.PLP.part.nonpolar>
-42.0668

> <Gold.PLP.part.repulsive>
0.1794

> <Gold.PLP.ligand.clash>
0.0000

> <Gold.PLP.ligand.torsion>
0.6515

> <Gold.PLP.Chemscore.Hbond>
2.0000

> <Gold.PLP.Chemscore.CHOScore>
0.0000

> <Gold.PLP.Chemscore.Metal>
0.0000

> <Gold.Chemscore.Hbonds>
donor molecule, donor type, donor heavy atom, donor atom, acceptor molecule, acceptor atom, score
      P1  H  6896  6907       L1    11  1.00
      P1  H  7989  7998       L1     2  1.00

> <Gold.PLP.Chemscore.Internal.Correction>
0.1686

> <Gold.Rescore>
     Score         DG    S(hbond)    S(metal)    S(lipo)     H(rot)  DE(clash)    DE(int)     intcor
     22.12     -22.82       1.96        0.00     132.56       1.83       0.03       0.67       ----

> <Gold.Chemscore.Fitness>
22.1226

> <Gold.Chemscore.DG>
-22.8238

> <Gold.Chemscore.ZeroCoef>
-5.4800

> <Gold.Chemscore.Hbond>
1.9552

> <Gold.Chemscore.Metal>
0.0000

> <Gold.Chemscore.Lipo>
132.5569

> <Gold.Chemscore.Internal_Hbond>
0.0000

> <Gold.Chemscore.DEClash>
0.0298

> <Gold.Chemscore.DEInternal>
0.6715

> <Gold.Chemscore.Rot>
1.8343

> <Gold.Chemscore.Internal.Correction>
   9.000000E+99

> <Gold.Chemscore.Hbonds>
donor molecule, donor type, donor heavy atom, donor atom, acceptor molecule, acceptor atom, score
      P1  H  6896  6907       L1    11  0.60
      P1  H  7989  7998       L1     2  0.97

> <Gold.Chemscore.Hbond.Weighted>
-6.5304

> <Gold.Chemscore.Metal.Weighted>
-0.0000

> <Gold.Chemscore.Lipo.Weighted>
-15.5092

> <Gold.Chemscore.Internal_Hbond.Weighted>
0.0000

> <Gold.Chemscore.DEClash.Weighted>
0.0298

> <Gold.Chemscore.DEInternal.Weighted>
0.6715

> <Gold.Chemscore.Rot.Weighted>
4.6958

> <Gold.Chemscore.Internal.Correction.Weighted>
   9.000000E+99

> <Gold.Protein.RotatedTorsions>
[ 6907 6896 6895 6894 ] final   68.63 input  -60.11 | X-H torsion
[ 7974 7965 7964 7962 ] final -173.50 input  175.53 | X-H torsion
[ 8008 7997 7996 7995 ] final   37.31 input   59.86 | X-H torsion
[ 10167 10162 10161 10158 ] final -162.68 input  -65.29 | X-H torsion
[ 10718 10713 10712 10709 ] final  127.50 input   66.30 | X-H torsion
[ 10763 10752 10751 10750 ] final -112.59 input  -60.55 | X-H torsion
[ 11005 11000 10999 10996 ] final  128.14 input  -57.11 | X-H torsion

> <Gold.Protein.ActiveResidues>
 VAL166  LYS551  ARG553  GLY616  TRP617  ASP618  TYR619  PRO620  LYS621  CYS622 
 ASP623  PHE694  ASN695  SER759  ASP760  ASP761  ALA762  ILE779  LEU786  VAL792 
 PHE793  MET794  SER795  GLU796  ALA797  LYS798  CYS799  TRP800  GLU811  SER814 

> <Gold.Protein.RotatedAtoms>
  152.4633  134.5134  159.9760 H   0  0  0  0  0  0  0  0  0  0  0  0  # atno 6907 bound_to 6896
  151.5178  133.3466  159.2904 H   0  0  0  0  0  0  0  0  0  0  0  0  # atno 6908 bound_to 6896
  150.8605  134.7985  159.7141 H   0  0  0  0  0  0  0  0  0  0  0  0  # atno 6909 bound_to 6896
  144.7137  140.1613  143.6376 H   0  0  0  0  0  0  0  0  0  0  0  0  # atno 7974 bound_to 7965
  155.2017  140.3316  155.4342 H   0  0  0  0  0  0  0  0  0  0  0  0  # atno 8008 bound_to 7997
  156.2404  140.1892  156.7053 H   0  0  0  0  0  0  0  0  0  0  0  0  # atno 8009 bound_to 7997
  154.6137  140.0605  156.9513 H   0  0  0  0  0  0  0  0  0  0  0  0  # atno 8010 bound_to 7997
  139.6374  144.0323  152.2065 H   0  0  0  0  0  0  0  0  0  0  0  0  # atno 10167 bound_to 10162
  157.5327  131.1098  150.8984 H   0  0  0  0  0  0  0  0  0  0  0  0  # atno 10718 bound_to 10713
  154.8357  135.4485  154.1218 H   0  0  0  0  0  0  0  0  0  0  0  0  # atno 10763 bound_to 10752
  153.2452  135.6920  153.7745 H   0  0  0  0  0  0  0  0  0  0  0  0  # atno 10764 bound_to 10752
  153.7078  135.3361  155.3215 H   0  0  0  0  0  0  0  0  0  0  0  0  # atno 10765 bound_to 10752
  139.9545  134.9616  156.8958 H   0  0  0  0  0  0  0  0  0  0  0  0  # atno 11005 bound_to 11000
  145.9028  139.2440  143.1483 LP  0  0  0  0  0  0  0  0  0  0  0  0  # atno 17320 bound_to 7965
  145.9794  140.8695  143.0122 LP  0  0  0  0  0  0  0  0  0  0  0  0  # atno 17321 bound_to 7965
  140.0004  144.6297  150.7735 LP  0  0  0  0  0  0  0  0  0  0  0  0  # atno 17342 bound_to 10162
  140.7473  143.2904  151.3347 LP  0  0  0  0  0  0  0  0  0  0  0  0  # atno 17343 bound_to 10162
  156.9560  130.5437  149.5284 LP  0  0  0  0  0  0  0  0  0  0  0  0  # atno 17370 bound_to 10713
  156.0435  130.5514  150.8826 LP  0  0  0  0  0  0  0  0  0  0  0  0  # atno 17371 bound_to 10713
  140.5642  134.0505  155.7409 LP  0  0  0  0  0  0  0  0  0  0  0  0  # atno 17394 bound_to 11000
  141.1214  133.9456  157.2723 LP  0  0  0  0  0  0  0  0  0  0  0  0  # atno 17395 bound_to 11000

$$$$
