AV-unprocessed.smi:3147|AV-procd|sdf|11990|dock3
  -GOLD-   2272017393D 1   1.00000     0.00000
 Structure written by MMmdl.
 36 37  0  0  0  0  0  0  0  0  1 V2000
  152.7525  143.7273  162.6014 C   0  0  0  0  0  0  0  0  0  0  0  0
  152.6192  143.2074  161.2028 C   0  0  0  0  0  0  0  0  0  0  0  0
  153.2984  142.0572  160.8083 N   0  0  0  0  0  0  0  0  0  0  0  0
  152.9497  141.9016  159.5392 C   0  0  0  0  0  0  0  0  0  0  0  0
  152.1147  142.8398  159.0729 N   0  0  0  0  0  0  0  0  0  0  0  0
  151.5714  142.9198  157.7248 C   0  0  0  0  0  0  0  0  0  0  0  0
  151.0230  141.5791  157.2208 C   0  0  0  0  0  0  0  0  0  0  0  0
  150.8499  140.6309  157.9882 O   0  0  0  0  0  0  0  0  0  0  0  0
  150.7455  141.5200  155.9098 N   0  0  0  0  0  0  0  0  0  0  0  0
  150.2091  140.3546  155.2160 C   0  0  0  0  0  0  0  0  0  0  0  0
  148.7585  140.5810  154.7587 C   0  0  1  0  0  0  0  0  0  0  0  0
  147.8183  141.0057  155.8825 C   0  0  0  0  0  0  0  0  0  0  0  0
  146.6841  141.6339  155.1037 C   0  0  0  0  0  0  0  0  0  0  0  0
  147.4125  142.3012  153.9366 C   0  0  0  0  0  0  0  0  0  0  0  0
  148.6809  141.6573  153.8305 O   0  0  0  0  0  0  0  0  0  0  0  0
  151.8829  143.7011  160.1446 C   0  0  0  0  0  0  0  0  0  0  0  0
  150.9876  144.8959  160.0509 C   0  0  0  0  0  0  0  0  0  0  0  0
  152.1737  144.6369  162.7567 H   0  0  0  0  0  0  0  0  0  0  0  0
  153.7919  143.9580  162.8356 H   0  0  0  0  0  0  0  0  0  0  0  0
  152.4061  142.9911  163.3271 H   0  0  0  0  0  0  0  0  0  0  0  0
  153.3125  141.0846  158.9327 H   0  0  0  0  0  0  0  0  0  0  0  0
  150.7797  143.6691  157.7016 H   0  0  0  0  0  0  0  0  0  0  0  0
  152.3583  143.2678  157.0539 H   0  0  0  0  0  0  0  0  0  0  0  0
  150.9209  142.3414  155.3494 H   0  0  0  0  0  0  0  0  0  0  0  0
  150.8407  140.1132  154.3594 H   0  0  0  0  0  0  0  0  0  0  0  0
  150.2614  139.4988  155.8897 H   0  0  0  0  0  0  0  0  0  0  0  0
  148.3599  139.6841  154.2811 H   0  0  0  0  0  0  0  0  0  0  0  0
  147.4984  140.1723  156.5088 H   0  0  0  0  0  0  0  0  0  0  0  0
  148.2930  141.7529  156.5203 H   0  0  0  0  0  0  0  0  0  0  0  0
  146.0159  140.8563  154.7313 H   0  0  0  0  0  0  0  0  0  0  0  0
  146.0941  142.3344  155.6953 H   0  0  0  0  0  0  0  0  0  0  0  0
  146.8507  142.2133  153.0063 H   0  0  0  0  0  0  0  0  0  0  0  0
  147.5754  143.3611  154.1341 H   0  0  0  0  0  0  0  0  0  0  0  0
  150.8818  145.3952  161.0130 H   0  0  0  0  0  0  0  0  0  0  0  0
  149.9905  144.6075  159.7178 H   0  0  0  0  0  0  0  0  0  0  0  0
  151.3841  145.6220  159.3410 H   0  0  0  0  0  0  0  0  0  0  0  0
  1  2  1  0  0  0  0
  1 18  1  0  0  0  0
  1 19  1  0  0  0  0
  1 20  1  0  0  0  0
  2 16  2  0  0  0  0
  2  3  1  0  0  0  0
  3  4  2  0  0  0  0
  4  5  1  0  0  0  0
  4 21  1  0  0  0  0
  5  6  1  0  0  0  0
  5 16  1  0  0  0  0
  6  7  1  0  0  0  0
  6 22  1  0  0  0  0
  6 23  1  0  0  0  0
  7  8  2  0  0  0  0
  7  9  1  0  0  0  0
  9 10  1  0  0  0  0
  9 24  1  0  0  0  0
 10 11  1  0  0  0  0
 10 25  1  0  0  0  0
 10 26  1  0  0  0  0
 11 15  1  0  0  0  0
 11 12  1  0  0  0  0
 11 27  1  0  0  0  0
 12 13  1  0  0  0  0
 12 28  1  0  0  0  0
 12 29  1  0  0  0  0
 13 14  1  0  0  0  0
 13 30  1  0  0  0  0
 13 31  1  0  0  0  0
 14 15  1  0  0  0  0
 14 32  1  0  0  0  0
 14 33  1  0  0  0  0
 16 17  1  0  0  0  0
 17 34  1  0  0  0  0
 17 35  1  0  0  0  0
 17 36  1  0  0  0  0
M  END
> <s_m_source_file>
AV-unprocessed.smi

> <i_m_source_file_index>
3147

> <i_lp_mmshare_version>
43012

> <i_f3d_flags>
0

> <s_epik_input>
W0NIM11jMW5bY0hdbihjMVtDSDNdKVtDSDJdQyg9TylbTkhdW0NIMl1bQ0BASF0yW0NIMl1bQ0gyXVtDSDJdTzI=

> <s_epik_cmdline>
J2VwaWtfcHl0aG9uJywgJy1waCcsICc3LjAnLCAnLXRuJywgJzgnLCAnLW1hJywgJzIwMCcsICctbWV0YWxfYmluZGluZycsICctaW1hZScsICc8aW5maWxlLm1hZT4nLCAnLW9tYWUnLCAnPG91dGZpbGUubWFlPic=

> <r_lp_tautomer_probability>
1

> <r_epik_Ionization_Penalty>
0.957393

> <r_epik_Ionization_Penalty_Charging>
0.957393

> <r_epik_Ionization_Penalty_Neutral>
1.43432e-07

> <r_epik_State_Penalty>
1.0022

> <r_epik_Charging_Adjusted_Penalty>
1.9596

> <i_epik_Tot_Q>
0

> <i_epik_Tot_abs_Q>
0

> <r_epik_Metal_State_Penalty>
0.374967

> <b_epik_Metal_Only>
0

> <s_lp_Force_Field>
OPLS_2005

> <r_lp_Energy>
18.0511

> <b_lp_Chiralities_Consistent>
1

> <s_lp_Variant>
AV-unprocessed.smi:3147-4

> <Gold.Version>
5.8.1

> <Gold.Id.Protein>
6NUR|6NUR_protein|mol2

> <Gold.PLP.Fitness>
38.7116

> <Gold.PLP.PLP>
-37.4870

> <Gold.PLP.part.hbond>
-1.0000

> <Gold.PLP.part.metal>
0.0000

> <Gold.PLP.part.buried>
-5.9436

> <Gold.PLP.part.nonpolar>
-30.4052

> <Gold.PLP.part.repulsive>
0.3278

> <Gold.PLP.ligand.clash>
0.0000

> <Gold.PLP.ligand.torsion>
0.3366

> <Gold.PLP.Chemscore.Hbond>
0.6240

> <Gold.PLP.Chemscore.CHOScore>
0.0000

> <Gold.PLP.Chemscore.Metal>
0.0000

> <Gold.Chemscore.Hbonds>
donor molecule, donor type, donor heavy atom, donor atom, acceptor molecule, acceptor atom, score
      P1  H  8011  8017       L1    15  0.62

> <Gold.PLP.Chemscore.Internal.Correction>
0.0257

> <Gold.Rescore>
     Score         DG    S(hbond)    S(metal)    S(lipo)     H(rot)  DE(clash)    DE(int)     intcor
     10.73     -12.47       0.48        0.00      83.32       1.70       0.22       1.52       ----

> <Gold.Chemscore.Fitness>
10.7268

> <Gold.Chemscore.DG>
-12.4664

> <Gold.Chemscore.ZeroCoef>
-5.4800

> <Gold.Chemscore.Hbond>
0.4785

> <Gold.Chemscore.Metal>
0.0000

> <Gold.Chemscore.Lipo>
83.3249

> <Gold.Chemscore.Internal_Hbond>
0.0000

> <Gold.Chemscore.DEClash>
0.2242

> <Gold.Chemscore.DEInternal>
1.5155

> <Gold.Chemscore.Rot>
1.7034

> <Gold.Chemscore.Internal.Correction>
   9.000000E+99

> <Gold.Chemscore.Hbonds>
donor molecule, donor type, donor heavy atom, donor atom, acceptor molecule, acceptor atom, score
      P1  H  8011  8017       L1    15  0.49

> <Gold.Chemscore.Hbond.Weighted>
-1.5981

> <Gold.Chemscore.Metal.Weighted>
-0.0000

> <Gold.Chemscore.Lipo.Weighted>
-9.7490

> <Gold.Chemscore.Internal_Hbond.Weighted>
0.0000

> <Gold.Chemscore.DEClash.Weighted>
0.2242

> <Gold.Chemscore.DEInternal.Weighted>
1.5155

> <Gold.Chemscore.Rot.Weighted>
4.3607

> <Gold.Chemscore.Internal.Correction.Weighted>
   9.000000E+99

> <Gold.Protein.RotatedTorsions>
[ 6907 6896 6895 6894 ] final -163.35 input  -60.11 | X-H torsion
[ 7974 7965 7964 7962 ] final  136.90 input  175.53 | X-H torsion
[ 8008 7997 7996 7995 ] final  -48.48 input   59.86 | X-H torsion
[ 10167 10162 10161 10158 ] final   99.05 input  -65.29 | X-H torsion
[ 10718 10713 10712 10709 ] final  107.66 input   66.30 | X-H torsion
[ 10763 10752 10751 10750 ] final   59.41 input  -60.55 | X-H torsion
[ 11005 11000 10999 10996 ] final   89.46 input  -57.11 | X-H torsion

> <Gold.Protein.ActiveResidues>
 VAL166  LYS551  ARG553  GLY616  TRP617  ASP618  TYR619  PRO620  LYS621  CYS622 
 ASP623  PHE694  ASN695  SER759  ASP760  ASP761  ALA762  ILE779  LEU786  VAL792 
 PHE793  MET794  SER795  GLU796  ALA797  LYS798  CYS799  TRP800  GLU811  SER814 

> <Gold.Protein.RotatedAtoms>
  151.3947  133.3777  159.2724 H   0  0  0  0  0  0  0  0  0  0  0  0  # atno 6907 bound_to 6896
  150.9478  134.8882  159.7663 H   0  0  0  0  0  0  0  0  0  0  0  0  # atno 6908 bound_to 6896
  152.5099  134.3901  159.9433 H   0  0  0  0  0  0  0  0  0  0  0  0  # atno 6909 bound_to 6896
  144.9520  139.4808  143.5521 H   0  0  0  0  0  0  0  0  0  0  0  0  # atno 7974 bound_to 7965
  154.4029  140.1320  156.4346 H   0  0  0  0  0  0  0  0  0  0  0  0  # atno 8008 bound_to 7997
  155.7518  140.3488  155.5134 H   0  0  0  0  0  0  0  0  0  0  0  0  # atno 8009 bound_to 7997
  155.8943  140.1008  157.1386 H   0  0  0  0  0  0  0  0  0  0  0  0  # atno 8010 bound_to 7997
  139.7653  144.6941  151.0234 H   0  0  0  0  0  0  0  0  0  0  0  0  # atno 10167 bound_to 10162
  157.6619  131.0877  150.6189 H   0  0  0  0  0  0  0  0  0  0  0  0  # atno 10718 bound_to 10713
  152.9894  135.5572  154.5708 H   0  0  0  0  0  0  0  0  0  0  0  0  # atno 10763 bound_to 10752
  154.5109  135.2802  155.1345 H   0  0  0  0  0  0  0  0  0  0  0  0  # atno 10764 bound_to 10752
  154.2737  135.6358  153.5373 H   0  0  0  0  0  0  0  0  0  0  0  0  # atno 10765 bound_to 10752
  139.8875  134.8553  156.3145 H   0  0  0  0  0  0  0  0  0  0  0  0  # atno 11005 bound_to 11000
  146.3324  139.8611  142.8856 LP  0  0  0  0  0  0  0  0  0  0  0  0  # atno 17320 bound_to 7965
  145.2830  141.0144  143.3706 LP  0  0  0  0  0  0  0  0  0  0  0  0  # atno 17321 bound_to 7965
  140.7810  143.4650  151.0224 LP  0  0  0  0  0  0  0  0  0  0  0  0  # atno 17342 bound_to 10162
  139.8335  143.7658  152.3180 LP  0  0  0  0  0  0  0  0  0  0  0  0  # atno 17343 bound_to 10162
  156.6492  130.4480  149.5725 LP  0  0  0  0  0  0  0  0  0  0  0  0  # atno 17370 bound_to 10713
  156.2150  130.6702  151.1310 LP  0  0  0  0  0  0  0  0  0  0  0  0  # atno 17371 bound_to 10713
  140.9828  133.7257  156.0697 LP  0  0  0  0  0  0  0  0  0  0  0  0  # atno 17394 bound_to 11000
  140.7727  134.3814  157.5504 LP  0  0  0  0  0  0  0  0  0  0  0  0  # atno 17395 bound_to 11000

$$$$
