AV-unprocessed.smi:3303|AV-procd|sdf|12672|dock1
  -GOLD-   2272019 03D 1   1.00000     0.00000
 Structure written by MMmdl.
 45 46  0  0  0  0  0  0  0  0  3 V2000
  142.8491  136.4369  154.9783 C   0  0  0  0  0  0  0  0  0  0  0  0
  143.7417  137.6346  154.6070 C   0  0  1  0  0  0  0  0  0  0  0  0
  143.4293  138.8332  155.5262 C   0  0  0  0  0  0  0  0  0  0  0  0
  144.2561  140.0248  155.2013 N   0  3  1  0  0  0  0  0  0  0  0  0
  143.8294  141.1985  156.0017 C   0  0  0  0  0  0  0  0  0  0  0  0
  145.7175  139.7287  155.2866 C   0  0  2  0  0  0  0  0  0  0  0  0
  146.5927  140.9449  154.9255 C   0  0  0  0  0  0  0  0  0  0  0  0
  146.0734  138.5439  154.3649 C   0  0  0  0  0  0  0  0  0  0  0  0
  145.2442  137.2886  154.6779 C   0  0  2  0  0  0  0  0  0  0  0  0
  145.5886  136.2161  153.7162 N   0  3  0  0  0  0  0  0  0  0  0  0
  144.8827  136.2949  152.4218 C   0  0  0  0  0  0  0  0  0  0  0  0
  145.7055  135.6368  151.3062 C   0  0  0  0  0  0  0  0  0  0  0  0
  145.2366  134.2266  151.0049 C   0  0  0  0  0  0  0  0  0  0  0  0
  143.9008  133.9763  150.6253 C   0  0  0  0  0  0  0  0  0  0  0  0
  143.5160  132.6464  150.3666 C   0  0  0  0  0  0  0  0  0  0  0  0
  144.4764  131.6250  150.4968 C   0  0  0  0  0  0  0  0  0  0  0  0
  145.7845  131.9793  150.8828 C   0  0  0  0  0  0  0  0  0  0  0  0
  146.1633  133.2512  151.1363 N   0  0  0  0  0  0  0  0  0  0  0  0
  143.0615  136.0799  155.9866 H   0  0  0  0  0  0  0  0  0  0  0  0
  142.9907  135.6006  154.2934 H   0  0  0  0  0  0  0  0  0  0  0  0
  141.7935  136.7079  154.9391 H   0  0  0  0  0  0  0  0  0  0  0  0
  143.5003  137.9254  153.5830 H   0  0  0  0  0  0  0  0  0  0  0  0
  142.3741  139.0929  155.4280 H   0  0  0  0  0  0  0  0  0  0  0  0
  143.5879  138.5594  156.5708 H   0  0  0  0  0  0  0  0  0  0  0  0
  144.1075  141.0805  157.0497 H   0  0  0  0  0  0  0  0  0  0  0  0
  142.7478  141.3292  155.9518 H   0  0  0  0  0  0  0  0  0  0  0  0
  144.2707  142.1214  155.6269 H   0  0  0  0  0  0  0  0  0  0  0  0
  145.9448  139.4448  156.3159 H   0  0  0  0  0  0  0  0  0  0  0  0
  147.6479  140.6711  154.9008 H   0  0  0  0  0  0  0  0  0  0  0  0
  146.4997  141.7482  155.6562 H   0  0  0  0  0  0  0  0  0  0  0  0
  146.3345  141.3463  153.9451 H   0  0  0  0  0  0  0  0  0  0  0  0
  145.9192  138.8357  153.3244 H   0  0  0  0  0  0  0  0  0  0  0  0
  147.1345  138.3095  154.4625 H   0  0  0  0  0  0  0  0  0  0  0  0
  145.4835  136.9643  155.6927 H   0  0  0  0  0  0  0  0  0  0  0  0
  146.5822  136.2561  153.5380 H   0  0  0  0  0  0  0  0  0  0  0  0
  143.9125  135.8049  152.5145 H   0  0  0  0  0  0  0  0  0  0  0  0
  144.6962  137.3410  152.1753 H   0  0  0  0  0  0  0  0  0  0  0  0
  145.6467  136.2349  150.3958 H   0  0  0  0  0  0  0  0  0  0  0  0
  146.7599  135.6056  151.5854 H   0  0  0  0  0  0  0  0  0  0  0  0
  143.1856  134.7806  150.5346 H   0  0  0  0  0  0  0  0  0  0  0  0
  142.5023  132.4139  150.0750 H   0  0  0  0  0  0  0  0  0  0  0  0
  144.2168  130.5942  150.3061 H   0  0  0  0  0  0  0  0  0  0  0  0
  146.5460  131.2217  150.9928 H   0  0  0  0  0  0  0  0  0  0  0  0
  145.3761  135.3236  154.1392 H   0  0  0  0  0  0  0  0  0  0  0  0
  144.0609  140.2552  154.2372 H   0  0  0  0  0  0  0  0  0  0  0  0
  1  2  1  0  0  0  0
  1 19  1  0  0  0  0
  1 20  1  0  0  0  0
  1 21  1  0  0  0  0
  2  9  1  0  0  0  0
  2  3  1  0  0  0  0
  2 22  1  0  0  0  0
  3  4  1  0  0  0  0
  3 23  1  0  0  0  0
  3 24  1  0  0  0  0
  4  5  1  0  0  0  0
  4  6  1  0  0  0  0
  4 45  1  0  0  0  0
  5 25  1  0  0  0  0
  5 26  1  0  0  0  0
  5 27  1  0  0  0  0
  6  7  1  0  0  0  0
  6  8  1  0  0  0  0
  6 28  1  0  0  0  0
  7 29  1  0  0  0  0
  7 30  1  0  0  0  0
  7 31  1  0  0  0  0
  8  9  1  0  0  0  0
  8 32  1  0  0  0  0
  8 33  1  0  0  0  0
  9 10  1  0  0  0  0
  9 34  1  0  0  0  0
 10 11  1  0  0  0  0
 10 35  1  0  0  0  0
 10 44  1  0  0  0  0
 11 12  1  0  0  0  0
 11 36  1  0  0  0  0
 11 37  1  0  0  0  0
 12 13  1  0  0  0  0
 12 38  1  0  0  0  0
 12 39  1  0  0  0  0
 13 18  1  0  0  0  0
 13 14  2  0  0  0  0
 14 15  1  0  0  0  0
 14 40  1  0  0  0  0
 15 16  2  0  0  0  0
 15 41  1  0  0  0  0
 16 17  1  0  0  0  0
 16 42  1  0  0  0  0
 17 18  2  0  0  0  0
 17 43  1  0  0  0  0
M  CHG  1   4   1
M  CHG  1  10   1
M  END
> <s_m_source_file>
AV-unprocessed.smi

> <i_m_source_file_index>
3303

> <i_lp_mmshare_version>
43012

> <i_f3d_flags>
0

> <s_epik_input>
W0NIM11bQ0BASF0xW0NIMl1OKFtDSDNdKVtDQEBIXShbQ0gzXSlbQ0gyXVtDQEhdMVtOSF1bQ0gyXVtDSDJdYzJbY0hdW2NIXVtjSF1bY0hdbjI=

> <s_epik_cmdline>
J2VwaWtfcHl0aG9uJywgJy1waCcsICc3LjAnLCAnLXRuJywgJzgnLCAnLW1hJywgJzIwMCcsICctbWV0YWxfYmluZGluZycsICctaW1hZScsICc8aW5maWxlLm1hZT4nLCAnLW9tYWUnLCAnPG91dGZpbGUubWFlPic=

> <r_epik_Ionization_Penalty>
0.0769462

> <r_epik_Ionization_Penalty_Charging>
0.0759813

> <r_epik_Ionization_Penalty_Neutral>
0.000964829

> <r_epik_State_Penalty>
0.0654373

> <r_epik_Charging_Adjusted_Penalty>
0.141419

> <i_epik_Tot_Q>
2

> <i_epik_Tot_abs_Q>
2

> <r_epik_Metal_State_Penalty>
0.0656439

> <b_epik_Metal_Only>
0

> <s_lp_Force_Field>
OPLS_2005

> <r_lp_Energy>
29.1913

> <b_lp_Chiralities_Consistent>
1

> <s_lp_Variant>
AV-unprocessed.smi:3303-16

> <Gold.Version>
5.8.1

> <Gold.Id.Protein>
6NUR|6NUR_protein|mol2

> <Gold.PLP.Fitness>
43.0961

> <Gold.PLP.PLP>
-29.3680

> <Gold.PLP.part.hbond>
-2.0000

> <Gold.PLP.part.metal>
0.0000

> <Gold.PLP.part.buried>
-6.5325

> <Gold.PLP.part.nonpolar>
-21.8498

> <Gold.PLP.part.repulsive>
0.2170

> <Gold.PLP.ligand.clash>
0.0000

> <Gold.PLP.ligand.torsion>
0.6669

> <Gold.PLP.Chemscore.Hbond>
4.0000

> <Gold.PLP.Chemscore.CHOScore>
1.0000

> <Gold.PLP.Chemscore.Metal>
0.0000

> <Gold.Chemscore.Hbonds>
donor molecule, donor type, donor heavy atom, donor atom, acceptor molecule, acceptor atom, score
      L1  H     4    45       P1 10175  2.00
      L1  C    17    43       P1 10747  0.93

> <Gold.PLP.Chemscore.Internal.Correction>
0.0618

> <Gold.Rescore>
     Score         DG    S(hbond)    S(metal)    S(lipo)     H(rot)  DE(clash)    DE(int)     intcor
     17.27     -18.09       2.00        0.00      80.77       1.37       0.04       0.77       ----

> <Gold.Chemscore.Fitness>
17.2749

> <Gold.Chemscore.DG>
-18.0893

> <Gold.Chemscore.ZeroCoef>
-5.4800

> <Gold.Chemscore.Hbond>
1.9994

> <Gold.Chemscore.Metal>
0.0000

> <Gold.Chemscore.Lipo>
80.7669

> <Gold.Chemscore.Internal_Hbond>
0.0000

> <Gold.Chemscore.DEClash>
0.0405

> <Gold.Chemscore.DEInternal>
0.7739

> <Gold.Chemscore.Rot>
1.3744

> <Gold.Chemscore.Internal.Correction>
   9.000000E+99

> <Gold.Chemscore.Hbonds>
donor molecule, donor type, donor heavy atom, donor atom, acceptor molecule, acceptor atom, score
      L1  H     4    45       P1 10175  1.00

> <Gold.Chemscore.Hbond.Weighted>
-6.6780

> <Gold.Chemscore.Metal.Weighted>
-0.0000

> <Gold.Chemscore.Lipo.Weighted>
-9.4497

> <Gold.Chemscore.Internal_Hbond.Weighted>
0.0000

> <Gold.Chemscore.DEClash.Weighted>
0.0405

> <Gold.Chemscore.DEInternal.Weighted>
0.7739

> <Gold.Chemscore.Rot.Weighted>
3.5185

> <Gold.Chemscore.Internal.Correction.Weighted>
   9.000000E+99

> <Gold.Protein.RotatedTorsions>
[ 6907 6896 6895 6894 ] final   44.72 input  -60.11 | X-H torsion
[ 7974 7965 7964 7962 ] final  153.03 input  175.53 | X-H torsion
[ 8008 7997 7996 7995 ] final   14.96 input   59.86 | X-H torsion
[ 10167 10162 10161 10158 ] final  117.68 input  -65.29 | X-H torsion
[ 10718 10713 10712 10709 ] final   71.67 input   66.30 | X-H torsion
[ 10763 10752 10751 10750 ] final    2.02 input  -60.55 | X-H torsion
[ 11005 11000 10999 10996 ] final -147.99 input  -57.11 | X-H torsion

> <Gold.Protein.ActiveResidues>
 VAL166  LYS551  ARG553  GLY616  TRP617  ASP618  TYR619  PRO620  LYS621  CYS622 
 ASP623  PHE694  ASN695  SER759  ASP760  ASP761  ALA762  ILE779  LEU786  VAL792 
 PHE793  MET794  SER795  GLU796  ALA797  LYS798  CYS799  TRP800  GLU811  SER814 

> <Gold.Protein.RotatedAtoms>
  152.2359  134.8276  160.0466 H   0  0  0  0  0  0  0  0  0  0  0  0  # atno 6907 bound_to 6896
  151.9008  133.3532  159.3838 H   0  0  0  0  0  0  0  0  0  0  0  0  # atno 6908 bound_to 6896
  150.7039  134.4756  159.5490 H   0  0  0  0  0  0  0  0  0  0  0  0  # atno 6909 bound_to 6896
  144.8182  139.6746  143.6112 H   0  0  0  0  0  0  0  0  0  0  0  0  # atno 7974 bound_to 7965
  154.8559  140.2937  155.5569 H   0  0  0  0  0  0  0  0  0  0  0  0  # atno 8008 bound_to 7997
  156.3018  140.2487  156.3458 H   0  0  0  0  0  0  0  0  0  0  0  0  # atno 8009 bound_to 7997
  154.8970  140.0392  157.1861 H   0  0  0  0  0  0  0  0  0  0  0  0  # atno 8010 bound_to 7997
  139.6162  144.7092  151.2734 H   0  0  0  0  0  0  0  0  0  0  0  0  # atno 10167 bound_to 10162
  157.6463  130.9540  150.0822 H   0  0  0  0  0  0  0  0  0  0  0  0  # atno 10718 bound_to 10713
  153.3008  135.6955  153.7205 H   0  0  0  0  0  0  0  0  0  0  0  0  # atno 10763 bound_to 10752
  153.6120  135.3443  155.2983 H   0  0  0  0  0  0  0  0  0  0  0  0  # atno 10764 bound_to 10752
  154.8550  135.4366  154.2118 H   0  0  0  0  0  0  0  0  0  0  0  0  # atno 10765 bound_to 10752
  140.7659  134.3245  157.5089 H   0  0  0  0  0  0  0  0  0  0  0  0  # atno 11005 bound_to 11000
  146.2486  139.6152  142.9442 LP  0  0  0  0  0  0  0  0  0  0  0  0  # atno 17320 bound_to 7965
  145.5165  141.0433  143.2459 LP  0  0  0  0  0  0  0  0  0  0  0  0  # atno 17321 bound_to 7965
  140.7352  143.6742  150.8055 LP  0  0  0  0  0  0  0  0  0  0  0  0  # atno 17342 bound_to 10162
  140.0345  143.5409  152.2745 LP  0  0  0  0  0  0  0  0  0  0  0  0  # atno 17343 bound_to 10162
  156.1795  130.3649  149.9055 LP  0  0  0  0  0  0  0  0  0  0  0  0  # atno 17370 bound_to 10713
  156.7010  130.8933  151.3599 LP  0  0  0  0  0  0  0  0  0  0  0  0  # atno 17371 bound_to 10713
  139.8763  134.9231  156.3316 LP  0  0  0  0  0  0  0  0  0  0  0  0  # atno 17394 bound_to 11000
  140.9620  133.7383  156.0414 LP  0  0  0  0  0  0  0  0  0  0  0  0  # atno 17395 bound_to 11000

$$$$
