AV-unprocessed.smi:242|AV-procd|sdf|1844|dock5
  -GOLD-   2262020463D 1   1.00000     0.00000
 Structure written by MMmdl.
 58 61  0  0  0  0  0  0  0  0  2 V2000
  144.8176  131.4523  150.8374 C   0  0  0  0  0  0  0  0  0  0  0  0
  145.6792  131.8298  152.0584 C   0  0  0  0  0  0  0  0  0  0  0  0
  146.0009  133.3361  152.0075 C   0  0  0  0  0  0  0  0  0  0  0  0
  146.9268  131.0172  152.1293 N   0  3  2  0  0  0  0  0  0  0  0  0
  146.7407  129.5740  152.4217 C   0  0  0  0  0  0  0  0  0  0  0  0
  148.0342  129.1150  153.0905 C   0  0  0  0  0  0  0  0  0  0  0  0
  148.3726  130.3326  153.9439 C   0  0  1  0  0  0  0  0  0  0  0  0
  149.7489  130.3888  154.4493 N   0  0  0  0  0  0  0  0  0  0  0  0
  150.6328  129.2331  154.3180 C   0  0  0  0  0  0  0  0  0  0  0  0
  150.0629  131.2738  155.4337 C   0  0  0  0  0  0  0  0  0  0  0  0
  150.3973  130.8124  156.6687 N   0  0  0  0  0  0  0  0  0  0  0  0
  150.7136  131.6630  157.6491 C   0  0  0  0  0  0  0  0  0  0  0  0
  150.7535  132.9955  157.6155 N   0  0  0  0  0  0  0  0  0  0  0  0
  150.4151  133.4696  156.3827 C   0  0  0  0  0  0  0  0  0  0  0  0
  150.0591  132.6873  155.2469 C   0  0  0  0  0  0  0  0  0  0  0  0
  149.7585  133.5236  154.1774 N   0  0  0  0  0  0  0  0  0  0  0  0
  149.9288  134.7267  154.6520 C   0  0  0  0  0  0  0  0  0  0  0  0
  150.3324  134.7869  155.9663 N   0  0  0  0  0  0  0  0  0  0  0  0
  150.5858  135.9891  156.7456 C   0  0  0  0  0  0  0  0  0  0  0  0
  151.4448  137.0571  156.0144 C   0  0  0  0  0  0  0  0  0  0  0  0
  152.6800  136.4552  155.6763 O   0  0  0  0  0  0  0  0  0  0  0  0
  150.8178  137.5919  154.7092 C   0  0  0  0  0  0  0  0  0  0  0  0
  149.6194  138.5107  155.0022 C   0  0  0  0  0  0  0  0  0  0  0  0
  150.0311  139.5884  155.8363 O   0  0  0  0  0  0  0  0  0  0  0  0
  150.5153  139.1637  157.1061 C   0  0  0  0  0  0  0  0  0  0  0  0
  151.7498  138.2599  156.9289 C   0  0  0  0  0  0  0  0  0  0  0  0
  147.9625  131.5242  153.0674 C   0  0  0  0  0  0  0  0  0  0  0  0
  143.9314  132.0848  150.7760 H   0  0  0  0  0  0  0  0  0  0  0  0
  144.4633  130.4226  150.8852 H   0  0  0  0  0  0  0  0  0  0  0  0
  145.3730  131.5726  149.9064 H   0  0  0  0  0  0  0  0  0  0  0  0
  145.0949  131.6313  152.9583 H   0  0  0  0  0  0  0  0  0  0  0  0
  145.0876  133.9276  151.9358 H   0  0  0  0  0  0  0  0  0  0  0  0
  146.6181  133.5794  151.1420 H   0  0  0  0  0  0  0  0  0  0  0  0
  146.5285  133.6794  152.8968 H   0  0  0  0  0  0  0  0  0  0  0  0
  145.9124  129.4423  153.1206 H   0  0  0  0  0  0  0  0  0  0  0  0
  146.5168  129.0040  151.5194 H   0  0  0  0  0  0  0  0  0  0  0  0
  147.9070  128.2045  153.6767 H   0  0  0  0  0  0  0  0  0  0  0  0
  148.8005  128.9312  152.3369 H   0  0  0  0  0  0  0  0  0  0  0  0
  147.6873  130.3401  154.7934 H   0  0  0  0  0  0  0  0  0  0  0  0
  151.0844  128.9669  155.2747 H   0  0  0  0  0  0  0  0  0  0  0  0
  151.4320  129.4503  153.6092 H   0  0  0  0  0  0  0  0  0  0  0  0
  150.0973  128.3556  153.9567 H   0  0  0  0  0  0  0  0  0  0  0  0
  150.9705  131.2120  158.5961 H   0  0  0  0  0  0  0  0  0  0  0  0
  149.7666  135.6095  154.0510 H   0  0  0  0  0  0  0  0  0  0  0  0
  149.6193  136.4004  157.0354 H   0  0  0  0  0  0  0  0  0  0  0  0
  151.0711  135.6930  157.6768 H   0  0  0  0  0  0  0  0  0  0  0  0
  153.3746  136.9316  156.1045 H   0  0  0  0  0  0  0  0  0  0  0  0
  151.5611  138.1712  154.1594 H   0  0  0  0  0  0  0  0  0  0  0  0
  150.5258  136.7809  154.0428 H   0  0  0  0  0  0  0  0  0  0  0  0
  149.2288  138.9208  154.0710 H   0  0  0  0  0  0  0  0  0  0  0  0
  148.8018  137.9618  155.4709 H   0  0  0  0  0  0  0  0  0  0  0  0
  150.7824  140.0451  157.6889 H   0  0  0  0  0  0  0  0  0  0  0  0
  149.7237  138.6550  157.6571 H   0  0  0  0  0  0  0  0  0  0  0  0
  152.1143  137.9233  157.9002 H   0  0  0  0  0  0  0  0  0  0  0  0
  152.5510  138.8591  156.4933 H   0  0  0  0  0  0  0  0  0  0  0  0
  148.7895  131.9087  152.4710 H   0  0  0  0  0  0  0  0  0  0  0  0
  147.6064  132.3401  153.6974 H   0  0  0  0  0  0  0  0  0  0  0  0
  147.3483  131.0570  151.2123 H   0  0  0  0  0  0  0  0  0  0  0  0
  1  2  1  0  0  0  0
  1 28  1  0  0  0  0
  1 29  1  0  0  0  0
  1 30  1  0  0  0  0
  2  3  1  0  0  0  0
  2  4  1  0  0  0  0
  2 31  1  0  0  0  0
  3 32  1  0  0  0  0
  3 33  1  0  0  0  0
  3 34  1  0  0  0  0
  4 27  1  0  0  0  0
  4  5  1  0  0  0  0
  4 58  1  0  0  0  0
  5  6  1  0  0  0  0
  5 35  1  0  0  0  0
  5 36  1  0  0  0  0
  6  7  1  0  0  0  0
  6 37  1  0  0  0  0
  6 38  1  0  0  0  0
  7  8  1  0  0  0  0
  7 27  1  0  0  0  0
  7 39  1  0  0  0  0
  8  9  1  0  0  0  0
  8 10  1  0  0  0  0
  9 40  1  0  0  0  0
  9 41  1  0  0  0  0
  9 42  1  0  0  0  0
 10 15  1  0  0  0  0
 10 11  2  0  0  0  0
 11 12  1  0  0  0  0
 12 13  2  0  0  0  0
 12 43  1  0  0  0  0
 13 14  1  0  0  0  0
 14 18  1  0  0  0  0
 14 15  2  0  0  0  0
 15 16  1  0  0  0  0
 16 17  2  0  0  0  0
 17 18  1  0  0  0  0
 17 44  1  0  0  0  0
 18 19  1  0  0  0  0
 19 20  1  0  0  0  0
 19 45  1  0  0  0  0
 19 46  1  0  0  0  0
 20 26  1  0  0  0  0
 20 21  1  0  0  0  0
 20 22  1  0  0  0  0
 21 47  1  0  0  0  0
 22 23  1  0  0  0  0
 22 48  1  0  0  0  0
 22 49  1  0  0  0  0
 23 24  1  0  0  0  0
 23 50  1  0  0  0  0
 23 51  1  0  0  0  0
 24 25  1  0  0  0  0
 25 26  1  0  0  0  0
 25 52  1  0  0  0  0
 25 53  1  0  0  0  0
 26 54  1  0  0  0  0
 26 55  1  0  0  0  0
 27 56  1  0  0  0  0
 27 57  1  0  0  0  0
M  CHG  1   4   1
M  END
> <s_m_source_file>
AV-unprocessed.smi

> <i_m_source_file_index>
242

> <i_lp_mmshare_version>
43012

> <i_f3d_flags>
0

> <s_epik_input>
W0NIM11bQ0hdKFtDSDNdKU4xW0NIMl1bQ0gyXVtDQEhdKFtDSDJdMSlOKFtDSDNdKWMobltjSF1uMiljKGMyMyluW2NIXW4zW0NIMl1DNChbT0hdKVtDSDJdW0NIMl1PW0NIMl1bQ0gyXTQ=

> <s_epik_cmdline>
J2VwaWtfcHl0aG9uJywgJy1waCcsICc3LjAnLCAnLXRuJywgJzgnLCAnLW1hJywgJzIwMCcsICctbWV0YWxfYmluZGluZycsICctaW1hZScsICc8aW5maWxlLm1hZT4nLCAnLW9tYWUnLCAnPG91dGZpbGUubWFlPic=

> <r_lp_tautomer_probability>
1

> <r_epik_Ionization_Penalty>
0.000825961

> <r_epik_Ionization_Penalty_Charging>
0.00034898

> <r_epik_Ionization_Penalty_Neutral>
0.000476981

> <r_epik_State_Penalty>
-0

> <r_epik_Charging_Adjusted_Penalty>
0.00034898

> <i_epik_Tot_Q>
1

> <i_epik_Tot_abs_Q>
1

> <r_epik_Metal_State_Penalty>
-0

> <b_epik_Metal_Only>
0

> <s_lp_Force_Field>
OPLS_2005

> <r_lp_Energy>
46.8911

> <b_lp_Chiralities_Consistent>
1

> <s_lp_Variant>
AV-unprocessed.smi:242-1

> <Gold.Version>
5.8.1

> <Gold.Id.Protein>
6NUR|6NUR_protein|mol2

> <Gold.PLP.Fitness>
45.5070

> <Gold.PLP.PLP>
-36.5792

> <Gold.PLP.part.hbond>
-2.6601

> <Gold.PLP.part.metal>
0.0000

> <Gold.PLP.part.buried>
-4.8305

> <Gold.PLP.part.nonpolar>
-30.1523

> <Gold.PLP.part.repulsive>
0.1448

> <Gold.PLP.ligand.clash>
0.0000

> <Gold.PLP.ligand.torsion>
1.6022

> <Gold.PLP.Chemscore.Hbond>
2.7999

> <Gold.PLP.Chemscore.CHOScore>
1.0000

> <Gold.PLP.Chemscore.Metal>
0.0000

> <Gold.Chemscore.Hbonds>
donor molecule, donor type, donor heavy atom, donor atom, acceptor molecule, acceptor atom, score
      L1  H     4    58       P1 10747  0.88
      P1  H  6896  6908       L1    13  1.00
      P1  H 10752 10763       L1    21  0.28
      L1  C    17    44       P1  7948  0.91

> <Gold.PLP.Chemscore.Internal.Correction>
0.7326

> <Gold.Rescore>
     Score         DG    S(hbond)    S(metal)    S(lipo)     H(rot)  DE(clash)    DE(int)     intcor
     16.29     -18.16       2.65        0.00      81.38       2.22       0.25       1.62       ----

> <Gold.Chemscore.Fitness>
16.2859

> <Gold.Chemscore.DG>
-18.1591

> <Gold.Chemscore.ZeroCoef>
-5.4800

> <Gold.Chemscore.Hbond>
2.6496

> <Gold.Chemscore.Metal>
0.0000

> <Gold.Chemscore.Lipo>
81.3804

> <Gold.Chemscore.Internal_Hbond>
0.0000

> <Gold.Chemscore.DEClash>
0.2513

> <Gold.Chemscore.DEInternal>
1.6219

> <Gold.Chemscore.Rot>
2.2234

> <Gold.Chemscore.Internal.Correction>
   9.000000E+99

> <Gold.Chemscore.Hbonds>
donor molecule, donor type, donor heavy atom, donor atom, acceptor molecule, acceptor atom, score
      L1  H     4    58       P1 10747  0.86
      P1  H  6896  6908       L1    13  0.43
      P1  H 10752 10763       L1    21  0.25

> <Gold.Chemscore.Hbond.Weighted>
-8.8496

> <Gold.Chemscore.Metal.Weighted>
-0.0000

> <Gold.Chemscore.Lipo.Weighted>
-9.5215

> <Gold.Chemscore.Internal_Hbond.Weighted>
0.0000

> <Gold.Chemscore.DEClash.Weighted>
0.2513

> <Gold.Chemscore.DEInternal.Weighted>
1.6219

> <Gold.Chemscore.Rot.Weighted>
5.6919

> <Gold.Chemscore.Internal.Correction.Weighted>
   9.000000E+99

> <Gold.Protein.RotatedTorsions>
[ 6907 6896 6895 6894 ] final   86.91 input  -60.11 | X-H torsion
[ 7974 7965 7964 7962 ] final  114.74 input  175.53 | X-H torsion
[ 8008 7997 7996 7995 ] final -123.79 input   59.86 | X-H torsion
[ 10167 10162 10161 10158 ] final  101.60 input  -65.29 | X-H torsion
[ 10718 10713 10712 10709 ] final  146.08 input   66.30 | X-H torsion
[ 10763 10752 10751 10750 ] final   78.70 input  -60.55 | X-H torsion
[ 11005 11000 10999 10996 ] final  141.70 input  -57.11 | X-H torsion

> <Gold.Protein.ActiveResidues>
 VAL166  LYS551  ARG553  GLY616  TRP617  ASP618  TYR619  PRO620  LYS621  CYS622 
 ASP623  PHE694  ASN695  SER759  ASP760  ASP761  ALA762  ILE779  LEU786  VAL792 
 PHE793  MET794  SER795  GLU796  ALA797  LYS798  CYS799  TRP800  GLU811  SER814 

> <Gold.Protein.RotatedAtoms>
  152.5402  134.2358  159.8842 H   0  0  0  0  0  0  0  0  0  0  0  0  # atno 6907 bound_to 6896
  151.2328  133.4434  159.2612 H   0  0  0  0  0  0  0  0  0  0  0  0  # atno 6908 bound_to 6896
  151.0700  134.9805  159.8360 H   0  0  0  0  0  0  0  0  0  0  0  0  # atno 6909 bound_to 6896
  145.2007  139.2954  143.4320 H   0  0  0  0  0  0  0  0  0  0  0  0  # atno 7974 bound_to 7965
  155.1863  140.0412  157.2892 H   0  0  0  0  0  0  0  0  0  0  0  0  # atno 8008 bound_to 7997
  154.6169  140.2491  155.7570 H   0  0  0  0  0  0  0  0  0  0  0  0  # atno 8009 bound_to 7997
  156.2412  140.2903  156.0459 H   0  0  0  0  0  0  0  0  0  0  0  0  # atno 8010 bound_to 7997
  139.7424  144.7007  151.0555 H   0  0  0  0  0  0  0  0  0  0  0  0  # atno 10167 bound_to 10162
  157.3376  131.0930  151.1110 H   0  0  0  0  0  0  0  0  0  0  0  0  # atno 10718 bound_to 10713
  153.0895  135.4867  154.8661 H   0  0  0  0  0  0  0  0  0  0  0  0  # atno 10763 bound_to 10752
  154.7251  135.3048  154.8986 H   0  0  0  0  0  0  0  0  0  0  0  0  # atno 10764 bound_to 10752
  153.9639  135.6809  153.4799 H   0  0  0  0  0  0  0  0  0  0  0  0  # atno 10765 bound_to 10752
  140.0421  134.9299  157.0863 H   0  0  0  0  0  0  0  0  0  0  0  0  # atno 11005 bound_to 11000
  146.3418  140.2251  142.8592 LP  0  0  0  0  0  0  0  0  0  0  0  0  # atno 17320 bound_to 7965
  144.9951  140.8581  143.5316 LP  0  0  0  0  0  0  0  0  0  0  0  0  # atno 17321 bound_to 7965
  140.7787  143.4908  150.9895 LP  0  0  0  0  0  0  0  0  0  0  0  0  # atno 17342 bound_to 10162
  139.8597  143.7331  152.3174 LP  0  0  0  0  0  0  0  0  0  0  0  0  # atno 17343 bound_to 10162
  157.2334  130.6536  149.5859 LP  0  0  0  0  0  0  0  0  0  0  0  0  # atno 17370 bound_to 10713
  155.9703  130.4591  150.6025 LP  0  0  0  0  0  0  0  0  0  0  0  0  # atno 17371 bound_to 10713
  140.4052  134.2040  155.7163 LP  0  0  0  0  0  0  0  0  0  0  0  0  # atno 17394 bound_to 11000
  141.1888  133.8251  157.0979 LP  0  0  0  0  0  0  0  0  0  0  0  0  # atno 17395 bound_to 11000

$$$$
