AV-unprocessed.smi:1455|AV-procd|sdf|5915|dock3
  -GOLD-   22720 6 03D 1   1.00000     0.00000
 Structure written by MMmdl.
 32 33  0  0  0  0  0  0  0  0  1 V2000
  151.5737  141.6241  157.5403 O   0  0  0  0  0  0  0  0  0  0  0  0
  150.8553  142.3412  156.8419 C   0  0  0  0  0  0  0  0  0  0  0  0
  150.1112  141.7714  155.6253 C   0  0  0  0  0  0  0  0  0  0  0  0
  150.4055  140.3531  155.3718 N   0  0  0  0  0  0  0  0  0  0  0  0
  151.7144  139.8936  155.4060 C   0  0  0  0  0  0  0  0  0  0  0  0
  152.0586  138.6042  155.1766 C   0  0  0  0  0  0  0  0  0  0  0  0
  151.0355  137.6096  154.8726 C   0  0  0  0  0  0  0  0  0  0  0  0
  151.2466  136.4191  154.6530 O   0  0  0  0  0  0  0  0  0  0  0  0
  149.7316  138.1112  154.8434 N   0  0  0  0  0  0  0  0  0  0  0  0
  149.3704  139.4390  155.0777 C   0  0  0  0  0  0  0  0  0  0  0  0
  148.1885  139.7767  155.0237 O   0  0  0  0  0  0  0  0  0  0  0  0
  150.6523  143.6432  157.0944 N   0  0  0  0  0  0  0  0  0  0  0  0
  151.2440  144.3882  158.2027 C   0  0  0  0  0  0  0  0  0  0  0  0
  152.7846  144.3349  158.1627 C   0  0  0  0  0  0  0  0  0  0  0  0
  153.2029  143.4089  159.3046 C   0  0  0  0  0  0  0  0  0  0  0  0
  152.1208  143.6095  160.3604 C   0  0  0  0  0  0  0  0  0  0  0  0
  150.8305  143.7763  159.5555 C   0  0  0  0  0  0  0  0  0  0  0  0
  148.9895  137.4600  154.6325 H   0  0  0  0  0  0  0  0  0  0  0  0
  149.0412  141.9087  155.7875 H   0  0  0  0  0  0  0  0  0  0  0  0
  150.3464  142.3694  154.7428 H   0  0  0  0  0  0  0  0  0  0  0  0
  152.5062  140.5964  155.6234 H   0  0  0  0  0  0  0  0  0  0  0  0
  153.0966  138.3072  155.2177 H   0  0  0  0  0  0  0  0  0  0  0  0
  150.0437  144.1567  156.4736 H   0  0  0  0  0  0  0  0  0  0  0  0
  150.9144  145.4280  158.1583 H   0  0  0  0  0  0  0  0  0  0  0  0
  153.1865  144.0066  157.2031 H   0  0  0  0  0  0  0  0  0  0  0  0
  153.1813  145.3339  158.3482 H   0  0  0  0  0  0  0  0  0  0  0  0
  153.1947  142.3737  158.9609 H   0  0  0  0  0  0  0  0  0  0  0  0
  154.2031  143.6295  159.6784 H   0  0  0  0  0  0  0  0  0  0  0  0
  152.0685  142.7843  161.0712 H   0  0  0  0  0  0  0  0  0  0  0  0
  152.3239  144.5218  160.9229 H   0  0  0  0  0  0  0  0  0  0  0  0
  150.1023  144.3952  160.0809 H   0  0  0  0  0  0  0  0  0  0  0  0
  150.3735  142.7958  159.4119 H   0  0  0  0  0  0  0  0  0  0  0  0
  1  2  2  0  0  0  0
  2  3  1  0  0  0  0
  2 12  1  0  0  0  0
  3  4  1  0  0  0  0
  3 19  1  0  0  0  0
  3 20  1  0  0  0  0
  4 10  1  0  0  0  0
  4  5  1  0  0  0  0
  5  6  2  0  0  0  0
  5 21  1  0  0  0  0
  6  7  1  0  0  0  0
  6 22  1  0  0  0  0
  7  8  2  0  0  0  0
  7  9  1  0  0  0  0
  9 18  1  0  0  0  0
  9 10  1  0  0  0  0
 10 11  2  0  0  0  0
 12 13  1  0  0  0  0
 12 23  1  0  0  0  0
 13 17  1  0  0  0  0
 13 14  1  0  0  0  0
 13 24  1  0  0  0  0
 14 15  1  0  0  0  0
 14 25  1  0  0  0  0
 14 26  1  0  0  0  0
 15 16  1  0  0  0  0
 15 27  1  0  0  0  0
 15 28  1  0  0  0  0
 16 17  1  0  0  0  0
 16 29  1  0  0  0  0
 16 30  1  0  0  0  0
 17 31  1  0  0  0  0
 17 32  1  0  0  0  0
M  END
> <s_m_source_file>
AV-unprocessed.smi

> <i_m_source_file_index>
1455

> <i_lp_mmshare_version>
43012

> <i_f3d_flags>
0

> <s_epik_input>
W0NIMl0xW0NIMl1bQ0gyXVtDSDJdW0NIXTFbTkhdQyg9TylbQ0gyXW4yW2NIXVtjSF1jKD1PKVtuSF1jMj1P

> <s_epik_cmdline>
J2VwaWtfcHl0aG9uJywgJy1waCcsICc3LjAnLCAnLXRuJywgJzgnLCAnLW1hJywgJzIwMCcsICctbWV0YWxfYmluZGluZycsICctaW1hZScsICc8aW5maWxlLm1hZT4nLCAnLW9tYWUnLCAnPG91dGZpbGUubWFlPic=

> <r_lp_tautomer_probability>
0.999537

> <r_epik_Ionization_Penalty>
0.00322093

> <r_epik_Ionization_Penalty_Charging>
0.00322091

> <r_epik_Ionization_Penalty_Neutral>
1.93017e-08

> <r_epik_State_Penalty>
0.00227242

> <r_epik_Charging_Adjusted_Penalty>
0.00549333

> <i_epik_Tot_Q>
0

> <i_epik_Tot_abs_Q>
0

> <r_epik_Metal_State_Penalty>
0.364362

> <b_epik_Metal_Only>
0

> <s_lp_Force_Field>
OPLS_2005

> <r_lp_Energy>
17.501

> <b_lp_Chiralities_Consistent>
1

> <s_lp_Variant>
AV-unprocessed.smi:1455-1

> <Gold.Version>
5.8.1

> <Gold.Id.Protein>
6NUR|6NUR_protein|mol2

> <Gold.PLP.Fitness>
43.4568

> <Gold.PLP.PLP>
-37.8295

> <Gold.PLP.part.hbond>
-2.0000

> <Gold.PLP.part.metal>
0.0000

> <Gold.PLP.part.buried>
-3.2823

> <Gold.PLP.part.nonpolar>
-32.9440

> <Gold.PLP.part.repulsive>
0.2576

> <Gold.PLP.ligand.clash>
0.0000

> <Gold.PLP.ligand.torsion>
0.1883

> <Gold.PLP.Chemscore.Hbond>
2.0000

> <Gold.PLP.Chemscore.CHOScore>
0.0000

> <Gold.PLP.Chemscore.Metal>
0.0000

> <Gold.Chemscore.Hbonds>
donor molecule, donor type, donor heavy atom, donor atom, acceptor molecule, acceptor atom, score
      L1  H    12    23       P1  8028  0.94
      P1  H 10752 10763       L1     8  1.00

> <Gold.PLP.Chemscore.Internal.Correction>
0.0039

> <Gold.Rescore>
     Score         DG    S(hbond)    S(metal)    S(lipo)     H(rot)  DE(clash)    DE(int)     intcor
     14.14     -17.65       1.99        0.00      84.94       1.72       0.08       3.43       ----

> <Gold.Chemscore.Fitness>
14.1425

> <Gold.Chemscore.DG>
-17.6538

> <Gold.Chemscore.ZeroCoef>
-5.4800

> <Gold.Chemscore.Hbond>
1.9876

> <Gold.Chemscore.Metal>
0.0000

> <Gold.Chemscore.Lipo>
84.9444

> <Gold.Chemscore.Internal_Hbond>
0.0000

> <Gold.Chemscore.DEClash>
0.0775

> <Gold.Chemscore.DEInternal>
3.4337

> <Gold.Chemscore.Rot>
1.7201

> <Gold.Chemscore.Internal.Correction>
   9.000000E+99

> <Gold.Chemscore.Hbonds>
donor molecule, donor type, donor heavy atom, donor atom, acceptor molecule, acceptor atom, score
      L1  H    12    23       P1  8028  0.90
      P1  H 10752 10763       L1     8  0.99

> <Gold.Chemscore.Hbond.Weighted>
-6.6386

> <Gold.Chemscore.Metal.Weighted>
-0.0000

> <Gold.Chemscore.Lipo.Weighted>
-9.9385

> <Gold.Chemscore.Internal_Hbond.Weighted>
0.0000

> <Gold.Chemscore.DEClash.Weighted>
0.0775

> <Gold.Chemscore.DEInternal.Weighted>
3.4337

> <Gold.Chemscore.Rot.Weighted>
4.4033

> <Gold.Chemscore.Internal.Correction.Weighted>
   9.000000E+99

> <Gold.Protein.RotatedTorsions>
[ 6907 6896 6895 6894 ] final  132.17 input  -60.11 | X-H torsion
[ 7974 7965 7964 7962 ] final -115.29 input  175.53 | X-H torsion
[ 8008 7997 7996 7995 ] final  -77.67 input   59.86 | X-H torsion
[ 10167 10162 10161 10158 ] final -158.79 input  -65.29 | X-H torsion
[ 10718 10713 10712 10709 ] final   66.42 input   66.30 | X-H torsion
[ 10763 10752 10751 10750 ] final   38.58 input  -60.55 | X-H torsion
[ 11005 11000 10999 10996 ] final  -22.72 input  -57.11 | X-H torsion

> <Gold.Protein.ActiveResidues>
 VAL166  LYS551  ARG553  GLY616  TRP617  ASP618  TYR619  PRO620  LYS621  CYS622 
 ASP623  PHE694  ASN695  SER759  ASP760  ASP761  ALA762  ILE779  LEU786  VAL792 
 PHE793  MET794  SER795  GLU796  ALA797  LYS798  CYS799  TRP800  GLU811  SER814 

> <Gold.Protein.RotatedAtoms>
  152.3351  133.6002  159.5836 H   0  0  0  0  0  0  0  0  0  0  0  0  # atno 6907 bound_to 6896
  150.7445  133.9808  159.3584 H   0  0  0  0  0  0  0  0  0  0  0  0  # atno 6908 bound_to 6896
  151.7679  135.0794  160.0406 H   0  0  0  0  0  0  0  0  0  0  0  0  # atno 6909 bound_to 6896
  145.1101  140.8606  143.3875 H   0  0  0  0  0  0  0  0  0  0  0  0  # atno 7974 bound_to 7965
  154.5617  140.0707  156.8830 H   0  0  0  0  0  0  0  0  0  0  0  0  # atno 8008 bound_to 7997
  155.2798  140.3371  155.4241 H   0  0  0  0  0  0  0  0  0  0  0  0  # atno 8009 bound_to 7997
  156.2048  140.1735  156.7809 H   0  0  0  0  0  0  0  0  0  0  0  0  # atno 8010 bound_to 7997
  139.6665  143.9821  152.2258 H   0  0  0  0  0  0  0  0  0  0  0  0  # atno 10167 bound_to 10162
  157.6168  130.9267  150.0107 H   0  0  0  0  0  0  0  0  0  0  0  0  # atno 10718 bound_to 10713
  152.9996  135.6245  154.2327 H   0  0  0  0  0  0  0  0  0  0  0  0  # atno 10763 bound_to 10752
  154.2069  135.2801  155.2973 H   0  0  0  0  0  0  0  0  0  0  0  0  # atno 10764 bound_to 10752
  154.5638  135.5697  153.7090 H   0  0  0  0  0  0  0  0  0  0  0  0  # atno 10765 bound_to 10752
  140.8683  133.7738  156.0156 H   0  0  0  0  0  0  0  0  0  0  0  0  # atno 11005 bound_to 11000
  145.0857  139.2927  143.5761 LP  0  0  0  0  0  0  0  0  0  0  0  0  # atno 17320 bound_to 7965
  146.3526  140.0378  142.8645 LP  0  0  0  0  0  0  0  0  0  0  0  0  # atno 17321 bound_to 7965
  139.9574  144.6581  150.8113 LP  0  0  0  0  0  0  0  0  0  0  0  0  # atno 17342 bound_to 10162
  140.7601  143.3144  151.2768 LP  0  0  0  0  0  0  0  0  0  0  0  0  # atno 17343 bound_to 10162
  156.1294  130.3644  149.9757 LP  0  0  0  0  0  0  0  0  0  0  0  0  # atno 17370 bound_to 10713
  156.7821  130.9225  151.3646 LP  0  0  0  0  0  0  0  0  0  0  0  0  # atno 17371 bound_to 10713
  140.8603  134.2849  157.5237 LP  0  0  0  0  0  0  0  0  0  0  0  0  # atno 17394 bound_to 11000
  139.8710  134.9514  156.4085 LP  0  0  0  0  0  0  0  0  0  0  0  0  # atno 17395 bound_to 11000

$$$$
