AV-unprocessed.smi:286|AV-procd|sdf|2175|dock4
  -GOLD-   2262021533D 1   1.00000     0.00000
 Structure written by MMmdl.
 46 48  0  0  0  0  0  0  0  0  1 V2000
  153.9975  141.5282  161.1389 O   0  0  0  0  0  0  0  0  0  0  0  0
  153.2518  141.3969  160.1667 C   0  0  0  0  0  0  0  0  0  0  0  0
  152.4614  142.4882  159.6091 C   0  0  0  0  0  0  0  0  0  0  0  0
  152.5632  143.7201  160.1361 F   0  0  0  0  0  0  0  0  0  0  0  0
  151.6275  142.2825  158.5670 C   0  0  0  0  0  0  0  0  0  0  0  0
  151.4502  141.0479  157.9687 N   0  0  0  0  0  0  0  0  0  0  0  0
  150.5101  140.9373  156.7878 C   0  0  2  0  0  0  0  0  0  0  0  0
  149.5368  139.7523  156.8794 C   0  0  0  0  0  0  0  0  0  0  0  0
  149.4281  139.3482  155.4249 C   0  0  0  0  0  0  0  0  0  0  0  0
  150.8351  139.6315  154.9094 C   0  0  0  0  0  0  0  0  0  0  0  0
  151.2593  140.7946  155.6156 O   0  0  0  0  0  0  0  0  0  0  0  0
  152.2083  139.9402  158.4171 C   0  0  0  0  0  0  0  0  0  0  0  0
  152.0993  138.8343  157.8852 O   0  0  0  0  0  0  0  0  0  0  0  0
  153.0890  140.1552  159.5042 N   0  0  0  0  0  0  0  0  0  0  0  0
  153.8432  139.0184  160.0079 C   0  0  0  0  0  0  0  0  0  0  0  0
  152.9976  138.0867  160.9137 C   0  0  1  0  0  0  0  0  0  0  0  0
  152.7859  136.9017  160.1691 O   0  0  0  0  0  0  0  0  0  0  0  0
  153.6848  137.7109  162.2556 C   0  0  0  0  0  0  0  0  0  0  0  0
  152.6790  137.1229  163.2789 C   0  0  0  0  0  0  0  0  0  0  0  0
  153.3476  136.7603  164.6149 C   0  0  0  0  0  0  0  0  0  0  0  0
  154.0566  137.9738  165.2280 C   0  0  0  0  0  0  0  0  0  0  0  0
  155.0695  138.5639  164.2389 C   0  0  0  0  0  0  0  0  0  0  0  0
  154.4005  138.9240  162.9023 C   0  0  0  0  0  0  0  0  0  0  0  0
  151.0697  143.1289  158.1936 H   0  0  0  0  0  0  0  0  0  0  0  0
  149.9813  141.8896  156.7330 H   0  0  0  0  0  0  0  0  0  0  0  0
  149.9482  138.9382  157.4746 H   0  0  0  0  0  0  0  0  0  0  0  0
  148.5875  140.0601  157.3184 H   0  0  0  0  0  0  0  0  0  0  0  0
  149.1247  138.3097  155.2898 H   0  0  0  0  0  0  0  0  0  0  0  0
  148.7066  139.9857  154.9124 H   0  0  0  0  0  0  0  0  0  0  0  0
  151.5028  138.8016  155.1415 H   0  0  0  0  0  0  0  0  0  0  0  0
  150.8609  139.7910  153.8313 H   0  0  0  0  0  0  0  0  0  0  0  0
  154.2896  138.4915  159.1622 H   0  0  0  0  0  0  0  0  0  0  0  0
  154.7099  139.4346  160.5188 H   0  0  0  0  0  0  0  0  0  0  0  0
  152.0265  138.5352  161.1287 H   0  0  0  0  0  0  0  0  0  0  0  0
  153.3087  136.9443  159.3825 H   0  0  0  0  0  0  0  0  0  0  0  0
  154.4348  136.9458  162.0477 H   0  0  0  0  0  0  0  0  0  0  0  0
  151.8769  137.8401  163.4577 H   0  0  0  0  0  0  0  0  0  0  0  0
  152.2038  136.2256  162.8824 H   0  0  0  0  0  0  0  0  0  0  0  0
  152.6022  136.3753  165.3113 H   0  0  0  0  0  0  0  0  0  0  0  0
  154.0674  135.9562  164.4570 H   0  0  0  0  0  0  0  0  0  0  0  0
  153.3205  138.7327  165.4964 H   0  0  0  0  0  0  0  0  0  0  0  0
  154.5593  137.6867  166.1520 H   0  0  0  0  0  0  0  0  0  0  0  0
  155.5361  139.4497  164.6707 H   0  0  0  0  0  0  0  0  0  0  0  0
  155.8718  137.8461  164.0641 H   0  0  0  0  0  0  0  0  0  0  0  0
  155.1663  139.3290  162.2439 H   0  0  0  0  0  0  0  0  0  0  0  0
  153.6825  139.7295  163.0625 H   0  0  0  0  0  0  0  0  0  0  0  0
  1  2  2  0  0  0  0
  2 14  1  0  0  0  0
  2  3  1  0  0  0  0
  3  4  1  0  0  0  0
  3  5  2  0  0  0  0
  5  6  1  0  0  0  0
  5 24  1  0  0  0  0
  6  7  1  0  0  0  0
  6 12  1  0  0  0  0
  7 11  1  0  0  0  0
  7  8  1  0  0  0  0
  7 25  1  0  0  0  0
  8  9  1  0  0  0  0
  8 26  1  0  0  0  0
  8 27  1  0  0  0  0
  9 10  1  0  0  0  0
  9 28  1  0  0  0  0
  9 29  1  0  0  0  0
 10 11  1  0  0  0  0
 10 30  1  0  0  0  0
 10 31  1  0  0  0  0
 12 13  2  0  0  0  0
 12 14  1  0  0  0  0
 14 15  1  0  0  0  0
 15 16  1  0  0  0  0
 15 32  1  0  0  0  0
 15 33  1  0  0  0  0
 16 17  1  0  0  0  0
 16 18  1  0  0  0  0
 16 34  1  0  0  0  0
 17 35  1  0  0  0  0
 18 23  1  0  0  0  0
 18 19  1  0  0  0  0
 18 36  1  0  0  0  0
 19 20  1  0  0  0  0
 19 37  1  0  0  0  0
 19 38  1  0  0  0  0
 20 21  1  0  0  0  0
 20 39  1  0  0  0  0
 20 40  1  0  0  0  0
 21 22  1  0  0  0  0
 21 41  1  0  0  0  0
 21 42  1  0  0  0  0
 22 23  1  0  0  0  0
 22 43  1  0  0  0  0
 22 44  1  0  0  0  0
 23 45  1  0  0  0  0
 23 46  1  0  0  0  0
M  END
> <s_m_source_file>
AV-unprocessed.smi

> <i_m_source_file_index>
286

> <i_lp_mmshare_version>
43012

> <i_f3d_flags>
0

> <s_epik_input>
TzFbQ0gyXVtDSDJdW0NIMl1bQ0BIXTFuKFtjSF1jKEYpYzI9TyljKD1PKW4yW0NIMl1bQ0BIXShbT0hdKVtDSF0zW0NIMl1bQ0gyXVtDSDJdW0NIMl1bQ0gyXTM=

> <s_epik_cmdline>
J2VwaWtfcHl0aG9uJywgJy1waCcsICc3LjAnLCAnLXRuJywgJzgnLCAnLW1hJywgJzIwMCcsICctbWV0YWxfYmluZGluZycsICctaW1hZScsICc8aW5maWxlLm1hZT4nLCAnLW9tYWUnLCAnPG91dGZpbGUubWFlPic=

> <r_lp_tautomer_probability>
1

> <r_epik_Ionization_Penalty>
3.15564e-07

> <r_epik_Ionization_Penalty_Charging>
2.06416e-08

> <r_epik_Ionization_Penalty_Neutral>
2.94923e-07

> <r_epik_State_Penalty>
-0

> <r_epik_Charging_Adjusted_Penalty>
2.06416e-08

> <i_epik_Tot_Q>
0

> <i_epik_Tot_abs_Q>
0

> <r_epik_Metal_State_Penalty>
-0

> <b_epik_Metal_Only>
0

> <s_epik_Chemistry_Notes>
This compound contains an acetal/aminal-like group ( X-CH(R)-Y where X, Y are N, S, or O) that may be acid/base labile, releasing an aldehyde.

> <s_lp_Force_Field>
OPLS_2005

> <r_lp_Energy>
37.1896

> <b_lp_Chiralities_Consistent>
1

> <s_lp_Variant>
AV-unprocessed.smi:286-3

> <Gold.Version>
5.8.1

> <Gold.Id.Protein>
6NUR|6NUR_protein|mol2

> <Gold.PLP.Fitness>
44.1300

> <Gold.PLP.PLP>
-44.2155

> <Gold.PLP.part.hbond>
-2.4996

> <Gold.PLP.part.metal>
0.0000

> <Gold.PLP.part.buried>
-5.9544

> <Gold.PLP.part.nonpolar>
-36.4933

> <Gold.PLP.part.repulsive>
0.0244

> <Gold.PLP.ligand.clash>
0.0000

> <Gold.PLP.ligand.torsion>
1.5227

> <Gold.PLP.Chemscore.Hbond>
0.9750

> <Gold.PLP.Chemscore.CHOScore>
0.0000

> <Gold.PLP.Chemscore.Metal>
0.0000

> <Gold.Chemscore.Hbonds>
donor molecule, donor type, donor heavy atom, donor atom, acceptor molecule, acceptor atom, score
      P1  H  6896  6908       L1    17  1.00

> <Gold.PLP.Chemscore.Internal.Correction>
0.0350

> <Gold.Rescore>
     Score         DG    S(hbond)    S(metal)    S(lipo)     H(rot)  DE(clash)    DE(int)     intcor
      9.13     -12.50       0.98        0.00      81.80       2.28       0.01       3.37       ----

> <Gold.Chemscore.Fitness>
9.1292

> <Gold.Chemscore.DG>
-12.5037

> <Gold.Chemscore.ZeroCoef>
-5.4800

> <Gold.Chemscore.Hbond>
0.9817

> <Gold.Chemscore.Metal>
0.0000

> <Gold.Chemscore.Lipo>
81.7961

> <Gold.Chemscore.Internal_Hbond>
0.0000

> <Gold.Chemscore.DEClash>
0.0077

> <Gold.Chemscore.DEInternal>
3.3668

> <Gold.Chemscore.Rot>
2.2756

> <Gold.Chemscore.Internal.Correction>
   9.000000E+99

> <Gold.Chemscore.Hbonds>
donor molecule, donor type, donor heavy atom, donor atom, acceptor molecule, acceptor atom, score
      P1  H  6896  6908       L1    17  0.29

> <Gold.Chemscore.Hbond.Weighted>
-3.2790

> <Gold.Chemscore.Metal.Weighted>
-0.0000

> <Gold.Chemscore.Lipo.Weighted>
-9.5701

> <Gold.Chemscore.Internal_Hbond.Weighted>
0.0000

> <Gold.Chemscore.DEClash.Weighted>
0.0077

> <Gold.Chemscore.DEInternal.Weighted>
3.3668

> <Gold.Chemscore.Rot.Weighted>
5.8254

> <Gold.Chemscore.Internal.Correction.Weighted>
   9.000000E+99

> <Gold.Protein.RotatedTorsions>
[ 6907 6896 6895 6894 ] final  -86.96 input  -60.11 | X-H torsion
[ 7974 7965 7964 7962 ] final -112.07 input  175.53 | X-H torsion
[ 8008 7997 7996 7995 ] final  169.52 input   59.86 | X-H torsion
[ 10167 10162 10161 10158 ] final -103.58 input  -65.29 | X-H torsion
[ 10718 10713 10712 10709 ] final  -10.69 input   66.30 | X-H torsion
[ 10763 10752 10751 10750 ] final  -32.92 input  -60.55 | X-H torsion
[ 11005 11000 10999 10996 ] final  153.11 input  -57.11 | X-H torsion

> <Gold.Protein.ActiveResidues>
 VAL166  LYS551  ARG553  GLY616  TRP617  ASP618  TYR619  PRO620  LYS621  CYS622 
 ASP623  PHE694  ASN695  SER759  ASP760  ASP761  ALA762  ILE779  LEU786  VAL792 
 PHE793  MET794  SER795  GLU796  ALA797  LYS798  CYS799  TRP800  GLU811  SER814 

> <Gold.Protein.RotatedAtoms>
  150.6866  134.2970  159.4690 H   0  0  0  0  0  0  0  0  0  0  0  0  # atno 6907 bound_to 6896
  152.0869  134.9431  160.0582 H   0  0  0  0  0  0  0  0  0  0  0  0  # atno 6908 bound_to 6896
  152.0762  133.4095  159.4518 H   0  0  0  0  0  0  0  0  0  0  0  0  # atno 6909 bound_to 6896
  145.1484  140.8816  143.3661 H   0  0  0  0  0  0  0  0  0  0  0  0  # atno 7974 bound_to 7965
  156.1450  140.1562  156.8861 H   0  0  0  0  0  0  0  0  0  0  0  0  # atno 8008 bound_to 7997
  154.5020  140.0823  156.7855 H   0  0  0  0  0  0  0  0  0  0  0  0  # atno 8009 bound_to 7997
  155.4006  140.3414  155.4259 H   0  0  0  0  0  0  0  0  0  0  0  0  # atno 8010 bound_to 7997
  140.2185  143.3693  152.0990 H   0  0  0  0  0  0  0  0  0  0  0  0  # atno 10167 bound_to 10162
  156.6698  130.5006  149.6004 H   0  0  0  0  0  0  0  0  0  0  0  0  # atno 10718 bound_to 10713
  153.8216  135.6874  153.4826 H   0  0  0  0  0  0  0  0  0  0  0  0  # atno 10763 bound_to 10752
  153.1565  135.4597  154.9710 H   0  0  0  0  0  0  0  0  0  0  0  0  # atno 10764 bound_to 10752
  154.7925  135.3307  154.7688 H   0  0  0  0  0  0  0  0  0  0  0  0  # atno 10765 bound_to 10752
  140.1368  134.8765  157.2278 H   0  0  0  0  0  0  0  0  0  0  0  0  # atno 11005 bound_to 11000
  145.0457  139.3223  143.5954 LP  0  0  0  0  0  0  0  0  0  0  0  0  # atno 17320 bound_to 7965
  146.3497  139.9846  142.8692 LP  0  0  0  0  0  0  0  0  0  0  0  0  # atno 17321 bound_to 7965
  139.5153  144.6961  151.5627 LP  0  0  0  0  0  0  0  0  0  0  0  0  # atno 17342 bound_to 10162
  140.6272  143.9146  150.6575 LP  0  0  0  0  0  0  0  0  0  0  0  0  # atno 17343 bound_to 10162
  156.1947  130.6582  151.1101 LP  0  0  0  0  0  0  0  0  0  0  0  0  # atno 17370 bound_to 10713
  157.7081  131.0747  150.6597 LP  0  0  0  0  0  0  0  0  0  0  0  0  # atno 17371 bound_to 10713
  140.2772  134.3392  155.7354 LP  0  0  0  0  0  0  0  0  0  0  0  0  # atno 17394 bound_to 11000
  141.2179  133.7457  156.9310 LP  0  0  0  0  0  0  0  0  0  0  0  0  # atno 17395 bound_to 11000

$$$$
