AV-unprocessed.smi:2816|AV-procd|sdf|10842|dock1
  -GOLD-   2272015283D 1   1.00000     0.00000
 Structure written by MMmdl.
 43 45  0  0  0  0  0  0  0  0  1 V2000
  153.9195  131.4321  156.7098 C   0  0  0  0  0  0  0  0  0  0  0  0
  152.6385  130.5978  156.5347 C   0  0  0  0  0  0  0  0  0  0  0  0
  152.5346  130.1205  155.0745 C   0  0  0  0  0  0  0  0  0  0  0  0
  152.6739  129.3931  157.4924 C   0  0  0  0  0  0  0  0  0  0  0  0
  151.1886  131.6874  156.9556 S   0  0  0  0  0  0  0  0  0  0  0  0
  150.3735  130.9835  157.9586 O   0  0  0  0  0  0  0  0  0  0  0  0
  151.6943  133.0352  157.2613 O   0  0  0  0  0  0  0  0  0  0  0  0
  150.2109  131.8063  155.4558 C   0  0  0  0  0  0  0  0  0  0  0  0
  149.8449  133.0707  154.9517 C   0  0  0  0  0  0  0  0  0  0  0  0
  149.0383  133.1178  153.7994 C   0  0  0  0  0  0  0  0  0  0  0  0
  148.6212  131.9044  153.2023 C   0  0  0  0  0  0  0  0  0  0  0  0
  147.8100  131.8445  152.0594 N   0  0  0  0  0  0  0  0  0  0  0  0
  146.4355  132.3308  152.0773 C   0  0  2  0  0  0  0  0  0  0  0  0
  145.4110  131.2611  151.6744 C   0  0  0  0  0  0  0  0  0  0  0  0
  144.6883  131.9375  150.5033 C   0  0  1  0  0  0  0  0  0  0  0  0
  143.8299  133.1259  150.9576 C   0  0  0  0  0  0  0  0  0  0  0  0
  144.8944  134.1753  151.2763 C   0  0  0  0  0  0  0  0  0  0  0  0
  146.1925  133.4036  151.0014 C   0  0  2  0  0  0  0  0  0  0  0  0
  145.7767  132.6131  149.8994 O   0  0  0  0  0  0  0  0  0  0  0  0
  149.0458  130.6974  153.7994 C   0  0  0  0  0  0  0  0  0  0  0  0
  149.8175  130.6381  154.9049 N   0  0  0  0  0  0  0  0  0  0  0  0
  154.8101  130.8470  156.4774 H   0  0  0  0  0  0  0  0  0  0  0  0
  154.0213  131.7922  157.7340 H   0  0  0  0  0  0  0  0  0  0  0  0
  153.9175  132.3037  156.0544 H   0  0  0  0  0  0  0  0  0  0  0  0
  152.4471  130.9607  154.3851 H   0  0  0  0  0  0  0  0  0  0  0  0
  151.6714  129.4741  154.9209 H   0  0  0  0  0  0  0  0  0  0  0  0
  153.4171  129.5497  154.7841 H   0  0  0  0  0  0  0  0  0  0  0  0
  153.5483  128.7685  157.3071 H   0  0  0  0  0  0  0  0  0  0  0  0
  151.7939  128.7606  157.3752 H   0  0  0  0  0  0  0  0  0  0  0  0
  152.7146  129.7131  158.5339 H   0  0  0  0  0  0  0  0  0  0  0  0
  150.1677  133.9811  155.4342 H   0  0  0  0  0  0  0  0  0  0  0  0
  148.7507  134.0777  153.3976 H   0  0  0  0  0  0  0  0  0  0  0  0
  148.0909  131.2511  151.2915 H   0  0  0  0  0  0  0  0  0  0  0  0
  146.2180  132.7476  153.0615 H   0  0  0  0  0  0  0  0  0  0  0  0
  145.8960  130.3448  151.3344 H   0  0  0  0  0  0  0  0  0  0  0  0
  144.7330  131.0013  152.4877 H   0  0  0  0  0  0  0  0  0  0  0  0
  144.1694  131.2418  149.8432 H   0  0  0  0  0  0  0  0  0  0  0  0
  143.1823  133.4709  150.1508 H   0  0  0  0  0  0  0  0  0  0  0  0
  143.2051  132.8799  151.8167 H   0  0  0  0  0  0  0  0  0  0  0  0
  144.8028  135.0277  150.6023 H   0  0  0  0  0  0  0  0  0  0  0  0
  144.8352  134.5433  152.3011 H   0  0  0  0  0  0  0  0  0  0  0  0
  147.0488  134.0493  150.8014 H   0  0  0  0  0  0  0  0  0  0  0  0
  148.7505  129.7461  153.3812 H   0  0  0  0  0  0  0  0  0  0  0  0
  1  2  1  0  0  0  0
  1 22  1  0  0  0  0
  1 23  1  0  0  0  0
  1 24  1  0  0  0  0
  2  3  1  0  0  0  0
  2  4  1  0  0  0  0
  2  5  1  0  0  0  0
  3 25  1  0  0  0  0
  3 26  1  0  0  0  0
  3 27  1  0  0  0  0
  4 28  1  0  0  0  0
  4 29  1  0  0  0  0
  4 30  1  0  0  0  0
  5  6  2  0  0  0  0
  5  7  2  0  0  0  0
  5  8  1  0  0  0  0
  8 21  1  0  0  0  0
  8  9  2  0  0  0  0
  9 10  1  0  0  0  0
  9 31  1  0  0  0  0
 10 11  2  0  0  0  0
 10 32  1  0  0  0  0
 11 12  1  0  0  0  0
 11 20  1  0  0  0  0
 12 13  1  0  0  0  0
 12 33  1  0  0  0  0
 13 18  1  0  0  0  0
 13 14  1  0  0  0  0
 13 34  1  0  0  0  0
 14 15  1  0  0  0  0
 14 35  1  0  0  0  0
 14 36  1  0  0  0  0
 15 19  1  0  0  0  0
 15 16  1  0  0  0  0
 15 37  1  0  0  0  0
 16 17  1  0  0  0  0
 16 38  1  0  0  0  0
 16 39  1  0  0  0  0
 17 18  1  0  0  0  0
 17 40  1  0  0  0  0
 17 41  1  0  0  0  0
 18 19  1  0  0  0  0
 18 42  1  0  0  0  0
 20 21  2  0  0  0  0
 20 43  1  0  0  0  0
M  END
> <s_m_source_file>
AV-unprocessed.smi

> <i_m_source_file_index>
2816

> <i_lp_mmshare_version>
43012

> <i_f3d_flags>
0

> <s_epik_input>
W0NIM11DKFtDSDNdKShbQ0gzXSlTKD1PKSg9TyljMVtjSF1bY0hdYyhbY0hdbjEpW05IXVtDQEhdKFtDSDJdW0NAQEhdMjMpW0NAQEhdKE8zKVtDSDJdW0NIMl0y

> <s_epik_cmdline>
J2VwaWtfcHl0aG9uJywgJy1waCcsICc3LjAnLCAnLXRuJywgJzgnLCAnLW1hJywgJzIwMCcsICctbWV0YWxfYmluZGluZycsICctaW1hZScsICc8aW5maWxlLm1hZT4nLCAnLW9tYWUnLCAnPG91dGZpbGUubWFlPic=

> <r_lp_tautomer_probability>
1

> <r_epik_Ionization_Penalty>
1.94439e-07

> <r_epik_Ionization_Penalty_Charging>
0

> <r_epik_Ionization_Penalty_Neutral>
1.94439e-07

> <r_epik_State_Penalty>
-0

> <r_epik_Charging_Adjusted_Penalty>
0

> <i_epik_Tot_Q>
0

> <i_epik_Tot_abs_Q>
0

> <r_epik_Metal_State_Penalty>
-0

> <b_epik_Metal_Only>
0

> <s_lp_Force_Field>
OPLS_2005

> <r_lp_Energy>
42.0373

> <b_lp_Chiralities_Consistent>
1

> <s_lp_Variant>
AV-unprocessed.smi:2816-1

> <Gold.Version>
5.8.1

> <Gold.Id.Protein>
6NUR|6NUR_protein|mol2

> <Gold.PLP.Fitness>
39.4652

> <Gold.PLP.PLP>
-35.7438

> <Gold.PLP.part.hbond>
-1.6672

> <Gold.PLP.part.metal>
0.0000

> <Gold.PLP.part.buried>
-5.9167

> <Gold.PLP.part.nonpolar>
-29.2599

> <Gold.PLP.part.repulsive>
0.1851

> <Gold.PLP.ligand.clash>
0.0000

> <Gold.PLP.ligand.torsion>
1.8178

> <Gold.PLP.Chemscore.Hbond>
1.7040

> <Gold.PLP.Chemscore.CHOScore>
0.0000

> <Gold.PLP.Chemscore.Metal>
0.0000

> <Gold.Chemscore.Hbonds>
donor molecule, donor type, donor heavy atom, donor atom, acceptor molecule, acceptor atom, score
      L1  H    12    33       P1 10747  0.68
      P1  H  6896  6908       L1     7  0.80

> <Gold.PLP.Chemscore.Internal.Correction>
2.2450

> <Gold.Rescore>
     Score         DG    S(hbond)    S(metal)    S(lipo)     H(rot)  DE(clash)    DE(int)     intcor
     15.51     -18.72       1.98        0.00      81.78       1.15       0.01       3.20       ----

> <Gold.Chemscore.Fitness>
15.5141

> <Gold.Chemscore.DG>
-18.7200

> <Gold.Chemscore.ZeroCoef>
-5.4800

> <Gold.Chemscore.Hbond>
1.9784

> <Gold.Chemscore.Metal>
0.0000

> <Gold.Chemscore.Lipo>
81.7829

> <Gold.Chemscore.Internal_Hbond>
0.0000

> <Gold.Chemscore.DEClash>
0.0089

> <Gold.Chemscore.DEInternal>
3.1970

> <Gold.Chemscore.Rot>
1.1471

> <Gold.Chemscore.Internal.Correction>
   9.000000E+99

> <Gold.Chemscore.Hbonds>
donor molecule, donor type, donor heavy atom, donor atom, acceptor molecule, acceptor atom, score
      L1  H    12    33       P1 10747  0.67
      P1  H  6896  6908       L1     7  0.50

> <Gold.Chemscore.Hbond.Weighted>
-6.6080

> <Gold.Chemscore.Metal.Weighted>
-0.0000

> <Gold.Chemscore.Lipo.Weighted>
-9.5686

> <Gold.Chemscore.Internal_Hbond.Weighted>
0.0000

> <Gold.Chemscore.DEClash.Weighted>
0.0089

> <Gold.Chemscore.DEInternal.Weighted>
3.1970

> <Gold.Chemscore.Rot.Weighted>
2.9366

> <Gold.Chemscore.Internal.Correction.Weighted>
   9.000000E+99

> <Gold.Protein.RotatedTorsions>
[ 6907 6896 6895 6894 ] final   76.54 input  -60.11 | X-H torsion
[ 7974 7965 7964 7962 ] final  -79.80 input  175.53 | X-H torsion
[ 8008 7997 7996 7995 ] final -155.08 input   59.86 | X-H torsion
[ 10167 10162 10161 10158 ] final  -39.06 input  -65.29 | X-H torsion
[ 10718 10713 10712 10709 ] final -133.00 input   66.30 | X-H torsion
[ 10763 10752 10751 10750 ] final  112.67 input  -60.55 | X-H torsion
[ 11005 11000 10999 10996 ] final   37.68 input  -57.11 | X-H torsion

> <Gold.Protein.ActiveResidues>
 VAL166  LYS551  ARG553  GLY616  TRP617  ASP618  TYR619  PRO620  LYS621  CYS622 
 ASP623  PHE694  ASN695  SER759  ASP760  ASP761  ALA762  ILE779  LEU786  VAL792 
 PHE793  MET794  SER795  GLU796  ALA797  LYS798  CYS799  TRP800  GLU811  SER814 

> <Gold.Protein.RotatedAtoms>
  152.5077  134.3954  159.9397 H   0  0  0  0  0  0  0  0  0  0  0  0  # atno 6907 bound_to 6896
  151.3915  133.3781  159.2729 H   0  0  0  0  0  0  0  0  0  0  0  0  # atno 6908 bound_to 6896
  150.9429  134.8857  159.7682 H   0  0  0  0  0  0  0  0  0  0  0  0  # atno 6909 bound_to 6896
  145.5684  140.9470  143.1409 H   0  0  0  0  0  0  0  0  0  0  0  0  # atno 7974 bound_to 7965
  155.6963  140.0761  157.2428 H   0  0  0  0  0  0  0  0  0  0  0  0  # atno 8008 bound_to 7997
  154.4080  140.1655  156.2194 H   0  0  0  0  0  0  0  0  0  0  0  0  # atno 8009 bound_to 7997
  155.9408  140.3384  155.6328 H   0  0  0  0  0  0  0  0  0  0  0  0  # atno 8010 bound_to 7997
  140.7075  143.3238  151.2730 H   0  0  0  0  0  0  0  0  0  0  0  0  # atno 10167 bound_to 10162
  156.2404  130.7092  151.0951 H   0  0  0  0  0  0  0  0  0  0  0  0  # atno 10718 bound_to 10713
  153.4812  135.3679  155.2443 H   0  0  0  0  0  0  0  0  0  0  0  0  # atno 10763 bound_to 10752
  154.8755  135.3954  154.3698 H   0  0  0  0  0  0  0  0  0  0  0  0  # atno 10764 bound_to 10752
  153.4302  135.7082  153.6301 H   0  0  0  0  0  0  0  0  0  0  0  0  # atno 10765 bound_to 10752
  140.2202  134.3650  155.8008 H   0  0  0  0  0  0  0  0  0  0  0  0  # atno 11005 bound_to 11000
  144.7449  139.7346  143.7296 LP  0  0  0  0  0  0  0  0  0  0  0  0  # atno 17320 bound_to 7965
  146.1802  139.4990  142.9871 LP  0  0  0  0  0  0  0  0  0  0  0  0  # atno 17321 bound_to 7965
  139.6699  144.0038  152.2746 LP  0  0  0  0  0  0  0  0  0  0  0  0  # atno 17342 bound_to 10162
  139.9633  144.6543  150.8058 LP  0  0  0  0  0  0  0  0  0  0  0  0  # atno 17343 bound_to 10162
  157.7173  131.0702  150.6278 LP  0  0  0  0  0  0  0  0  0  0  0  0  # atno 17370 bound_to 10713
  156.6351  130.4442  149.5772 LP  0  0  0  0  0  0  0  0  0  0  0  0  # atno 17371 bound_to 10713
  141.2223  133.7189  156.8563 LP  0  0  0  0  0  0  0  0  0  0  0  0  # atno 17394 bound_to 11000
  140.1858  134.9001  157.3002 LP  0  0  0  0  0  0  0  0  0  0  0  0  # atno 17395 bound_to 11000

$$$$
