AV-unprocessed.smi:1993|AV-procd|sdf|8071|dock7
  -GOLD-   2272010283D 1   1.00000     0.00000
 Structure written by MMmdl.
 50 51  0  0  0  0  0  0  0  0  1 V2000
  147.5250  132.9399  157.6505 C   0  0  0  0  0  0  0  0  0  0  0  0
  148.2156  133.9031  158.6095 C   0  0  0  0  0  0  0  0  0  0  0  0
  149.3718  134.2660  158.3947 O   0  0  0  0  0  0  0  0  0  0  0  0
  147.4928  134.3132  159.6637 N   0  0  0  0  0  0  0  0  0  0  0  0
  147.9509  135.2442  160.6964 C   0  0  1  0  0  0  0  0  0  0  0  0
  147.9841  136.6600  160.0909 C   0  0  0  0  0  0  0  0  0  0  0  0
  147.3260  137.5713  160.5960 O   0  0  0  0  0  0  0  0  0  0  0  0
  148.7693  136.8288  159.0165 N   0  0  0  0  0  0  0  0  0  0  0  0
  148.9757  138.0936  158.3221 C   0  0  0  0  0  0  0  0  0  0  0  0
  149.6713  137.9176  156.9785 C   0  0  0  0  0  0  0  0  0  0  0  0
  149.6250  136.6657  156.3296 C   0  0  0  0  0  0  0  0  0  0  0  0
  150.2648  136.5134  155.0860 C   0  0  0  0  0  0  0  0  0  0  0  0
  150.9288  137.6255  154.5369 C   0  0  0  0  0  0  0  0  0  0  0  0
  150.9803  138.8294  155.1440 N   0  0  0  0  0  0  0  0  0  0  0  0
  150.3659  138.9787  156.3428 C   0  0  0  0  0  0  0  0  0  0  0  0
  150.4224  140.2463  156.9446 N   0  0  0  0  0  0  0  0  0  0  0  0
  150.7998  141.3031  156.0166 C   0  0  0  0  0  0  0  0  0  0  0  0
  150.6625  142.6741  156.6998 C   0  0  0  0  0  0  0  0  0  0  0  0
  151.4413  142.6939  157.8931 O   0  0  0  0  0  0  0  0  0  0  0  0
  151.0220  141.7001  158.8247 C   0  0  0  0  0  0  0  0  0  0  0  0
  151.1721  140.3054  158.1933 C   0  0  0  0  0  0  0  0  0  0  0  0
  146.9558  135.1966  161.8940 C   0  0  0  0  0  0  0  0  0  0  0  0
  147.3536  136.1391  163.0488 C   0  0  0  0  0  0  0  0  0  0  0  0
  146.7906  133.7674  162.4477 C   0  0  0  0  0  0  0  0  0  0  0  0
  146.9761  132.1736  158.1989 H   0  0  0  0  0  0  0  0  0  0  0  0
  148.2544  132.4431  157.0099 H   0  0  0  0  0  0  0  0  0  0  0  0
  146.8234  133.4800  157.0146 H   0  0  0  0  0  0  0  0  0  0  0  0
  146.5483  133.9682  159.7534 H   0  0  0  0  0  0  0  0  0  0  0  0
  148.9471  134.9577  161.0407 H   0  0  0  0  0  0  0  0  0  0  0  0
  149.2689  136.0264  158.6618 H   0  0  0  0  0  0  0  0  0  0  0  0
  148.0057  138.5669  158.1679 H   0  0  0  0  0  0  0  0  0  0  0  0
  149.5439  138.7802  158.9517 H   0  0  0  0  0  0  0  0  0  0  0  0
  149.1030  135.8320  156.7759 H   0  0  0  0  0  0  0  0  0  0  0  0
  150.2457  135.5675  154.5655 H   0  0  0  0  0  0  0  0  0  0  0  0
  151.4307  137.5474  153.5838 H   0  0  0  0  0  0  0  0  0  0  0  0
  151.8281  141.1507  155.6860 H   0  0  0  0  0  0  0  0  0  0  0  0
  150.1669  141.2626  155.1310 H   0  0  0  0  0  0  0  0  0  0  0  0
  151.0109  143.4631  156.0335 H   0  0  0  0  0  0  0  0  0  0  0  0
  149.6178  142.8890  156.9309 H   0  0  0  0  0  0  0  0  0  0  0  0
  151.6334  141.7742  159.7240 H   0  0  0  0  0  0  0  0  0  0  0  0
  149.9889  141.8820  159.1251 H   0  0  0  0  0  0  0  0  0  0  0  0
  150.8078  139.5400  158.8795 H   0  0  0  0  0  0  0  0  0  0  0  0
  152.2263  140.0983  158.0046 H   0  0  0  0  0  0  0  0  0  0  0  0
  145.9733  135.5160  161.5416 H   0  0  0  0  0  0  0  0  0  0  0  0
  148.3368  135.8825  163.4430 H   0  0  0  0  0  0  0  0  0  0  0  0
  146.6422  136.0698  163.8720 H   0  0  0  0  0  0  0  0  0  0  0  0
  147.3769  137.1849  162.7417 H   0  0  0  0  0  0  0  0  0  0  0  0
  147.7449  133.3637  162.7877 H   0  0  0  0  0  0  0  0  0  0  0  0
  146.3870  133.0835  161.7011 H   0  0  0  0  0  0  0  0  0  0  0  0
  146.1041  133.7514  163.2948 H   0  0  0  0  0  0  0  0  0  0  0  0
  1  2  1  0  0  0  0
  1 25  1  0  0  0  0
  1 26  1  0  0  0  0
  1 27  1  0  0  0  0
  2  3  2  0  0  0  0
  2  4  1  0  0  0  0
  4  5  1  0  0  0  0
  4 28  1  0  0  0  0
  5  6  1  0  0  0  0
  5 22  1  0  0  0  0
  5 29  1  0  0  0  0
  6  7  2  0  0  0  0
  6  8  1  0  0  0  0
  8  9  1  0  0  0  0
  8 30  1  0  0  0  0
  9 10  1  0  0  0  0
  9 31  1  0  0  0  0
  9 32  1  0  0  0  0
 10 15  1  0  0  0  0
 10 11  2  0  0  0  0
 11 12  1  0  0  0  0
 11 33  1  0  0  0  0
 12 13  2  0  0  0  0
 12 34  1  0  0  0  0
 13 14  1  0  0  0  0
 13 35  1  0  0  0  0
 14 15  2  0  0  0  0
 15 16  1  0  0  0  0
 16 21  1  0  0  0  0
 16 17  1  0  0  0  0
 17 18  1  0  0  0  0
 17 36  1  0  0  0  0
 17 37  1  0  0  0  0
 18 19  1  0  0  0  0
 18 38  1  0  0  0  0
 18 39  1  0  0  0  0
 19 20  1  0  0  0  0
 20 21  1  0  0  0  0
 20 40  1  0  0  0  0
 20 41  1  0  0  0  0
 21 42  1  0  0  0  0
 21 43  1  0  0  0  0
 22 23  1  0  0  0  0
 22 24  1  0  0  0  0
 22 44  1  0  0  0  0
 23 45  1  0  0  0  0
 23 46  1  0  0  0  0
 23 47  1  0  0  0  0
 24 48  1  0  0  0  0
 24 49  1  0  0  0  0
 24 50  1  0  0  0  0
M  END
> <s_m_source_file>
AV-unprocessed.smi

> <i_m_source_file_index>
1993

> <i_lp_mmshare_version>
43012

> <i_f3d_flags>
0

> <s_epik_input>
W0NIM11DKD1PKVtOSF1bQ0BASF0oW0NIXShbQ0gzXSlbQ0gzXSlDKD1PKVtOSF1bQ0gyXWMxW2NIXVtjSF1bY0hdbmMxTjJbQ0gyXVtDSDJdT1tDSDJdW0NIMl0y

> <s_epik_cmdline>
J2VwaWtfcHl0aG9uJywgJy1waCcsICc3LjAnLCAnLXRuJywgJzgnLCAnLW1hJywgJzIwMCcsICctbWV0YWxfYmluZGluZycsICctaW1hZScsICc8aW5maWxlLm1hZT4nLCAnLW9tYWUnLCAnPG91dGZpbGUubWFlPic=

> <r_lp_tautomer_probability>
1

> <r_epik_Ionization_Penalty>
0.00485175

> <r_epik_Ionization_Penalty_Charging>
0

> <r_epik_Ionization_Penalty_Neutral>
0.00485175

> <r_epik_State_Penalty>
0.00351951

> <r_epik_Charging_Adjusted_Penalty>
0.00351951

> <i_epik_Tot_Q>
0

> <i_epik_Tot_abs_Q>
0

> <r_epik_Metal_State_Penalty>
-0

> <b_epik_Metal_Only>
0

> <s_lp_Force_Field>
OPLS_2005

> <r_lp_Energy>
18.9648

> <b_lp_Chiralities_Consistent>
1

> <s_lp_Variant>
AV-unprocessed.smi:1993-2

> <Gold.Version>
5.8.1

> <Gold.Id.Protein>
6NUR|6NUR_protein|mol2

> <Gold.PLP.Fitness>
43.7339

> <Gold.PLP.PLP>
-34.2987

> <Gold.PLP.part.hbond>
-2.8745

> <Gold.PLP.part.metal>
0.0000

> <Gold.PLP.part.buried>
-3.9279

> <Gold.PLP.part.nonpolar>
-27.8692

> <Gold.PLP.part.repulsive>
0.3230

> <Gold.PLP.ligand.clash>
0.0000

> <Gold.PLP.ligand.torsion>
0.8148

> <Gold.PLP.Chemscore.Hbond>
2.6160

> <Gold.PLP.Chemscore.CHOScore>
1.0000

> <Gold.PLP.Chemscore.Metal>
0.0000

> <Gold.Chemscore.Hbonds>
donor molecule, donor type, donor heavy atom, donor atom, acceptor molecule, acceptor atom, score
      P1  H  6896  6907       L1     3  0.93
      P1  H  6931  6943       L1     7  0.18
      P1  H  6934  6947       L1     7  0.91
      L1  C    13    35       P1  7949  0.77

> <Gold.PLP.Chemscore.Internal.Correction>
0.2169

> <Gold.Rescore>
     Score         DG    S(hbond)    S(metal)    S(lipo)     H(rot)  DE(clash)    DE(int)     intcor
     15.06     -17.60       2.54        0.00      78.69       2.18       0.17       2.37       ----

> <Gold.Chemscore.Fitness>
15.0590

> <Gold.Chemscore.DG>
-17.5993

> <Gold.Chemscore.ZeroCoef>
-5.4800

> <Gold.Chemscore.Hbond>
2.5439

> <Gold.Chemscore.Metal>
0.0000

> <Gold.Chemscore.Lipo>
78.6896

> <Gold.Chemscore.Internal_Hbond>
0.0000

> <Gold.Chemscore.DEClash>
0.1661

> <Gold.Chemscore.DEInternal>
2.3743

> <Gold.Chemscore.Rot>
2.1813

> <Gold.Chemscore.Internal.Correction>
   9.000000E+99

> <Gold.Chemscore.Hbonds>
donor molecule, donor type, donor heavy atom, donor atom, acceptor molecule, acceptor atom, score
      P1  H  6896  6907       L1     3  0.89
      P1  H  6931  6943       L1     7  0.02
      P1  H  6934  6947       L1     7  0.85

> <Gold.Chemscore.Hbond.Weighted>
-8.4968

> <Gold.Chemscore.Metal.Weighted>
-0.0000

> <Gold.Chemscore.Lipo.Weighted>
-9.2067

> <Gold.Chemscore.Internal_Hbond.Weighted>
0.0000

> <Gold.Chemscore.DEClash.Weighted>
0.1661

> <Gold.Chemscore.DEInternal.Weighted>
2.3743

> <Gold.Chemscore.Rot.Weighted>
5.5842

> <Gold.Chemscore.Internal.Correction.Weighted>
   9.000000E+99

> <Gold.Protein.RotatedTorsions>
[ 6907 6896 6895 6894 ] final -120.03 input  -60.11 | X-H torsion
[ 7974 7965 7964 7962 ] final  110.84 input  175.53 | X-H torsion
[ 8008 7997 7996 7995 ] final -138.94 input   59.86 | X-H torsion
[ 10167 10162 10161 10158 ] final -142.16 input  -65.29 | X-H torsion
[ 10718 10713 10712 10709 ] final  -11.17 input   66.30 | X-H torsion
[ 10763 10752 10751 10750 ] final  121.26 input  -60.55 | X-H torsion
[ 11005 11000 10999 10996 ] final   84.09 input  -57.11 | X-H torsion

> <Gold.Protein.ActiveResidues>
 VAL166  LYS551  ARG553  GLY616  TRP617  ASP618  TYR619  PRO620  LYS621  CYS622 
 ASP623  PHE694  ASN695  SER759  ASP760  ASP761  ALA762  ILE779  LEU786  VAL792 
 PHE793  MET794  SER795  GLU796  ALA797  LYS798  CYS799  TRP800  GLU811  SER814 

> <Gold.Protein.RotatedAtoms>
  150.8357  133.8017  159.3080 H   0  0  0  0  0  0  0  0  0  0  0  0  # atno 6907 bound_to 6896
  151.5733  135.1060  160.0010 H   0  0  0  0  0  0  0  0  0  0  0  0  # atno 6908 bound_to 6896
  152.4430  133.7441  159.6714 H   0  0  0  0  0  0  0  0  0  0  0  0  # atno 6909 bound_to 6896
  145.2498  139.2744  143.4073 H   0  0  0  0  0  0  0  0  0  0  0  0  # atno 7974 bound_to 7965
  155.4366  140.0529  157.3014 H   0  0  0  0  0  0  0  0  0  0  0  0  # atno 8008 bound_to 7997
  154.4836  140.2092  155.9663 H   0  0  0  0  0  0  0  0  0  0  0  0  # atno 8009 bound_to 7997
  156.1243  140.3183  155.8258 H   0  0  0  0  0  0  0  0  0  0  0  0  # atno 8010 bound_to 7997
  139.8115  143.7696  152.2663 H   0  0  0  0  0  0  0  0  0  0  0  0  # atno 10167 bound_to 10162
  156.6630  130.4987  149.6024 H   0  0  0  0  0  0  0  0  0  0  0  0  # atno 10718 bound_to 10713
  153.6112  135.3430  155.2979 H   0  0  0  0  0  0  0  0  0  0  0  0  # atno 10763 bound_to 10752
  154.8618  135.4251  154.2307 H   0  0  0  0  0  0  0  0  0  0  0  0  # atno 10764 bound_to 10752
  153.3158  135.7035  153.7146 H   0  0  0  0  0  0  0  0  0  0  0  0  # atno 10765 bound_to 10752
  139.9011  134.8191  156.2398 H   0  0  0  0  0  0  0  0  0  0  0  0  # atno 11005 bound_to 11000
  146.3305  140.2886  142.8614 LP  0  0  0  0  0  0  0  0  0  0  0  0  # atno 17320 bound_to 7965
  144.9513  140.8181  143.5570 LP  0  0  0  0  0  0  0  0  0  0  0  0  # atno 17321 bound_to 7965
  139.7846  144.7432  151.0040 LP  0  0  0  0  0  0  0  0  0  0  0  0  # atno 17342 bound_to 10162
  140.7817  143.4505  151.0419 LP  0  0  0  0  0  0  0  0  0  0  0  0  # atno 17343 bound_to 10162
  156.1997  130.6612  151.1153 LP  0  0  0  0  0  0  0  0  0  0  0  0  # atno 17370 bound_to 10713
  157.7103  131.0737  150.6523 LP  0  0  0  0  0  0  0  0  0  0  0  0  # atno 17371 bound_to 10713
  141.0292  133.6998  156.1401 LP  0  0  0  0  0  0  0  0  0  0  0  0  # atno 17394 bound_to 11000
  140.7121  134.4450  157.5581 LP  0  0  0  0  0  0  0  0  0  0  0  0  # atno 17395 bound_to 11000

$$$$
