AV-unprocessed.smi:691|AV-procd|sdf|3367|dock1
  -GOLD-   22720 0343D 1   1.00000     0.00000
 Structure written by MMmdl.
 37 38  0  0  0  0  0  0  0  0  1 V2000
  145.0745  136.6486  154.4288 C   0  0  0  0  0  0  0  0  0  0  0  0
  144.7529  136.5167  152.9212 C   0  0  2  0  0  0  0  0  0  0  0  0
  143.2268  136.7002  152.7043 C   0  0  0  0  0  0  0  0  0  0  0  0
  142.7514  137.9087  153.2631 O   0  0  0  0  0  0  0  0  0  0  0  0
  145.1709  135.1318  152.3940 C   0  0  0  0  0  0  0  0  0  0  0  0
  145.3466  135.2859  150.8796 C   0  0  0  0  0  0  0  0  0  0  0  0
  145.6208  136.7751  150.6310 C   0  0  0  0  0  0  0  0  0  0  0  0
  145.5642  137.4712  152.0023 C   0  0  2  0  0  0  0  0  0  0  0  0
  146.9302  137.6869  152.4877 N   0  0  0  0  0  0  0  0  0  0  0  0
  147.3254  138.6461  153.3372 C   0  0  0  0  0  0  0  0  0  0  0  0
  146.5686  139.4895  153.8170 O   0  0  0  0  0  0  0  0  0  0  0  0
  148.6465  138.5656  153.5713 N   0  0  0  0  0  0  0  0  0  0  0  0
  149.4501  139.3845  154.4104 C   0  0  0  0  0  0  0  0  0  0  0  0
  148.8264  140.4597  155.0761 C   0  0  0  0  0  0  0  0  0  0  0  0
  149.5998  141.2990  155.9003 C   0  0  0  0  0  0  0  0  0  0  0  0
  150.9775  141.0344  156.0203 C   0  0  0  0  0  0  0  0  0  0  0  0
  151.5943  140.0196  155.3790 N   0  0  0  0  0  0  0  0  0  0  0  0
  150.8458  139.2168  154.5915 C   0  0  0  0  0  0  0  0  0  0  0  0
  144.4446  135.9859  155.0230 H   0  0  0  0  0  0  0  0  0  0  0  0
  144.9089  137.6665  154.7834 H   0  0  0  0  0  0  0  0  0  0  0  0
  146.1092  136.3900  154.6551 H   0  0  0  0  0  0  0  0  0  0  0  0
  142.9717  136.6943  151.6443 H   0  0  0  0  0  0  0  0  0  0  0  0
  142.6760  135.8770  153.1607 H   0  0  0  0  0  0  0  0  0  0  0  0
  143.2586  138.6238  152.9101 H   0  0  0  0  0  0  0  0  0  0  0  0
  146.1304  134.8451  152.8271 H   0  0  0  0  0  0  0  0  0  0  0  0
  144.4608  134.3449  152.6507 H   0  0  0  0  0  0  0  0  0  0  0  0
  146.1549  134.6556  150.5075 H   0  0  0  0  0  0  0  0  0  0  0  0
  144.4355  134.9855  150.3606 H   0  0  0  0  0  0  0  0  0  0  0  0
  146.5730  136.9330  150.1221 H   0  0  0  0  0  0  0  0  0  0  0  0
  144.8466  137.1810  149.9785 H   0  0  0  0  0  0  0  0  0  0  0  0
  145.0586  138.4326  151.8996 H   0  0  0  0  0  0  0  0  0  0  0  0
  147.6304  137.0442  152.1477 H   0  0  0  0  0  0  0  0  0  0  0  0
  149.1476  137.8668  153.0425 H   0  0  0  0  0  0  0  0  0  0  0  0
  147.7672  140.6393  154.9615 H   0  0  0  0  0  0  0  0  0  0  0  0
  149.1481  142.1266  156.4272 H   0  0  0  0  0  0  0  0  0  0  0  0
  151.6016  141.6579  156.6433 H   0  0  0  0  0  0  0  0  0  0  0  0
  151.3995  138.4408  154.0866 H   0  0  0  0  0  0  0  0  0  0  0  0
  1  2  1  0  0  0  0
  1 19  1  0  0  0  0
  1 20  1  0  0  0  0
  1 21  1  0  0  0  0
  2  8  1  0  0  0  0
  2  3  1  0  0  0  0
  2  5  1  0  0  0  0
  3  4  1  0  0  0  0
  3 22  1  0  0  0  0
  3 23  1  0  0  0  0
  4 24  1  0  0  0  0
  5  6  1  0  0  0  0
  5 25  1  0  0  0  0
  5 26  1  0  0  0  0
  6  7  1  0  0  0  0
  6 27  1  0  0  0  0
  6 28  1  0  0  0  0
  7  8  1  0  0  0  0
  7 29  1  0  0  0  0
  7 30  1  0  0  0  0
  8  9  1  0  0  0  0
  8 31  1  0  0  0  0
  9 10  1  0  0  0  0
  9 32  1  0  0  0  0
 10 11  2  0  0  0  0
 10 12  1  0  0  0  0
 12 13  1  0  0  0  0
 12 33  1  0  0  0  0
 13 18  1  0  0  0  0
 13 14  2  0  0  0  0
 14 15  1  0  0  0  0
 14 34  1  0  0  0  0
 15 16  2  0  0  0  0
 15 35  1  0  0  0  0
 16 17  1  0  0  0  0
 16 36  1  0  0  0  0
 17 18  2  0  0  0  0
 18 37  1  0  0  0  0
M  END
> <s_m_source_file>
AV-unprocessed.smi

> <i_m_source_file_index>
691

> <i_lp_mmshare_version>
43012

> <i_f3d_flags>
0

> <s_epik_input>
W09IXVtDSDJdW0NAXTEoW0NIM10pW0NIMl1bQ0gyXVtDSDJdW0NASF0xW05IXUMoPU8pW05IXWMyW2NIXVtjSF1bY0hdbltjSF0y

> <s_epik_cmdline>
J2VwaWtfcHl0aG9uJywgJy1waCcsICc3LjAnLCAnLXRuJywgJzgnLCAnLW1hJywgJzIwMCcsICctbWV0YWxfYmluZGluZycsICctaW1hZScsICc8aW5maWxlLm1hZT4nLCAnLW9tYWUnLCAnPG91dGZpbGUubWFlPic=

> <r_epik_Ionization_Penalty>
0.00496828

> <r_epik_Ionization_Penalty_Charging>
0

> <r_epik_Ionization_Penalty_Neutral>
0.00496828

> <r_epik_State_Penalty>
0.00358054

> <r_epik_Charging_Adjusted_Penalty>
0.00358054

> <i_epik_Tot_Q>
0

> <i_epik_Tot_abs_Q>
0

> <r_epik_Metal_State_Penalty>
-0

> <b_epik_Metal_Only>
0

> <s_lp_Force_Field>
OPLS_2005

> <r_lp_Energy>
30.6456

> <b_lp_Chiralities_Consistent>
1

> <s_lp_Variant>
AV-unprocessed.smi:691-4

> <Gold.Version>
5.8.1

> <Gold.Id.Protein>
6NUR|6NUR_protein|mol2

> <Gold.PLP.Fitness>
37.5471

> <Gold.PLP.PLP>
-29.5865

> <Gold.PLP.part.hbond>
-5.0000

> <Gold.PLP.part.metal>
0.0000

> <Gold.PLP.part.buried>
1.0652

> <Gold.PLP.part.nonpolar>
-27.0786

> <Gold.PLP.part.repulsive>
0.3105

> <Gold.PLP.ligand.clash>
0.0000

> <Gold.PLP.ligand.torsion>
0.4267

> <Gold.PLP.Chemscore.Hbond>
2.9280

> <Gold.PLP.Chemscore.CHOScore>
0.0000

> <Gold.PLP.Chemscore.Metal>
0.0000

> <Gold.Chemscore.Hbonds>
donor molecule, donor type, donor heavy atom, donor atom, acceptor molecule, acceptor atom, score
      L1  H     4    24       P1 10175  1.00
      L1  H     9    32       P1  7948  1.00
      L1  H    12    33       P1  7948  0.93

> <Gold.PLP.Chemscore.Internal.Correction>
0.0299

> <Gold.Rescore>
     Score         DG    S(hbond)    S(metal)    S(lipo)     H(rot)  DE(clash)    DE(int)     intcor
     14.77     -17.93       2.85        0.00      64.15       1.78       1.33       1.82       ----

> <Gold.Chemscore.Fitness>
14.7719

> <Gold.Chemscore.DG>
-17.9256

> <Gold.Chemscore.ZeroCoef>
-5.4800

> <Gold.Chemscore.Hbond>
2.8463

> <Gold.Chemscore.Metal>
0.0000

> <Gold.Chemscore.Lipo>
64.1498

> <Gold.Chemscore.Internal_Hbond>
0.0000

> <Gold.Chemscore.DEClash>
1.3326

> <Gold.Chemscore.DEInternal>
1.8210

> <Gold.Chemscore.Rot>
1.7838

> <Gold.Chemscore.Internal.Correction>
   9.000000E+99

> <Gold.Chemscore.Hbonds>
donor molecule, donor type, donor heavy atom, donor atom, acceptor molecule, acceptor atom, score
      L1  H     4    24       P1 10175  0.98
      L1  H     9    32       P1  7948  0.96
      L1  H    12    33       P1  7948  0.86

> <Gold.Chemscore.Hbond.Weighted>
-9.5067

> <Gold.Chemscore.Metal.Weighted>
-0.0000

> <Gold.Chemscore.Lipo.Weighted>
-7.5055

> <Gold.Chemscore.Internal_Hbond.Weighted>
0.0000

> <Gold.Chemscore.DEClash.Weighted>
1.3326

> <Gold.Chemscore.DEInternal.Weighted>
1.8210

> <Gold.Chemscore.Rot.Weighted>
4.5666

> <Gold.Chemscore.Internal.Correction.Weighted>
   9.000000E+99

> <Gold.Protein.RotatedTorsions>
[ 6907 6896 6895 6894 ] final   92.64 input  -60.11 | X-H torsion
[ 7974 7965 7964 7962 ] final   77.25 input  175.53 | X-H torsion
[ 8008 7997 7996 7995 ] final  138.02 input   59.86 | X-H torsion
[ 10167 10162 10161 10158 ] final   21.59 input  -65.29 | X-H torsion
[ 10718 10713 10712 10709 ] final   27.75 input   66.30 | X-H torsion
[ 10763 10752 10751 10750 ] final  -29.62 input  -60.55 | X-H torsion
[ 11005 11000 10999 10996 ] final -105.66 input  -57.11 | X-H torsion

> <Gold.Protein.ActiveResidues>
 VAL166  LYS551  ARG553  GLY616  TRP617  ASP618  TYR619  PRO620  LYS621  CYS622 
 ASP623  PHE694  ASN695  SER759  ASP760  ASP761  ALA762  ILE779  LEU786  VAL792 
 PHE793  MET794  SER795  GLU796  ALA797  LYS798  CYS799  TRP800  GLU811  SER814 

> <Gold.Protein.RotatedAtoms>
  152.5453  134.1470  159.8502 H   0  0  0  0  0  0  0  0  0  0  0  0  # atno 6907 bound_to 6896
  151.1501  133.4906  159.2603 H   0  0  0  0  0  0  0  0  0  0  0  0  # atno 6908 bound_to 6896
  151.1481  135.0224  159.8711 H   0  0  0  0  0  0  0  0  0  0  0  0  # atno 6909 bound_to 6896
  145.6924  139.2556  143.1752 H   0  0  0  0  0  0  0  0  0  0  0  0  # atno 7974 bound_to 7965
  156.2999  140.2404  156.4005 H   0  0  0  0  0  0  0  0  0  0  0  0  # atno 8008 bound_to 7997
  154.8532  140.0423  157.1637 H   0  0  0  0  0  0  0  0  0  0  0  0  # atno 8009 bound_to 7997
  154.8976  140.2972  155.5339 H   0  0  0  0  0  0  0  0  0  0  0  0  # atno 8010 bound_to 7997
  140.5415  143.9669  150.6522 H   0  0  0  0  0  0  0  0  0  0  0  0  # atno 10167 bound_to 10162
  157.2243  130.6994  149.6284 H   0  0  0  0  0  0  0  0  0  0  0  0  # atno 10718 bound_to 10713
  153.7675  135.6915  153.4913 H   0  0  0  0  0  0  0  0  0  0  0  0  # atno 10763 bound_to 10752
  153.1896  135.4476  155.0131 H   0  0  0  0  0  0  0  0  0  0  0  0  # atno 10764 bound_to 10752
  154.8130  135.3386  154.7187 H   0  0  0  0  0  0  0  0  0  0  0  0  # atno 10765 bound_to 10752
  141.1042  133.8827  157.1762 H   0  0  0  0  0  0  0  0  0  0  0  0  # atno 11005 bound_to 11000
  146.0870  140.7699  142.9614 LP  0  0  0  0  0  0  0  0  0  0  0  0  # atno 17320 bound_to 7965
  144.6993  140.3578  143.7169 LP  0  0  0  0  0  0  0  0  0  0  0  0  # atno 17321 bound_to 7965
  140.3070  143.3223  152.0916 LP  0  0  0  0  0  0  0  0  0  0  0  0  # atno 17342 bound_to 10162
  139.4991  144.6660  151.6354 LP  0  0  0  0  0  0  0  0  0  0  0  0  # atno 17343 bound_to 10162
  155.9680  130.4509  150.5716 LP  0  0  0  0  0  0  0  0  0  0  0  0  # atno 17370 bound_to 10713
  157.3543  131.0739  151.1688 LP  0  0  0  0  0  0  0  0  0  0  0  0  # atno 17371 bound_to 10713
  139.9906  135.0066  156.9965 LP  0  0  0  0  0  0  0  0  0  0  0  0  # atno 17394 bound_to 11000
  140.4944  134.1160  155.7238 LP  0  0  0  0  0  0  0  0  0  0  0  0  # atno 17395 bound_to 11000

$$$$
