AV-unprocessed.smi:3349|AV-procd|sdf|12936|dock10
  -GOLD-   2272019363D 1   1.00000     0.00000
 Structure written by MMmdl.
 41 42  0  0  0  0  0  0  0  0  2 V2000
  149.3382  130.8334  154.0260 C   0  0  0  0  0  0  0  0  0  0  0  0
  148.5379  132.1388  153.7886 C   0  0  1  0  0  0  0  0  0  0  0  0
  149.5089  133.3331  153.5852 C   0  0  0  0  0  0  0  0  0  0  0  0
  149.0745  134.5309  154.2946 N   0  0  0  0  0  0  0  0  0  0  0  0
  149.8906  135.3658  154.9552 C   0  0  0  0  0  0  0  0  0  0  0  0
  151.1122  135.2148  154.9984 O   0  0  0  0  0  0  0  0  0  0  0  0
  149.2129  136.5390  155.6801 C   0  0  2  0  0  0  0  0  0  0  0  0
  147.7638  136.7785  155.2167 C   0  0  0  0  0  0  0  0  0  0  0  0
  150.0148  137.7466  155.5367 N   0  0  0  0  0  0  0  0  0  0  0  0
  150.2069  138.5512  154.4873 C   0  0  0  0  0  0  0  0  0  0  0  0
  151.0312  139.5607  154.7288 N   0  0  0  0  0  0  0  0  0  0  0  0
  151.3307  139.3028  156.0364 C   0  0  0  0  0  0  0  0  0  0  0  0
  150.7523  138.2254  156.5672 N   0  0  0  0  0  0  0  0  0  0  0  0
  147.5696  131.9897  152.6498 N   0  3  0  0  0  0  0  0  0  0  0  0
  146.5344  130.9434  152.8840 C   0  0  0  0  0  0  0  0  0  0  0  0
  145.5805  130.8127  151.6848 C   0  0  0  0  0  0  0  0  0  0  0  0
  144.9679  132.0650  151.4243 O   0  0  0  0  0  0  0  0  0  0  0  0
  145.9325  133.0428  151.0708 C   0  0  0  0  0  0  0  0  0  0  0  0
  146.9090  133.2614  152.2391 C   0  0  0  0  0  0  0  0  0  0  0  0
  150.0916  130.9453  154.8053 H   0  0  0  0  0  0  0  0  0  0  0  0
  149.8535  130.5156  153.1191 H   0  0  0  0  0  0  0  0  0  0  0  0
  148.7058  130.0132  154.3617 H   0  0  0  0  0  0  0  0  0  0  0  0
  147.9551  132.3404  154.6890 H   0  0  0  0  0  0  0  0  0  0  0  0
  150.5128  133.0507  153.9077 H   0  0  0  0  0  0  0  0  0  0  0  0
  149.5715  133.6222  152.5369 H   0  0  0  0  0  0  0  0  0  0  0  0
  148.0836  134.7268  154.3069 H   0  0  0  0  0  0  0  0  0  0  0  0
  149.1773  136.2813  156.7406 H   0  0  0  0  0  0  0  0  0  0  0  0
  147.1553  135.8819  155.3403 H   0  0  0  0  0  0  0  0  0  0  0  0
  147.7164  137.0710  154.1669 H   0  0  0  0  0  0  0  0  0  0  0  0
  147.2965  137.5721  155.8006 H   0  0  0  0  0  0  0  0  0  0  0  0
  149.7381  138.3921  153.5272 H   0  0  0  0  0  0  0  0  0  0  0  0
  151.9978  139.9261  156.6136 H   0  0  0  0  0  0  0  0  0  0  0  0
  146.9892  129.9672  153.0405 H   0  0  0  0  0  0  0  0  0  0  0  0
  145.9680  131.1845  153.7848 H   0  0  0  0  0  0  0  0  0  0  0  0
  146.1112  130.4581  150.7995 H   0  0  0  0  0  0  0  0  0  0  0  0
  144.8031  130.0802  151.9025 H   0  0  0  0  0  0  0  0  0  0  0  0
  146.4659  132.7394  150.1684 H   0  0  0  0  0  0  0  0  0  0  0  0
  145.4179  133.9745  150.8348 H   0  0  0  0  0  0  0  0  0  0  0  0
  146.3823  133.6923  153.0921 H   0  0  0  0  0  0  0  0  0  0  0  0
  147.6414  133.9932  151.9033 H   0  0  0  0  0  0  0  0  0  0  0  0
  148.1105  131.6839  151.8534 H   0  0  0  0  0  0  0  0  0  0  0  0
  1  2  1  0  0  0  0
  1 20  1  0  0  0  0
  1 21  1  0  0  0  0
  1 22  1  0  0  0  0
  2  3  1  0  0  0  0
  2 14  1  0  0  0  0
  2 23  1  0  0  0  0
  3  4  1  0  0  0  0
  3 24  1  0  0  0  0
  3 25  1  0  0  0  0
  4  5  1  0  0  0  0
  4 26  1  0  0  0  0
  5  6  2  0  0  0  0
  5  7  1  0  0  0  0
  7  8  1  0  0  0  0
  7  9  1  0  0  0  0
  7 27  1  0  0  0  0
  8 28  1  0  0  0  0
  8 29  1  0  0  0  0
  8 30  1  0  0  0  0
  9 13  1  0  0  0  0
  9 10  1  0  0  0  0
 10 11  2  0  0  0  0
 10 31  1  0  0  0  0
 11 12  1  0  0  0  0
 12 13  2  0  0  0  0
 12 32  1  0  0  0  0
 14 19  1  0  0  0  0
 14 15  1  0  0  0  0
 14 41  1  0  0  0  0
 15 16  1  0  0  0  0
 15 33  1  0  0  0  0
 15 34  1  0  0  0  0
 16 17  1  0  0  0  0
 16 35  1  0  0  0  0
 16 36  1  0  0  0  0
 17 18  1  0  0  0  0
 18 19  1  0  0  0  0
 18 37  1  0  0  0  0
 18 38  1  0  0  0  0
 19 39  1  0  0  0  0
 19 40  1  0  0  0  0
M  CHG  1  14   1
M  END
> <s_m_source_file>
AV-unprocessed.smi

> <i_m_source_file_index>
3349

> <i_lp_mmshare_version>
43012

> <i_f3d_flags>
0

> <s_epik_input>
W0NIMl0xW0NIMl1PW0NIMl1bQ0gyXU4xW0NASF0oW0NIM10pW0NIMl1bTkhdQyg9TylbQ0BIXShbQ0gzXSluMltjSF1uW2NIXW4y

> <s_epik_cmdline>
J2VwaWtfcHl0aG9uJywgJy1waCcsICc3LjAnLCAnLXRuJywgJzgnLCAnLW1hJywgJzIwMCcsICctbWV0YWxfYmluZGluZycsICctaW1hZScsICc8aW5maWxlLm1hZT4nLCAnLW9tYWUnLCAnPG91dGZpbGUubWFlPic=

> <r_lp_tautomer_probability>
1

> <r_epik_Ionization_Penalty>
0.71326

> <r_epik_Ionization_Penalty_Charging>
0.713252

> <r_epik_Ionization_Penalty_Neutral>
8.10337e-06

> <r_epik_State_Penalty>
0.737017

> <r_epik_Charging_Adjusted_Penalty>
1.45027

> <i_epik_Tot_Q>
1

> <i_epik_Tot_abs_Q>
1

> <r_epik_Metal_State_Penalty>
0.73702

> <b_epik_Metal_Only>
0

> <s_lp_Force_Field>
OPLS_2005

> <r_lp_Energy>
26.8661

> <b_lp_Chiralities_Consistent>
1

> <s_lp_Variant>
AV-unprocessed.smi:3349-6

> <Gold.Version>
5.8.1

> <Gold.Id.Protein>
6NUR|6NUR_protein|mol2

> <Gold.PLP.Fitness>
41.5148

> <Gold.PLP.PLP>
-29.8669

> <Gold.PLP.part.hbond>
-4.0000

> <Gold.PLP.part.metal>
0.0000

> <Gold.PLP.part.buried>
-2.7002

> <Gold.PLP.part.nonpolar>
-22.7229

> <Gold.PLP.part.repulsive>
0.4034

> <Gold.PLP.ligand.clash>
0.0000

> <Gold.PLP.ligand.torsion>
1.4844

> <Gold.PLP.Chemscore.Hbond>
3.0000

> <Gold.PLP.Chemscore.CHOScore>
1.8321

> <Gold.PLP.Chemscore.Metal>
0.0000

> <Gold.Chemscore.Hbonds>
donor molecule, donor type, donor heavy atom, donor atom, acceptor molecule, acceptor atom, score
      L1  H    14    41       P1 10747  1.00
      P1  H  7989  7998       L1    11  1.00
      P1  H 10752 10764       L1     6  0.93
      L1  C    10    31       P1  7948  0.32
      L1  C    10    31       P1  7957  0.14

> <Gold.PLP.Chemscore.Internal.Correction>
0.1205

> <Gold.Rescore>
     Score         DG    S(hbond)    S(metal)    S(lipo)     H(rot)  DE(clash)    DE(int)     intcor
     13.25     -14.73       2.94        0.00      52.65       2.63       0.07       1.40       ----

> <Gold.Chemscore.Fitness>
13.2546

> <Gold.Chemscore.DG>
-14.7270

> <Gold.Chemscore.ZeroCoef>
-5.4800

> <Gold.Chemscore.Hbond>
2.9423

> <Gold.Chemscore.Metal>
0.0000

> <Gold.Chemscore.Lipo>
52.6494

> <Gold.Chemscore.Internal_Hbond>
0.0000

> <Gold.Chemscore.DEClash>
0.0727

> <Gold.Chemscore.DEInternal>
1.3996

> <Gold.Chemscore.Rot>
2.6329

> <Gold.Chemscore.Internal.Correction>
   9.000000E+99

> <Gold.Chemscore.Hbonds>
donor molecule, donor type, donor heavy atom, donor atom, acceptor molecule, acceptor atom, score
      L1  H    14    41       P1 10747  0.98
      P1  H  7989  7998       L1    11  1.00
      P1  H 10752 10764       L1     6  0.91

> <Gold.Chemscore.Hbond.Weighted>
-9.8274

> <Gold.Chemscore.Metal.Weighted>
-0.0000

> <Gold.Chemscore.Lipo.Weighted>
-6.1600

> <Gold.Chemscore.Internal_Hbond.Weighted>
0.0000

> <Gold.Chemscore.DEClash.Weighted>
0.0727

> <Gold.Chemscore.DEInternal.Weighted>
1.3996

> <Gold.Chemscore.Rot.Weighted>
6.7403

> <Gold.Chemscore.Internal.Correction.Weighted>
   9.000000E+99

> <Gold.Protein.RotatedTorsions>
[ 6907 6896 6895 6894 ] final    7.22 input  -60.11 | X-H torsion
[ 7974 7965 7964 7962 ] final   76.61 input  175.53 | X-H torsion
[ 8008 7997 7996 7995 ] final  129.23 input   59.86 | X-H torsion
[ 10167 10162 10161 10158 ] final  167.57 input  -65.29 | X-H torsion
[ 10718 10713 10712 10709 ] final -137.58 input   66.30 | X-H torsion
[ 10763 10752 10751 10750 ] final  -60.42 input  -60.55 | X-H torsion
[ 11005 11000 10999 10996 ] final   68.15 input  -57.11 | X-H torsion

> <Gold.Protein.ActiveResidues>
 VAL166  LYS551  ARG553  GLY616  TRP617  ASP618  TYR619  PRO620  LYS621  CYS622 
 ASP623  PHE694  ASN695  SER759  ASP760  ASP761  ALA762  ILE779  LEU786  VAL792 
 PHE793  MET794  SER795  GLU796  ALA797  LYS798  CYS799  TRP800  GLU811  SER814 

> <Gold.Protein.RotatedAtoms>
  151.6864  135.0953  160.0225 H   0  0  0  0  0  0  0  0  0  0  0  0  # atno 6907 bound_to 6896
  152.3805  133.6535  159.6166 H   0  0  0  0  0  0  0  0  0  0  0  0  # atno 6908 bound_to 6896
  150.7743  133.9039  159.3390 H   0  0  0  0  0  0  0  0  0  0  0  0  # atno 6909 bound_to 6896
  145.7007  139.2582  143.1707 H   0  0  0  0  0  0  0  0  0  0  0  0  # atno 7974 bound_to 7965
  156.2932  140.2625  156.2565 H   0  0  0  0  0  0  0  0  0  0  0  0  # atno 8008 bound_to 7997
  154.9830  140.0389  157.2305 H   0  0  0  0  0  0  0  0  0  0  0  0  # atno 8009 bound_to 7997
  154.7754  140.2785  155.6110 H   0  0  0  0  0  0  0  0  0  0  0  0  # atno 8010 bound_to 7997
  139.4948  144.3907  151.9520 H   0  0  0  0  0  0  0  0  0  0  0  0  # atno 10167 bound_to 10162
  156.2897  130.7368  151.1389 H   0  0  0  0  0  0  0  0  0  0  0  0  # atno 10718 bound_to 10713
  154.2690  135.6294  153.5303 H   0  0  0  0  0  0  0  0  0  0  0  0  # atno 10763 bound_to 10752
  152.9883  135.5605  154.5621 H   0  0  0  0  0  0  0  0  0  0  0  0  # atno 10764 bound_to 10752
  154.5187  135.2881  155.1256 H   0  0  0  0  0  0  0  0  0  0  0  0  # atno 10765 bound_to 10752
  139.9728  134.6871  156.0412 H   0  0  0  0  0  0  0  0  0  0  0  0  # atno 11005 bound_to 11000
  146.0800  140.7774  142.9646 LP  0  0  0  0  0  0  0  0  0  0  0  0  # atno 17320 bound_to 7965
  144.6969  140.3475  143.7188 LP  0  0  0  0  0  0  0  0  0  0  0  0  # atno 17321 bound_to 7965
  140.3345  144.3277  150.5980 LP  0  0  0  0  0  0  0  0  0  0  0  0  # atno 17342 bound_to 10162
  140.5618  143.2191  151.7753 LP  0  0  0  0  0  0  0  0  0  0  0  0  # atno 17343 bound_to 10162
  157.7339  131.0587  150.5554 LP  0  0  0  0  0  0  0  0  0  0  0  0  # atno 17370 bound_to 10713
  156.5669  130.4270  149.6037 LP  0  0  0  0  0  0  0  0  0  0  0  0  # atno 17371 bound_to 10713
  141.1407  133.6565  156.3722 LP  0  0  0  0  0  0  0  0  0  0  0  0  # atno 17394 bound_to 11000
  140.5256  134.6262  157.5333 LP  0  0  0  0  0  0  0  0  0  0  0  0  # atno 17395 bound_to 11000

$$$$
