AV-unprocessed.smi:467|AV-procd|sdf|2650|dock8
  -GOLD-   2262023 63D 1   1.00000     0.00000
 Structure written by MMmdl.
 46 48  0  0  0  0  0  0  0  0  3 V2000
  152.4789  143.1132  160.5885 C   0  0  0  0  0  0  0  0  0  0  0  0
  152.0737  142.2933  159.3753 C   0  0  0  0  0  0  0  0  0  0  0  0
  151.1385  142.8446  158.4707 C   0  0  0  0  0  0  0  0  0  0  0  0
  150.7903  142.0723  157.3690 C   0  0  0  0  0  0  0  0  0  0  0  0
  149.9138  142.3310  156.3133 N   0  3  0  0  0  0  0  0  0  0  0  0
  149.9017  141.2684  155.4622 C   0  0  0  0  0  0  0  0  0  0  0  0
  150.7580  140.3338  155.9580 N   0  0  0  0  0  0  0  0  0  0  0  0
  151.1112  139.0107  155.4217 C   0  0  0  0  0  0  0  0  0  0  0  0
  149.8752  138.1721  155.0410 C   0  0  1  0  0  0  0  0  0  0  0  0
  149.4517  138.5147  153.7350 O   0  0  0  0  0  0  0  0  0  0  0  0
  150.1719  136.6598  155.0849 C   0  0  0  0  0  0  0  0  0  0  0  0
  148.9942  135.8361  154.7080 N   0  3  0  0  0  0  0  0  0  0  0  0
  149.2502  134.3824  154.8448 C   0  0  0  0  0  0  0  0  0  0  0  0
  148.0229  133.5727  154.3923 C   0  0  0  0  0  0  0  0  0  0  0  0
  146.8837  133.9708  155.1446 O   0  0  0  0  0  0  0  0  0  0  0  0
  146.5727  135.3448  154.9510 C   0  0  0  0  0  0  0  0  0  0  0  0
  147.7508  136.2120  155.4265 C   0  0  0  0  0  0  0  0  0  0  0  0
  151.3350  140.7917  157.1496 C   0  0  0  0  0  0  0  0  0  0  0  0
  152.2561  140.2332  158.0334 C   0  0  0  0  0  0  0  0  0  0  0  0
  152.6243  141.0036  159.1598 C   0  0  0  0  0  0  0  0  0  0  0  0
  153.6287  140.4201  160.1393 C   0  0  0  0  0  0  0  0  0  0  0  0
  152.0076  144.0965  160.5811 H   0  0  0  0  0  0  0  0  0  0  0  0
  153.5586  143.2628  160.6089 H   0  0  0  0  0  0  0  0  0  0  0  0
  152.1809  142.6081  161.5076 H   0  0  0  0  0  0  0  0  0  0  0  0
  150.7144  143.8255  158.6289 H   0  0  0  0  0  0  0  0  0  0  0  0
  149.3186  141.1840  154.5564 H   0  0  0  0  0  0  0  0  0  0  0  0
  151.7897  139.1292  154.5767 H   0  0  0  0  0  0  0  0  0  0  0  0
  151.6803  138.4967  156.1976 H   0  0  0  0  0  0  0  0  0  0  0  0
  149.0692  138.4198  155.7312 H   0  0  0  0  0  0  0  0  0  0  0  0
  149.0336  137.7622  153.3444 H   0  0  0  0  0  0  0  0  0  0  0  0
  151.0021  136.4496  154.4082 H   0  0  0  0  0  0  0  0  0  0  0  0
  150.5112  136.3637  156.0788 H   0  0  0  0  0  0  0  0  0  0  0  0
  150.1149  134.1001  154.2430 H   0  0  0  0  0  0  0  0  0  0  0  0
  149.4910  134.1489  155.8834 H   0  0  0  0  0  0  0  0  0  0  0  0
  147.8361  133.7099  153.3259 H   0  0  0  0  0  0  0  0  0  0  0  0
  148.1956  132.5078  154.5506 H   0  0  0  0  0  0  0  0  0  0  0  0
  146.3465  135.5359  153.9007 H   0  0  0  0  0  0  0  0  0  0  0  0
  145.6745  135.5867  155.5194 H   0  0  0  0  0  0  0  0  0  0  0  0
  147.8945  136.0840  156.5006 H   0  0  0  0  0  0  0  0  0  0  0  0
  147.5135  137.2621  155.2600 H   0  0  0  0  0  0  0  0  0  0  0  0
  152.6801  139.2537  157.8722 H   0  0  0  0  0  0  0  0  0  0  0  0
  153.9061  139.4011  159.8674 H   0  0  0  0  0  0  0  0  0  0  0  0
  153.2125  140.3928  161.1467 H   0  0  0  0  0  0  0  0  0  0  0  0
  154.5387  141.0208  160.1558 H   0  0  0  0  0  0  0  0  0  0  0  0
  148.8317  136.0027  153.7247 H   0  0  0  0  0  0  0  0  0  0  0  0
  149.3637  143.1702  156.1812 H   0  0  0  0  0  0  0  0  0  0  0  0
  1  2  1  0  0  0  0
  1 22  1  0  0  0  0
  1 23  1  0  0  0  0
  1 24  1  0  0  0  0
  2 20  1  0  0  0  0
  2  3  2  0  0  0  0
  3  4  1  0  0  0  0
  3 25  1  0  0  0  0
  4 18  2  0  0  0  0
  4  5  1  0  0  0  0
  5  6  2  0  0  0  0
  5 46  1  0  0  0  0
  6  7  1  0  0  0  0
  6 26  1  0  0  0  0
  7  8  1  0  0  0  0
  7 18  1  0  0  0  0
  8  9  1  0  0  0  0
  8 27  1  0  0  0  0
  8 28  1  0  0  0  0
  9 10  1  0  0  0  0
  9 11  1  0  0  0  0
  9 29  1  0  0  0  0
 10 30  1  0  0  0  0
 11 12  1  0  0  0  0
 11 31  1  0  0  0  0
 11 32  1  0  0  0  0
 12 17  1  0  0  0  0
 12 13  1  0  0  0  0
 12 45  1  0  0  0  0
 13 14  1  0  0  0  0
 13 33  1  0  0  0  0
 13 34  1  0  0  0  0
 14 15  1  0  0  0  0
 14 35  1  0  0  0  0
 14 36  1  0  0  0  0
 15 16  1  0  0  0  0
 16 17  1  0  0  0  0
 16 37  1  0  0  0  0
 16 38  1  0  0  0  0
 17 39  1  0  0  0  0
 17 40  1  0  0  0  0
 18 19  1  0  0  0  0
 19 20  2  0  0  0  0
 19 41  1  0  0  0  0
 20 21  1  0  0  0  0
 21 42  1  0  0  0  0
 21 43  1  0  0  0  0
 21 44  1  0  0  0  0
M  CHG  1   5   1
M  CHG  1  12   1
M  END
> <s_m_source_file>
AV-unprocessed.smi

> <i_m_source_file_index>
467

> <i_lp_mmshare_version>
43012

> <i_f3d_flags>
0

> <s_epik_input>
W0NIM11jKFtjSF0xKWMoW0NIM10pW2NIXWMoYzEyKW4oW2NIXW4yKVtDSDJdW0NASF0oW09IXSlbQ0gyXU4zW0NIMl1bQ0gyXU9bQ0gyXVtDSDJdMw==

> <s_epik_cmdline>
J2VwaWtfcHl0aG9uJywgJy1waCcsICc3LjAnLCAnLXRuJywgJzgnLCAnLW1hJywgJzIwMCcsICctbWV0YWxfYmluZGluZycsICctaW1hZScsICc8aW5maWxlLm1hZT4nLCAnLW9tYWUnLCAnPG91dGZpbGUubWFlPic=

> <r_epik_Ionization_Penalty>
1.88533

> <r_epik_Ionization_Penalty_Charging>
1.88531

> <r_epik_Ionization_Penalty_Neutral>
1.42224e-05

> <r_epik_State_Penalty>
1.94609

> <r_epik_Charging_Adjusted_Penalty>
3.8314

> <i_epik_Tot_Q>
2

> <i_epik_Tot_abs_Q>
2

> <r_epik_Metal_State_Penalty>
5.95915

> <b_epik_Metal_Only>
0

> <s_lp_Force_Field>
OPLS_2005

> <r_lp_Energy>
30.7546

> <b_lp_Chiralities_Consistent>
1

> <s_lp_Variant>
AV-unprocessed.smi:467-8

> <Gold.Version>
5.8.1

> <Gold.Id.Protein>
6NUR|6NUR_protein|mol2

> <Gold.PLP.Fitness>
56.0454

> <Gold.PLP.PLP>
-41.8564

> <Gold.PLP.part.hbond>
-4.1253

> <Gold.PLP.part.metal>
0.0000

> <Gold.PLP.part.buried>
-3.0389

> <Gold.PLP.part.nonpolar>
-33.7093

> <Gold.PLP.part.repulsive>
0.1953

> <Gold.PLP.ligand.clash>
0.0000

> <Gold.PLP.ligand.torsion>
0.4213

> <Gold.PLP.Chemscore.Hbond>
5.0000

> <Gold.PLP.Chemscore.CHOScore>
0.0000

> <Gold.PLP.Chemscore.Metal>
0.0000

> <Gold.Chemscore.Hbonds>
donor molecule, donor type, donor heavy atom, donor atom, acceptor molecule, acceptor atom, score
      L1  H     5    46       P1  8028  2.00
      L1  H    10    30       P1  7948  0.79
      L1  H    12    45       P1  7948  2.00

> <Gold.PLP.Chemscore.Internal.Correction>
0.0316

> <Gold.Rescore>
     Score         DG    S(hbond)    S(metal)    S(lipo)     H(rot)  DE(clash)    DE(int)     intcor
     21.14     -21.68       2.87        0.00     103.66       2.16       0.19       0.35       ----

> <Gold.Chemscore.Fitness>
21.1410

> <Gold.Chemscore.DG>
-21.6751

> <Gold.Chemscore.ZeroCoef>
-5.4800

> <Gold.Chemscore.Hbond>
2.8724

> <Gold.Chemscore.Metal>
0.0000

> <Gold.Chemscore.Lipo>
103.6637

> <Gold.Chemscore.Internal_Hbond>
0.0000

> <Gold.Chemscore.DEClash>
0.1861

> <Gold.Chemscore.DEInternal>
0.3480

> <Gold.Chemscore.Rot>
2.1592

> <Gold.Chemscore.Internal.Correction>
   9.000000E+99

> <Gold.Chemscore.Hbonds>
donor molecule, donor type, donor heavy atom, donor atom, acceptor molecule, acceptor atom, score
      L1  H     5    46       P1  8028  1.00
      L1  H    10    30       P1  7948  0.74
      L1  H    12    45       P1  7948  0.99

> <Gold.Chemscore.Hbond.Weighted>
-9.5940

> <Gold.Chemscore.Metal.Weighted>
-0.0000

> <Gold.Chemscore.Lipo.Weighted>
-12.1287

> <Gold.Chemscore.Internal_Hbond.Weighted>
0.0000

> <Gold.Chemscore.DEClash.Weighted>
0.1861

> <Gold.Chemscore.DEInternal.Weighted>
0.3480

> <Gold.Chemscore.Rot.Weighted>
5.5275

> <Gold.Chemscore.Internal.Correction.Weighted>
   9.000000E+99

> <Gold.Protein.RotatedTorsions>
[ 6907 6896 6895 6894 ] final   49.61 input  -60.11 | X-H torsion
[ 7974 7965 7964 7962 ] final   10.00 input  175.53 | X-H torsion
[ 8008 7997 7996 7995 ] final  167.95 input   59.86 | X-H torsion
[ 10167 10162 10161 10158 ] final   23.22 input  -65.29 | X-H torsion
[ 10718 10713 10712 10709 ] final -105.02 input   66.30 | X-H torsion
[ 10763 10752 10751 10750 ] final  121.11 input  -60.55 | X-H torsion
[ 11005 11000 10999 10996 ] final  -20.95 input  -57.11 | X-H torsion

> <Gold.Protein.ActiveResidues>
 VAL166  LYS551  ARG553  GLY616  TRP617  ASP618  TYR619  PRO620  LYS621  CYS622 
 ASP623  PHE694  ASN695  SER759  ASP760  ASP761  ALA762  ILE779  LEU786  VAL792 
 PHE793  MET794  SER795  GLU796  ALA797  LYS798  CYS799  TRP800  GLU811  SER814 

> <Gold.Protein.RotatedAtoms>
  152.2927  134.7703  160.0374 H   0  0  0  0  0  0  0  0  0  0  0  0  # atno 6907 bound_to 6896
  151.8243  133.3394  159.3602 H   0  0  0  0  0  0  0  0  0  0  0  0  # atno 6908 bound_to 6896
  150.7237  134.5472  159.5821 H   0  0  0  0  0  0  0  0  0  0  0  0  # atno 6909 bound_to 6896
  146.2395  139.9699  142.8448 H   0  0  0  0  0  0  0  0  0  0  0  0  # atno 7974 bound_to 7965
  156.1590  140.1603  156.8645 H   0  0  0  0  0  0  0  0  0  0  0  0  # atno 8008 bound_to 7997
  154.5142  140.0793  156.8085 H   0  0  0  0  0  0  0  0  0  0  0  0  # atno 8009 bound_to 7997
  155.3746  140.3402  155.4246 H   0  0  0  0  0  0  0  0  0  0  0  0  # atno 8010 bound_to 7997
  140.5287  143.9879  150.6454 H   0  0  0  0  0  0  0  0  0  0  0  0  # atno 10167 bound_to 10162
  156.0328  130.5543  150.7479 H   0  0  0  0  0  0  0  0  0  0  0  0  # atno 10718 bound_to 10713
  153.6090  135.3434  155.2972 H   0  0  0  0  0  0  0  0  0  0  0  0  # atno 10763 bound_to 10752
  154.8622  135.4245  154.2330 H   0  0  0  0  0  0  0  0  0  0  0  0  # atno 10764 bound_to 10752
  153.3176  135.7036  153.7131 H   0  0  0  0  0  0  0  0  0  0  0  0  # atno 10765 bound_to 10752
  140.8514  133.7854  155.9970 H   0  0  0  0  0  0  0  0  0  0  0  0  # atno 11005 bound_to 11000
  145.1691  140.9711  143.4332 LP  0  0  0  0  0  0  0  0  0  0  0  0  # atno 17320 bound_to 7965
  145.0045  139.3567  143.6151 LP  0  0  0  0  0  0  0  0  0  0  0  0  # atno 17321 bound_to 7965
  140.3248  143.3114  152.0747 LP  0  0  0  0  0  0  0  0  0  0  0  0  # atno 17342 bound_to 10162
  139.4947  144.6549  151.6594 LP  0  0  0  0  0  0  0  0  0  0  0  0  # atno 17343 bound_to 10162
  157.5031  131.0920  151.0290 LP  0  0  0  0  0  0  0  0  0  0  0  0  # atno 17370 bound_to 10713
  157.0666  130.5847  149.5395 LP  0  0  0  0  0  0  0  0  0  0  0  0  # atno 17371 bound_to 10713
  140.8786  134.2639  157.5155 LP  0  0  0  0  0  0  0  0  0  0  0  0  # atno 17394 bound_to 11000
  139.8704  134.9603  156.4361 LP  0  0  0  0  0  0  0  0  0  0  0  0  # atno 17395 bound_to 11000

$$$$
