AV-unprocessed.smi:1338|AV-procd|sdf|5500|dock2
  -GOLD-   22720 5 83D 1   1.00000     0.00000
 Structure written by MMmdl.
 40 41  0  0  0  0  0  0  0  0  1 V2000
  146.6701  138.4170  153.2876 C   0  0  0  0  0  0  0  0  0  0  0  0
  147.8855  139.0013  153.9742 C   0  0  0  0  0  0  0  0  0  0  0  0
  149.0415  138.2628  153.7837 N   0  0  0  0  0  0  0  0  0  0  0  0
  150.2083  138.7243  154.3671 C   0  0  0  0  0  0  0  0  0  0  0  0
  151.4295  137.8607  154.1025 C   0  0  0  0  0  0  0  0  0  0  0  0
  150.2209  139.8610  155.1091 C   0  0  0  0  0  0  0  0  0  0  0  0
  151.4871  140.4035  155.7692 C   0  0  0  0  0  0  0  0  0  0  0  0
  151.3581  140.7236  157.2595 C   0  0  0  0  0  0  0  0  0  0  0  0
  151.1979  139.8130  158.0717 O   0  0  0  0  0  0  0  0  0  0  0  0
  151.4377  142.0179  157.6054 N   0  0  0  0  0  0  0  0  0  0  0  0
  151.3628  142.5332  158.9690 C   0  0  0  0  0  0  0  0  0  0  0  0
  151.2300  144.0702  158.9629 C   0  0  0  0  0  0  0  0  0  0  0  0
  151.2257  144.6391  160.3911 C   0  0  0  0  0  0  0  0  0  0  0  0
  152.4728  144.1962  161.1724 C   0  0  0  0  0  0  0  0  0  0  0  0
  152.6049  142.6652  161.1846 C   0  0  0  0  0  0  0  0  0  0  0  0
  152.6118  142.0948  159.7568 C   0  0  0  0  0  0  0  0  0  0  0  0
  148.9492  140.6014  155.2880 C   0  0  0  0  0  0  0  0  0  0  0  0
  148.8906  141.6283  155.9628 O   0  0  0  0  0  0  0  0  0  0  0  0
  147.7959  140.0962  154.6662 N   0  0  0  0  0  0  0  0  0  0  0  0
  149.0762  137.4124  153.2402 H   0  0  0  0  0  0  0  0  0  0  0  0
  145.8114  139.0828  153.3819 H   0  0  0  0  0  0  0  0  0  0  0  0
  146.4081  137.4571  153.7334 H   0  0  0  0  0  0  0  0  0  0  0  0
  146.8670  138.2653  152.2258 H   0  0  0  0  0  0  0  0  0  0  0  0
  152.1988  138.4343  153.5852 H   0  0  0  0  0  0  0  0  0  0  0  0
  151.1843  136.9977  153.4820 H   0  0  0  0  0  0  0  0  0  0  0  0
  151.8450  137.4897  155.0396 H   0  0  0  0  0  0  0  0  0  0  0  0
  151.8345  141.3015  155.2573 H   0  0  0  0  0  0  0  0  0  0  0  0
  152.2899  139.6796  155.6244 H   0  0  0  0  0  0  0  0  0  0  0  0
  151.5685  142.6968  156.8696 H   0  0  0  0  0  0  0  0  0  0  0  0
  150.4877  142.1065  159.4633 H   0  0  0  0  0  0  0  0  0  0  0  0
  152.0555  144.5104  158.4014 H   0  0  0  0  0  0  0  0  0  0  0  0
  150.3149  144.3680  158.4498 H   0  0  0  0  0  0  0  0  0  0  0  0
  151.1753  145.7278  160.3573 H   0  0  0  0  0  0  0  0  0  0  0  0
  150.3291  144.3042  160.9140 H   0  0  0  0  0  0  0  0  0  0  0  0
  153.3626  144.6366  160.7207 H   0  0  0  0  0  0  0  0  0  0  0  0
  152.4250  144.5738  162.1942 H   0  0  0  0  0  0  0  0  0  0  0  0
  153.5181  142.3751  161.7051 H   0  0  0  0  0  0  0  0  0  0  0  0
  151.7772  142.2314  161.7471 H   0  0  0  0  0  0  0  0  0  0  0  0
  152.6655  141.0061  159.7975 H   0  0  0  0  0  0  0  0  0  0  0  0
  153.5122  142.4296  159.2398 H   0  0  0  0  0  0  0  0  0  0  0  0
  1 21  1  0  0  0  0
  1 22  1  0  0  0  0
  1 23  1  0  0  0  0
  1  2  1  0  0  0  0
  2  3  1  0  0  0  0
  2 19  2  0  0  0  0
  3  4  1  0  0  0  0
  3 20  1  0  0  0  0
  4  6  2  0  0  0  0
  4  5  1  0  0  0  0
  5 24  1  0  0  0  0
  5 25  1  0  0  0  0
  5 26  1  0  0  0  0
  6 17  1  0  0  0  0
  6  7  1  0  0  0  0
  7  8  1  0  0  0  0
  7 27  1  0  0  0  0
  7 28  1  0  0  0  0
  8  9  2  0  0  0  0
  8 10  1  0  0  0  0
 10 11  1  0  0  0  0
 10 29  1  0  0  0  0
 11 16  1  0  0  0  0
 11 12  1  0  0  0  0
 11 30  1  0  0  0  0
 12 13  1  0  0  0  0
 12 31  1  0  0  0  0
 12 32  1  0  0  0  0
 13 14  1  0  0  0  0
 13 33  1  0  0  0  0
 13 34  1  0  0  0  0
 14 15  1  0  0  0  0
 14 35  1  0  0  0  0
 14 36  1  0  0  0  0
 15 16  1  0  0  0  0
 15 37  1  0  0  0  0
 15 38  1  0  0  0  0
 16 39  1  0  0  0  0
 16 40  1  0  0  0  0
 17 18  2  0  0  0  0
 17 19  1  0  0  0  0
M  END
> <s_m_source_file>
AV-unprocessed.smi

> <i_m_source_file_index>
1338

> <i_lp_mmshare_version>
43012

> <i_f3d_flags>
0

> <s_epik_input>
W0NIM11jMW5jKFtDSDNdKWMoYyg9TylbbkhdMSlbQ0gyXUMoPU8pW05IXVtDSF0yW0NIMl1bQ0gyXVtDSDJdW0NIMl1bQ0gyXTI=

> <s_epik_cmdline>
J2VwaWtfcHl0aG9uJywgJy1waCcsICc3LjAnLCAnLXRuJywgJzgnLCAnLW1hJywgJzIwMCcsICctbWV0YWxfYmluZGluZycsICctaW1hZScsICc8aW5maWxlLm1hZT4nLCAnLW9tYWUnLCAnPG91dGZpbGUubWFlPic=

> <r_lp_tautomer_probability>
0.156392

> <r_epik_Ionization_Penalty>
0.0136832

> <r_epik_Ionization_Penalty_Charging>
0.0135532

> <r_epik_Ionization_Penalty_Neutral>
0.000130025

> <r_epik_State_Penalty>
1.15342

> <r_epik_Charging_Adjusted_Penalty>
1.16697

> <i_epik_Tot_Q>
0

> <i_epik_Tot_abs_Q>
0

> <r_epik_Metal_State_Penalty>
1.31441

> <b_epik_Metal_Only>
0

> <s_lp_Force_Field>
OPLS_2005

> <r_lp_Energy>
13.63

> <b_lp_Chiralities_Consistent>
1

> <s_lp_Variant>
AV-unprocessed.smi:1338-2

> <Gold.Version>
5.8.1

> <Gold.Id.Protein>
6NUR|6NUR_protein|mol2

> <Gold.PLP.Fitness>
42.1196

> <Gold.PLP.PLP>
-39.5346

> <Gold.PLP.part.hbond>
-2.0000

> <Gold.PLP.part.metal>
0.0000

> <Gold.PLP.part.buried>
-3.0431

> <Gold.PLP.part.nonpolar>
-34.1065

> <Gold.PLP.part.repulsive>
1.3895

> <Gold.PLP.ligand.clash>
0.0000

> <Gold.PLP.ligand.torsion>
0.2097

> <Gold.PLP.Chemscore.Hbond>
1.0000

> <Gold.PLP.Chemscore.CHOScore>
0.0000

> <Gold.PLP.Chemscore.Metal>
0.0000

> <Gold.Chemscore.Hbonds>
donor molecule, donor type, donor heavy atom, donor atom, acceptor molecule, acceptor atom, score
      L1  H     3    20       P1  7948  1.00

> <Gold.PLP.Chemscore.Internal.Correction>
0.0045

> <Gold.Rescore>
     Score         DG    S(hbond)    S(metal)    S(lipo)     H(rot)  DE(clash)    DE(int)     intcor
     15.20     -16.59       0.96        0.00     100.28       1.49       0.13       1.27       ----

> <Gold.Chemscore.Fitness>
15.1988

> <Gold.Chemscore.DG>
-16.5935

> <Gold.Chemscore.ZeroCoef>
-5.4800

> <Gold.Chemscore.Hbond>
0.9598

> <Gold.Chemscore.Metal>
0.0000

> <Gold.Chemscore.Lipo>
100.2812

> <Gold.Chemscore.Internal_Hbond>
0.0000

> <Gold.Chemscore.DEClash>
0.1282

> <Gold.Chemscore.DEInternal>
1.2665

> <Gold.Chemscore.Rot>
1.4942

> <Gold.Chemscore.Internal.Correction>
   9.000000E+99

> <Gold.Chemscore.Hbonds>
donor molecule, donor type, donor heavy atom, donor atom, acceptor molecule, acceptor atom, score
      L1  H     3    20       P1  7948  1.00

> <Gold.Chemscore.Hbond.Weighted>
-3.2058

> <Gold.Chemscore.Metal.Weighted>
-0.0000

> <Gold.Chemscore.Lipo.Weighted>
-11.7329

> <Gold.Chemscore.Internal_Hbond.Weighted>
0.0000

> <Gold.Chemscore.DEClash.Weighted>
0.1282

> <Gold.Chemscore.DEInternal.Weighted>
1.2665

> <Gold.Chemscore.Rot.Weighted>
3.8253

> <Gold.Chemscore.Internal.Correction.Weighted>
   9.000000E+99

> <Gold.Protein.RotatedTorsions>
[ 6907 6896 6895 6894 ] final  113.64 input  -60.11 | X-H torsion
[ 7974 7965 7964 7962 ] final -104.84 input  175.53 | X-H torsion
[ 8008 7997 7996 7995 ] final -133.15 input   59.86 | X-H torsion
[ 10167 10162 10161 10158 ] final -160.02 input  -65.29 | X-H torsion
[ 10718 10713 10712 10709 ] final -177.63 input   66.30 | X-H torsion
[ 10763 10752 10751 10750 ] final -118.21 input  -60.55 | X-H torsion
[ 11005 11000 10999 10996 ] final  -16.88 input  -57.11 | X-H torsion

> <Gold.Protein.ActiveResidues>
 VAL166  LYS551  ARG553  GLY616  TRP617  ASP618  TYR619  PRO620  LYS621  CYS622 
 ASP623  PHE694  ASN695  SER759  ASP760  ASP761  ALA762  ILE779  LEU786  VAL792 
 PHE793  MET794  SER795  GLU796  ALA797  LYS798  CYS799  TRP800  GLU811  SER814 

> <Gold.Protein.RotatedAtoms>
  152.4849  133.8347  159.7121 H   0  0  0  0  0  0  0  0  0  0  0  0  # atno 6907 bound_to 6896
  150.8927  133.7212  159.2907 H   0  0  0  0  0  0  0  0  0  0  0  0  # atno 6908 bound_to 6896
  151.4679  135.1047  159.9795 H   0  0  0  0  0  0  0  0  0  0  0  0  # atno 6909 bound_to 6896
  145.2381  140.9195  143.3166 H   0  0  0  0  0  0  0  0  0  0  0  0  # atno 7974 bound_to 7965
  155.3408  140.0472  157.3045 H   0  0  0  0  0  0  0  0  0  0  0  0  # atno 8008 bound_to 7997
  154.5278  140.2247  155.8823 H   0  0  0  0  0  0  0  0  0  0  0  0  # atno 8009 bound_to 7997
  156.1758  140.3085  155.9062 H   0  0  0  0  0  0  0  0  0  0  0  0  # atno 8010 bound_to 7997
  139.6571  143.9979  152.2201 H   0  0  0  0  0  0  0  0  0  0  0  0  # atno 10167 bound_to 10162
  156.8323  130.9657  151.3105 H   0  0  0  0  0  0  0  0  0  0  0  0  # atno 10718 bound_to 10713
  154.8580  135.4282  154.2103 H   0  0  0  0  0  0  0  0  0  0  0  0  # atno 10763 bound_to 10752
  153.3130  135.6977  153.7104 H   0  0  0  0  0  0  0  0  0  0  0  0  # atno 10764 bound_to 10752
  153.6189  135.3505  155.2978 H   0  0  0  0  0  0  0  0  0  0  0  0  # atno 10765 bound_to 10752
  140.8112  133.8139  155.9565 H   0  0  0  0  0  0  0  0  0  0  0  0  # atno 11005 bound_to 11000
  144.9614  139.3975  143.6354 LP  0  0  0  0  0  0  0  0  0  0  0  0  # atno 17320 bound_to 7965
  146.3336  139.8669  142.8846 LP  0  0  0  0  0  0  0  0  0  0  0  0  # atno 17321 bound_to 7965
  139.9708  144.6495  150.7990 LP  0  0  0  0  0  0  0  0  0  0  0  0  # atno 17342 bound_to 10162
  140.7564  143.3065  151.2950 LP  0  0  0  0  0  0  0  0  0  0  0  0  # atno 17343 bound_to 10162
  157.6400  130.8798  149.9430 LP  0  0  0  0  0  0  0  0  0  0  0  0  # atno 17370 bound_to 10713
  156.0927  130.3662  150.0364 LP  0  0  0  0  0  0  0  0  0  0  0  0  # atno 17371 bound_to 10713
  140.9196  134.2159  157.4935 LP  0  0  0  0  0  0  0  0  0  0  0  0  # atno 17394 bound_to 11000
  139.8714  134.9786  156.5004 LP  0  0  0  0  0  0  0  0  0  0  0  0  # atno 17395 bound_to 11000

$$$$
