AV-unprocessed.smi:1120|AV-procd|sdf|4818|dock4
  -GOLD-   22720 3373D 1   1.00000     0.00000
 Structure written by MMmdl.
 48 49  0  0  0  0  0  0  0  0  1 V2000
  151.9041  145.2148  158.8852 C   0  0  0  0  0  0  0  0  0  0  0  0
  151.9299  143.7306  159.2774 C   0  0  2  0  0  0  0  0  0  0  0  0
  153.2740  143.3411  159.9220 C   0  0  0  0  0  0  0  0  0  0  0  0
  153.3016  141.8555  160.3153 C   0  0  0  0  0  0  0  0  0  0  0  0
  152.9992  140.9472  159.1102 C   0  0  1  0  0  0  0  0  0  0  0  0
  152.9694  139.5509  159.5532 N   0  0  0  0  0  0  0  0  0  0  0  0
  152.4423  138.3216  158.4597 S   0  0  0  0  0  0  0  0  0  0  0  0
  152.9548  138.6632  157.1233 O   0  0  0  0  0  0  0  0  0  0  0  0
  152.7751  137.0244  159.0681 O   0  0  0  0  0  0  0  0  0  0  0  0
  150.6066  138.5236  158.4957 C   0  0  0  0  0  0  0  0  0  0  0  0
  149.9696  137.4199  159.3393 C   0  0  0  0  0  0  0  0  0  0  0  0
  150.5916  136.9366  160.2848 O   0  0  0  0  0  0  0  0  0  0  0  0
  148.7319  137.0332  158.9931 N   0  0  0  0  0  0  0  0  0  0  0  0
  147.9493  136.0158  159.6856 C   0  0  0  0  0  0  0  0  0  0  0  0
  147.8317  136.3133  161.1900 C   0  0  0  0  0  0  0  0  0  0  0  0
  146.7826  135.4503  161.8660 C   0  0  0  0  0  0  0  0  0  0  0  0
  146.9720  134.0583  162.0013 C   0  0  0  0  0  0  0  0  0  0  0  0
  145.9641  133.3024  162.6311 C   0  0  0  0  0  0  0  0  0  0  0  0
  144.8117  133.9631  163.0978 C   0  0  0  0  0  0  0  0  0  0  0  0
  144.7174  135.3567  162.9127 C   0  0  0  0  0  0  0  0  0  0  0  0
  145.6776  136.0909  162.3098 N   0  0  0  0  0  0  0  0  0  0  0  0
  151.6594  141.3348  158.4553 C   0  0  0  0  0  0  0  0  0  0  0  0
  151.6332  142.8224  158.0687 C   0  0  0  0  0  0  0  0  0  0  0  0
  152.6747  145.4439  158.1485 H   0  0  0  0  0  0  0  0  0  0  0  0
  152.0724  145.8532  159.7528 H   0  0  0  0  0  0  0  0  0  0  0  0
  150.9406  145.4907  158.4559 H   0  0  0  0  0  0  0  0  0  0  0  0
  151.1435  143.5730  160.0171 H   0  0  0  0  0  0  0  0  0  0  0  0
  154.0902  143.5481  159.2286 H   0  0  0  0  0  0  0  0  0  0  0  0
  153.4563  143.9547  160.8049 H   0  0  0  0  0  0  0  0  0  0  0  0
  154.2766  141.6059  160.7358 H   0  0  0  0  0  0  0  0  0  0  0  0
  152.5702  141.6789  161.1055 H   0  0  0  0  0  0  0  0  0  0  0  0
  153.8014  141.0649  158.3805 H   0  0  0  0  0  0  0  0  0  0  0  0
  152.5089  139.4589  160.4587 H   0  0  0  0  0  0  0  0  0  0  0  0
  150.3787  139.5029  158.9174 H   0  0  0  0  0  0  0  0  0  0  0  0
  150.2278  138.5032  157.4738 H   0  0  0  0  0  0  0  0  0  0  0  0
  148.2934  137.4870  158.2049 H   0  0  0  0  0  0  0  0  0  0  0  0
  146.9606  135.9329  159.2313 H   0  0  0  0  0  0  0  0  0  0  0  0
  148.4406  135.0540  159.5363 H   0  0  0  0  0  0  0  0  0  0  0  0
  148.7945  136.1550  161.6778 H   0  0  0  0  0  0  0  0  0  0  0  0
  147.5772  137.3622  161.3497 H   0  0  0  0  0  0  0  0  0  0  0  0
  147.8662  133.5785  161.6310 H   0  0  0  0  0  0  0  0  0  0  0  0
  146.0731  132.2350  162.7534 H   0  0  0  0  0  0  0  0  0  0  0  0
  144.0186  133.4159  163.5852 H   0  0  0  0  0  0  0  0  0  0  0  0
  143.8478  135.8963  163.2575 H   0  0  0  0  0  0  0  0  0  0  0  0
  151.4827  140.7313  157.5649 H   0  0  0  0  0  0  0  0  0  0  0  0
  150.8369  141.1242  159.1404 H   0  0  0  0  0  0  0  0  0  0  0  0
  150.6597  143.0709  157.6450 H   0  0  0  0  0  0  0  0  0  0  0  0
  152.3669  143.0043  157.2821 H   0  0  0  0  0  0  0  0  0  0  0  0
  1  2  1  0  0  0  0
  1 24  1  0  0  0  0
  1 25  1  0  0  0  0
  1 26  1  0  0  0  0
  2 23  1  0  0  0  0
  2  3  1  0  0  0  0
  2 27  1  0  0  0  0
  3  4  1  0  0  0  0
  3 28  1  0  0  0  0
  3 29  1  0  0  0  0
  4  5  1  0  0  0  0
  4 30  1  0  0  0  0
  4 31  1  0  0  0  0
  5  6  1  0  0  0  0
  5 22  1  0  0  0  0
  5 32  1  0  0  0  0
  6  7  1  0  0  0  0
  6 33  1  0  0  0  0
  7  8  2  0  0  0  0
  7  9  2  0  0  0  0
  7 10  1  0  0  0  0
 10 11  1  0  0  0  0
 10 34  1  0  0  0  0
 10 35  1  0  0  0  0
 11 12  2  0  0  0  0
 11 13  1  0  0  0  0
 13 14  1  0  0  0  0
 13 36  1  0  0  0  0
 14 15  1  0  0  0  0
 14 37  1  0  0  0  0
 14 38  1  0  0  0  0
 15 16  1  0  0  0  0
 15 39  1  0  0  0  0
 15 40  1  0  0  0  0
 16 21  1  0  0  0  0
 16 17  2  0  0  0  0
 17 18  1  0  0  0  0
 17 41  1  0  0  0  0
 18 19  2  0  0  0  0
 18 42  1  0  0  0  0
 19 20  1  0  0  0  0
 19 43  1  0  0  0  0
 20 21  2  0  0  0  0
 20 44  1  0  0  0  0
 22 23  1  0  0  0  0
 22 45  1  0  0  0  0
 22 46  1  0  0  0  0
 23 47  1  0  0  0  0
 23 48  1  0  0  0  0
M  END
> <s_m_source_file>
AV-unprocessed.smi

> <i_m_source_file_index>
1120

> <i_lp_mmshare_version>
43012

> <i_f3d_flags>
0

> <s_epik_input>
W0NIM11bQ0BASF0xW0NIMl1bQ0gyXVtDQEhdKFtDSDJdW0NIMl0xKVtOSF1TKD1PKSg9TylbQ0gyXUMoPU8pW05IXVtDSDJdW0NIMl1jMltjSF1bY0hdW2NIXVtjSF1uMg==

> <s_epik_cmdline>
J2VwaWtfcHl0aG9uJywgJy1waCcsICc3LjAnLCAnLXRuJywgJzgnLCAnLW1hJywgJzIwMCcsICctbWV0YWxfYmluZGluZycsICctaW1hZScsICc8aW5maWxlLm1hZT4nLCAnLW9tYWUnLCAnPG91dGZpbGUubWFlPic=

> <r_epik_Ionization_Penalty>
0.0216068

> <r_epik_Ionization_Penalty_Charging>
0

> <r_epik_Ionization_Penalty_Neutral>
0.0216068

> <r_epik_State_Penalty>
0.01735

> <r_epik_Charging_Adjusted_Penalty>
0.01735

> <i_epik_Tot_Q>
0

> <i_epik_Tot_abs_Q>
0

> <r_epik_Metal_State_Penalty>
0.0535325

> <b_epik_Metal_Only>
0

> <s_lp_Force_Field>
OPLS_2005

> <r_lp_Energy>
6.02559

> <b_lp_Chiralities_Consistent>
1

> <s_lp_Variant>
AV-unprocessed.smi:1120-1

> <Gold.Version>
5.8.1

> <Gold.Id.Protein>
6NUR|6NUR_protein|mol2

> <Gold.PLP.Fitness>
49.0357

> <Gold.PLP.PLP>
-45.1153

> <Gold.PLP.part.hbond>
-2.9753

> <Gold.PLP.part.metal>
0.0000

> <Gold.PLP.part.buried>
-5.9459

> <Gold.PLP.part.nonpolar>
-37.7240

> <Gold.PLP.part.repulsive>
0.1563

> <Gold.PLP.ligand.clash>
0.0000

> <Gold.PLP.ligand.torsion>
1.1762

> <Gold.PLP.Chemscore.Hbond>
1.9913

> <Gold.PLP.Chemscore.CHOScore>
0.0000

> <Gold.PLP.Chemscore.Metal>
0.0000

> <Gold.Chemscore.Hbonds>
donor molecule, donor type, donor heavy atom, donor atom, acceptor molecule, acceptor atom, score
      P1  H  6896  6909       L1    12  1.00
      P1  H  7997  8008       L1     8  0.94

> <Gold.PLP.Chemscore.Internal.Correction>
0.2991

> <Gold.Rescore>
     Score         DG    S(hbond)    S(metal)    S(lipo)     H(rot)  DE(clash)    DE(int)     intcor
     18.80     -21.82       1.99        0.00     129.34       2.12       0.02       3.00       ----

> <Gold.Chemscore.Fitness>
18.7972

> <Gold.Chemscore.DG>
-21.8207

> <Gold.Chemscore.ZeroCoef>
-5.4800

> <Gold.Chemscore.Hbond>
1.9875

> <Gold.Chemscore.Metal>
0.0000

> <Gold.Chemscore.Lipo>
129.3406

> <Gold.Chemscore.Internal_Hbond>
0.0000

> <Gold.Chemscore.DEClash>
0.0199

> <Gold.Chemscore.DEInternal>
3.0036

> <Gold.Chemscore.Rot>
2.1213

> <Gold.Chemscore.Internal.Correction>
   9.000000E+99

> <Gold.Chemscore.Hbonds>
donor molecule, donor type, donor heavy atom, donor atom, acceptor molecule, acceptor atom, score
      P1  H  6896  6909       L1    12  0.73
      P1  H  7997  8008       L1     8  0.90

> <Gold.Chemscore.Hbond.Weighted>
-6.6384

> <Gold.Chemscore.Metal.Weighted>
-0.0000

> <Gold.Chemscore.Lipo.Weighted>
-15.1328

> <Gold.Chemscore.Internal_Hbond.Weighted>
0.0000

> <Gold.Chemscore.DEClash.Weighted>
0.0199

> <Gold.Chemscore.DEInternal.Weighted>
3.0036

> <Gold.Chemscore.Rot.Weighted>
5.4305

> <Gold.Chemscore.Internal.Correction.Weighted>
   9.000000E+99

> <Gold.Protein.RotatedTorsions>
[ 6907 6896 6895 6894 ] final   91.94 input  -60.11 | X-H torsion
[ 7974 7965 7964 7962 ] final  -82.66 input  175.53 | X-H torsion
[ 8008 7997 7996 7995 ] final  -65.85 input   59.86 | X-H torsion
[ 10167 10162 10161 10158 ] final  131.39 input  -65.29 | X-H torsion
[ 10718 10713 10712 10709 ] final   64.83 input   66.30 | X-H torsion
[ 10763 10752 10751 10750 ] final   73.12 input  -60.55 | X-H torsion
[ 11005 11000 10999 10996 ] final   94.05 input  -57.11 | X-H torsion

> <Gold.Protein.ActiveResidues>
 VAL166  LYS551  ARG553  GLY616  TRP617  ASP618  TYR619  PRO620  LYS621  CYS622 
 ASP623  PHE694  ASN695  SER759  ASP760  ASP761  ALA762  ILE779  LEU786  VAL792 
 PHE793  MET794  SER795  GLU796  ALA797  LYS798  CYS799  TRP800  GLU811  SER814 

> <Gold.Protein.RotatedAtoms>
  152.5451  134.1580  159.8545 H   0  0  0  0  0  0  0  0  0  0  0  0  # atno 6907 bound_to 6896
  151.1600  133.4844  159.2602 H   0  0  0  0  0  0  0  0  0  0  0  0  # atno 6908 bound_to 6896
  151.1382  135.0177  159.8669 H   0  0  0  0  0  0  0  0  0  0  0  0  # atno 6909 bound_to 6896
  145.5304  140.9522  143.1606 H   0  0  0  0  0  0  0  0  0  0  0  0  # atno 7974 bound_to 7965
  154.4697  140.0924  156.7113 H   0  0  0  0  0  0  0  0  0  0  0  0  # atno 8008 bound_to 7997
  155.4758  140.3466  155.4314 H   0  0  0  0  0  0  0  0  0  0  0  0  # atno 8009 bound_to 7997
  156.1018  140.1424  156.9445 H   0  0  0  0  0  0  0  0  0  0  0  0  # atno 8010 bound_to 7997
  139.5386  144.6708  151.4701 H   0  0  0  0  0  0  0  0  0  0  0  0  # atno 10167 bound_to 10162
  157.6065  130.9181  149.9897 H   0  0  0  0  0  0  0  0  0  0  0  0  # atno 10718 bound_to 10713
  153.0501  135.5074  154.7846 H   0  0  0  0  0  0  0  0  0  0  0  0  # atno 10763 bound_to 10752
  154.6715  135.2954  154.9738 H   0  0  0  0  0  0  0  0  0  0  0  0  # atno 10764 bound_to 10752
  154.0554  135.6698  153.4858 H   0  0  0  0  0  0  0  0  0  0  0  0  # atno 10765 bound_to 10752
  139.8803  134.8824  156.3807 H   0  0  0  0  0  0  0  0  0  0  0  0  # atno 11005 bound_to 11000
  144.7629  139.6914  143.7227 LP  0  0  0  0  0  0  0  0  0  0  0  0  # atno 17320 bound_to 7965
  146.2048  139.5365  142.9720 LP  0  0  0  0  0  0  0  0  0  0  0  0  # atno 17321 bound_to 7965
  140.6605  143.8508  150.6882 LP  0  0  0  0  0  0  0  0  0  0  0  0  # atno 17342 bound_to 10162
  140.1901  143.4043  152.1869 LP  0  0  0  0  0  0  0  0  0  0  0  0  # atno 17343 bound_to 10162
  156.1154  130.3648  149.9978 LP  0  0  0  0  0  0  0  0  0  0  0  0  # atno 17370 bound_to 10713
  156.8068  130.9310  151.3645 LP  0  0  0  0  0  0  0  0  0  0  0  0  # atno 17371 bound_to 10713
  140.9400  133.7521  156.0134 LP  0  0  0  0  0  0  0  0  0  0  0  0  # atno 17394 bound_to 11000
  140.8230  134.3267  157.5375 LP  0  0  0  0  0  0  0  0  0  0  0  0  # atno 17395 bound_to 11000

$$$$
