AV-unprocessed.smi:1850|AV-procd|sdf|7522|dock3
  -GOLD-   22720 9233D 1   1.00000     0.00000
 Structure written by MMmdl.
 40 41  0  0  0  0  0  0  0  0  1 V2000
  147.3975  123.6941  149.2911 C   0  0  0  0  0  0  0  0  0  0  0  0
  148.7372  124.2364  149.8088 C   0  0  0  0  0  0  0  0  0  0  0  0
  148.5434  125.1491  150.9437 N   0  0  0  0  0  0  0  0  0  0  0  0
  148.2259  126.4864  150.6364 C   0  0  0  0  0  0  0  0  0  0  0  0
  148.0162  127.4194  151.5906 C   0  0  0  0  0  0  0  0  0  0  0  0
  147.6696  128.7580  151.3534 N   0  0  0  0  0  0  0  0  0  0  0  0
  146.6095  129.4537  151.8062 C   0  0  0  0  0  0  0  0  0  0  0  0
  145.6823  128.9998  152.4764 O   0  0  0  0  0  0  0  0  0  0  0  0
  146.6775  130.7353  151.4177 N   0  0  0  0  0  0  0  0  0  0  0  0
  145.6891  131.7653  151.7244 C   0  0  0  0  0  0  0  0  0  0  0  0
  144.4584  131.6211  150.8054 C   0  0  0  0  0  0  0  0  0  0  0  0
  143.4370  132.7432  151.0520 C   0  0  0  0  0  0  0  0  0  0  0  0
  144.0825  134.1293  150.8976 C   0  0  0  0  0  0  0  0  0  0  0  0
  145.3040  134.2775  151.8180 C   0  0  0  0  0  0  0  0  0  0  0  0
  146.3284  133.1583  151.5703 C   0  0  0  0  0  0  0  0  0  0  0  0
  148.1222  126.9826  152.9662 C   0  0  0  0  0  0  0  0  0  0  0  0
  148.4139  125.7035  153.2715 C   0  0  0  0  0  0  0  0  0  0  0  0
  148.6365  124.6978  152.2301 C   0  0  0  0  0  0  0  0  0  0  0  0
  148.8876  123.5228  152.4993 O   0  0  0  0  0  0  0  0  0  0  0  0
  147.5512  123.0311  148.4397 H   0  0  0  0  0  0  0  0  0  0  0  0
  146.7433  124.5039  148.9668 H   0  0  0  0  0  0  0  0  0  0  0  0
  146.8741  123.1278  150.0619 H   0  0  0  0  0  0  0  0  0  0  0  0
  149.3919  123.4066  150.0811 H   0  0  0  0  0  0  0  0  0  0  0  0
  149.2577  124.7507  148.9996 H   0  0  0  0  0  0  0  0  0  0  0  0
  148.1478  126.6726  149.5768 H   0  0  0  0  0  0  0  0  0  0  0  0
  148.3148  129.2628  150.7639 H   0  0  0  0  0  0  0  0  0  0  0  0
  147.4742  131.0224  150.8682 H   0  0  0  0  0  0  0  0  0  0  0  0
  145.3666  131.6577  152.7619 H   0  0  0  0  0  0  0  0  0  0  0  0
  144.7729  131.6437  149.7610 H   0  0  0  0  0  0  0  0  0  0  0  0
  143.9820  130.6529  150.9634 H   0  0  0  0  0  0  0  0  0  0  0  0
  142.6007  132.6428  150.3594 H   0  0  0  0  0  0  0  0  0  0  0  0
  143.0213  132.6436  152.0555 H   0  0  0  0  0  0  0  0  0  0  0  0
  144.3855  134.2779  149.8604 H   0  0  0  0  0  0  0  0  0  0  0  0
  143.3517  134.9071  151.1213 H   0  0  0  0  0  0  0  0  0  0  0  0
  145.7713  135.2503  151.6623 H   0  0  0  0  0  0  0  0  0  0  0  0
  144.9814  134.2529  152.8597 H   0  0  0  0  0  0  0  0  0  0  0  0
  147.1625  133.2653  152.2648 H   0  0  0  0  0  0  0  0  0  0  0  0
  146.7453  133.2665  150.5678 H   0  0  0  0  0  0  0  0  0  0  0  0
  147.9671  127.6916  153.7666 H   0  0  0  0  0  0  0  0  0  0  0  0
  148.4863  125.4102  154.3086 H   0  0  0  0  0  0  0  0  0  0  0  0
  1  2  1  0  0  0  0
  1 20  1  0  0  0  0
  1 21  1  0  0  0  0
  1 22  1  0  0  0  0
  2  3  1  0  0  0  0
  2 23  1  0  0  0  0
  2 24  1  0  0  0  0
  3 18  1  0  0  0  0
  3  4  1  0  0  0  0
  4  5  2  0  0  0  0
  4 25  1  0  0  0  0
  5  6  1  0  0  0  0
  5 16  1  0  0  0  0
  6  7  1  0  0  0  0
  6 26  1  0  0  0  0
  7  8  2  0  0  0  0
  7  9  1  0  0  0  0
  9 10  1  0  0  0  0
  9 27  1  0  0  0  0
 10 15  1  0  0  0  0
 10 11  1  0  0  0  0
 10 28  1  0  0  0  0
 11 12  1  0  0  0  0
 11 29  1  0  0  0  0
 11 30  1  0  0  0  0
 12 13  1  0  0  0  0
 12 31  1  0  0  0  0
 12 32  1  0  0  0  0
 13 14  1  0  0  0  0
 13 33  1  0  0  0  0
 13 34  1  0  0  0  0
 14 15  1  0  0  0  0
 14 35  1  0  0  0  0
 14 36  1  0  0  0  0
 15 37  1  0  0  0  0
 15 38  1  0  0  0  0
 16 17  2  0  0  0  0
 16 39  1  0  0  0  0
 17 18  1  0  0  0  0
 17 40  1  0  0  0  0
 18 19  2  0  0  0  0
M  END
> <s_m_source_file>
AV-unprocessed.smi

> <i_m_source_file_index>
1850

> <i_lp_mmshare_version>
43012

> <i_f3d_flags>
0

> <s_epik_input>
W0NIM11bQ0gyXW4xW2NIXWMoW2NIXVtjSF1jMT1PKVtOSF1DKD1PKVtOSF1bQ0hdMltDSDJdW0NIMl1bQ0gyXVtDSDJdW0NIMl0y

> <s_epik_cmdline>
J2VwaWtfcHl0aG9uJywgJy1waCcsICc3LjAnLCAnLXRuJywgJzgnLCAnLW1hJywgJzIwMCcsICctbWV0YWxfYmluZGluZycsICctaW1hZScsICc8aW5maWxlLm1hZT4nLCAnLW9tYWUnLCAnPG91dGZpbGUubWFlPic=

> <r_lp_tautomer_probability>
1

> <r_epik_Ionization_Penalty>
2.61962e-05

> <r_epik_Ionization_Penalty_Charging>
4.78076e-06

> <r_epik_Ionization_Penalty_Neutral>
2.14155e-05

> <r_epik_State_Penalty>
-0

> <r_epik_Charging_Adjusted_Penalty>
4.78076e-06

> <i_epik_Tot_Q>
0

> <i_epik_Tot_abs_Q>
0

> <r_epik_Metal_State_Penalty>
-0

> <b_epik_Metal_Only>
0

> <s_lp_Force_Field>
OPLS_2005

> <r_lp_Energy>
22.0322

> <b_lp_Chiralities_Consistent>
1

> <s_lp_Variant>
AV-unprocessed.smi:1850-1

> <Gold.Version>
5.8.1

> <Gold.Id.Protein>
6NUR|6NUR_protein|mol2

> <Gold.PLP.Fitness>
43.2669

> <Gold.PLP.PLP>
-40.1020

> <Gold.PLP.part.hbond>
-2.0000

> <Gold.PLP.part.metal>
0.0000

> <Gold.PLP.part.buried>
-6.4342

> <Gold.PLP.part.nonpolar>
-31.8240

> <Gold.PLP.part.repulsive>
0.2802

> <Gold.PLP.ligand.clash>
0.0000

> <Gold.PLP.ligand.torsion>
1.1108

> <Gold.PLP.Chemscore.Hbond>
1.7936

> <Gold.PLP.Chemscore.CHOScore>
0.0000

> <Gold.PLP.Chemscore.Metal>
0.0000

> <Gold.Chemscore.Hbonds>
donor molecule, donor type, donor heavy atom, donor atom, acceptor molecule, acceptor atom, score
      L1  H     6    26       P1 10747  0.79
      L1  H     9    27       P1 10747  1.00

> <Gold.PLP.Chemscore.Internal.Correction>
0.0056

> <Gold.Rescore>
     Score         DG    S(hbond)    S(metal)    S(lipo)     H(rot)  DE(clash)    DE(int)     intcor
     15.43     -16.35       1.34        0.00      80.32       1.17       0.04       0.88       ----

> <Gold.Chemscore.Fitness>
15.4296

> <Gold.Chemscore.DG>
-16.3549

> <Gold.Chemscore.ZeroCoef>
-5.4800

> <Gold.Chemscore.Hbond>
1.3362

> <Gold.Chemscore.Metal>
0.0000

> <Gold.Chemscore.Lipo>
80.3162

> <Gold.Chemscore.Internal_Hbond>
0.0000

> <Gold.Chemscore.DEClash>
0.0442

> <Gold.Chemscore.DEInternal>
0.8810

> <Gold.Chemscore.Rot>
1.1660

> <Gold.Chemscore.Internal.Correction>
   9.000000E+99

> <Gold.Chemscore.Hbonds>
donor molecule, donor type, donor heavy atom, donor atom, acceptor molecule, acceptor atom, score
      L1  H     6    26       P1 10747  0.11
      L1  H     9    27       P1 10747  0.97

> <Gold.Chemscore.Hbond.Weighted>
-4.4629

> <Gold.Chemscore.Metal.Weighted>
-0.0000

> <Gold.Chemscore.Lipo.Weighted>
-9.3970

> <Gold.Chemscore.Internal_Hbond.Weighted>
0.0000

> <Gold.Chemscore.DEClash.Weighted>
0.0442

> <Gold.Chemscore.DEInternal.Weighted>
0.8810

> <Gold.Chemscore.Rot.Weighted>
2.9850

> <Gold.Chemscore.Internal.Correction.Weighted>
   9.000000E+99

> <Gold.Protein.RotatedTorsions>
[ 6907 6896 6895 6894 ] final -128.71 input  -60.11 | X-H torsion
[ 7974 7965 7964 7962 ] final  -67.37 input  175.53 | X-H torsion
[ 8008 7997 7996 7995 ] final  -39.35 input   59.86 | X-H torsion
[ 10167 10162 10161 10158 ] final    6.86 input  -65.29 | X-H torsion
[ 10718 10713 10712 10709 ] final   84.13 input   66.30 | X-H torsion
[ 10763 10752 10751 10750 ] final   74.34 input  -60.55 | X-H torsion
[ 11005 11000 10999 10996 ] final  108.81 input  -57.11 | X-H torsion

> <Gold.Protein.ActiveResidues>
 VAL166  LYS551  ARG553  GLY616  TRP617  ASP618  TYR619  PRO620  LYS621  CYS622 
 ASP623  PHE694  ASN695  SER759  ASP760  ASP761  ALA762  ILE779  LEU786  VAL792 
 PHE793  MET794  SER795  GLU796  ALA797  LYS798  CYS799  TRP800  GLU811  SER814 

> <Gold.Protein.RotatedAtoms>
  150.9208  133.6883  159.2832 H   0  0  0  0  0  0  0  0  0  0  0  0  # atno 6907 bound_to 6896
  151.4338  135.1011  159.9660 H   0  0  0  0  0  0  0  0  0  0  0  0  # atno 6908 bound_to 6896
  152.4978  133.8632  159.7316 H   0  0  0  0  0  0  0  0  0  0  0  0  # atno 6909 bound_to 6896
  145.7300  140.9001  143.0585 H   0  0  0  0  0  0  0  0  0  0  0  0  # atno 7974 bound_to 7965
  154.4024  140.1554  156.2849 H   0  0  0  0  0  0  0  0  0  0  0  0  # atno 8008 bound_to 7997
  155.8837  140.3442  155.5884 H   0  0  0  0  0  0  0  0  0  0  0  0  # atno 8009 bound_to 7997
  155.7638  140.0821  157.2132 H   0  0  0  0  0  0  0  0  0  0  0  0  # atno 8010 bound_to 7997
  140.6404  143.7788  150.7420 H   0  0  0  0  0  0  0  0  0  0  0  0  # atno 10167 bound_to 10162
  157.6892  131.0120  150.2626 H   0  0  0  0  0  0  0  0  0  0  0  0  # atno 10718 bound_to 10713
  153.0580  135.5029  154.8028 H   0  0  0  0  0  0  0  0  0  0  0  0  # atno 10763 bound_to 10752
  154.6838  135.2973  154.9578 H   0  0  0  0  0  0  0  0  0  0  0  0  # atno 10764 bound_to 10752
  154.0355  135.6724  153.4837 H   0  0  0  0  0  0  0  0  0  0  0  0  # atno 10765 bound_to 10752
  139.8851  134.9441  156.6030 H   0  0  0  0  0  0  0  0  0  0  0  0  # atno 11005 bound_to 11000
  144.6895  139.9318  143.7472 LP  0  0  0  0  0  0  0  0  0  0  0  0  # atno 17320 bound_to 7965
  146.0546  139.3544  143.0618 LP  0  0  0  0  0  0  0  0  0  0  0  0  # atno 17321 bound_to 7965
  140.1418  143.4434  152.2189 LP  0  0  0  0  0  0  0  0  0  0  0  0  # atno 17342 bound_to 10162
  139.5613  144.7407  151.4147 LP  0  0  0  0  0  0  0  0  0  0  0  0  # atno 17343 bound_to 10162
  156.3203  130.3785  149.7581 LP  0  0  0  0  0  0  0  0  0  0  0  0  # atno 17370 bound_to 10713
  156.5154  130.8191  151.3184 LP  0  0  0  0  0  0  0  0  0  0  0  0  # atno 17371 bound_to 10713
  140.7869  133.8614  155.8614 LP  0  0  0  0  0  0  0  0  0  0  0  0  # atno 17394 bound_to 11000
  140.9711  134.1529  157.4575 LP  0  0  0  0  0  0  0  0  0  0  0  0  # atno 17395 bound_to 11000

$$$$
