AV-unprocessed.smi:2489|AV-procd|sdf|9801|dock4
  -GOLD-   2272013433D 1   1.00000     0.00000
 Structure written by MMmdl.
 33 34  0  0  0  0  0  0  0  0  1 V2000
  147.5709  140.7585  153.9694 C   0  0  0  0  0  0  0  0  0  0  0  0
  148.8819  141.3019  154.0333 O   0  0  0  0  0  0  0  0  0  0  0  0
  149.8034  140.6460  154.8167 C   0  0  0  0  0  0  0  0  0  0  0  0
  150.2641  139.2860  154.5478 C   0  0  0  0  0  0  0  0  0  0  0  0
  151.1683  138.7457  155.3783 C   0  0  0  0  0  0  0  0  0  0  0  0
  151.6731  139.4338  156.4719 N   0  0  0  0  0  0  0  0  0  0  0  0
  151.2737  140.7441  156.7904 C   0  0  0  0  0  0  0  0  0  0  0  0
  151.7086  141.4417  157.7993 N   0  0  0  0  0  0  0  0  0  0  0  0
  152.6533  140.9547  158.6990 C   0  0  0  0  0  0  0  0  0  0  0  0
  152.9908  139.7888  158.9241 O   0  0  0  0  0  0  0  0  0  0  0  0
  153.3309  142.0899  159.4785 C   0  0  2  0  0  0  0  0  0  0  0  0
  153.1598  141.9626  161.0027 C   0  0  0  0  0  0  0  0  0  0  0  0
  152.2253  143.1030  161.3543 C   0  0  0  0  0  0  0  0  0  0  0  0
  152.5692  144.1321  160.2839 C   0  0  2  0  0  0  0  0  0  0  0  0
  151.4867  145.1944  160.0656 C   0  0  0  0  0  0  0  0  0  0  0  0
  152.7278  143.3345  159.1207 O   0  0  0  0  0  0  0  0  0  0  0  0
  150.2909  141.3216  155.8838 C   0  0  0  0  0  0  0  0  0  0  0  0
  146.9583  141.3777  153.3142 H   0  0  0  0  0  0  0  0  0  0  0  0
  147.0933  140.7473  154.9503 H   0  0  0  0  0  0  0  0  0  0  0  0
  147.5753  139.7490  153.5559 H   0  0  0  0  0  0  0  0  0  0  0  0
  149.9039  138.7052  153.7124 H   0  0  0  0  0  0  0  0  0  0  0  0
  151.5620  137.7476  155.2559 H   0  0  0  0  0  0  0  0  0  0  0  0
  154.3912  142.1304  159.2231 H   0  0  0  0  0  0  0  0  0  0  0  0
  152.7638  140.9990  161.3271 H   0  0  0  0  0  0  0  0  0  0  0  0
  154.1236  142.1028  161.4937 H   0  0  0  0  0  0  0  0  0  0  0  0
  151.1890  142.7779  161.2518 H   0  0  0  0  0  0  0  0  0  0  0  0
  152.3691  143.4762  162.3684 H   0  0  0  0  0  0  0  0  0  0  0  0
  153.5242  144.6067  160.5160 H   0  0  0  0  0  0  0  0  0  0  0  0
  151.3365  145.7899  160.9663 H   0  0  0  0  0  0  0  0  0  0  0  0
  150.5322  144.7377  159.8020 H   0  0  0  0  0  0  0  0  0  0  0  0
  151.7651  145.8729  159.2590 H   0  0  0  0  0  0  0  0  0  0  0  0
  149.9214  142.3246  156.0435 H   0  0  0  0  0  0  0  0  0  0  0  0
  152.3490  138.9424  157.0397 H   0  0  0  0  0  0  0  0  0  0  0  0
  1  2  1  0  0  0  0
  1 18  1  0  0  0  0
  1 19  1  0  0  0  0
  1 20  1  0  0  0  0
  2  3  1  0  0  0  0
  3 17  2  0  0  0  0
  3  4  1  0  0  0  0
  4  5  2  0  0  0  0
  4 21  1  0  0  0  0
  5  6  1  0  0  0  0
  5 22  1  0  0  0  0
  6  7  1  0  0  0  0
  6 33  1  0  0  0  0
  7  8  2  0  0  0  0
  7 17  1  0  0  0  0
  8  9  1  0  0  0  0
  9 10  2  0  0  0  0
  9 11  1  0  0  0  0
 11 16  1  0  0  0  0
 11 12  1  0  0  0  0
 11 23  1  0  0  0  0
 12 13  1  0  0  0  0
 12 24  1  0  0  0  0
 12 25  1  0  0  0  0
 13 14  1  0  0  0  0
 13 26  1  0  0  0  0
 13 27  1  0  0  0  0
 14 15  1  0  0  0  0
 14 16  1  0  0  0  0
 14 28  1  0  0  0  0
 15 29  1  0  0  0  0
 15 30  1  0  0  0  0
 15 31  1  0  0  0  0
 17 32  1  0  0  0  0
M  END
> <s_m_source_file>
AV-unprocessed.smi

> <i_m_source_file_index>
2489

> <i_lp_mmshare_version>
43012

> <i_f3d_flags>
0

> <s_epik_input>
W0NIM11PYzFbY0hdW2NIXW5jKFtjSF0xKVtOSF1DKD1PKVtDQEBIXTJbQ0gyXVtDSDJdW0NASF0oTzIpW0NIM10=

> <s_epik_cmdline>
J2VwaWtfcHl0aG9uJywgJy1waCcsICc3LjAnLCAnLXRuJywgJzgnLCAnLW1hJywgJzIwMCcsICctbWV0YWxfYmluZGluZycsICctaW1hZScsICc8aW5maWxlLm1hZT4nLCAnLW9tYWUnLCAnPG91dGZpbGUubWFlPic=

> <r_epik_Ionization_Penalty>
0.410206

> <r_epik_Ionization_Penalty_Charging>
0.410206

> <r_epik_Ionization_Penalty_Neutral>
6.57528e-13

> <r_epik_State_Penalty>
1.30987

> <r_epik_Charging_Adjusted_Penalty>
1.72007

> <i_epik_Tot_Q>
0

> <i_epik_Tot_abs_Q>
0

> <r_epik_Metal_State_Penalty>
1.32171

> <b_epik_Metal_Only>
0

> <s_lp_Force_Field>
OPLS_2005

> <r_lp_Energy>
35.4329

> <b_lp_Chiralities_Consistent>
1

> <s_lp_Variant>
AV-unprocessed.smi:2489-7

> <Gold.Version>
5.8.1

> <Gold.Id.Protein>
6NUR|6NUR_protein|mol2

> <Gold.PLP.Fitness>
40.4183

> <Gold.PLP.PLP>
-38.2838

> <Gold.PLP.part.hbond>
-1.6299

> <Gold.PLP.part.metal>
0.0000

> <Gold.PLP.part.buried>
-3.7661

> <Gold.PLP.part.nonpolar>
-32.7386

> <Gold.PLP.part.repulsive>
0.7412

> <Gold.PLP.ligand.clash>
0.0000

> <Gold.PLP.ligand.torsion>
0.1127

> <Gold.PLP.Chemscore.Hbond>
0.7840

> <Gold.PLP.Chemscore.CHOScore>
0.0000

> <Gold.PLP.Chemscore.Metal>
0.0000

> <Gold.Chemscore.Hbonds>
donor molecule, donor type, donor heavy atom, donor atom, acceptor molecule, acceptor atom, score
      P1  H  8011  8017       L1     2  0.38

> <Gold.PLP.Chemscore.Internal.Correction>
0.0079

> <Gold.Rescore>
     Score         DG    S(hbond)    S(metal)    S(lipo)     H(rot)  DE(clash)    DE(int)     intcor
     13.04     -14.62       0.38        0.00      94.04       1.23       0.06       1.53       ----

> <Gold.Chemscore.Fitness>
13.0355

> <Gold.Chemscore.DG>
-14.6221

> <Gold.Chemscore.ZeroCoef>
-5.4800

> <Gold.Chemscore.Hbond>
0.3829

> <Gold.Chemscore.Metal>
0.0000

> <Gold.Chemscore.Lipo>
94.0416

> <Gold.Chemscore.Internal_Hbond>
0.0000

> <Gold.Chemscore.DEClash>
0.0562

> <Gold.Chemscore.DEInternal>
1.5305

> <Gold.Chemscore.Rot>
1.2264

> <Gold.Chemscore.Internal.Correction>
   9.000000E+99

> <Gold.Chemscore.Hbonds>
donor molecule, donor type, donor heavy atom, donor atom, acceptor molecule, acceptor atom, score
      P1  H  8011  8017       L1     2  0.34

> <Gold.Chemscore.Hbond.Weighted>
-1.2788

> <Gold.Chemscore.Metal.Weighted>
-0.0000

> <Gold.Chemscore.Lipo.Weighted>
-11.0029

> <Gold.Chemscore.Internal_Hbond.Weighted>
0.0000

> <Gold.Chemscore.DEClash.Weighted>
0.0562

> <Gold.Chemscore.DEInternal.Weighted>
1.5305

> <Gold.Chemscore.Rot.Weighted>
3.1396

> <Gold.Chemscore.Internal.Correction.Weighted>
   9.000000E+99

> <Gold.Protein.RotatedTorsions>
[ 6907 6896 6895 6894 ] final  103.22 input  -60.11 | X-H torsion
[ 7974 7965 7964 7962 ] final  119.30 input  175.53 | X-H torsion
[ 8008 7997 7996 7995 ] final  -75.61 input   59.86 | X-H torsion
[ 10167 10162 10161 10158 ] final  -48.32 input  -65.29 | X-H torsion
[ 10718 10713 10712 10709 ] final   44.82 input   66.30 | X-H torsion
[ 10763 10752 10751 10750 ] final  -20.79 input  -60.55 | X-H torsion
[ 11005 11000 10999 10996 ] final    6.46 input  -57.11 | X-H torsion

> <Gold.Protein.ActiveResidues>
 VAL166  LYS551  ARG553  GLY616  TRP617  ASP618  TYR619  PRO620  LYS621  CYS622 
 ASP623  PHE694  ASN695  SER759  ASP760  ASP761  ALA762  ILE779  LEU786  VAL792 
 PHE793  MET794  SER795  GLU796  ALA797  LYS798  CYS799  TRP800  GLU811  SER814 

> <Gold.Protein.RotatedAtoms>
  152.5302  133.9858  159.7827 H   0  0  0  0  0  0  0  0  0  0  0  0  # atno 6907 bound_to 6896
  151.0103  133.5963  159.2690 H   0  0  0  0  0  0  0  0  0  0  0  0  # atno 6908 bound_to 6896
  151.3040  135.0783  159.9302 H   0  0  0  0  0  0  0  0  0  0  0  0  # atno 6909 bound_to 6896
  145.1448  139.3246  143.4597 H   0  0  0  0  0  0  0  0  0  0  0  0  # atno 7974 bound_to 7965
  154.5432  140.0741  156.8545 H   0  0  0  0  0  0  0  0  0  0  0  0  # atno 8008 bound_to 7997
  155.3139  140.3392  155.4225 H   0  0  0  0  0  0  0  0  0  0  0  0  # atno 8009 bound_to 7997
  156.1894  140.1680  156.8109 H   0  0  0  0  0  0  0  0  0  0  0  0  # atno 8010 bound_to 7997
  140.6736  143.2745  151.4054 H   0  0  0  0  0  0  0  0  0  0  0  0  # atno 10167 bound_to 10162
  157.4309  130.8024  149.7602 H   0  0  0  0  0  0  0  0  0  0  0  0  # atno 10718 bound_to 10713
  153.6260  135.6991  153.5293 H   0  0  0  0  0  0  0  0  0  0  0  0  # atno 10763 bound_to 10752
  153.2898  135.4160  155.1156 H   0  0  0  0  0  0  0  0  0  0  0  0  # atno 10764 bound_to 10752
  154.8533  135.3622  154.5802 H   0  0  0  0  0  0  0  0  0  0  0  0  # atno 10765 bound_to 10752
  140.5592  134.0209  155.7965 H   0  0  0  0  0  0  0  0  0  0  0  0  # atno 11005 bound_to 11000
  146.3501  140.1499  142.8592 LP  0  0  0  0  0  0  0  0  0  0  0  0  # atno 17320 bound_to 7965
  145.0493  140.9006  143.5005 LP  0  0  0  0  0  0  0  0  0  0  0  0  # atno 17321 bound_to 7965
  139.6016  144.1283  152.2204 LP  0  0  0  0  0  0  0  0  0  0  0  0  # atno 17342 bound_to 10162
  140.0669  144.5811  150.7221 LP  0  0  0  0  0  0  0  0  0  0  0  0  # atno 17343 bound_to 10162
  155.9913  130.3938  150.2991 LP  0  0  0  0  0  0  0  0  0  0  0  0  # atno 17370 bound_to 10713
  157.1147  131.0231  151.3033 LP  0  0  0  0  0  0  0  0  0  0  0  0  # atno 17371 bound_to 10713
  141.1125  133.9593  157.2884 LP  0  0  0  0  0  0  0  0  0  0  0  0  # atno 17394 bound_to 11000
  139.9416  135.0190  156.8726 LP  0  0  0  0  0  0  0  0  0  0  0  0  # atno 17395 bound_to 11000

$$$$
