AV-unprocessed.smi:1854|AV-procd|sdf|7529|dock9
  -GOLD-   22720 9243D 1   1.00000     0.00000
 Structure written by MMmdl.
 39 41  0  0  0  0  0  0  0  0  1 V2000
  151.8333  137.2412  154.7354 O   0  0  0  0  0  0  0  0  0  0  0  0
  152.2167  138.4082  154.6764 C   0  0  0  0  0  0  0  0  0  0  0  0
  152.3398  139.2223  155.7343 N   0  0  0  0  0  0  0  0  0  0  0  0
  152.0327  138.8578  157.1138 C   0  0  0  0  0  0  0  0  0  0  0  0
  152.0877  140.0876  157.9728 C   0  0  0  0  0  0  0  0  0  0  0  0
  151.2177  141.0883  157.8303 N   0  0  0  0  0  0  0  0  0  0  0  0
  151.6210  141.9834  158.8017 C   0  0  0  0  0  0  0  0  0  0  0  0
  151.0991  143.2469  159.1602 C   0  0  0  0  0  0  0  0  0  0  0  0
  151.6828  143.9887  160.2081 C   0  0  0  0  0  0  0  0  0  0  0  0
  152.7944  143.4795  160.9104 C   0  0  0  0  0  0  0  0  0  0  0  0
  153.3311  142.2235  160.5677 C   0  0  0  0  0  0  0  0  0  0  0  0
  152.7453  141.4876  159.5205 C   0  0  0  0  0  0  0  0  0  0  0  0
  153.0190  140.2509  158.9462 N   0  0  0  0  0  0  0  0  0  0  0  0
  154.0820  139.3398  159.3396 C   0  0  0  0  0  0  0  0  0  0  0  0
  153.8076  138.7171  160.7133 C   0  0  0  0  0  0  0  0  0  0  0  0
  154.2147  137.3571  160.6817 O   0  0  0  0  0  0  0  0  0  0  0  0
  154.2829  136.6645  161.8729 C   0  0  0  0  0  0  0  0  0  0  0  0
  153.8948  137.2061  163.1253 C   0  0  0  0  0  0  0  0  0  0  0  0
  153.9928  136.4349  164.2996 C   0  0  0  0  0  0  0  0  0  0  0  0
  154.4780  135.1162  164.2404 C   0  0  0  0  0  0  0  0  0  0  0  0
  154.8668  134.5693  163.0040 C   0  0  0  0  0  0  0  0  0  0  0  0
  154.7700  135.3387  161.8277 C   0  0  0  0  0  0  0  0  0  0  0  0
  155.2528  134.6413  160.3228 Cl  0  0  0  0  0  0  0  0  0  0  0  0
  152.5059  138.9253  153.7485 H   0  0  0  0  0  0  0  0  0  0  0  0
  152.6628  140.1652  155.5724 H   0  0  0  0  0  0  0  0  0  0  0  0
  151.0467  138.3957  157.1888 H   0  0  0  0  0  0  0  0  0  0  0  0
  152.7525  138.1198  157.4672 H   0  0  0  0  0  0  0  0  0  0  0  0
  150.2473  143.6451  158.6290 H   0  0  0  0  0  0  0  0  0  0  0  0
  151.2753  144.9529  160.4750 H   0  0  0  0  0  0  0  0  0  0  0  0
  153.2350  144.0535  161.7123 H   0  0  0  0  0  0  0  0  0  0  0  0
  154.1820  141.8303  161.1039 H   0  0  0  0  0  0  0  0  0  0  0  0
  154.1967  138.5644  158.5824 H   0  0  0  0  0  0  0  0  0  0  0  0
  155.0232  139.8900  159.3583 H   0  0  0  0  0  0  0  0  0  0  0  0
  154.3618  139.2602  161.4806 H   0  0  0  0  0  0  0  0  0  0  0  0
  152.7437  138.7867  160.9460 H   0  0  0  0  0  0  0  0  0  0  0  0
  153.5182  138.2137  163.2137 H   0  0  0  0  0  0  0  0  0  0  0  0
  153.6947  136.8572  165.2480 H   0  0  0  0  0  0  0  0  0  0  0  0
  154.5524  134.5252  165.1413 H   0  0  0  0  0  0  0  0  0  0  0  0
  155.2402  133.5567  162.9588 H   0  0  0  0  0  0  0  0  0  0  0  0
  1  2  2  0  0  0  0
  2  3  1  0  0  0  0
  2 24  1  0  0  0  0
  3  4  1  0  0  0  0
  3 25  1  0  0  0  0
  4  5  1  0  0  0  0
  4 26  1  0  0  0  0
  4 27  1  0  0  0  0
  5 13  1  0  0  0  0
  5  6  2  0  0  0  0
  6  7  1  0  0  0  0
  7 12  2  0  0  0  0
  7  8  1  0  0  0  0
  8  9  2  0  0  0  0
  8 28  1  0  0  0  0
  9 10  1  0  0  0  0
  9 29  1  0  0  0  0
 10 11  2  0  0  0  0
 10 30  1  0  0  0  0
 11 12  1  0  0  0  0
 11 31  1  0  0  0  0
 12 13  1  0  0  0  0
 13 14  1  0  0  0  0
 14 15  1  0  0  0  0
 14 32  1  0  0  0  0
 14 33  1  0  0  0  0
 15 16  1  0  0  0  0
 15 34  1  0  0  0  0
 15 35  1  0  0  0  0
 16 17  1  0  0  0  0
 17 22  1  0  0  0  0
 17 18  2  0  0  0  0
 18 19  1  0  0  0  0
 18 36  1  0  0  0  0
 19 20  2  0  0  0  0
 19 37  1  0  0  0  0
 20 21  1  0  0  0  0
 20 38  1  0  0  0  0
 21 22  2  0  0  0  0
 21 39  1  0  0  0  0
 22 23  1  0  0  0  0
M  END
> <s_m_source_file>
AV-unprocessed.smi

> <i_m_source_file_index>
1854

> <i_lp_mmshare_version>
43012

> <i_f3d_flags>
0

> <s_epik_input>
Tz1bQ0hdW05IXVtDSDJdYyhuMSluKGMoYzEyKVtjSF1bY0hdW2NIXVtjSF0yKVtDSDJdW0NIMl1PYzNbY0hdW2NIXVtjSF1bY0hdYzNDbA==

> <s_epik_cmdline>
J2VwaWtfcHl0aG9uJywgJy1waCcsICc3LjAnLCAnLXRuJywgJzgnLCAnLW1hJywgJzIwMCcsICctbWV0YWxfYmluZGluZycsICctaW1hZScsICc8aW5maWxlLm1hZT4nLCAnLW9tYWUnLCAnPG91dGZpbGUubWFlPic=

> <r_lp_tautomer_probability>
1

> <r_epik_Ionization_Penalty>
0.0546265

> <r_epik_Ionization_Penalty_Charging>
0

> <r_epik_Ionization_Penalty_Neutral>
0.0546265

> <r_epik_State_Penalty>
0.0470049

> <r_epik_Charging_Adjusted_Penalty>
0.0470049

> <i_epik_Tot_Q>
0

> <i_epik_Tot_abs_Q>
0

> <r_epik_Metal_State_Penalty>
0.0430103

> <b_epik_Metal_Only>
0

> <s_lp_Force_Field>
OPLS_2005

> <r_lp_Energy>
13.3616

> <b_lp_Chiralities_Consistent>
1

> <s_lp_Variant>
AV-unprocessed.smi:1854-1

> <Gold.Version>
5.8.1

> <Gold.Id.Protein>
6NUR|6NUR_protein|mol2

> <Gold.PLP.Fitness>
49.0993

> <Gold.PLP.PLP>
-47.0457

> <Gold.PLP.part.hbond>
-1.0000

> <Gold.PLP.part.metal>
0.0000

> <Gold.PLP.part.buried>
-6.8555

> <Gold.PLP.part.nonpolar>
-38.8069

> <Gold.PLP.part.repulsive>
0.3130

> <Gold.PLP.ligand.clash>
0.0000

> <Gold.PLP.ligand.torsion>
0.4857

> <Gold.PLP.Chemscore.Hbond>
0.9920

> <Gold.PLP.Chemscore.CHOScore>
0.0000

> <Gold.PLP.Chemscore.Metal>
0.0000

> <Gold.Chemscore.Hbonds>
donor molecule, donor type, donor heavy atom, donor atom, acceptor molecule, acceptor atom, score
      P1  H 10752 10763       L1     1  0.99

> <Gold.PLP.Chemscore.Internal.Correction>
0.0491

> <Gold.Rescore>
     Score         DG    S(hbond)    S(metal)    S(lipo)     H(rot)  DE(clash)    DE(int)     intcor
     17.17     -17.72       0.97        0.00     129.86       2.42       0.00       0.55       ----

> <Gold.Chemscore.Fitness>
17.1684

> <Gold.Chemscore.DG>
-17.7165

> <Gold.Chemscore.ZeroCoef>
-5.4800

> <Gold.Chemscore.Hbond>
0.9700

> <Gold.Chemscore.Metal>
0.0000

> <Gold.Chemscore.Lipo>
129.8554

> <Gold.Chemscore.Internal_Hbond>
0.0000

> <Gold.Chemscore.DEClash>
0.0000

> <Gold.Chemscore.DEInternal>
0.5481

> <Gold.Chemscore.Rot>
2.4205

> <Gold.Chemscore.Internal.Correction>
   9.000000E+99

> <Gold.Chemscore.Hbonds>
donor molecule, donor type, donor heavy atom, donor atom, acceptor molecule, acceptor atom, score
      P1  H 10752 10763       L1     1  0.92

> <Gold.Chemscore.Hbond.Weighted>
-3.2399

> <Gold.Chemscore.Metal.Weighted>
-0.0000

> <Gold.Chemscore.Lipo.Weighted>
-15.1931

> <Gold.Chemscore.Internal_Hbond.Weighted>
0.0000

> <Gold.Chemscore.DEClash.Weighted>
0.0000

> <Gold.Chemscore.DEInternal.Weighted>
0.5481

> <Gold.Chemscore.Rot.Weighted>
6.1965

> <Gold.Chemscore.Internal.Correction.Weighted>
   9.000000E+99

> <Gold.Protein.RotatedTorsions>
[ 6907 6896 6895 6894 ] final   87.84 input  -60.11 | X-H torsion
[ 7974 7965 7964 7962 ] final  103.88 input  175.53 | X-H torsion
[ 8008 7997 7996 7995 ] final   99.03 input   59.86 | X-H torsion
[ 10167 10162 10161 10158 ] final -172.12 input  -65.29 | X-H torsion
[ 10718 10713 10712 10709 ] final  -78.86 input   66.30 | X-H torsion
[ 10763 10752 10751 10750 ] final   52.77 input  -60.55 | X-H torsion
[ 11005 11000 10999 10996 ] final  -97.38 input  -57.11 | X-H torsion

> <Gold.Protein.ActiveResidues>
 VAL166  LYS551  ARG553  GLY616  TRP617  ASP618  TYR619  PRO620  LYS621  CYS622 
 ASP623  PHE694  ASN695  SER759  ASP760  ASP761  ALA762  ILE779  LEU786  VAL792 
 PHE793  MET794  SER795  GLU796  ALA797  LYS798  CYS799  TRP800  GLU811  SER814 

> <Gold.Protein.RotatedAtoms>
  152.5417  134.2214  159.8788 H   0  0  0  0  0  0  0  0  0  0  0  0  # atno 6907 bound_to 6896
  151.2191  133.4506  159.2608 H   0  0  0  0  0  0  0  0  0  0  0  0  # atno 6908 bound_to 6896
  151.0823  134.9878  159.8418 H   0  0  0  0  0  0  0  0  0  0  0  0  # atno 6909 bound_to 6896
  145.3401  139.2464  143.3614 H   0  0  0  0  0  0  0  0  0  0  0  0  # atno 7974 bound_to 7965
  156.1064  140.3235  155.8012 H   0  0  0  0  0  0  0  0  0  0  0  0  # atno 8008 bound_to 7997
  155.4748  140.0549  157.2992 H   0  0  0  0  0  0  0  0  0  0  0  0  # atno 8009 bound_to 7997
  154.4731  140.2020  155.9960 H   0  0  0  0  0  0  0  0  0  0  0  0  # atno 8010 bound_to 7997
  139.5763  144.1525  152.1455 H   0  0  0  0  0  0  0  0  0  0  0  0  # atno 10167 bound_to 10162
  156.0107  130.4529  150.3561 H   0  0  0  0  0  0  0  0  0  0  0  0  # atno 10718 bound_to 10713
  152.9791  135.5801  154.4633 H   0  0  0  0  0  0  0  0  0  0  0  0  # atno 10763 bound_to 10752
  154.4206  135.2771  155.1980 H   0  0  0  0  0  0  0  0  0  0  0  0  # atno 10764 bound_to 10752
  154.3730  135.6163  153.5804 H   0  0  0  0  0  0  0  0  0  0  0  0  # atno 10765 bound_to 10752
  141.1381  133.8166  157.0698 H   0  0  0  0  0  0  0  0  0  0  0  0  # atno 11005 bound_to 11000
  146.3011  140.3997  142.8704 LP  0  0  0  0  0  0  0  0  0  0  0  0  # atno 17320 bound_to 7965
  144.8796  140.7383  143.5995 LP  0  0  0  0  0  0  0  0  0  0  0  0  # atno 17321 bound_to 7965
  140.1069  144.5491  150.6951 LP  0  0  0  0  0  0  0  0  0  0  0  0  # atno 17342 bound_to 10162
  140.7045  143.2458  151.4766 LP  0  0  0  0  0  0  0  0  0  0  0  0  # atno 17343 bound_to 10162
  157.1651  131.0355  151.2822 LP  0  0  0  0  0  0  0  0  0  0  0  0  # atno 17370 bound_to 10713
  157.4277  130.7473  149.6965 LP  0  0  0  0  0  0  0  0  0  0  0  0  # atno 17371 bound_to 10713
  140.0518  134.9801  157.1150 LP  0  0  0  0  0  0  0  0  0  0  0  0  # atno 17394 bound_to 11000
  140.3978  134.2115  155.7164 LP  0  0  0  0  0  0  0  0  0  0  0  0  # atno 17395 bound_to 11000

$$$$
