AV-unprocessed.smi:1247|AV-procd|sdf|5247|dock2
  -GOLD-   22720 4353D 1   1.00000     0.00000
 Structure written by MMmdl.
 47 48  0  0  0  0  0  0  0  0  2 V2000
  137.4214  137.1937  154.1654 C   0  0  0  0  0  0  0  0  0  0  0  0
  138.7246  137.9132  153.9790 C   0  0  0  0  0  0  0  0  0  0  0  0
  139.9804  137.3681  153.5824 C   0  0  0  0  0  0  0  0  0  0  0  0
  140.7983  138.4650  153.5794 C   0  0  0  0  0  0  0  0  0  0  0  0
  142.1189  138.5401  153.2642 N   0  0  0  0  0  0  0  0  0  0  0  0
  143.0420  137.5627  153.2747 C   0  0  0  0  0  0  0  0  0  0  0  0
  142.8479  136.3978  153.6231 O   0  0  0  0  0  0  0  0  0  0  0  0
  144.2343  138.0171  152.8622 N   0  0  0  0  0  0  0  0  0  0  0  0
  145.4438  137.2089  152.7616 C   0  0  0  0  0  0  0  0  0  0  0  0
  145.5059  136.4538  151.4204 C   0  0  0  0  0  0  0  0  0  0  0  0
  146.1341  135.1165  151.5573 N   0  3  1  0  0  0  0  0  0  0  0  0
  145.8628  134.4939  152.8748 C   0  0  0  0  0  0  0  0  0  0  0  0
  146.5837  133.1380  153.0096 C   0  0  2  0  0  0  0  0  0  0  0  0
  148.1034  133.2674  153.2161 C   0  0  0  0  0  0  0  0  0  0  0  0
  146.2581  132.2949  151.9045 O   0  0  0  0  0  0  0  0  0  0  0  0
  146.5358  132.8527  150.6226 C   0  0  1  0  0  0  0  0  0  0  0  0
  146.1242  131.8250  149.5626 C   0  0  0  0  0  0  0  0  0  0  0  0
  145.7746  134.1810  150.4647 C   0  0  0  0  0  0  0  0  0  0  0  0
  140.0603  139.5711  153.9434 N   0  0  0  0  0  0  0  0  0  0  0  0
  140.4596  140.9582  154.0876 C   0  0  0  0  0  0  0  0  0  0  0  0
  138.7801  139.2227  154.1938 N   0  0  0  0  0  0  0  0  0  0  0  0
  137.4956  136.1541  153.8460 H   0  0  0  0  0  0  0  0  0  0  0  0
  136.6259  137.6621  153.5849 H   0  0  0  0  0  0  0  0  0  0  0  0
  137.1183  137.1983  155.2127 H   0  0  0  0  0  0  0  0  0  0  0  0
  140.2172  136.3428  153.3419 H   0  0  0  0  0  0  0  0  0  0  0  0
  142.4425  139.4561  152.9902 H   0  0  0  0  0  0  0  0  0  0  0  0
  144.3088  138.9878  152.5944 H   0  0  0  0  0  0  0  0  0  0  0  0
  146.3165  137.8476  152.9025 H   0  0  0  0  0  0  0  0  0  0  0  0
  145.4451  136.4974  153.5876 H   0  0  0  0  0  0  0  0  0  0  0  0
  144.4850  136.3350  151.0541 H   0  0  0  0  0  0  0  0  0  0  0  0
  146.0383  137.0330  150.6640 H   0  0  0  0  0  0  0  0  0  0  0  0
  146.1751  135.1609  153.6795 H   0  0  0  0  0  0  0  0  0  0  0  0
  144.7867  134.3501  152.9840 H   0  0  0  0  0  0  0  0  0  0  0  0
  146.1883  132.6394  153.8951 H   0  0  0  0  0  0  0  0  0  0  0  0
  148.3232  133.8035  154.1397 H   0  0  0  0  0  0  0  0  0  0  0  0
  148.5887  133.8099  152.4053 H   0  0  0  0  0  0  0  0  0  0  0  0
  148.5709  132.2851  153.2881 H   0  0  0  0  0  0  0  0  0  0  0  0
  147.6068  133.0298  150.5217 H   0  0  0  0  0  0  0  0  0  0  0  0
  146.3200  132.1973  148.5567 H   0  0  0  0  0  0  0  0  0  0  0  0
  145.0616  131.5903  149.6316 H   0  0  0  0  0  0  0  0  0  0  0  0
  146.6790  130.8946  149.6857 H   0  0  0  0  0  0  0  0  0  0  0  0
  144.6978  134.0033  150.4766 H   0  0  0  0  0  0  0  0  0  0  0  0
  146.0126  134.6193  149.4959 H   0  0  0  0  0  0  0  0  0  0  0  0
  141.4759  141.1069  153.7231 H   0  0  0  0  0  0  0  0  0  0  0  0
  140.4158  141.2442  155.1389 H   0  0  0  0  0  0  0  0  0  0  0  0
  139.7860  141.5975  153.5162 H   0  0  0  0  0  0  0  0  0  0  0  0
  147.1329  135.2601  151.5123 H   0  0  0  0  0  0  0  0  0  0  0  0
  1  2  1  0  0  0  0
  1 22  1  0  0  0  0
  1 23  1  0  0  0  0
  1 24  1  0  0  0  0
  2 21  2  0  0  0  0
  2  3  1  0  0  0  0
  3  4  2  0  0  0  0
  3 25  1  0  0  0  0
  4  5  1  0  0  0  0
  4 19  1  0  0  0  0
  5  6  1  0  0  0  0
  5 26  1  0  0  0  0
  6  7  2  0  0  0  0
  6  8  1  0  0  0  0
  8  9  1  0  0  0  0
  8 27  1  0  0  0  0
  9 10  1  0  0  0  0
  9 28  1  0  0  0  0
  9 29  1  0  0  0  0
 10 11  1  0  0  0  0
 10 30  1  0  0  0  0
 10 31  1  0  0  0  0
 11 18  1  0  0  0  0
 11 12  1  0  0  0  0
 11 47  1  0  0  0  0
 12 13  1  0  0  0  0
 12 32  1  0  0  0  0
 12 33  1  0  0  0  0
 13 14  1  0  0  0  0
 13 15  1  0  0  0  0
 13 34  1  0  0  0  0
 14 35  1  0  0  0  0
 14 36  1  0  0  0  0
 14 37  1  0  0  0  0
 15 16  1  0  0  0  0
 16 17  1  0  0  0  0
 16 18  1  0  0  0  0
 16 38  1  0  0  0  0
 17 39  1  0  0  0  0
 17 40  1  0  0  0  0
 17 41  1  0  0  0  0
 18 42  1  0  0  0  0
 18 43  1  0  0  0  0
 19 20  1  0  0  0  0
 19 21  1  0  0  0  0
 20 44  1  0  0  0  0
 20 45  1  0  0  0  0
 20 46  1  0  0  0  0
M  CHG  1  11   1
M  END
> <s_m_source_file>
AV-unprocessed.smi

> <i_m_source_file_index>
1247

> <i_lp_mmshare_version>
43012

> <i_f3d_flags>
0

> <s_epik_input>
W0NIM11jMVtjSF1jKG4objEpW0NIM10pW05IXUMoPU8pW05IXVtDSDJdW0NIMl1OMltDSDJdW0NAQEhdKFtDSDNdKU9bQ0BASF0oW0NIM10pW0NIMl0y

> <s_epik_cmdline>
J2VwaWtfcHl0aG9uJywgJy1waCcsICc3LjAnLCAnLXRuJywgJzgnLCAnLW1hJywgJzIwMCcsICctbWV0YWxfYmluZGluZycsICctaW1hZScsICc8aW5maWxlLm1hZT4nLCAnLW9tYWUnLCAnPG91dGZpbGUubWFlPic=

> <r_lp_tautomer_probability>
1

> <r_epik_Ionization_Penalty>
0.663902

> <r_epik_Ionization_Penalty_Charging>
0.663826

> <r_epik_Ionization_Penalty_Neutral>
7.65444e-05

> <r_epik_State_Penalty>
0.683414

> <r_epik_Charging_Adjusted_Penalty>
1.34724

> <i_epik_Tot_Q>
1

> <i_epik_Tot_abs_Q>
1

> <r_epik_Metal_State_Penalty>
0.683419

> <b_epik_Metal_Only>
0

> <s_lp_Force_Field>
OPLS_2005

> <r_lp_Energy>
19.2404

> <b_lp_Chiralities_Consistent>
1

> <s_lp_Variant>
AV-unprocessed.smi:1247-5

> <Gold.Version>
5.8.1

> <Gold.Id.Protein>
6NUR|6NUR_protein|mol2

> <Gold.PLP.Fitness>
44.1213

> <Gold.PLP.PLP>
-33.6717

> <Gold.PLP.part.hbond>
-3.6839

> <Gold.PLP.part.metal>
0.0000

> <Gold.PLP.part.buried>
0.9632

> <Gold.PLP.part.nonpolar>
-30.3337

> <Gold.PLP.part.repulsive>
0.3365

> <Gold.PLP.ligand.clash>
0.0175

> <Gold.PLP.ligand.torsion>
0.7809

> <Gold.PLP.Chemscore.Hbond>
3.9825

> <Gold.PLP.Chemscore.CHOScore>
0.0000

> <Gold.PLP.Chemscore.Metal>
0.0000

> <Gold.Chemscore.Hbonds>
donor molecule, donor type, donor heavy atom, donor atom, acceptor molecule, acceptor atom, score
      L1  H     5    26       P1 10175  1.00
      L1  H     8    27       P1 10175  1.00
      L1  H    11    47       P1  7948  1.92

> <Gold.PLP.Chemscore.Internal.Correction>
0.0813

> <Gold.Rescore>
     Score         DG    S(hbond)    S(metal)    S(lipo)     H(rot)  DE(clash)    DE(int)     intcor
     18.73     -19.75       2.82        0.00      74.71       1.52       0.05       0.97       ----

> <Gold.Chemscore.Fitness>
18.7345

> <Gold.Chemscore.DG>
-19.7545

> <Gold.Chemscore.ZeroCoef>
-5.4800

> <Gold.Chemscore.Hbond>
2.8233

> <Gold.Chemscore.Metal>
0.0000

> <Gold.Chemscore.Lipo>
74.7131

> <Gold.Chemscore.Internal_Hbond>
0.0000

> <Gold.Chemscore.DEClash>
0.0515

> <Gold.Chemscore.DEInternal>
0.9685

> <Gold.Chemscore.Rot>
1.5221

> <Gold.Chemscore.Internal.Correction>
   9.000000E+99

> <Gold.Chemscore.Hbonds>
donor molecule, donor type, donor heavy atom, donor atom, acceptor molecule, acceptor atom, score
      L1  H     5    26       P1 10175  0.93
      L1  H     8    27       P1 10175  0.93
      L1  H    11    47       P1  7948  0.84

> <Gold.Chemscore.Hbond.Weighted>
-9.4298

> <Gold.Chemscore.Metal.Weighted>
-0.0000

> <Gold.Chemscore.Lipo.Weighted>
-8.7414

> <Gold.Chemscore.Internal_Hbond.Weighted>
0.0000

> <Gold.Chemscore.DEClash.Weighted>
0.0515

> <Gold.Chemscore.DEInternal.Weighted>
0.9685

> <Gold.Chemscore.Rot.Weighted>
3.8967

> <Gold.Chemscore.Internal.Correction.Weighted>
   9.000000E+99

> <Gold.Protein.RotatedTorsions>
[ 6907 6896 6895 6894 ] final -112.65 input  -60.11 | X-H torsion
[ 7974 7965 7964 7962 ] final -147.43 input  175.53 | X-H torsion
[ 8008 7997 7996 7995 ] final  -48.15 input   59.86 | X-H torsion
[ 10167 10162 10161 10158 ] final   40.28 input  -65.29 | X-H torsion
[ 10718 10713 10712 10709 ] final -105.42 input   66.30 | X-H torsion
[ 10763 10752 10751 10750 ] final -163.34 input  -60.55 | X-H torsion
[ 11005 11000 10999 10996 ] final  -56.60 input  -57.11 | X-H torsion

> <Gold.Protein.ActiveResidues>
 VAL166  LYS551  ARG553  GLY616  TRP617  ASP618  TYR619  PRO620  LYS621  CYS622 
 ASP623  PHE694  ASN695  SER759  ASP760  ASP761  ALA762  ILE779  LEU786  VAL792 
 PHE793  MET794  SER795  GLU796  ALA797  LYS798  CYS799  TRP800  GLU811  SER814 

> <Gold.Protein.RotatedAtoms>
  150.7773  133.9059  159.3354 H   0  0  0  0  0  0  0  0  0  0  0  0  # atno 6907 bound_to 6896
  151.6931  135.0941  160.0246 H   0  0  0  0  0  0  0  0  0  0  0  0  # atno 6908 bound_to 6896
  152.3813  133.6512  159.6199 H   0  0  0  0  0  0  0  0  0  0  0  0  # atno 6909 bound_to 6896
  144.8094  140.5327  143.5653 H   0  0  0  0  0  0  0  0  0  0  0  0  # atno 7974 bound_to 7965
  154.4025  140.1329  156.4291 H   0  0  0  0  0  0  0  0  0  0  0  0  # atno 8008 bound_to 7997
  155.7568  140.3487  155.5158 H   0  0  0  0  0  0  0  0  0  0  0  0  # atno 8009 bound_to 7997
  155.8897  140.1001  157.1417 H   0  0  0  0  0  0  0  0  0  0  0  0  # atno 8010 bound_to 7997
  140.3757  144.2046  150.6131 H   0  0  0  0  0  0  0  0  0  0  0  0  # atno 10167 bound_to 10162
  156.0345  130.5563  150.7536 H   0  0  0  0  0  0  0  0  0  0  0  0  # atno 10718 bound_to 10713
  154.7131  135.3010  154.9165 H   0  0  0  0  0  0  0  0  0  0  0  0  # atno 10763 bound_to 10752
  154.0061  135.6701  153.4766 H   0  0  0  0  0  0  0  0  0  0  0  0  # atno 10764 bound_to 10752
  153.0771  135.5029  154.8342 H   0  0  0  0  0  0  0  0  0  0  0  0  # atno 10765 bound_to 10752
  141.1127  133.6610  156.4643 H   0  0  0  0  0  0  0  0  0  0  0  0  # atno 11005 bound_to 11000
  145.5361  139.1475  143.3473 LP  0  0  0  0  0  0  0  0  0  0  0  0  # atno 17320 bound_to 7965
  146.2390  140.5501  142.8942 LP  0  0  0  0  0  0  0  0  0  0  0  0  # atno 17321 bound_to 7965
  140.4989  143.2324  151.8709 LP  0  0  0  0  0  0  0  0  0  0  0  0  # atno 17342 bound_to 10162
  139.4799  144.5082  151.8968 LP  0  0  0  0  0  0  0  0  0  0  0  0  # atno 17343 bound_to 10162
  157.5074  131.0923  151.0240 LP  0  0  0  0  0  0  0  0  0  0  0  0  # atno 17370 bound_to 10713
  157.0605  130.5823  149.5385 LP  0  0  0  0  0  0  0  0  0  0  0  0  # atno 17371 bound_to 10713
  140.4730  134.6735  157.5138 LP  0  0  0  0  0  0  0  0  0  0  0  0  # atno 17394 bound_to 11000
  140.0030  134.6806  155.9499 LP  0  0  0  0  0  0  0  0  0  0  0  0  # atno 17395 bound_to 11000

$$$$
