AV-unprocessed.smi:3303|AV-procd|sdf|12685|dock2
  -GOLD-   2272019 23D 1   1.00000     0.00000
 Structure written by MMmdl.
 44 45  0  0  0  0  0  0  0  0  2 V2000
  144.8209  135.8750  152.3646 C   0  0  0  0  0  0  0  0  0  0  0  0
  145.3968  134.8961  151.3258 C   0  0  2  0  0  0  0  0  0  0  0  0
  144.2625  134.3347  150.4425 C   0  0  0  0  0  0  0  0  0  0  0  0
  144.7761  133.3750  149.4331 N   0  3  2  0  0  0  0  0  0  0  0  0
  143.7525  132.9847  148.4372 C   0  0  0  0  0  0  0  0  0  0  0  0
  145.5140  132.2271  150.0316 C   0  0  2  0  0  0  0  0  0  0  0  0
  144.6102  131.2386  150.8001 C   0  0  0  0  0  0  0  0  0  0  0  0
  146.6756  132.7512  150.8963 C   0  0  0  0  0  0  0  0  0  0  0  0
  146.2015  133.7437  151.9748 C   0  0  1  0  0  0  0  0  0  0  0  0
  147.3906  134.2773  152.6267 N   0  0  0  0  0  0  0  0  0  0  0  0
  148.2744  133.2157  153.0878 C   0  0  0  0  0  0  0  0  0  0  0  0
  149.2460  133.7354  154.1609 C   0  0  0  0  0  0  0  0  0  0  0  0
  150.0598  132.6301  154.8147 C   0  0  0  0  0  0  0  0  0  0  0  0
  149.9112  131.2905  154.3962 C   0  0  0  0  0  0  0  0  0  0  0  0
  150.6691  130.2961  155.0444 C   0  0  0  0  0  0  0  0  0  0  0  0
  151.5403  130.6766  156.0832 C   0  0  0  0  0  0  0  0  0  0  0  0
  151.6164  132.0407  156.4276 C   0  0  0  0  0  0  0  0  0  0  0  0
  150.8949  133.0019  155.8118 N   0  0  0  0  0  0  0  0  0  0  0  0
  144.1692  135.3632  153.0732 H   0  0  0  0  0  0  0  0  0  0  0  0
  144.2369  136.6596  151.8829 H   0  0  0  0  0  0  0  0  0  0  0  0
  145.6104  136.3677  152.9329 H   0  0  0  0  0  0  0  0  0  0  0  0
  146.0683  135.4611  150.6767 H   0  0  0  0  0  0  0  0  0  0  0  0
  143.4974  133.8578  151.0557 H   0  0  0  0  0  0  0  0  0  0  0  0
  143.7706  135.1593  149.9246 H   0  0  0  0  0  0  0  0  0  0  0  0
  142.8932  132.5093  148.9107 H   0  0  0  0  0  0  0  0  0  0  0  0
  144.1686  132.2947  147.7025 H   0  0  0  0  0  0  0  0  0  0  0  0
  143.3938  133.8629  147.8999 H   0  0  0  0  0  0  0  0  0  0  0  0
  145.9600  131.6720  149.2052 H   0  0  0  0  0  0  0  0  0  0  0  0
  145.2013  130.4199  151.2116 H   0  0  0  0  0  0  0  0  0  0  0  0
  143.8586  130.7883  150.1521 H   0  0  0  0  0  0  0  0  0  0  0  0
  144.0910  131.7102  151.6337 H   0  0  0  0  0  0  0  0  0  0  0  0
  147.2037  131.9158  151.3583 H   0  0  0  0  0  0  0  0  0  0  0  0
  147.4004  133.2421  150.2442 H   0  0  0  0  0  0  0  0  0  0  0  0
  145.5730  133.2127  152.6916 H   0  0  0  0  0  0  0  0  0  0  0  0
  147.8947  134.8865  151.9980 H   0  0  0  0  0  0  0  0  0  0  0  0
  147.6935  132.3858  153.4917 H   0  0  0  0  0  0  0  0  0  0  0  0
  148.8353  132.8324  152.2347 H   0  0  0  0  0  0  0  0  0  0  0  0
  149.9339  134.4497  153.7072 H   0  0  0  0  0  0  0  0  0  0  0  0
  148.7015  134.2898  154.9270 H   0  0  0  0  0  0  0  0  0  0  0  0
  149.2293  131.0287  153.6005 H   0  0  0  0  0  0  0  0  0  0  0  0
  150.5821  129.2603  154.7515 H   0  0  0  0  0  0  0  0  0  0  0  0
  152.1356  129.9410  156.6035 H   0  0  0  0  0  0  0  0  0  0  0  0
  152.2730  132.3684  157.2198 H   0  0  0  0  0  0  0  0  0  0  0  0
  145.4712  133.8877  148.9091 H   0  0  0  0  0  0  0  0  0  0  0  0
  1  2  1  0  0  0  0
  1 19  1  0  0  0  0
  1 20  1  0  0  0  0
  1 21  1  0  0  0  0
  2  9  1  0  0  0  0
  2  3  1  0  0  0  0
  2 22  1  0  0  0  0
  3  4  1  0  0  0  0
  3 23  1  0  0  0  0
  3 24  1  0  0  0  0
  4  5  1  0  0  0  0
  4  6  1  0  0  0  0
  4 44  1  0  0  0  0
  5 25  1  0  0  0  0
  5 26  1  0  0  0  0
  5 27  1  0  0  0  0
  6  7  1  0  0  0  0
  6  8  1  0  0  0  0
  6 28  1  0  0  0  0
  7 29  1  0  0  0  0
  7 30  1  0  0  0  0
  7 31  1  0  0  0  0
  8  9  1  0  0  0  0
  8 32  1  0  0  0  0
  8 33  1  0  0  0  0
  9 10  1  0  0  0  0
  9 34  1  0  0  0  0
 10 11  1  0  0  0  0
 10 35  1  0  0  0  0
 11 12  1  0  0  0  0
 11 36  1  0  0  0  0
 11 37  1  0  0  0  0
 12 13  1  0  0  0  0
 12 38  1  0  0  0  0
 12 39  1  0  0  0  0
 13 18  1  0  0  0  0
 13 14  2  0  0  0  0
 14 15  1  0  0  0  0
 14 40  1  0  0  0  0
 15 16  2  0  0  0  0
 15 41  1  0  0  0  0
 16 17  1  0  0  0  0
 16 42  1  0  0  0  0
 17 18  2  0  0  0  0
 17 43  1  0  0  0  0
M  CHG  1   4   1
M  END
> <s_m_source_file>
AV-unprocessed.smi

> <i_m_source_file_index>
3303

> <i_lp_mmshare_version>
43012

> <i_f3d_flags>
0

> <s_epik_input>
W0NIM11bQ0BASF0xW0NIMl1OKFtDSDNdKVtDQEBIXShbQ0gzXSlbQ0gyXVtDQEhdMVtOSF1bQ0gyXVtDSDJdYzJbY0hdW2NIXVtjSF1bY0hdbjI=

> <s_epik_cmdline>
J2VwaWtfcHl0aG9uJywgJy1waCcsICc3LjAnLCAnLXRuJywgJzgnLCAnLW1hJywgJzIwMCcsICctbWV0YWxfYmluZGluZycsICctaW1hZScsICc8aW5maWxlLm1hZT4nLCAnLW9tYWUnLCAnPG91dGZpbGUubWFlPic=

> <r_epik_Ionization_Penalty>
2.31085

> <r_epik_Ionization_Penalty_Charging>
0.000313057

> <r_epik_Ionization_Penalty_Neutral>
2.31054

> <r_epik_State_Penalty>
2.4087

> <r_epik_Charging_Adjusted_Penalty>
2.40902

> <i_epik_Tot_Q>
1

> <i_epik_Tot_abs_Q>
1

> <r_epik_Metal_State_Penalty>
2.30979

> <b_epik_Metal_Only>
0

> <s_lp_Force_Field>
OPLS_2005

> <r_lp_Energy>
26.7889

> <b_lp_Chiralities_Consistent>
1

> <s_lp_Variant>
AV-unprocessed.smi:3303-29

> <Gold.Version>
5.8.1

> <Gold.Id.Protein>
6NUR|6NUR_protein|mol2

> <Gold.PLP.Fitness>
43.3140

> <Gold.PLP.PLP>
-37.7083

> <Gold.PLP.part.hbond>
-2.0000

> <Gold.PLP.part.metal>
0.0000

> <Gold.PLP.part.buried>
-1.9861

> <Gold.PLP.part.nonpolar>
-33.6321

> <Gold.PLP.part.repulsive>
0.1395

> <Gold.PLP.ligand.clash>
0.0000

> <Gold.PLP.ligand.torsion>
0.1408

> <Gold.PLP.Chemscore.Hbond>
1.9600

> <Gold.PLP.Chemscore.CHOScore>
0.0000

> <Gold.PLP.Chemscore.Metal>
0.0000

> <Gold.Chemscore.Hbonds>
donor molecule, donor type, donor heavy atom, donor atom, acceptor molecule, acceptor atom, score
      L1  H     4    44       P1  7921  1.00
      L1  H    10    35       P1  7948  0.96

> <Gold.PLP.Chemscore.Internal.Correction>
0.0074

> <Gold.Rescore>
     Score         DG    S(hbond)    S(metal)    S(lipo)     H(rot)  DE(clash)    DE(int)     intcor
     19.62     -20.04       1.80        0.00     102.13       1.33       0.24       0.19       ----

> <Gold.Chemscore.Fitness>
19.6159

> <Gold.Chemscore.DG>
-20.0412

> <Gold.Chemscore.ZeroCoef>
-5.4800

> <Gold.Chemscore.Hbond>
1.7995

> <Gold.Chemscore.Metal>
0.0000

> <Gold.Chemscore.Lipo>
102.1252

> <Gold.Chemscore.Internal_Hbond>
0.0000

> <Gold.Chemscore.DEClash>
0.2398

> <Gold.Chemscore.DEInternal>
0.1855

> <Gold.Chemscore.Rot>
1.3272

> <Gold.Chemscore.Internal.Correction>
   9.000000E+99

> <Gold.Chemscore.Hbonds>
donor molecule, donor type, donor heavy atom, donor atom, acceptor molecule, acceptor atom, score
      L1  H     4    44       P1  7921  0.65
      L1  H    10    35       P1  7948  0.51

> <Gold.Chemscore.Hbond.Weighted>
-6.0102

> <Gold.Chemscore.Metal.Weighted>
-0.0000

> <Gold.Chemscore.Lipo.Weighted>
-11.9487

> <Gold.Chemscore.Internal_Hbond.Weighted>
0.0000

> <Gold.Chemscore.DEClash.Weighted>
0.2398

> <Gold.Chemscore.DEInternal.Weighted>
0.1855

> <Gold.Chemscore.Rot.Weighted>
3.3976

> <Gold.Chemscore.Internal.Correction.Weighted>
   9.000000E+99

> <Gold.Protein.RotatedTorsions>
[ 6907 6896 6895 6894 ] final  -10.38 input  -60.11 | X-H torsion
[ 7974 7965 7964 7962 ] final  108.54 input  175.53 | X-H torsion
[ 8008 7997 7996 7995 ] final   31.32 input   59.86 | X-H torsion
[ 10167 10162 10161 10158 ] final   -7.81 input  -65.29 | X-H torsion
[ 10718 10713 10712 10709 ] final  -70.50 input   66.30 | X-H torsion
[ 10763 10752 10751 10750 ] final  165.14 input  -60.55 | X-H torsion
[ 11005 11000 10999 10996 ] final  -91.12 input  -57.11 | X-H torsion

> <Gold.Protein.ActiveResidues>
 VAL166  LYS551  ARG553  GLY616  TRP617  ASP618  TYR619  PRO620  LYS621  CYS622 
 ASP623  PHE694  ASN695  SER759  ASP760  ASP761  ALA762  ILE779  LEU786  VAL792 
 PHE793  MET794  SER795  GLU796  ALA797  LYS798  CYS799  TRP800  GLU811  SER814 

> <Gold.Protein.RotatedAtoms>
  151.4029  135.0974  159.9561 H   0  0  0  0  0  0  0  0  0  0  0  0  # atno 6907 bound_to 6896
  152.5044  133.8871  159.7385 H   0  0  0  0  0  0  0  0  0  0  0  0  # atno 6908 bound_to 6896
  150.9349  133.6667  159.2831 H   0  0  0  0  0  0  0  0  0  0  0  0  # atno 6909 bound_to 6896
  145.2794  139.2638  143.3923 H   0  0  0  0  0  0  0  0  0  0  0  0  # atno 7974 bound_to 7965
  155.1045  140.3233  155.4538 H   0  0  0  0  0  0  0  0  0  0  0  0  # atno 8008 bound_to 7997
  156.2708  140.2055  156.6118 H   0  0  0  0  0  0  0  0  0  0  0  0  # atno 8009 bound_to 7997
  154.6803  140.0527  157.0246 H   0  0  0  0  0  0  0  0  0  0  0  0  # atno 8010 bound_to 7997
  140.7040  143.6039  150.8771 H   0  0  0  0  0  0  0  0  0  0  0  0  # atno 10167 bound_to 10162
  156.0405  130.4333  150.2304 H   0  0  0  0  0  0  0  0  0  0  0  0  # atno 10718 bound_to 10713
  154.3195  135.2756  155.2526 H   0  0  0  0  0  0  0  0  0  0  0  0  # atno 10763 bound_to 10752
  154.4886  135.5839  153.6446 H   0  0  0  0  0  0  0  0  0  0  0  0  # atno 10764 bound_to 10752
  152.9878  135.6129  154.3378 H   0  0  0  0  0  0  0  0  0  0  0  0  # atno 10765 bound_to 10752
  141.1551  133.7735  156.9834 H   0  0  0  0  0  0  0  0  0  0  0  0  # atno 11005 bound_to 11000
  146.3221  140.3258  142.8636 LP  0  0  0  0  0  0  0  0  0  0  0  0  # atno 17320 bound_to 7965
  144.9266  140.7928  143.5715 LP  0  0  0  0  0  0  0  0  0  0  0  0  # atno 17321 bound_to 7965
  139.9763  143.6001  152.2957 LP  0  0  0  0  0  0  0  0  0  0  0  0  # atno 17342 bound_to 10162
  139.6606  144.7662  151.1971 LP  0  0  0  0  0  0  0  0  0  0  0  0  # atno 17343 bound_to 10162
  157.0400  131.0032  151.3286 LP  0  0  0  0  0  0  0  0  0  0  0  0  # atno 17370 bound_to 10713
  157.5216  130.8002  149.7816 LP  0  0  0  0  0  0  0  0  0  0  0  0  # atno 17371 bound_to 10713
  140.1051  134.9511  157.1981 LP  0  0  0  0  0  0  0  0  0  0  0  0  # atno 17394 bound_to 11000
  140.3267  134.2855  155.7235 LP  0  0  0  0  0  0  0  0  0  0  0  0  # atno 17395 bound_to 11000

$$$$
