AV-unprocessed.smi:2474|AV-procd|sdf|9754|dock7
  -GOLD-   2272013393D 1   1.00000     0.00000
 Structure written by MMmdl.
 40 41  0  0  0  0  0  0  0  0  1 V2000
  154.6571  140.5661  161.7743 C   0  0  0  0  0  0  0  0  0  0  0  0
  153.7529  141.7078  161.4556 C   0  0  0  0  0  0  0  0  0  0  0  0
  153.0709  142.5106  162.3360 C   0  0  0  0  0  0  0  0  0  0  0  0
  152.3172  143.5114  161.7197 N   0  0  0  0  0  0  0  0  0  0  0  0
  152.4153  143.4795  160.3875 C   0  0  0  0  0  0  0  0  0  0  0  0
  151.7742  144.4870  159.4798 C   0  0  1  0  0  0  0  0  0  0  0  0
  151.9218  145.9198  160.0119 C   0  0  0  0  0  0  0  0  0  0  0  0
  152.2116  144.3434  158.0041 C   0  0  0  0  0  0  0  0  0  0  0  0
  151.1462  143.7910  157.1696 N   0  0  0  0  0  0  0  0  0  0  0  0
  150.9723  142.4905  156.8946 C   0  0  0  0  0  0  0  0  0  0  0  0
  151.7662  141.6037  157.2086 O   0  0  0  0  0  0  0  0  0  0  0  0
  149.7974  142.2655  156.2915 N   0  0  0  0  0  0  0  0  0  0  0  0
  149.2369  140.9451  156.0216 C   0  0  1  0  0  0  0  0  0  0  0  0
  150.1087  140.2061  154.9828 C   0  0  0  0  0  0  0  0  0  0  0  0
  149.5501  138.8230  154.6155 C   0  0  0  0  0  0  0  0  0  0  0  0
  149.4650  137.8859  155.8282 C   0  0  0  0  0  0  0  0  0  0  0  0
  148.3418  138.5453  157.0899 S   0  0  0  0  0  0  0  0  0  0  0  0
  149.1309  140.1594  157.3399 C   0  0  0  0  0  0  0  0  0  0  0  0
  153.4517  142.1806  159.8044 S   0  0  0  0  0  0  0  0  0  0  0  0
  154.7530  140.4301  162.8518 H   0  0  0  0  0  0  0  0  0  0  0  0
  155.6540  140.7381  161.3677 H   0  0  0  0  0  0  0  0  0  0  0  0
  154.2727  139.6384  161.3502 H   0  0  0  0  0  0  0  0  0  0  0  0
  153.0716  142.4469  163.4140 H   0  0  0  0  0  0  0  0  0  0  0  0
  150.7052  144.2709  159.5027 H   0  0  0  0  0  0  0  0  0  0  0  0
  151.5152  146.0081  161.0196 H   0  0  0  0  0  0  0  0  0  0  0  0
  151.3908  146.6301  159.3779 H   0  0  0  0  0  0  0  0  0  0  0  0
  152.9683  146.2242  160.0464 H   0  0  0  0  0  0  0  0  0  0  0  0
  152.4809  145.3201  157.6013 H   0  0  0  0  0  0  0  0  0  0  0  0
  153.1110  143.7289  157.9357 H   0  0  0  0  0  0  0  0  0  0  0  0
  150.4368  144.4379  156.8575 H   0  0  0  0  0  0  0  0  0  0  0  0
  149.2145  143.0601  156.0734 H   0  0  0  0  0  0  0  0  0  0  0  0
  148.2297  141.0689  155.6187 H   0  0  0  0  0  0  0  0  0  0  0  0
  150.1840  140.8024  154.0725 H   0  0  0  0  0  0  0  0  0  0  0  0
  151.1270  140.1005  155.3593 H   0  0  0  0  0  0  0  0  0  0  0  0
  148.5641  138.9315  154.1619 H   0  0  0  0  0  0  0  0  0  0  0  0
  150.1875  138.3705  153.8554 H   0  0  0  0  0  0  0  0  0  0  0  0
  149.1068  136.9032  155.5214 H   0  0  0  0  0  0  0  0  0  0  0  0
  150.4520  137.7437  156.2696 H   0  0  0  0  0  0  0  0  0  0  0  0
  150.1188  140.0049  157.7756 H   0  0  0  0  0  0  0  0  0  0  0  0
  148.5428  140.7169  158.0695 H   0  0  0  0  0  0  0  0  0  0  0  0
  1  2  1  0  0  0  0
  1 20  1  0  0  0  0
  1 21  1  0  0  0  0
  1 22  1  0  0  0  0
  2 19  1  0  0  0  0
  2  3  2  0  0  0  0
  3  4  1  0  0  0  0
  3 23  1  0  0  0  0
  4  5  2  0  0  0  0
  5  6  1  0  0  0  0
  5 19  1  0  0  0  0
  6  7  1  0  0  0  0
  6  8  1  0  0  0  0
  6 24  1  0  0  0  0
  7 25  1  0  0  0  0
  7 26  1  0  0  0  0
  7 27  1  0  0  0  0
  8  9  1  0  0  0  0
  8 28  1  0  0  0  0
  8 29  1  0  0  0  0
  9 10  1  0  0  0  0
  9 30  1  0  0  0  0
 10 11  2  0  0  0  0
 10 12  1  0  0  0  0
 12 13  1  0  0  0  0
 12 31  1  0  0  0  0
 13 18  1  0  0  0  0
 13 14  1  0  0  0  0
 13 32  1  0  0  0  0
 14 15  1  0  0  0  0
 14 33  1  0  0  0  0
 14 34  1  0  0  0  0
 15 16  1  0  0  0  0
 15 35  1  0  0  0  0
 15 36  1  0  0  0  0
 16 17  1  0  0  0  0
 16 37  1  0  0  0  0
 16 38  1  0  0  0  0
 17 18  1  0  0  0  0
 18 39  1  0  0  0  0
 18 40  1  0  0  0  0
M  END
> <s_m_source_file>
AV-unprocessed.smi

> <i_m_source_file_index>
2474

> <i_lp_mmshare_version>
43012

> <i_f3d_flags>
0

> <s_epik_input>
W0NIM11jMVtjSF1uYyhzMSlbQ0BIXShbQ0gzXSlbQ0gyXVtOSF1DKD1PKVtOSF1bQ0BASF0yW0NIMl1bQ0gyXVtDSDJdU1tDSDJdMg==

> <s_epik_cmdline>
J2VwaWtfcHl0aG9uJywgJy1waCcsICc3LjAnLCAnLXRuJywgJzgnLCAnLW1hJywgJzIwMCcsICctbWV0YWxfYmluZGluZycsICctaW1hZScsICc8aW5maWxlLm1hZT4nLCAnLW9tYWUnLCAnPG91dGZpbGUubWFlPic=

> <r_epik_Ionization_Penalty>
0.000644338

> <r_epik_Ionization_Penalty_Charging>
0

> <r_epik_Ionization_Penalty_Neutral>
0.000644338

> <r_epik_State_Penalty>
0.000374131

> <r_epik_Charging_Adjusted_Penalty>
0.000374131

> <i_epik_Tot_Q>
0

> <i_epik_Tot_abs_Q>
0

> <r_epik_Metal_State_Penalty>
-0

> <b_epik_Metal_Only>
0

> <s_lp_Force_Field>
OPLS_2005

> <r_lp_Energy>
-6.83814

> <b_lp_Chiralities_Consistent>
1

> <s_lp_Variant>
AV-unprocessed.smi:2474-4

> <Gold.Version>
5.8.1

> <Gold.Id.Protein>
6NUR|6NUR_protein|mol2

> <Gold.PLP.Fitness>
48.6803

> <Gold.PLP.PLP>
-45.0175

> <Gold.PLP.part.hbond>
-2.0000

> <Gold.PLP.part.metal>
0.0000

> <Gold.PLP.part.buried>
-3.5222

> <Gold.PLP.part.nonpolar>
-38.8863

> <Gold.PLP.part.repulsive>
0.2553

> <Gold.PLP.ligand.clash>
0.0000

> <Gold.PLP.ligand.torsion>
1.1724

> <Gold.PLP.Chemscore.Hbond>
1.9600

> <Gold.PLP.Chemscore.CHOScore>
0.0000

> <Gold.PLP.Chemscore.Metal>
0.0000

> <Gold.Chemscore.Hbonds>
donor molecule, donor type, donor heavy atom, donor atom, acceptor molecule, acceptor atom, score
      L1  H     9    30       P1  8028  0.94
      L1  H    12    31       P1  8028  1.00

> <Gold.PLP.Chemscore.Internal.Correction>
0.1276

> <Gold.Rescore>
     Score         DG    S(hbond)    S(metal)    S(lipo)     H(rot)  DE(clash)    DE(int)     intcor
     18.09     -21.71       1.95        0.00     114.97       1.46       1.27       2.34       ----

> <Gold.Chemscore.Fitness>
18.0901

> <Gold.Chemscore.DG>
-21.7085

> <Gold.Chemscore.ZeroCoef>
-5.4800

> <Gold.Chemscore.Hbond>
1.9515

> <Gold.Chemscore.Metal>
0.0000

> <Gold.Chemscore.Lipo>
114.9742

> <Gold.Chemscore.Internal_Hbond>
0.0000

> <Gold.Chemscore.DEClash>
1.2735

> <Gold.Chemscore.DEInternal>
2.3448

> <Gold.Chemscore.Rot>
1.4616

> <Gold.Chemscore.Internal.Correction>
   9.000000E+99

> <Gold.Chemscore.Hbonds>
donor molecule, donor type, donor heavy atom, donor atom, acceptor molecule, acceptor atom, score
      L1  H     9    30       P1  8028  0.85
      L1  H    12    31       P1  8028  0.99

> <Gold.Chemscore.Hbond.Weighted>
-6.5181

> <Gold.Chemscore.Metal.Weighted>
-0.0000

> <Gold.Chemscore.Lipo.Weighted>
-13.4520

> <Gold.Chemscore.Internal_Hbond.Weighted>
0.0000

> <Gold.Chemscore.DEClash.Weighted>
1.2735

> <Gold.Chemscore.DEInternal.Weighted>
2.3448

> <Gold.Chemscore.Rot.Weighted>
3.7416

> <Gold.Chemscore.Internal.Correction.Weighted>
   9.000000E+99

> <Gold.Protein.RotatedTorsions>
[ 6907 6896 6895 6894 ] final  149.89 input  -60.11 | X-H torsion
[ 7974 7965 7964 7962 ] final  -88.89 input  175.53 | X-H torsion
[ 8008 7997 7996 7995 ] final   92.78 input   59.86 | X-H torsion
[ 10167 10162 10161 10158 ] final  -20.19 input  -65.29 | X-H torsion
[ 10718 10713 10712 10709 ] final   98.49 input   66.30 | X-H torsion
[ 10763 10752 10751 10750 ] final  143.83 input  -60.55 | X-H torsion
[ 11005 11000 10999 10996 ] final  -25.04 input  -57.11 | X-H torsion

> <Gold.Protein.ActiveResidues>
 VAL166  LYS551  ARG553  GLY616  TRP617  ASP618  TYR619  PRO620  LYS621  CYS622 
 ASP623  PHE694  ASN695  SER759  ASP760  ASP761  ALA762  ILE779  LEU786  VAL792 
 PHE793  MET794  SER795  GLU796  ALA797  LYS798  CYS799  TRP800  GLU811  SER814 

> <Gold.Protein.RotatedAtoms>
  152.1219  133.4358  159.4679 H   0  0  0  0  0  0  0  0  0  0  0  0  # atno 6907 bound_to 6896
  150.6872  134.2524  159.4525 H   0  0  0  0  0  0  0  0  0  0  0  0  # atno 6908 bound_to 6896
  152.0401  134.9716  160.0624 H   0  0  0  0  0  0  0  0  0  0  0  0  # atno 6909 bound_to 6896
  145.4472  140.9560  143.2042 H   0  0  0  0  0  0  0  0  0  0  0  0  # atno 7974 bound_to 7965
  156.0393  140.3321  155.7226 H   0  0  0  0  0  0  0  0  0  0  0  0  # atno 8008 bound_to 7997
  155.5768  140.0633  157.2810 H   0  0  0  0  0  0  0  0  0  0  0  0  # atno 8009 bound_to 7997
  154.4386  140.1851  156.0924 H   0  0  0  0  0  0  0  0  0  0  0  0  # atno 8010 bound_to 7997
  140.7274  143.4746  151.0200 H   0  0  0  0  0  0  0  0  0  0  0  0  # atno 10167 bound_to 10162
  157.6894  131.0641  150.4804 H   0  0  0  0  0  0  0  0  0  0  0  0  # atno 10718 bound_to 10713
  153.9789  135.2943  155.3422 H   0  0  0  0  0  0  0  0  0  0  0  0  # atno 10763 bound_to 10752
  154.7280  135.5080  153.8921 H   0  0  0  0  0  0  0  0  0  0  0  0  # atno 10764 bound_to 10752
  153.0864  135.6694  154.0055 H   0  0  0  0  0  0  0  0  0  0  0  0  # atno 10765 bound_to 10752
  140.8901  133.7594  156.0411 H   0  0  0  0  0  0  0  0  0  0  0  0  # atno 11005 bound_to 11000
  144.8084  139.6007  143.7040 LP  0  0  0  0  0  0  0  0  0  0  0  0  # atno 17320 bound_to 7965
  146.2524  139.6229  142.9418 LP  0  0  0  0  0  0  0  0  0  0  0  0  # atno 17321 bound_to 7965
  139.8440  143.7525  152.3179 LP  0  0  0  0  0  0  0  0  0  0  0  0  # atno 17342 bound_to 10162
  139.7684  144.7484  151.0260 LP  0  0  0  0  0  0  0  0  0  0  0  0  # atno 17343 bound_to 10162
  156.5136  130.4145  149.6288 LP  0  0  0  0  0  0  0  0  0  0  0  0  # atno 17370 bound_to 10713
  156.3218  130.7284  151.2198 LP  0  0  0  0  0  0  0  0  0  0  0  0  # atno 17371 bound_to 10713
  140.8357  134.3126  157.5332 LP  0  0  0  0  0  0  0  0  0  0  0  0  # atno 17394 bound_to 11000
  139.8729  134.9388  156.3724 LP  0  0  0  0  0  0  0  0  0  0  0  0  # atno 17395 bound_to 11000

$$$$
