AV-unprocessed.smi:3231|AV-procd|sdf|12334|dock7
  -GOLD-   2272018193D 1   1.00000     0.00000
 Structure written by MMmdl.
 41 42  0  0  0  0  0  0  0  0  2 V2000
  150.0852  139.8131  153.9754 O   0  0  0  0  0  0  0  0  0  0  0  0
  149.4048  140.7499  154.7884 C   0  0  1  0  0  0  0  0  0  0  0  0
  150.4457  141.5542  155.5904 C   0  0  0  0  0  0  0  0  0  0  0  0
  149.8388  142.3089  156.6837 N   0  0  0  0  0  0  0  0  0  0  0  0
  150.5353  142.1552  157.9575 C   0  0  0  0  0  0  0  0  0  0  0  0
  150.3664  143.3970  158.8478 C   0  0  0  0  0  0  0  0  0  0  0  0
  151.2530  143.3752  159.9980 N   0  0  0  0  0  0  0  0  0  0  0  0
  151.5974  144.4180  160.8321 C   0  0  0  0  0  0  0  0  0  0  0  0
  152.4500  143.9199  161.7752 C   0  0  0  0  0  0  0  0  0  0  0  0
  152.5687  142.5444  161.4306 C   0  0  0  0  0  0  0  0  0  0  0  0
  151.8508  142.2209  160.3671 N   0  0  0  0  0  0  0  0  0  0  0  0
  148.4601  141.6294  153.9385 C   0  0  0  0  0  0  0  0  0  0  0  0
  147.4571  142.3613  154.7542 N   0  3  0  0  0  0  0  0  0  0  0  0
  146.2871  142.8391  153.9747 C   0  0  0  0  0  0  0  0  0  0  0  0
  145.3165  143.6142  154.8817 C   0  0  0  0  0  0  0  0  0  0  0  0
  144.9121  142.7890  155.9670 O   0  0  0  0  0  0  0  0  0  0  0  0
  146.0142  142.3953  156.7745 C   0  0  0  0  0  0  0  0  0  0  0  0
  147.0064  141.5783  155.9298 C   0  0  0  0  0  0  0  0  0  0  0  0
  149.6621  139.7736  153.1319 H   0  0  0  0  0  0  0  0  0  0  0  0
  148.8280  140.1770  155.5131 H   0  0  0  0  0  0  0  0  0  0  0  0
  151.1916  140.8690  155.9948 H   0  0  0  0  0  0  0  0  0  0  0  0
  150.9811  142.2277  154.9197 H   0  0  0  0  0  0  0  0  0  0  0  0
  149.8001  143.2936  156.4371 H   0  0  0  0  0  0  0  0  0  0  0  0
  150.1498  141.2806  158.4824 H   0  0  0  0  0  0  0  0  0  0  0  0
  151.5972  141.9722  157.7878 H   0  0  0  0  0  0  0  0  0  0  0  0
  150.5370  144.3112  158.2766 H   0  0  0  0  0  0  0  0  0  0  0  0
  149.3408  143.4473  159.2150 H   0  0  0  0  0  0  0  0  0  0  0  0
  151.2105  145.4160  160.6873 H   0  0  0  0  0  0  0  0  0  0  0  0
  152.9179  144.4561  162.5874 H   0  0  0  0  0  0  0  0  0  0  0  0
  153.1508  141.7769  161.9185 H   0  0  0  0  0  0  0  0  0  0  0  0
  149.0347  142.3474  153.3511 H   0  0  0  0  0  0  0  0  0  0  0  0
  147.9426  140.9935  153.2182 H   0  0  0  0  0  0  0  0  0  0  0  0
  146.6053  143.4857  153.1582 H   0  0  0  0  0  0  0  0  0  0  0  0
  145.7737  141.9876  153.5253 H   0  0  0  0  0  0  0  0  0  0  0  0
  145.7787  144.5293  155.2559 H   0  0  0  0  0  0  0  0  0  0  0  0
  144.4327  143.9123  154.3174 H   0  0  0  0  0  0  0  0  0  0  0  0
  146.4985  143.2733  157.2049 H   0  0  0  0  0  0  0  0  0  0  0  0
  145.6458  141.7952  157.6067 H   0  0  0  0  0  0  0  0  0  0  0  0
  146.5377  140.6513  155.5951 H   0  0  0  0  0  0  0  0  0  0  0  0
  147.8649  141.3013  156.5430 H   0  0  0  0  0  0  0  0  0  0  0  0
  147.9244  143.1771  155.1228 H   0  0  0  0  0  0  0  0  0  0  0  0
  1  2  1  0  0  0  0
  1 19  1  0  0  0  0
  2  3  1  0  0  0  0
  2 12  1  0  0  0  0
  2 20  1  0  0  0  0
  3  4  1  0  0  0  0
  3 21  1  0  0  0  0
  3 22  1  0  0  0  0
  4  5  1  0  0  0  0
  4 23  1  0  0  0  0
  5  6  1  0  0  0  0
  5 24  1  0  0  0  0
  5 25  1  0  0  0  0
  6  7  1  0  0  0  0
  6 26  1  0  0  0  0
  6 27  1  0  0  0  0
  7 11  1  0  0  0  0
  7  8  1  0  0  0  0
  8  9  2  0  0  0  0
  8 28  1  0  0  0  0
  9 10  1  0  0  0  0
  9 29  1  0  0  0  0
 10 11  2  0  0  0  0
 10 30  1  0  0  0  0
 12 13  1  0  0  0  0
 12 31  1  0  0  0  0
 12 32  1  0  0  0  0
 13 18  1  0  0  0  0
 13 14  1  0  0  0  0
 13 41  1  0  0  0  0
 14 15  1  0  0  0  0
 14 33  1  0  0  0  0
 14 34  1  0  0  0  0
 15 16  1  0  0  0  0
 15 35  1  0  0  0  0
 15 36  1  0  0  0  0
 16 17  1  0  0  0  0
 17 18  1  0  0  0  0
 17 37  1  0  0  0  0
 17 38  1  0  0  0  0
 18 39  1  0  0  0  0
 18 40  1  0  0  0  0
M  CHG  1  13   1
M  END
> <s_m_source_file>
AV-unprocessed.smi

> <i_m_source_file_index>
3231

> <i_lp_mmshare_version>
43012

> <i_f3d_flags>
0

> <s_epik_input>
W0NIMl0xW0NIMl1PW0NIMl1bQ0gyXU4xW0NIMl1bQ0BIXShbT0hdKVtDSDJdW05IXVtDSDJdW0NIMl1uMltjSF1bY0hdW2NIXW4y

> <s_epik_cmdline>
J2VwaWtfcHl0aG9uJywgJy1waCcsICc3LjAnLCAnLXRuJywgJzgnLCAnLW1hJywgJzIwMCcsICctbWV0YWxfYmluZGluZycsICctaW1hZScsICc8aW5maWxlLm1hZT4nLCAnLW9tYWUnLCAnPG91dGZpbGUubWFlPic=

> <r_epik_Ionization_Penalty>
0.33973

> <r_epik_Ionization_Penalty_Charging>
0.202493

> <r_epik_Ionization_Penalty_Neutral>
0.137237

> <r_epik_State_Penalty>
0.943915

> <r_epik_Charging_Adjusted_Penalty>
1.14641

> <i_epik_Tot_Q>
1

> <i_epik_Tot_abs_Q>
1

> <r_epik_Metal_State_Penalty>
0.94313

> <b_epik_Metal_Only>
0

> <s_lp_Force_Field>
OPLS_2005

> <r_lp_Energy>
28.856

> <b_lp_Chiralities_Consistent>
1

> <s_lp_Variant>
AV-unprocessed.smi:3231-4

> <Gold.Version>
5.8.1

> <Gold.Id.Protein>
6NUR|6NUR_protein|mol2

> <Gold.PLP.Fitness>
51.2232

> <Gold.PLP.PLP>
-38.4386

> <Gold.PLP.part.hbond>
-4.4427

> <Gold.PLP.part.metal>
0.0000

> <Gold.PLP.part.buried>
-5.4185

> <Gold.PLP.part.nonpolar>
-27.1400

> <Gold.PLP.part.repulsive>
0.2641

> <Gold.PLP.ligand.clash>
0.0000

> <Gold.PLP.ligand.torsion>
1.1538

> <Gold.PLP.Chemscore.Hbond>
4.9600

> <Gold.PLP.Chemscore.CHOScore>
0.0000

> <Gold.PLP.Chemscore.Metal>
0.0000

> <Gold.Chemscore.Hbonds>
donor molecule, donor type, donor heavy atom, donor atom, acceptor molecule, acceptor atom, score
      L1  H     1    19       P1  7957  1.00
      L1  H     4    23       P1  8028  1.00
      L1  H    13    41       P1  8028  2.00
      P1  H  7989  7998       L1     1  0.88

> <Gold.PLP.Chemscore.Internal.Correction>
0.2123

> <Gold.Rescore>
     Score         DG    S(hbond)    S(metal)    S(lipo)     H(rot)  DE(clash)    DE(int)     intcor
     17.09     -17.99       2.79        0.00      89.45       2.84       0.04       0.86       ----

> <Gold.Chemscore.Fitness>
17.0928

> <Gold.Chemscore.DG>
-17.9947

> <Gold.Chemscore.ZeroCoef>
-5.4800

> <Gold.Chemscore.Hbond>
2.7898

> <Gold.Chemscore.Metal>
0.0000

> <Gold.Chemscore.Lipo>
89.4548

> <Gold.Chemscore.Internal_Hbond>
0.0000

> <Gold.Chemscore.DEClash>
0.0395

> <Gold.Chemscore.DEInternal>
0.8624

> <Gold.Chemscore.Rot>
2.8397

> <Gold.Chemscore.Internal.Correction>
   9.000000E+99

> <Gold.Chemscore.Hbonds>
donor molecule, donor type, donor heavy atom, donor atom, acceptor molecule, acceptor atom, score
      L1  H     1    19       P1  7957  0.94
      L1  H     4    23       P1  8028  0.94
      L1  H    13    41       P1  8028  0.78
      P1  H  7989  7998       L1     1  0.04

> <Gold.Chemscore.Hbond.Weighted>
-9.3180

> <Gold.Chemscore.Metal.Weighted>
-0.0000

> <Gold.Chemscore.Lipo.Weighted>
-10.4662

> <Gold.Chemscore.Internal_Hbond.Weighted>
0.0000

> <Gold.Chemscore.DEClash.Weighted>
0.0395

> <Gold.Chemscore.DEInternal.Weighted>
0.8624

> <Gold.Chemscore.Rot.Weighted>
7.2696

> <Gold.Chemscore.Internal.Correction.Weighted>
   9.000000E+99

> <Gold.Protein.RotatedTorsions>
[ 6907 6896 6895 6894 ] final   35.57 input  -60.11 | X-H torsion
[ 7974 7965 7964 7962 ] final  -48.21 input  175.53 | X-H torsion
[ 8008 7997 7996 7995 ] final  -89.58 input   59.86 | X-H torsion
[ 10167 10162 10161 10158 ] final  125.83 input  -65.29 | X-H torsion
[ 10718 10713 10712 10709 ] final   96.11 input   66.30 | X-H torsion
[ 10763 10752 10751 10750 ] final   90.05 input  -60.55 | X-H torsion
[ 11005 11000 10999 10996 ] final -173.92 input  -57.11 | X-H torsion

> <Gold.Protein.ActiveResidues>
 VAL166  LYS551  ARG553  GLY616  TRP617  ASP618  TYR619  PRO620  LYS621  CYS622 
 ASP623  PHE694  ASN695  SER759  ASP760  ASP761  ALA762  ILE779  LEU786  VAL792 
 PHE793  MET794  SER795  GLU796  ALA797  LYS798  CYS799  TRP800  GLU811  SER814 

> <Gold.Protein.RotatedAtoms>
  152.1180  134.9226  160.0563 H   0  0  0  0  0  0  0  0  0  0  0  0  # atno 6907 bound_to 6896
  152.0378  133.3960  159.4332 H   0  0  0  0  0  0  0  0  0  0  0  0  # atno 6908 bound_to 6896
  150.6847  134.3369  159.4895 H   0  0  0  0  0  0  0  0  0  0  0  0  # atno 6909 bound_to 6896
  145.9536  140.7548  142.9492 H   0  0  0  0  0  0  0  0  0  0  0  0  # atno 7974 bound_to 7965
  154.6883  140.0540  157.0337 H   0  0  0  0  0  0  0  0  0  0  0  0  # atno 8008 bound_to 7997
  155.0853  140.3214  155.4570 H   0  0  0  0  0  0  0  0  0  0  0  0  # atno 8009 bound_to 7997
  156.2719  140.2057  156.5980 H   0  0  0  0  0  0  0  0  0  0  0  0  # atno 8010 bound_to 7997
  139.5664  144.6913  151.3899 H   0  0  0  0  0  0  0  0  0  0  0  0  # atno 10167 bound_to 10162
  157.6931  131.0567  150.4441 H   0  0  0  0  0  0  0  0  0  0  0  0  # atno 10718 bound_to 10713
  153.1935  135.4448  155.0179 H   0  0  0  0  0  0  0  0  0  0  0  0  # atno 10763 bound_to 10752
  154.8105  135.3292  154.7321 H   0  0  0  0  0  0  0  0  0  0  0  0  # atno 10764 bound_to 10752
  153.7773  135.6980  153.4950 H   0  0  0  0  0  0  0  0  0  0  0  0  # atno 10765 bound_to 10752
  140.4803  134.6081  157.4917 H   0  0  0  0  0  0  0  0  0  0  0  0  # atno 11005 bound_to 11000
  144.6800  140.2475  143.7336 LP  0  0  0  0  0  0  0  0  0  0  0  0  # atno 17320 bound_to 7965
  145.8137  139.2014  143.1978 LP  0  0  0  0  0  0  0  0  0  0  0  0  # atno 17321 bound_to 7965
  140.6947  143.7777  150.7309 LP  0  0  0  0  0  0  0  0  0  0  0  0  # atno 17342 bound_to 10162
  140.1270  143.4560  152.2278 LP  0  0  0  0  0  0  0  0  0  0  0  0  # atno 17343 bound_to 10162
  156.4797  130.4071  149.6469 LP  0  0  0  0  0  0  0  0  0  0  0  0  # atno 17370 bound_to 10713
  156.3518  130.7436  151.2397 LP  0  0  0  0  0  0  0  0  0  0  0  0  # atno 17371 bound_to 10713
  139.9830  134.7106  155.9824 LP  0  0  0  0  0  0  0  0  0  0  0  0  # atno 17394 bound_to 11000
  141.1534  133.6545  156.4085 LP  0  0  0  0  0  0  0  0  0  0  0  0  # atno 17395 bound_to 11000

$$$$
