AV-unprocessed.smi:3019|AV-procd|sdf|11495|dock4
  -GOLD-   2272016433D 1   1.00000     0.00000
 Structure written by MMmdl.
 29 30  0  0  0  0  0  0  0  0  2 V2000
  152.2553  144.0809  159.8859 C   0  0  0  0  0  0  0  0  0  0  0  0
  152.1852  142.6453  160.4233 C   0  0  0  0  0  0  0  0  0  0  0  0
  153.1100  142.4054  161.6249 C   0  0  0  0  0  0  0  0  0  0  0  0
  152.4204  141.6266  159.3249 C   0  0  0  0  0  0  0  0  0  0  0  0
  153.3479  140.6527  159.3406 N   0  5  0  0  0  0  0  0  0  0  0  0
  153.2718  139.9455  158.2316 N   0  0  0  0  0  0  0  0  0  0  0  0
  152.2698  140.4924  157.5262 C   0  0  0  0  0  0  0  0  0  0  0  0
  151.8414  140.0317  156.1469 C   0  0  2  0  0  0  0  0  0  0  0  0
  150.6042  140.8156  155.6632 C   0  0  0  0  0  0  0  0  0  0  0  0
  150.1865  140.3581  154.3379 N   0  0  0  0  0  0  0  0  0  0  0  0
  149.9599  138.9149  154.3247 C   0  0  0  0  0  0  0  0  0  0  0  0
  151.2101  138.1753  154.8307 C   0  0  0  0  0  0  0  0  0  0  0  0
  151.5379  138.6376  156.1359 O   0  0  0  0  0  0  0  0  0  0  0  0
  151.7416  141.5345  158.1850 N   0  0  0  0  0  0  0  0  0  0  0  0
  151.5356  144.2319  159.0810 H   0  0  0  0  0  0  0  0  0  0  0  0
  153.2467  144.3069  159.4926 H   0  0  0  0  0  0  0  0  0  0  0  0
  152.0334  144.8057  160.6693 H   0  0  0  0  0  0  0  0  0  0  0  0
  151.1644  142.4874  160.7739 H   0  0  0  0  0  0  0  0  0  0  0  0
  152.9837  141.3972  162.0204 H   0  0  0  0  0  0  0  0  0  0  0  0
  152.8976  143.1073  162.4314 H   0  0  0  0  0  0  0  0  0  0  0  0
  154.1573  142.5248  161.3459 H   0  0  0  0  0  0  0  0  0  0  0  0
  152.6795  140.2139  155.4713 H   0  0  0  0  0  0  0  0  0  0  0  0
  149.7875  140.6836  156.3743 H   0  0  0  0  0  0  0  0  0  0  0  0
  150.8246  141.8830  155.6343 H   0  0  0  0  0  0  0  0  0  0  0  0
  149.1071  138.6678  154.9580 H   0  0  0  0  0  0  0  0  0  0  0  0
  149.7099  138.5837  153.3167 H   0  0  0  0  0  0  0  0  0  0  0  0
  151.0187  137.1031  154.8747 H   0  0  0  0  0  0  0  0  0  0  0  0
  152.0534  138.3204  154.1535 H   0  0  0  0  0  0  0  0  0  0  0  0
  149.3340  140.8383  154.0683 H   0  0  0  0  0  0  0  0  0  0  0  0
  1  2  1  0  0  0  0
  1 15  1  0  0  0  0
  1 16  1  0  0  0  0
  1 17  1  0  0  0  0
  2  3  1  0  0  0  0
  2  4  1  0  0  0  0
  2 18  1  0  0  0  0
  3 19  1  0  0  0  0
  3 20  1  0  0  0  0
  3 21  1  0  0  0  0
  4 14  2  0  0  0  0
  4  5  1  0  0  0  0
  5  6  1  0  0  0  0
  6  7  2  0  0  0  0
  7  8  1  0  0  0  0
  7 14  1  0  0  0  0
  8 13  1  0  0  0  0
  8  9  1  0  0  0  0
  8 22  1  0  0  0  0
  9 10  1  0  0  0  0
  9 23  1  0  0  0  0
  9 24  1  0  0  0  0
 10 11  1  0  0  0  0
 10 29  1  0  0  0  0
 11 12  1  0  0  0  0
 11 25  1  0  0  0  0
 11 26  1  0  0  0  0
 12 13  1  0  0  0  0
 12 27  1  0  0  0  0
 12 28  1  0  0  0  0
M  CHG  1   5  -1
M  END
> <s_m_source_file>
AV-unprocessed.smi

> <i_m_source_file_index>
3019

> <i_lp_mmshare_version>
43012

> <i_f3d_flags>
0

> <s_epik_input>
W0NIM11bQ0hdKFtDSDNdKWMxbltuSF1jKG4xKVtDQEBIXTJbQ0gyXVtOSF1bQ0gyXVtDSDJdTzI=

> <s_epik_cmdline>
J2VwaWtfcHl0aG9uJywgJy1waCcsICc3LjAnLCAnLXRuJywgJzgnLCAnLW1hJywgJzIwMCcsICctbWV0YWxfYmluZGluZycsICctaW1hZScsICc8aW5maWxlLm1hZT4nLCAnLW9tYWUnLCAnPG91dGZpbGUubWFlPic=

> <r_lp_tautomer_probability>
0.948284

> <r_epik_Ionization_Penalty>
17.5852

> <r_epik_Ionization_Penalty_Charging>
16.0119

> <r_epik_Ionization_Penalty_Neutral>
1.5733

> <r_epik_State_Penalty>
6.64574

> <r_epik_Charging_Adjusted_Penalty>
22.6576

> <i_epik_Tot_Q>
-1

> <i_epik_Tot_abs_Q>
1

> <r_epik_Metal_State_Penalty>
2.89273

> <b_epik_Metal_Only>
1

> <s_lp_Force_Field>
OPLS_2005

> <r_lp_Energy>
9.70462

> <b_lp_Chiralities_Consistent>
1

> <s_lp_Variant>
AV-unprocessed.smi:3019-11

> <Gold.Version>
5.8.1

> <Gold.Id.Protein>
6NUR|6NUR_protein|mol2

> <Gold.PLP.Fitness>
35.0744

> <Gold.PLP.PLP>
-29.5363

> <Gold.PLP.part.hbond>
-2.3016

> <Gold.PLP.part.metal>
0.0000

> <Gold.PLP.part.buried>
-2.6100

> <Gold.PLP.part.nonpolar>
-23.9445

> <Gold.PLP.part.repulsive>
0.0000

> <Gold.PLP.ligand.clash>
0.0000

> <Gold.PLP.ligand.torsion>
0.1059

> <Gold.PLP.Chemscore.Hbond>
1.8928

> <Gold.PLP.Chemscore.CHOScore>
0.0000

> <Gold.PLP.Chemscore.Metal>
0.0000

> <Gold.Chemscore.Hbonds>
donor molecule, donor type, donor heavy atom, donor atom, acceptor molecule, acceptor atom, score
      P1  H  7989  7998       L1    10  0.80
      P1  H  7997  8009       L1     6  1.00

> <Gold.PLP.Chemscore.Internal.Correction>
0.0715

> <Gold.Rescore>
     Score         DG    S(hbond)    S(metal)    S(lipo)     H(rot)  DE(clash)    DE(int)     intcor
     12.24     -12.40       0.80        0.00      63.37       1.24       0.03       0.12       ----

> <Gold.Chemscore.Fitness>
12.2432

> <Gold.Chemscore.DG>
-12.3973

> <Gold.Chemscore.ZeroCoef>
-5.4800

> <Gold.Chemscore.Hbond>
0.8034

> <Gold.Chemscore.Metal>
0.0000

> <Gold.Chemscore.Lipo>
63.3678

> <Gold.Chemscore.Internal_Hbond>
0.0000

> <Gold.Chemscore.DEClash>
0.0341

> <Gold.Chemscore.DEInternal>
0.1200

> <Gold.Chemscore.Rot>
1.2422

> <Gold.Chemscore.Internal.Correction>
   9.000000E+99

> <Gold.Chemscore.Hbonds>
donor molecule, donor type, donor heavy atom, donor atom, acceptor molecule, acceptor atom, score
      P1  H  7989  7998       L1    10  0.11
      P1  H  7997  8009       L1     6  0.33

> <Gold.Chemscore.Hbond.Weighted>
-2.6832

> <Gold.Chemscore.Metal.Weighted>
-0.0000

> <Gold.Chemscore.Lipo.Weighted>
-7.4140

> <Gold.Chemscore.Internal_Hbond.Weighted>
0.0000

> <Gold.Chemscore.DEClash.Weighted>
0.0341

> <Gold.Chemscore.DEInternal.Weighted>
0.1200

> <Gold.Chemscore.Rot.Weighted>
3.1799

> <Gold.Chemscore.Internal.Correction.Weighted>
   9.000000E+99

> <Gold.Protein.RotatedTorsions>
[ 6907 6896 6895 6894 ] final   19.62 input  -60.11 | X-H torsion
[ 7974 7965 7964 7962 ] final   10.31 input  175.53 | X-H torsion
[ 8008 7997 7996 7995 ] final  150.06 input   59.86 | X-H torsion
[ 10167 10162 10161 10158 ] final -154.30 input  -65.29 | X-H torsion
[ 10718 10713 10712 10709 ] final -176.79 input   66.30 | X-H torsion
[ 10763 10752 10751 10750 ] final -174.45 input  -60.55 | X-H torsion
[ 11005 11000 10999 10996 ] final   27.93 input  -57.11 | X-H torsion

> <Gold.Protein.ActiveResidues>
 VAL166  LYS551  ARG553  GLY616  TRP617  ASP618  TYR619  PRO620  LYS621  CYS622 
 ASP623  PHE694  ASN695  SER759  ASP760  ASP761  ALA762  ILE779  LEU786  VAL792 
 PHE793  MET794  SER795  GLU796  ALA797  LYS798  CYS799  TRP800  GLU811  SER814 

> <Gold.Protein.RotatedAtoms>
  151.8837  135.0443  160.0490 H   0  0  0  0  0  0  0  0  0  0  0  0  # atno 6907 bound_to 6896
  152.2492  133.5196  159.5323 H   0  0  0  0  0  0  0  0  0  0  0  0  # atno 6908 bound_to 6896
  150.7078  134.0900  159.3971 H   0  0  0  0  0  0  0  0  0  0  0  0  # atno 6909 bound_to 6896
  146.2390  139.9652  142.8453 H   0  0  0  0  0  0  0  0  0  0  0  0  # atno 7974 bound_to 7965
  156.2730  140.2085  156.5958 H   0  0  0  0  0  0  0  0  0  0  0  0  # atno 8008 bound_to 7997
  154.6946  140.0527  157.0421 H   0  0  0  0  0  0  0  0  0  0  0  0  # atno 8009 bound_to 7997
  155.0819  140.3187  155.4602 H   0  0  0  0  0  0  0  0  0  0  0  0  # atno 8010 bound_to 7997
  139.7025  143.9240  152.2434 H   0  0  0  0  0  0  0  0  0  0  0  0  # atno 10167 bound_to 10162
  156.8199  130.9616  151.3112 H   0  0  0  0  0  0  0  0  0  0  0  0  # atno 10718 bound_to 10713
  154.5961  135.2850  155.0584 H   0  0  0  0  0  0  0  0  0  0  0  0  # atno 10763 bound_to 10752
  154.1867  135.6447  153.5052 H   0  0  0  0  0  0  0  0  0  0  0  0  # atno 10764 bound_to 10752
  153.0139  135.5436  154.6664 H   0  0  0  0  0  0  0  0  0  0  0  0  # atno 10765 bound_to 10752
  140.3210  134.2543  155.7717 H   0  0  0  0  0  0  0  0  0  0  0  0  # atno 11005 bound_to 11000
  145.1733  140.9731  143.4309 LP  0  0  0  0  0  0  0  0  0  0  0  0  # atno 17320 bound_to 7965
  145.0009  139.3599  143.6168 LP  0  0  0  0  0  0  0  0  0  0  0  0  # atno 17321 bound_to 7965
  139.9087  144.6869  150.8586 LP  0  0  0  0  0  0  0  0  0  0  0  0  # atno 17342 bound_to 10162
  140.7713  143.3459  151.2111 LP  0  0  0  0  0  0  0  0  0  0  0  0  # atno 17343 bound_to 10162
  157.6462  130.8846  149.9543 LP  0  0  0  0  0  0  0  0  0  0  0  0  # atno 17370 bound_to 10713
  156.0995  130.3657  150.0244 LP  0  0  0  0  0  0  0  0  0  0  0  0  # atno 17371 bound_to 10713
  141.2086  133.7772  157.0046 LP  0  0  0  0  0  0  0  0  0  0  0  0  # atno 17394 bound_to 11000
  140.0942  134.9574  157.1823 LP  0  0  0  0  0  0  0  0  0  0  0  0  # atno 17395 bound_to 11000

$$$$
