#       Name:                AV-unprocessed.smi:112
#       Creating user name   scv26
#       Creation time:       Thu Mar 26 18:17:50 2020


#       File generated by GOLD software.
#

@<TRIPOS>MOLECULE
AV-unprocessed.smi:112
    68    71     1
SMALL
NO_CHARGES


@<TRIPOS>ATOM
      1 ****        -1.4355   4.1910   0.8374 C.3            1 S1                 0.0000
      2 ****        -0.6433   2.8946   0.8979 C.2            1 S1                 0.0000
      3 ****         0.7088   2.8791   0.9224 C.2            1 S1                 0.0000
      4 ****         1.4629   1.7223   0.9735 N.am           1 S1                 0.0000
      5 ****         2.9710   1.8022   1.0554 C.3            1 S1                 0.0000
      6 ****         3.5952   2.4861  -0.1547 C.3            1 S1                 0.0000
      7 ****         4.8854   2.9714   0.4693 C.3            1 S1                 0.0000
      8 ****         5.4748   4.0078  -0.2906 O.3            1 S1                 0.0000
      9 ****         4.4649   3.3615   1.9039 C.3            1 S1                 0.0000
     10 ****         4.0475   4.8354   2.0889 C.3            1 S1                 0.0000
     11 ****         3.9697   5.1430   3.4644 O.3            1 S1                 0.0000
     12 ****         3.3137   2.5542   2.1768 O.3            1 S1                 0.0000
     13 ****         0.8131   0.4721   1.0528 C.2            1 S1                 0.0000
     14 ****         1.4549  -0.5786   1.1188 O.2            1 S1                 0.0000
     15 ****        -0.6007   0.4529   1.0358 N.am           1 S1                 0.0000
     16 ****        -1.2927  -0.8557   1.0882 C.3            1 S1                 0.0000
     17 ****        -1.5571  -1.4767  -0.3012 C.2            1 S1                 0.0000
     18 ****        -1.2167  -0.8517  -1.3064 O.2            1 S1                 0.0000
     19 ****        -2.1565  -2.6926  -0.3487 N.am           1 S1                 0.0000
     20 ****        -2.5353  -3.4597   0.8507 C.3            1 S1                 0.0000
     21 ****        -3.1683  -4.7738   0.3431 C.3            1 S1                 0.0000
     22 ****        -3.1018  -4.6287  -1.1483 C.ar           1 S1                 0.0000
     23 ****        -3.5574  -5.5543  -2.1023 C.ar           1 S1                 0.0000
     24 ****        -3.4164  -5.2453  -3.4779 C.ar           1 S1                 0.0000
     25 ****        -3.8843  -6.1933  -4.5084 N.pl3          1 S1                 1.0000
     26 ****        -3.7526  -5.8823  -5.6878 O.2            1 S1                 0.0000
     27 ****        -4.3848  -7.2511  -4.1402 O.2            1 S1                -1.0000
     28 ****        -2.8199  -4.0113  -3.8504 C.ar           1 S1                 0.0000
     29 ****        -2.3664  -3.0932  -2.8780 C.ar           1 S1                 0.0000
     30 ****        -2.5156  -3.4224  -1.5131 C.ar           1 S1                 0.0000
     31 ****        -1.3822   1.6312   0.9439 C.2            1 S1                 0.0000
     32 ****        -2.6126   1.5678   0.9042 O.2            1 S1                 0.0000
     33 ****        -0.7824   5.0636   0.8039 H              1 S1                 0.0000
     34 ****        -2.0769   4.2876   1.7141 H              1 S1                 0.0000
     35 ****        -2.0657   4.2127  -0.0524 H              1 S1                 0.0000
     36 ****         1.2269   3.8257   0.9074 H              1 S1                 0.0000
     37 ****         3.3688   0.7971   1.1937 H              1 S1                 0.0000
     38 ****         3.7324   1.7860  -0.9792 H              1 S1                 0.0000
     39 ****         2.9827   3.3237  -0.4884 H              1 S1                 0.0000
     40 ****         5.5883   2.1383   0.5200 H              1 S1                 0.0000
     41 ****         5.6909   3.6683  -1.1457 H              1 S1                 0.0000
     42 ****         5.2720   3.1158   2.5956 H              1 S1                 0.0000
     43 ****         4.7919   5.5086   1.6646 H              1 S1                 0.0000
     44 ****         3.0999   5.0540   1.5980 H              1 S1                 0.0000
     45 ****         3.7206   6.0500   3.5557 H              1 S1                 0.0000
     46 ****        -0.7205  -1.5610   1.6922 H              1 S1                 0.0000
     47 ****        -2.2424  -0.7627   1.6167 H              1 S1                 0.0000
     48 ****        -1.6605  -3.6756   1.4655 H              1 S1                 0.0000
     49 ****        -3.2516  -2.9027   1.4563 H              1 S1                 0.0000
     50 ****        -2.6025  -5.6480   0.6664 H              1 S1                 0.0000
     51 ****        -4.2028  -4.8802   0.6707 H              1 S1                 0.0000
     52 ****        -4.0067  -6.4811  -1.7774 H              1 S1                 0.0000
     53 ****        -2.7041  -3.7544  -4.8930 H              1 S1                 0.0000
     54 ****        -1.9213  -2.1666  -3.2040 H              1 S1                 0.0000
     55 ****         6.3054   4.3288   0.1644 LP             1 S1                 0.0000
     56 ****         4.8303   4.7669  -0.3823 LP             1 S1                 0.0000
     57 ****         4.8600   4.9929   3.8944 LP             1 S1                 0.0000
     58 ****         3.2855   4.5597   3.9022 LP             1 S1                 0.0000
     59 ****         3.5165   1.9377   2.9376 LP             1 S1                 0.0000
     60 ****         2.5467   3.1466   2.4232 LP             1 S1                 0.0000
     61 ****         2.4546  -0.5548   1.1168 LP             1 S1                 0.0000
     62 ****         0.9757  -1.4546   1.1744 LP             1 S1                 0.0000
     63 ****        -0.7773   0.0419  -1.2146 LP             1 S1                 0.0000
     64 ****        -1.3797  -1.2378  -2.2143 LP             1 S1                 0.0000
     65 ****        -3.3371  -5.0057  -5.9303 LP             1 S1                 0.0000
     66 ****        -4.0607  -6.5055  -6.4066 LP             1 S1                 0.0000
     67 ****        -3.1545   2.4055   0.8374 LP             1 S1                 0.0000
     68 ****        -3.0688   0.6786   0.9388 LP             1 S1                 0.0000
@<TRIPOS>BOND
    1    1    2 1     
    2    1   33 1     
    3    1   34 1     
    4    1   35 1     
    5    2   31 1     
    6    2    3 2     
    7    3    4 1     
    8    3   36 1     
    9    4    5 1     
   10    4   13 am    
   11    5   12 1     
   12    5    6 1     
   13    5   37 1     
   14    6    7 1     
   15    6   38 1     
   16    6   39 1     
   17    7    8 1     
   18    7    9 1     
   19    7   40 1     
   20    8   41 1     
   21    9   10 1     
   22    9   12 1     
   23    9   42 1     
   24   10   11 1     
   25   10   43 1     
   26   10   44 1     
   27   11   45 1     
   28   13   14 2     
   29   13   15 am    
   30   15   16 1     
   31   15   31 am    
   32   16   17 1     
   33   16   46 1     
   34   16   47 1     
   35   17   18 2     
   36   17   19 am    
   37   19   30 1     
   38   19   20 1     
   39   20   21 1     
   40   20   48 1     
   41   20   49 1     
   42   21   22 1     
   43   21   50 1     
   44   21   51 1     
   45   22   30 ar    
   46   22   23 ar    
   47   23   24 ar    
   48   23   52 1     
   49   24   25 1     
   50   24   28 ar    
   51   25   26 2     
   52   25   27 1     
   53   28   29 ar    
   54   28   53 1     
   55   29   30 ar    
   56   29   54 1     
   57   31   32 2     
   58    8   55 1     
   59    8   56 1     
   60   11   57 1     
   61   11   58 1     
   62   12   59 1     
   63   12   60 1     
   64   14   61 1     
   65   14   62 1     
   66   18   63 1     
   67   18   64 1     
   68   26   65 1     
   69   26   66 1     
   70   32   67 1     
   71   32   68 1     
@<TRIPOS>SUBSTRUCTURE
      1 S1             1
@<TRIPOS>SET
LONE_PAIRS      STATIC     ATOMS    <user>   **** ""
15 55 56 57 58 59 60 61 62 63 64 65 66 27 67 68
DONOR_HYDROGENS      STATIC     ATOMS    <user>   **** ""
2 41 45
ATOM$BLUE        STATIC     ATOMS    COLORGROUP SYSTEM
15 55 56 57 58 59 60 61 62 63 64 65 66 27 67 68
ATOM$RED        STATIC     ATOMS    COLORGROUP SYSTEM
2 41 45
