AV-unprocessed.smi:1958|AV-procd|sdf|7906|dock8
  -GOLD-   2272010 63D 1   1.00000     0.00000
 Structure written by MMmdl.
 47 48  0  0  0  0  0  0  0  0  1 V2000
  147.8398  141.8687  153.7574 C   0  0  0  0  0  0  0  0  0  0  0  0
  148.1620  141.5950  155.1095 O   0  0  0  0  0  0  0  0  0  0  0  0
  149.5547  141.4168  155.3114 C   0  0  0  0  0  0  0  0  0  0  0  0
  150.0053  140.1079  154.6421 C   0  0  0  0  0  0  0  0  0  0  0  0
  150.7013  139.2251  155.5851 N   0  0  0  0  0  0  0  0  0  0  0  0
  149.8578  138.5471  156.4487 N   0  0  0  0  0  0  0  0  0  0  0  0
  150.3460  137.7501  157.3436 C   0  0  0  0  0  0  0  0  0  0  0  0
  149.4727  137.0076  158.2938 C   0  0  0  0  0  0  0  0  0  0  0  0
  149.9327  136.3997  159.2619 O   0  0  0  0  0  0  0  0  0  0  0  0
  148.1587  137.0447  158.0101 N   0  0  0  0  0  0  0  0  0  0  0  0
  147.0986  136.3652  158.7511 C   0  0  0  0  0  0  0  0  0  0  0  0
  147.3106  134.8292  158.8110 C   0  0  2  0  0  0  0  0  0  0  0  0
  146.8248  134.2142  157.4790 C   0  0  0  0  0  0  0  0  0  0  0  0
  146.7206  134.1879  160.0067 N   0  0  0  0  0  0  0  0  0  0  0  0
  145.2571  134.1261  159.9466 C   0  0  0  0  0  0  0  0  0  0  0  0
  144.6429  133.4677  161.1938 C   0  0  0  0  0  0  0  0  0  0  0  0
  145.0576  134.1704  162.3578 O   0  0  0  0  0  0  0  0  0  0  0  0
  146.4725  134.2001  162.4932 C   0  0  0  0  0  0  0  0  0  0  0  0
  147.0989  134.8604  161.2527 C   0  0  0  0  0  0  0  0  0  0  0  0
  151.7805  137.5466  157.4550 C   0  0  0  0  0  0  0  0  0  0  0  0
  152.5910  138.2148  156.6053 C   0  0  0  0  0  0  0  0  0  0  0  0
  152.0650  139.1272  155.5889 C   0  0  0  0  0  0  0  0  0  0  0  0
  152.7834  139.7539  154.8105 O   0  0  0  0  0  0  0  0  0  0  0  0
  146.7616  141.9929  153.6557 H   0  0  0  0  0  0  0  0  0  0  0  0
  148.1471  141.0503  153.1052 H   0  0  0  0  0  0  0  0  0  0  0  0
  148.3181  142.7876  153.4160 H   0  0  0  0  0  0  0  0  0  0  0  0
  150.0951  142.2553  154.8705 H   0  0  0  0  0  0  0  0  0  0  0  0
  149.7888  141.4063  156.3769 H   0  0  0  0  0  0  0  0  0  0  0  0
  149.1402  139.5997  154.2125 H   0  0  0  0  0  0  0  0  0  0  0  0
  150.6554  140.3334  153.7949 H   0  0  0  0  0  0  0  0  0  0  0  0
  147.8730  137.5653  157.1931 H   0  0  0  0  0  0  0  0  0  0  0  0
  147.0049  136.7757  159.7578 H   0  0  0  0  0  0  0  0  0  0  0  0
  146.1494  136.6029  158.2718 H   0  0  0  0  0  0  0  0  0  0  0  0
  148.3898  134.6711  158.8439 H   0  0  0  0  0  0  0  0  0  0  0  0
  147.1846  134.7872  156.6243 H   0  0  0  0  0  0  0  0  0  0  0  0
  145.7361  134.1885  157.4229 H   0  0  0  0  0  0  0  0  0  0  0  0
  147.1929  133.1983  157.3394 H   0  0  0  0  0  0  0  0  0  0  0  0
  144.8490  135.1312  159.8306 H   0  0  0  0  0  0  0  0  0  0  0  0
  144.9327  133.5523  159.0801 H   0  0  0  0  0  0  0  0  0  0  0  0
  143.5546  133.4875  161.1353 H   0  0  0  0  0  0  0  0  0  0  0  0
  144.9411  132.4206  161.2646 H   0  0  0  0  0  0  0  0  0  0  0  0
  146.7325  134.7599  163.3917 H   0  0  0  0  0  0  0  0  0  0  0  0
  146.8543  133.1864  162.6252 H   0  0  0  0  0  0  0  0  0  0  0  0
  148.1798  134.8417  161.3838 H   0  0  0  0  0  0  0  0  0  0  0  0
  146.8032  135.9098  161.2117 H   0  0  0  0  0  0  0  0  0  0  0  0
  152.1967  136.8794  158.1959 H   0  0  0  0  0  0  0  0  0  0  0  0
  153.6596  138.0735  156.6773 H   0  0  0  0  0  0  0  0  0  0  0  0
  1  2  1  0  0  0  0
  1 24  1  0  0  0  0
  1 25  1  0  0  0  0
  1 26  1  0  0  0  0
  2  3  1  0  0  0  0
  3  4  1  0  0  0  0
  3 27  1  0  0  0  0
  3 28  1  0  0  0  0
  4  5  1  0  0  0  0
  4 29  1  0  0  0  0
  4 30  1  0  0  0  0
  5 22  1  0  0  0  0
  5  6  1  0  0  0  0
  6  7  2  0  0  0  0
  7  8  1  0  0  0  0
  7 20  1  0  0  0  0
  8  9  2  0  0  0  0
  8 10  1  0  0  0  0
 10 11  1  0  0  0  0
 10 31  1  0  0  0  0
 11 12  1  0  0  0  0
 11 32  1  0  0  0  0
 11 33  1  0  0  0  0
 12 13  1  0  0  0  0
 12 14  1  0  0  0  0
 12 34  1  0  0  0  0
 13 35  1  0  0  0  0
 13 36  1  0  0  0  0
 13 37  1  0  0  0  0
 14 19  1  0  0  0  0
 14 15  1  0  0  0  0
 15 16  1  0  0  0  0
 15 38  1  0  0  0  0
 15 39  1  0  0  0  0
 16 17  1  0  0  0  0
 16 40  1  0  0  0  0
 16 41  1  0  0  0  0
 17 18  1  0  0  0  0
 18 19  1  0  0  0  0
 18 42  1  0  0  0  0
 18 43  1  0  0  0  0
 19 44  1  0  0  0  0
 19 45  1  0  0  0  0
 20 21  2  0  0  0  0
 20 46  1  0  0  0  0
 21 22  1  0  0  0  0
 21 47  1  0  0  0  0
 22 23  2  0  0  0  0
M  END
> <s_m_source_file>
AV-unprocessed.smi

> <i_m_source_file_index>
1958

> <i_lp_mmshare_version>
43012

> <i_f3d_flags>
0

> <s_epik_input>
W0NIM11PW0NIMl1bQ0gyXW4xbmMoW2NIXVtjSF1jMT1PKUMoPU8pW05IXVtDSDJdW0NASF0oW0NIM10pTjJbQ0gyXVtDSDJdT1tDSDJdW0NIMl0y

> <s_epik_cmdline>
J2VwaWtfcHl0aG9uJywgJy1waCcsICc3LjAnLCAnLXRuJywgJzgnLCAnLW1hJywgJzIwMCcsICctbWV0YWxfYmluZGluZycsICctaW1hZScsICc8aW5maWxlLm1hZT4nLCAnLW9tYWUnLCAnPG91dGZpbGUubWFlPic=

> <r_lp_tautomer_probability>
1

> <r_epik_Ionization_Penalty>
0.206669

> <r_epik_Ionization_Penalty_Charging>
5.75808e-09

> <r_epik_Ionization_Penalty_Neutral>
0.206669

> <r_epik_State_Penalty>
0.196651

> <r_epik_Charging_Adjusted_Penalty>
0.196651

> <i_epik_Tot_Q>
0

> <i_epik_Tot_abs_Q>
0

> <r_epik_Metal_State_Penalty>
0.198415

> <b_epik_Metal_Only>
0

> <s_lp_Force_Field>
OPLS_2005

> <r_lp_Energy>
53.7992

> <b_lp_Chiralities_Consistent>
1

> <s_lp_Variant>
AV-unprocessed.smi:1958-1

> <Gold.Version>
5.8.1

> <Gold.Id.Protein>
6NUR|6NUR_protein|mol2

> <Gold.PLP.Fitness>
37.4208

> <Gold.PLP.PLP>
-32.1225

> <Gold.PLP.part.hbond>
-3.8395

> <Gold.PLP.part.metal>
0.0000

> <Gold.PLP.part.buried>
-2.1913

> <Gold.PLP.part.nonpolar>
-25.4488

> <Gold.PLP.part.repulsive>
0.2878

> <Gold.PLP.ligand.clash>
0.0000

> <Gold.PLP.ligand.torsion>
1.0395

> <Gold.PLP.Chemscore.Hbond>
2.4160

> <Gold.PLP.Chemscore.CHOScore>
0.0000

> <Gold.PLP.Chemscore.Metal>
0.0000

> <Gold.Chemscore.Hbonds>
donor molecule, donor type, donor heavy atom, donor atom, acceptor molecule, acceptor atom, score
      P1  H  6896  6908       L1     9  1.00
      P1  H  7989  7998       L1    23  0.46
      P1  H  7997  8008       L1    23  0.98

> <Gold.PLP.Chemscore.Internal.Correction>
0.1294

> <Gold.Rescore>
     Score         DG    S(hbond)    S(metal)    S(lipo)     H(rot)  DE(clash)    DE(int)     intcor
     13.90     -14.88       1.97        0.00      68.67       2.04       0.16       0.81       ----

> <Gold.Chemscore.Fitness>
13.9047

> <Gold.Chemscore.DG>
-14.8787

> <Gold.Chemscore.ZeroCoef>
-5.4800

> <Gold.Chemscore.Hbond>
1.9732

> <Gold.Chemscore.Metal>
0.0000

> <Gold.Chemscore.Lipo>
68.6667

> <Gold.Chemscore.Internal_Hbond>
0.0000

> <Gold.Chemscore.DEClash>
0.1625

> <Gold.Chemscore.DEInternal>
0.8115

> <Gold.Chemscore.Rot>
2.0413

> <Gold.Chemscore.Internal.Correction>
   9.000000E+99

> <Gold.Chemscore.Hbonds>
donor molecule, donor type, donor heavy atom, donor atom, acceptor molecule, acceptor atom, score
      P1  H  6896  6908       L1     9  1.00
      P1  H  7989  7998       L1    23  0.36
      P1  H  7997  8008       L1    23  0.60

> <Gold.Chemscore.Hbond.Weighted>
-6.5904

> <Gold.Chemscore.Metal.Weighted>
-0.0000

> <Gold.Chemscore.Lipo.Weighted>
-8.0340

> <Gold.Chemscore.Internal_Hbond.Weighted>
0.0000

> <Gold.Chemscore.DEClash.Weighted>
0.1625

> <Gold.Chemscore.DEInternal.Weighted>
0.8115

> <Gold.Chemscore.Rot.Weighted>
5.2257

> <Gold.Chemscore.Internal.Correction.Weighted>
   9.000000E+99

> <Gold.Protein.RotatedTorsions>
[ 6907 6896 6895 6894 ] final -162.66 input  -60.11 | X-H torsion
[ 7974 7965 7964 7962 ] final   64.94 input  175.53 | X-H torsion
[ 8008 7997 7996 7995 ] final   -9.23 input   59.86 | X-H torsion
[ 10167 10162 10161 10158 ] final   18.89 input  -65.29 | X-H torsion
[ 10718 10713 10712 10709 ] final  -31.09 input   66.30 | X-H torsion
[ 10763 10752 10751 10750 ] final  139.32 input  -60.55 | X-H torsion
[ 11005 11000 10999 10996 ] final   31.22 input  -57.11 | X-H torsion

> <Gold.Protein.ActiveResidues>
 VAL166  LYS551  ARG553  GLY616  TRP617  ASP618  TYR619  PRO620  LYS621  CYS622 
 ASP623  PHE694  ASN695  SER759  ASP760  ASP761  ALA762  ILE779  LEU786  VAL792 
 PHE793  MET794  SER795  GLU796  ALA797  LYS798  CYS799  TRP800  GLU811  SER814 

> <Gold.Protein.RotatedAtoms>
  151.3837  133.3812  159.2712 H   0  0  0  0  0  0  0  0  0  0  0  0  # atno 6907 bound_to 6896
  150.9557  134.8953  159.7710 H   0  0  0  0  0  0  0  0  0  0  0  0  # atno 6908 bound_to 6896
  152.5130  134.3795  159.9398 H   0  0  0  0  0  0  0  0  0  0  0  0  # atno 6909 bound_to 6896
  145.8444  139.3215  143.0912 H   0  0  0  0  0  0  0  0  0  0  0  0  # atno 7974 bound_to 7965
  154.5666  140.2360  155.8254 H   0  0  0  0  0  0  0  0  0  0  0  0  # atno 8008 bound_to 7997
  156.2073  140.3036  155.9614 H   0  0  0  0  0  0  0  0  0  0  0  0  # atno 8009 bound_to 7997
  155.2789  140.0421  157.3004 H   0  0  0  0  0  0  0  0  0  0  0  0  # atno 8010 bound_to 7997
  140.5619  143.9321  150.6649 H   0  0  0  0  0  0  0  0  0  0  0  0  # atno 10167 bound_to 10162
  156.3916  130.4374  149.7390 H   0  0  0  0  0  0  0  0  0  0  0  0  # atno 10718 bound_to 10713
  153.9041  135.3018  155.3448 H   0  0  0  0  0  0  0  0  0  0  0  0  # atno 10763 bound_to 10752
  154.7656  135.4912  153.9550 H   0  0  0  0  0  0  0  0  0  0  0  0  # atno 10764 bound_to 10752
  153.1228  135.6786  153.9407 H   0  0  0  0  0  0  0  0  0  0  0  0  # atno 10765 bound_to 10752
  140.2862  134.2916  155.7787 H   0  0  0  0  0  0  0  0  0  0  0  0  # atno 11005 bound_to 11000
  145.9429  140.8966  143.0298 LP  0  0  0  0  0  0  0  0  0  0  0  0  # atno 17320 bound_to 7965
  144.6732  140.1573  143.7425 LP  0  0  0  0  0  0  0  0  0  0  0  0  # atno 17321 bound_to 7965
  140.2774  143.3413  152.1183 LP  0  0  0  0  0  0  0  0  0  0  0  0  # atno 17342 bound_to 10162
  139.5074  144.6832  151.5955 LP  0  0  0  0  0  0  0  0  0  0  0  0  # atno 17343 bound_to 10162
  156.4441  130.7875  151.2896 LP  0  0  0  0  0  0  0  0  0  0  0  0  # atno 17370 bound_to 10713
  157.7499  131.0116  150.3350 LP  0  0  0  0  0  0  0  0  0  0  0  0  # atno 17371 bound_to 10713
  141.2154  133.7556  156.9555 LP  0  0  0  0  0  0  0  0  0  0  0  0  # atno 17394 bound_to 11000
  140.1238  134.9400  157.2240 LP  0  0  0  0  0  0  0  0  0  0  0  0  # atno 17395 bound_to 11000

$$$$
