#       Name:                AV-unprocessed.smi:1661
#       Creating user name   scv26
#       Creation time:       Fri Mar 27 07:36:35 2020


#       File generated by GOLD software.
#

@<TRIPOS>MOLECULE
AV-unprocessed.smi:1661
    42    43     1
SMALL
NO_CHARGES


@<TRIPOS>ATOM
      1 ****        -3.4459   0.8447   3.2544 C.3            1 S1                 0.0000
      2 ****        -2.5067   1.9081   2.6587 C.3            1 S1                 0.0000
      3 ****        -2.6161   2.0090   1.1266 C.3            1 S1                 0.0000
      4 ****        -1.9469   0.8197   0.4145 C.3            1 S1                 0.0000
      5 ****        -0.5270   0.6723   0.8267 N.4            1 S1                 1.0000
      6 ****         0.1719  -0.3858   0.0555 C.3            1 S1                 0.0000
      7 ****         1.6992  -0.1870   0.0390 C.3            1 S1                 0.0000
      8 ****         2.3575  -1.2097  -0.7649 N.am           1 S1                 0.0000
      9 ****         2.4345  -1.2227  -2.1032 C.2            1 S1                 0.0000
     10 ****         1.9254  -0.3091  -2.7566 O.2            1 S1                 0.0000
     11 ****         3.0904  -2.2953  -2.5995 N.pl3          1 S1                -1.0000
     12 ****         3.2441  -2.4330  -3.9269 C.2            1 S1                 0.0000
     13 ****         4.3734  -2.0766  -4.5598 N.2            1 S1                 0.0000
     14 ****         4.3280  -2.3055  -5.9284 N.2            1 S1                 0.0000
     15 ****         3.1623  -2.8389  -6.2932 C.2            1 S1                 0.0000
     16 ****         2.0158  -3.1123  -4.9982 S.3            1 S1                 0.0000
     17 ****        -0.3989   0.5063   2.2989 C.3            1 S1                 0.0000
     18 ****        -1.0347   1.6889   3.0518 C.3            1 S1                 0.0000
     19 ****        -3.2137  -0.1577   2.8962 H              1 S1                 0.0000
     20 ****        -4.4846   1.0538   2.9971 H              1 S1                 0.0000
     21 ****        -3.3769   0.8296   4.3425 H              1 S1                 0.0000
     22 ****        -2.8211   2.8655   3.0761 H              1 S1                 0.0000
     23 ****        -3.6617   2.0857   0.8262 H              1 S1                 0.0000
     24 ****        -2.1388   2.9320   0.7948 H              1 S1                 0.0000
     25 ****        -2.4868  -0.1055   0.6205 H              1 S1                 0.0000
     26 ****        -2.0006   0.9800  -0.6629 H              1 S1                 0.0000
     27 ****        -0.0879  -1.3686   0.4521 H              1 S1                 0.0000
     28 ****        -0.1873  -0.3674  -0.9744 H              1 S1                 0.0000
     29 ****         1.9546   0.8052  -0.3368 H              1 S1                 0.0000
     30 ****         2.1126  -0.2538   1.0442 H              1 S1                 0.0000
     31 ****         2.7930  -1.9738  -0.2690 H              1 S1                 0.0000
     32 ****         2.9775  -3.0761  -7.3301 H              1 S1                 0.0000
     33 ****        -0.8621  -0.4331   2.6034 H              1 S1                 0.0000
     34 ****         0.6510   0.4398   2.5813 H              1 S1                 0.0000
     35 ****        -0.4672   2.5940   2.8307 H              1 S1                 0.0000
     36 ****        -0.9503   1.5358   4.1283 H              1 S1                 0.0000
     37 ****        -0.0746   1.5426   0.5861 H              1 S1                 0.0000
     38 ****         1.4562   0.4395  -2.2881 LP             1 S1                 0.0000
     39 ****         1.9817  -0.3169  -3.7550 LP             1 S1                 0.0000
     40 ****         3.4611  -2.9861  -1.9788 LP             1 S1                 0.0000
     41 ****         5.1666  -1.6860  -4.0928 LP             1 S1                 0.0000
     42 ****         5.0747  -2.0968  -6.5600 LP             1 S1                 0.0000
@<TRIPOS>BOND
    1    1    2 1     
    2    1   19 1     
    3    1   20 1     
    4    1   21 1     
    5    2   18 1     
    6    2    3 1     
    7    2   22 1     
    8    3    4 1     
    9    3   23 1     
   10    3   24 1     
   11    4    5 1     
   12    4   25 1     
   13    4   26 1     
   14    5    6 1     
   15    5   17 1     
   16    5   37 1     
   17    6    7 1     
   18    6   27 1     
   19    6   28 1     
   20    7    8 1     
   21    7   29 1     
   22    7   30 1     
   23    8    9 am    
   24    8   31 1     
   25    9   10 2     
   26    9   11 1     
   27   11   12 1     
   28   12   16 1     
   29   12   13 2     
   30   13   14 1     
   31   14   15 2     
   32   15   16 1     
   33   15   32 1     
   34   17   18 1     
   35   17   33 1     
   36   17   34 1     
   37   18   35 1     
   38   18   36 1     
   39   10   38 1     
   40   10   39 1     
   41   11   40 1     
   42   13   41 1     
   43   14   42 1     
@<TRIPOS>SUBSTRUCTURE
      1 S1             1
@<TRIPOS>SET
LONE_PAIRS      STATIC     ATOMS    <user>   **** ""
5 38 39 40 41 42
DONOR_HYDROGENS      STATIC     ATOMS    <user>   **** ""
2 37 31
ATOM$BLUE        STATIC     ATOMS    COLORGROUP SYSTEM
5 38 39 40 41 42
ATOM$RED        STATIC     ATOMS    COLORGROUP SYSTEM
2 37 31
