#       Name:                AV-unprocessed.smi:1239
#       Creating user name   scv26
#       Creation time:       Fri Mar 27 04:27:38 2020


#       File generated by GOLD software.
#

@<TRIPOS>MOLECULE
AV-unprocessed.smi:1239
    53    54     1
SMALL
NO_CHARGES


@<TRIPOS>ATOM
      1 ****        -1.7903   2.9057   1.2253 C.3            1 S1                 0.0000
      2 ****        -2.4010   2.1614   0.0116 C.3            1 S1                 0.0000
      3 ****        -1.9094   0.6895  -0.0166 C.3            1 S1                 0.0000
      4 ****        -0.4543   0.5860  -0.0042 N.am           1 S1                 0.0000
      5 ****         0.2204  -0.5702   0.0402 C.2            1 S1                 0.0000
      6 ****        -0.3326  -1.6685   0.0782 O.2            1 S1                 0.0000
      7 ****         1.5476  -0.3552   0.0336 N.am           1 S1                 0.0000
      8 ****         2.6186  -1.2916   0.0557 C.ar           1 S1                 0.0000
      9 ****         2.4728  -2.6953   0.1538 C.ar           1 S1                 0.0000
     10 ****         3.6255  -3.5040   0.1660 C.ar           1 S1                 0.0000
     11 ****         4.9031  -2.8976   0.0808 C.ar           1 S1                 0.0000
     12 ****         6.0882  -3.6683   0.0881 N.pl3          1 S1                 0.0000
     13 ****         7.3857  -3.0066  -0.0055 C.3            1 S1                 0.0000
     14 ****         6.0193  -5.1185   0.2201 C.3            1 S1                 0.0000
     15 ****         5.0360  -1.5521  -0.0110 N.ar           1 S1                 0.0000
     16 ****         3.9293  -0.7811  -0.0219 C.ar           1 S1                 0.0000
     17 ****        -3.9001   2.2585  -0.0036 N.4            1 S1                 1.0000
     18 ****        -4.4072   3.6589   0.0600 C.3            1 S1                 0.0000
     19 ****        -5.9440   3.7100   0.0418 C.3            1 S1                 0.0000
     20 ****        -6.4313   3.0544  -1.1173 O.3            1 S1                 0.0000
     21 ****        -6.0709   1.6829  -1.1174 C.3            1 S1                 0.0000
     22 ****        -4.5393   1.5469  -1.1472 C.3            1 S1                 0.0000
     23 ****        -0.7101   2.7787   1.2887 H              1 S1                 0.0000
     24 ****        -2.2157   2.5478   2.1635 H              1 S1                 0.0000
     25 ****        -1.9447   3.9824   1.1706 H              1 S1                 0.0000
     26 ****        -2.0339   2.6492  -0.8930 H              1 S1                 0.0000
     27 ****        -2.3204   0.1404   0.8325 H              1 S1                 0.0000
     28 ****        -2.2352   0.1802  -0.9225 H              1 S1                 0.0000
     29 ****         0.0711   1.4477  -0.0329 H              1 S1                 0.0000
     30 ****         1.8329   0.6123  -0.0076 H              1 S1                 0.0000
     31 ****         1.5116  -3.1778   0.2219 H              1 S1                 0.0000
     32 ****         3.5041  -4.5739   0.2396 H              1 S1                 0.0000
     33 ****         7.4535  -2.4228  -0.9241 H              1 S1                 0.0000
     34 ****         8.2020  -3.7293  -0.0102 H              1 S1                 0.0000
     35 ****         7.5364  -2.3376   0.8425 H              1 S1                 0.0000
     36 ****         5.5230  -5.3957   1.1506 H              1 S1                 0.0000
     37 ****         7.0139  -5.5649   0.2291 H              1 S1                 0.0000
     38 ****         5.4676  -5.5537  -0.6137 H              1 S1                 0.0000
     39 ****         4.0997   0.2832  -0.0964 H              1 S1                 0.0000
     40 ****        -4.0839   4.1514   0.9753 H              1 S1                 0.0000
     41 ****        -4.0054   4.2315  -0.7773 H              1 S1                 0.0000
     42 ****        -6.3608   3.2517   0.9403 H              1 S1                 0.0000
     43 ****        -6.2835   4.7458   0.0278 H              1 S1                 0.0000
     44 ****        -6.4907   1.1807  -0.2443 H              1 S1                 0.0000
     45 ****        -6.5058   1.2056  -1.9958 H              1 S1                 0.0000
     46 ****        -4.1483   1.9392  -2.0873 H              1 S1                 0.0000
     47 ****        -4.3181   0.4817  -1.1217 H              1 S1                 0.0000
     48 ****        -4.2265   1.7992   0.8349 H              1 S1                 0.0000
     49 ****        -1.3309  -1.7259   0.0768 LP             1 S1                 0.0000
     50 ****         0.2163  -2.5038   0.1105 LP             1 S1                 0.0000
     51 ****         5.9434  -1.1359  -0.0700 LP             1 S1                 0.0000
     52 ****        -6.0445   3.4939  -1.9281 LP             1 S1                 0.0000
     53 ****        -7.4281   3.1302  -1.1407 LP             1 S1                 0.0000
@<TRIPOS>BOND
    1    1    2 1     
    2    1   23 1     
    3    1   24 1     
    4    1   25 1     
    5    2    3 1     
    6    2   17 1     
    7    2   26 1     
    8    3    4 1     
    9    3   27 1     
   10    3   28 1     
   11    4    5 am    
   12    4   29 1     
   13    5    6 2     
   14    5    7 am    
   15    7    8 1     
   16    7   30 1     
   17    8   16 ar    
   18    8    9 ar    
   19    9   10 ar    
   20    9   31 1     
   21   10   11 ar    
   22   10   32 1     
   23   11   12 1     
   24   11   15 ar    
   25   12   13 1     
   26   12   14 1     
   27   13   33 1     
   28   13   34 1     
   29   13   35 1     
   30   14   36 1     
   31   14   37 1     
   32   14   38 1     
   33   15   16 ar    
   34   16   39 1     
   35   17   22 1     
   36   17   18 1     
   37   17   48 1     
   38   18   19 1     
   39   18   40 1     
   40   18   41 1     
   41   19   20 1     
   42   19   42 1     
   43   19   43 1     
   44   20   21 1     
   45   21   22 1     
   46   21   44 1     
   47   21   45 1     
   48   22   46 1     
   49   22   47 1     
   50    6   49 1     
   51    6   50 1     
   52   15   51 1     
   53   20   52 1     
   54   20   53 1     
@<TRIPOS>SUBSTRUCTURE
      1 S1             1
@<TRIPOS>SET
LONE_PAIRS      STATIC     ATOMS    <user>   **** ""
5 49 50 51 52 53
DONOR_HYDROGENS      STATIC     ATOMS    <user>   **** ""
3 29 30 48
ATOM$BLUE        STATIC     ATOMS    COLORGROUP SYSTEM
5 49 50 51 52 53
ATOM$RED        STATIC     ATOMS    COLORGROUP SYSTEM
3 29 30 48
