AV-unprocessed.smi:51|AV-procd|sdf|501|dock2
  -GOLD-   2262016373D 1   1.00000     0.00000
 Structure written by MMmdl.
 25 26  0  0  0  0  0  0  0  0  2 V2000
  152.8939  139.4355  154.8032 O   0  0  0  0  0  0  0  0  0  0  0  0
  152.0097  138.5521  154.7823 C   0  0  0  0  0  0  0  0  0  0  0  0
  152.1875  137.3553  154.4614 O   0  5  0  0  0  0  0  0  0  0  0  0
  150.5930  138.9802  155.1939 C   0  0  2  0  0  0  0  0  0  0  0  0
  149.5599  138.6807  154.0942 C   0  0  0  0  0  0  0  0  0  0  0  0
  148.5239  139.7883  154.2785 C   0  0  2  0  0  0  0  0  0  0  0  0
  147.7836  140.0415  153.1032 O   0  0  0  0  0  0  0  0  0  0  0  0
  149.3598  140.9933  154.7137 C   0  0  0  0  0  0  0  0  0  0  0  0
  150.4920  140.4215  155.4288 N   0  0  0  0  0  0  0  0  0  0  0  0
  151.0171  141.0507  156.5758 C   0  0  0  0  0  0  0  0  0  0  0  0
  151.7558  140.3190  157.5362 C   0  0  0  0  0  0  0  0  0  0  0  0
  152.2370  141.0356  158.6502 C   0  0  0  0  0  0  0  0  0  0  0  0
  152.0105  142.3574  158.8002 N   0  0  0  0  0  0  0  0  0  0  0  0
  151.3016  142.9533  157.8392 C   0  0  0  0  0  0  0  0  0  0  0  0
  150.7998  142.3774  156.7451 N   0  0  0  0  0  0  0  0  0  0  0  0
  150.3023  138.4577  156.1066 H   0  0  0  0  0  0  0  0  0  0  0  0
  150.0097  138.7571  153.1020 H   0  0  0  0  0  0  0  0  0  0  0  0
  149.1272  137.6842  154.1871 H   0  0  0  0  0  0  0  0  0  0  0  0
  147.8400  139.5113  155.0821 H   0  0  0  0  0  0  0  0  0  0  0  0
  148.3828  140.0525  152.3723 H   0  0  0  0  0  0  0  0  0  0  0  0
  149.7429  141.5450  153.8541 H   0  0  0  0  0  0  0  0  0  0  0  0
  148.7654  141.6757  155.3223 H   0  0  0  0  0  0  0  0  0  0  0  0
  151.9384  139.2592  157.4400 H   0  0  0  0  0  0  0  0  0  0  0  0
  152.8055  140.5439  159.4255 H   0  0  0  0  0  0  0  0  0  0  0  0
  151.1189  144.0110  157.9573 H   0  0  0  0  0  0  0  0  0  0  0  0
  1  2  2  0  0  0  0
  2  3  1  0  0  0  0
  2  4  1  0  0  0  0
  4  9  1  0  0  0  0
  4  5  1  0  0  0  0
  4 16  1  0  0  0  0
  5  6  1  0  0  0  0
  5 17  1  0  0  0  0
  5 18  1  0  0  0  0
  6  7  1  0  0  0  0
  6  8  1  0  0  0  0
  6 19  1  0  0  0  0
  7 20  1  0  0  0  0
  8  9  1  0  0  0  0
  8 21  1  0  0  0  0
  8 22  1  0  0  0  0
  9 10  1  0  0  0  0
 10 15  1  0  0  0  0
 10 11  2  0  0  0  0
 11 12  1  0  0  0  0
 11 23  1  0  0  0  0
 12 13  2  0  0  0  0
 12 24  1  0  0  0  0
 13 14  1  0  0  0  0
 14 15  2  0  0  0  0
 14 25  1  0  0  0  0
M  CHG  1   3  -1
M  END
> <s_m_source_file>
AV-unprocessed.smi

> <i_m_source_file_index>
51

> <i_lp_mmshare_version>
43012

> <i_f3d_flags>
0

> <s_epik_input>
Tz1DKFtPSF0pW0NAQEhdMVtDSDJdW0NAQEhdKFtPSF0pW0NIMl1OMWMyW2NIXVtjSF1uW2NIXW4y

> <s_epik_cmdline>
J2VwaWtfcHl0aG9uJywgJy1waCcsICc3LjAnLCAnLXRuJywgJzgnLCAnLW1hJywgJzIwMCcsICctbWV0YWxfYmluZGluZycsICctaW1hZScsICc8aW5maWxlLm1hZT4nLCAnLW9tYWUnLCAnPG91dGZpbGUubWFlPic=

> <r_lp_tautomer_probability>
1

> <r_epik_Ionization_Penalty>
0.225251

> <r_epik_Ionization_Penalty_Charging>
0.000248217

> <r_epik_Ionization_Penalty_Neutral>
0.225002

> <r_epik_State_Penalty>
0.21284

> <r_epik_Charging_Adjusted_Penalty>
0.213088

> <i_epik_Tot_Q>
-1

> <i_epik_Tot_abs_Q>
1

> <r_epik_Metal_State_Penalty>
0.154111

> <b_epik_Metal_Only>
0

> <s_lp_Force_Field>
OPLS_2005

> <r_lp_Energy>
15.7166

> <b_lp_Chiralities_Consistent>
1

> <s_lp_Variant>
AV-unprocessed.smi:51-3

> <Gold.Version>
5.8.1

> <Gold.Id.Protein>
6NUR|6NUR_protein|mol2

> <Gold.PLP.Fitness>
43.6564

> <Gold.PLP.PLP>
-29.5742

> <Gold.PLP.part.hbond>
-3.9882

> <Gold.PLP.part.metal>
0.0000

> <Gold.PLP.part.buried>
-5.2763

> <Gold.PLP.part.nonpolar>
-22.6739

> <Gold.PLP.part.repulsive>
0.2516

> <Gold.PLP.ligand.clash>
0.0000

> <Gold.PLP.ligand.torsion>
0.1581

> <Gold.PLP.Chemscore.Hbond>
4.7435

> <Gold.PLP.Chemscore.CHOScore>
0.0000

> <Gold.PLP.Chemscore.Metal>
0.0000

> <Gold.Chemscore.Hbonds>
donor molecule, donor type, donor heavy atom, donor atom, acceptor molecule, acceptor atom, score
      L1  H     7    20       P1  7957  1.00
      P1  H  7989  7998       L1     1  0.13
      P1  H  7997  8009       L1     1  1.95
      P1  H 10752 10765       L1     3  1.63

> <Gold.PLP.Chemscore.Internal.Correction>
0.1677

> <Gold.Rescore>
     Score         DG    S(hbond)    S(metal)    S(lipo)     H(rot)  DE(clash)    DE(int)     intcor
     14.73     -14.86       2.69        0.00      40.29       1.69       0.00       0.13       ----

> <Gold.Chemscore.Fitness>
14.7290

> <Gold.Chemscore.DG>
-14.8568

> <Gold.Chemscore.ZeroCoef>
-5.4800

> <Gold.Chemscore.Hbond>
2.6903

> <Gold.Chemscore.Metal>
0.0000

> <Gold.Chemscore.Lipo>
40.2935

> <Gold.Chemscore.Internal_Hbond>
0.0000

> <Gold.Chemscore.DEClash>
0.0000

> <Gold.Chemscore.DEInternal>
0.1278

> <Gold.Chemscore.Rot>
1.6887

> <Gold.Chemscore.Internal.Correction>
   9.000000E+99

> <Gold.Chemscore.Hbonds>
donor molecule, donor type, donor heavy atom, donor atom, acceptor molecule, acceptor atom, score
      L1  H     7    20       P1  7957  1.00
      P1  H  7989  7998       L1     1  0.01
      P1  H  7997  8009       L1     1  0.91
      P1  H 10752 10765       L1     3  0.81

> <Gold.Chemscore.Hbond.Weighted>
-8.9856

> <Gold.Chemscore.Metal.Weighted>
-0.0000

> <Gold.Chemscore.Lipo.Weighted>
-4.7143

> <Gold.Chemscore.Internal_Hbond.Weighted>
0.0000

> <Gold.Chemscore.DEClash.Weighted>
0.0000

> <Gold.Chemscore.DEInternal.Weighted>
0.1278

> <Gold.Chemscore.Rot.Weighted>
4.3232

> <Gold.Chemscore.Internal.Correction.Weighted>
   9.000000E+99

> <Gold.Protein.RotatedTorsions>
[ 6907 6896 6895 6894 ] final -103.15 input  -60.11 | X-H torsion
[ 7974 7965 7964 7962 ] final   48.11 input  175.53 | X-H torsion
[ 8008 7997 7996 7995 ] final -131.14 input   59.86 | X-H torsion
[ 10167 10162 10161 10158 ] final -151.88 input  -65.29 | X-H torsion
[ 10718 10713 10712 10709 ] final  130.44 input   66.30 | X-H torsion
[ 10763 10752 10751 10750 ] final  160.88 input  -60.55 | X-H torsion
[ 11005 11000 10999 10996 ] final  153.05 input  -57.11 | X-H torsion

> <Gold.Protein.ActiveResidues>
 VAL166  LYS551  ARG553  GLY616  TRP617  ASP618  TYR619  PRO620  LYS621  CYS622 
 ASP623  PHE694  ASN695  SER759  ASP760  ASP761  ALA762  ILE779  LEU786  VAL792 
 PHE793  MET794  SER795  GLU796  ALA797  LYS798  CYS799  TRP800  GLU811  SER814 

> <Gold.Protein.RotatedAtoms>
  150.7227  134.0473  159.3786 H   0  0  0  0  0  0  0  0  0  0  0  0  # atno 6907 bound_to 6896
  151.8449  135.0575  160.0461 H   0  0  0  0  0  0  0  0  0  0  0  0  # atno 6908 bound_to 6896
  152.2834  133.5456  159.5548 H   0  0  0  0  0  0  0  0  0  0  0  0  # atno 6909 bound_to 6896
  146.0235  139.4679  142.9882 H   0  0  0  0  0  0  0  0  0  0  0  0  # atno 7974 bound_to 7965
  155.3073  140.0455  157.3033 H   0  0  0  0  0  0  0  0  0  0  0  0  # atno 8008 bound_to 7997
  154.5452  140.2300  155.8541 H   0  0  0  0  0  0  0  0  0  0  0  0  # atno 8009 bound_to 7997
  156.1918  140.3048  155.9354 H   0  0  0  0  0  0  0  0  0  0  0  0  # atno 8010 bound_to 7997
  139.7229  143.8929  152.2509 H   0  0  0  0  0  0  0  0  0  0  0  0  # atno 10167 bound_to 10162
  157.5062  131.1095  150.9358 H   0  0  0  0  0  0  0  0  0  0  0  0  # atno 10718 bound_to 10713
  154.2543  135.2770  155.2804 H   0  0  0  0  0  0  0  0  0  0  0  0  # atno 10763 bound_to 10752
  154.5438  135.5695  153.6865 H   0  0  0  0  0  0  0  0  0  0  0  0  # atno 10764 bound_to 10752
  152.9974  135.6257  154.2692 H   0  0  0  0  0  0  0  0  0  0  0  0  # atno 10765 bound_to 10752
  140.1363  134.8768  157.2272 H   0  0  0  0  0  0  0  0  0  0  0  0  # atno 11005 bound_to 11000
  145.7155  141.0092  143.1430 LP  0  0  0  0  0  0  0  0  0  0  0  0  # atno 17320 bound_to 7965
  144.7000  139.8808  143.7447 LP  0  0  0  0  0  0  0  0  0  0  0  0  # atno 17321 bound_to 7965
  139.8830  144.7007  150.8856 LP  0  0  0  0  0  0  0  0  0  0  0  0  # atno 17342 bound_to 10162
  140.7757  143.3646  151.1763 LP  0  0  0  0  0  0  0  0  0  0  0  0  # atno 17343 bound_to 10162
  157.0013  130.5601  149.5312 LP  0  0  0  0  0  0  0  0  0  0  0  0  # atno 17370 bound_to 10713
  156.0259  130.5353  150.8406 LP  0  0  0  0  0  0  0  0  0  0  0  0  # atno 17371 bound_to 10713
  140.2778  134.3385  155.7352 LP  0  0  0  0  0  0  0  0  0  0  0  0  # atno 17394 bound_to 11000
  141.2179  133.7461  156.9319 LP  0  0  0  0  0  0  0  0  0  0  0  0  # atno 17395 bound_to 11000

$$$$
