#       Name:                AV-unprocessed.smi:730
#       Creating user name   scv26
#       Creation time:       Fri Mar 27 00:51:44 2020


#       File generated by GOLD software.
#

@<TRIPOS>MOLECULE
AV-unprocessed.smi:730
    47    48     1
SMALL
NO_CHARGES


@<TRIPOS>ATOM
      1 ****        -4.2253  -3.0369   0.4091 C.3            1 S1                 0.0000
      2 ****        -4.4422  -1.5158   0.5386 C.3            1 S1                 0.0000
      3 ****        -5.3355  -1.0518  -0.6273 C.3            1 S1                 0.0000
      4 ****        -5.1634  -1.2402   1.8710 C.3            1 S1                 0.0000
      5 ****        -3.1297  -0.7838   0.5028 C.2            1 S1                 0.0000
      6 ****        -1.8279  -1.1896   0.3844 C.2            1 S1                 0.0000
      7 ****        -1.1021   0.0302   0.4176 C.2            1 S1                 0.0000
      8 ****         0.3120   0.0376   0.3147 N.am           1 S1                 0.0000
      9 ****         1.1258   1.1065   0.2903 C.2            1 S1                 0.0000
     10 ****         0.7599   2.2803   0.3576 O.2            1 S1                 0.0000
     11 ****         2.4090   0.7377   0.1680 N.am           1 S1                 0.0000
     12 ****         3.5453   1.6574   0.0905 C.3            1 S1                 0.0000
     13 ****         4.8296   0.9527   0.5636 C.3            1 S1                 0.0000
     14 ****         5.6584   0.7050  -0.6955 C.3            1 S1                 0.0000
     15 ****         5.3314   1.8951  -1.5923 C.3            1 S1                 0.0000
     16 ****         3.8436   2.1756  -1.3447 C.3            1 S1                 0.0000
     17 ****         3.0842   1.5220  -2.3471 O.3            1 S1                 0.0000
     18 ****        -1.8845   1.0893   0.5490 N.2            1 S1                 0.0000
     19 ****        -3.1843   0.5744   0.6047 O.3            1 S1                 0.0000
     20 ****        -5.1719  -3.5779   0.4362 H              1 S1                 0.0000
     21 ****        -3.6067  -3.4222   1.2208 H              1 S1                 0.0000
     22 ****        -3.7320  -3.2902  -0.5302 H              1 S1                 0.0000
     23 ****        -4.8570  -1.2367  -1.5898 H              1 S1                 0.0000
     24 ****        -5.5488   0.0162  -0.5676 H              1 S1                 0.0000
     25 ****        -6.2923  -1.5751  -0.6298 H              1 S1                 0.0000
     26 ****        -6.1165  -1.7679   1.9246 H              1 S1                 0.0000
     27 ****        -5.3715  -0.1776   2.0009 H              1 S1                 0.0000
     28 ****        -4.5609  -1.5624   2.7210 H              1 S1                 0.0000
     29 ****        -1.4555  -2.1984   0.2860 H              1 S1                 0.0000
     30 ****         0.7505  -0.8683   0.2406 H              1 S1                 0.0000
     31 ****         2.6195  -0.2479   0.1111 H              1 S1                 0.0000
     32 ****         3.3617   2.5042   0.7547 H              1 S1                 0.0000
     33 ****         5.3815   1.6199   1.2271 H              1 S1                 0.0000
     34 ****         4.6417   0.0333   1.1201 H              1 S1                 0.0000
     35 ****         6.7248   0.6155  -0.4863 H              1 S1                 0.0000
     36 ****         5.3328  -0.2186  -1.1761 H              1 S1                 0.0000
     37 ****         5.9190   2.7554  -1.2689 H              1 S1                 0.0000
     38 ****         5.5721   1.7145  -2.6410 H              1 S1                 0.0000
     39 ****         3.6379   3.2439  -1.4213 H              1 S1                 0.0000
     40 ****         2.1689   1.6944  -2.1859 H              1 S1                 0.0000
     41 ****        -0.2131   2.4969   0.4376 LP             1 S1                 0.0000
     42 ****         1.4357   3.0169   0.3322 LP             1 S1                 0.0000
     43 ****         3.2541   0.5372  -2.3118 LP             1 S1                 0.0000
     44 ****         3.3407   1.8723  -3.2479 LP             1 S1                 0.0000
     45 ****        -1.6072   2.0488   0.5978 LP             1 S1                 0.0000
     46 ****        -3.6084   0.8284   1.4740 LP             1 S1                 0.0000
     47 ****        -3.7244   0.9456  -0.1507 LP             1 S1                 0.0000
@<TRIPOS>BOND
    1    1    2 1     
    2    1   20 1     
    3    1   21 1     
    4    1   22 1     
    5    2    3 1     
    6    2    4 1     
    7    2    5 1     
    8    3   23 1     
    9    3   24 1     
   10    3   25 1     
   11    4   26 1     
   12    4   27 1     
   13    4   28 1     
   14    5   19 1     
   15    5    6 2     
   16    6    7 1     
   17    6   29 1     
   18    7    8 1     
   19    7   18 2     
   20    8    9 am    
   21    8   30 1     
   22    9   10 2     
   23    9   11 am    
   24   11   12 1     
   25   11   31 1     
   26   12   16 1     
   27   12   13 1     
   28   12   32 1     
   29   13   14 1     
   30   13   33 1     
   31   13   34 1     
   32   14   15 1     
   33   14   35 1     
   34   14   36 1     
   35   15   16 1     
   36   15   37 1     
   37   15   38 1     
   38   16   17 1     
   39   16   39 1     
   40   17   40 1     
   41   18   19 1     
   42   10   41 1     
   43   10   42 1     
   44   17   43 1     
   45   17   44 1     
   46   18   45 1     
   47   19   46 1     
   48   19   47 1     
@<TRIPOS>SUBSTRUCTURE
      1 S1             1
@<TRIPOS>SET
LONE_PAIRS      STATIC     ATOMS    <user>   **** ""
7 41 42 43 44 45 46 47
DONOR_HYDROGENS      STATIC     ATOMS    <user>   **** ""
3 30 31 40
ATOM$BLUE        STATIC     ATOMS    COLORGROUP SYSTEM
7 41 42 43 44 45 46 47
ATOM$RED        STATIC     ATOMS    COLORGROUP SYSTEM
3 30 31 40
