AV-unprocessed.smi:2778|AV-procd|sdf|10710|dock4
  -GOLD-   2272015143D 1   1.00000     0.00000
 Structure written by MMmdl.
 37 38  0  0  0  0  0  0  0  0  1 V2000
  151.6962  145.5651  159.9197 C   0  0  0  0  0  0  0  0  0  0  0  0
  151.4725  144.4371  159.0868 O   0  0  0  0  0  0  0  0  0  0  0  0
  152.0867  143.2456  159.4209 C   0  0  0  0  0  0  0  0  0  0  0  0
  152.9987  143.1073  160.4981 C   0  0  0  0  0  0  0  0  0  0  0  0
  153.5735  141.8515  160.7598 C   0  0  0  0  0  0  0  0  0  0  0  0
  153.2168  140.7720  159.9322 C   0  0  0  0  0  0  0  0  0  0  0  0
  153.7966  139.3910  160.1553 C   0  0  0  0  0  0  0  0  0  0  0  0
  152.3509  140.8909  158.9058 N   0  0  0  0  0  0  0  0  0  0  0  0
  151.7890  142.0969  158.6432 C   0  0  0  0  0  0  0  0  0  0  0  0
  150.8660  142.3043  157.5824 N   0  0  0  0  0  0  0  0  0  0  0  0
  150.6523  141.5475  156.4880 C   0  0  0  0  0  0  0  0  0  0  0  0
  151.2671  140.5181  156.2150 O   0  0  0  0  0  0  0  0  0  0  0  0
  149.6932  142.0229  155.6723 N   0  0  0  0  0  0  0  0  0  0  0  0
  149.2157  141.4506  154.4105 C   0  0  0  0  0  0  0  0  0  0  0  0
  147.7697  141.8967  154.1229 C   0  0  0  0  0  0  0  0  0  0  0  0
  147.0157  140.6362  153.6977 C   0  0  0  0  0  0  0  0  0  0  0  0
  147.7086  139.5112  154.4591 C   0  0  0  0  0  0  0  0  0  0  0  0
  149.1854  139.9082  154.4536 C   0  0  0  0  0  0  0  0  0  0  0  0
  151.1507  146.4201  159.5204 H   0  0  0  0  0  0  0  0  0  0  0  0
  152.7527  145.8346  159.9516 H   0  0  0  0  0  0  0  0  0  0  0  0
  151.3362  145.3893  160.9342 H   0  0  0  0  0  0  0  0  0  0  0  0
  153.2693  143.9391  161.1304 H   0  0  0  0  0  0  0  0  0  0  0  0
  154.2694  141.7248  161.5760 H   0  0  0  0  0  0  0  0  0  0  0  0
  154.5408  139.3978  160.9522 H   0  0  0  0  0  0  0  0  0  0  0  0
  154.2767  139.0287  159.2457 H   0  0  0  0  0  0  0  0  0  0  0  0
  153.0083  138.6901  160.4307 H   0  0  0  0  0  0  0  0  0  0  0  0
  150.2969  143.1337  157.6667 H   0  0  0  0  0  0  0  0  0  0  0  0
  149.2690  142.8983  155.9432 H   0  0  0  0  0  0  0  0  0  0  0  0
  149.8545  141.7801  153.5888 H   0  0  0  0  0  0  0  0  0  0  0  0
  147.3046  142.2975  155.0251 H   0  0  0  0  0  0  0  0  0  0  0  0
  147.7225  142.6772  153.3630 H   0  0  0  0  0  0  0  0  0  0  0  0
  145.9481  140.6937  153.9108 H   0  0  0  0  0  0  0  0  0  0  0  0
  147.1344  140.4799  152.6246 H   0  0  0  0  0  0  0  0  0  0  0  0
  147.3399  139.4820  155.4853 H   0  0  0  0  0  0  0  0  0  0  0  0
  147.5349  138.5313  154.0134 H   0  0  0  0  0  0  0  0  0  0  0  0
  149.6614  139.5164  153.5536 H   0  0  0  0  0  0  0  0  0  0  0  0
  149.7194  139.4851  155.3055 H   0  0  0  0  0  0  0  0  0  0  0  0
  1  2  1  0  0  0  0
  1 19  1  0  0  0  0
  1 20  1  0  0  0  0
  1 21  1  0  0  0  0
  2  3  1  0  0  0  0
  3  9  1  0  0  0  0
  3  4  2  0  0  0  0
  4  5  1  0  0  0  0
  4 22  1  0  0  0  0
  5  6  2  0  0  0  0
  5 23  1  0  0  0  0
  6  7  1  0  0  0  0
  6  8  1  0  0  0  0
  7 24  1  0  0  0  0
  7 25  1  0  0  0  0
  7 26  1  0  0  0  0
  8  9  2  0  0  0  0
  9 10  1  0  0  0  0
 10 11  1  0  0  0  0
 10 27  1  0  0  0  0
 11 12  2  0  0  0  0
 11 13  1  0  0  0  0
 13 14  1  0  0  0  0
 13 28  1  0  0  0  0
 14 18  1  0  0  0  0
 14 15  1  0  0  0  0
 14 29  1  0  0  0  0
 15 16  1  0  0  0  0
 15 30  1  0  0  0  0
 15 31  1  0  0  0  0
 16 17  1  0  0  0  0
 16 32  1  0  0  0  0
 16 33  1  0  0  0  0
 17 18  1  0  0  0  0
 17 34  1  0  0  0  0
 17 35  1  0  0  0  0
 18 36  1  0  0  0  0
 18 37  1  0  0  0  0
M  END
> <s_m_source_file>
AV-unprocessed.smi

> <i_m_source_file_index>
2778

> <i_lp_mmshare_version>
43012

> <i_f3d_flags>
0

> <s_epik_input>
W0NIM11PYzFbY0hdW2NIXWMoW0NIM10pbmMxW05IXUMoPU8pW05IXVtDSF0yW0NIMl1bQ0gyXVtDSDJdW0NIMl0y

> <s_epik_cmdline>
J2VwaWtfcHl0aG9uJywgJy1waCcsICc3LjAnLCAnLXRuJywgJzgnLCAnLW1hJywgJzIwMCcsICctbWV0YWxfYmluZGluZycsICctaW1hZScsICc8aW5maWxlLm1hZT4nLCAnLW9tYWUnLCAnPG91dGZpbGUubWFlPic=

> <r_lp_tautomer_probability>
1

> <r_epik_Ionization_Penalty>
6.53997e-05

> <r_epik_Ionization_Penalty_Charging>
0

> <r_epik_Ionization_Penalty_Neutral>
6.53997e-05

> <r_epik_State_Penalty>
-0

> <r_epik_Charging_Adjusted_Penalty>
0

> <i_epik_Tot_Q>
0

> <i_epik_Tot_abs_Q>
0

> <r_epik_Metal_State_Penalty>
-0

> <b_epik_Metal_Only>
0

> <s_lp_Force_Field>
OPLS_2005

> <r_lp_Energy>
34.0049

> <b_lp_Chiralities_Consistent>
1

> <s_lp_Variant>
AV-unprocessed.smi:2778-1

> <Gold.Version>
5.8.1

> <Gold.Id.Protein>
6NUR|6NUR_protein|mol2

> <Gold.PLP.Fitness>
42.4035

> <Gold.PLP.PLP>
-40.2823

> <Gold.PLP.part.hbond>
-1.0000

> <Gold.PLP.part.metal>
0.0000

> <Gold.PLP.part.buried>
-5.4797

> <Gold.PLP.part.nonpolar>
-33.8187

> <Gold.PLP.part.repulsive>
0.2645

> <Gold.PLP.ligand.clash>
0.0000

> <Gold.PLP.ligand.torsion>
0.4409

> <Gold.PLP.Chemscore.Hbond>
1.0000

> <Gold.PLP.Chemscore.CHOScore>
0.0000

> <Gold.PLP.Chemscore.Metal>
0.0000

> <Gold.Chemscore.Hbonds>
donor molecule, donor type, donor heavy atom, donor atom, acceptor molecule, acceptor atom, score
      L1  H    13    28       P1  8028  1.00

> <Gold.PLP.Chemscore.Internal.Correction>
0.0030

> <Gold.Rescore>
     Score         DG    S(hbond)    S(metal)    S(lipo)     H(rot)  DE(clash)    DE(int)     intcor
     14.14     -17.12       0.99        0.00      97.71       1.21       0.06       2.91       ----

> <Gold.Chemscore.Fitness>
14.1383

> <Gold.Chemscore.DG>
-17.1151

> <Gold.Chemscore.ZeroCoef>
-5.4800

> <Gold.Chemscore.Hbond>
0.9884

> <Gold.Chemscore.Metal>
0.0000

> <Gold.Chemscore.Lipo>
97.7108

> <Gold.Chemscore.Internal_Hbond>
0.0000

> <Gold.Chemscore.DEClash>
0.0627

> <Gold.Chemscore.DEInternal>
2.9142

> <Gold.Chemscore.Rot>
1.2103

> <Gold.Chemscore.Internal.Correction>
   9.000000E+99

> <Gold.Chemscore.Hbonds>
donor molecule, donor type, donor heavy atom, donor atom, acceptor molecule, acceptor atom, score
      L1  H    13    28       P1  8028  0.96

> <Gold.Chemscore.Hbond.Weighted>
-3.3014

> <Gold.Chemscore.Metal.Weighted>
-0.0000

> <Gold.Chemscore.Lipo.Weighted>
-11.4322

> <Gold.Chemscore.Internal_Hbond.Weighted>
0.0000

> <Gold.Chemscore.DEClash.Weighted>
0.0627

> <Gold.Chemscore.DEInternal.Weighted>
2.9142

> <Gold.Chemscore.Rot.Weighted>
3.0984

> <Gold.Chemscore.Internal.Correction.Weighted>
   9.000000E+99

> <Gold.Protein.RotatedTorsions>
[ 6907 6896 6895 6894 ] final   99.26 input  -60.11 | X-H torsion
[ 7974 7965 7964 7962 ] final  -57.10 input  175.53 | X-H torsion
[ 8008 7997 7996 7995 ] final   42.08 input   59.86 | X-H torsion
[ 10167 10162 10161 10158 ] final  160.39 input  -65.29 | X-H torsion
[ 10718 10713 10712 10709 ] final  -92.08 input   66.30 | X-H torsion
[ 10763 10752 10751 10750 ] final   18.80 input  -60.55 | X-H torsion
[ 11005 11000 10999 10996 ] final -114.09 input  -57.11 | X-H torsion

> <Gold.Protein.ActiveResidues>
 VAL166  LYS551  ARG553  GLY616  TRP617  ASP618  TYR619  PRO620  LYS621  CYS622 
 ASP623  PHE694  ASN695  SER759  ASP760  ASP761  ALA762  ILE779  LEU786  VAL792 
 PHE793  MET794  SER795  GLU796  ALA797  LYS798  CYS799  TRP800  GLU811  SER814 

> <Gold.Protein.RotatedAtoms>
  152.5395  134.0456  159.8086 H   0  0  0  0  0  0  0  0  0  0  0  0  # atno 6907 bound_to 6896
  151.0605  133.5540  159.2642 H   0  0  0  0  0  0  0  0  0  0  0  0  # atno 6908 bound_to 6896
  151.2441  135.0607  159.9090 H   0  0  0  0  0  0  0  0  0  0  0  0  # atno 6909 bound_to 6896
  145.8550  140.8326  142.9966 H   0  0  0  0  0  0  0  0  0  0  0  0  # atno 7974 bound_to 7965
  155.2803  140.3372  155.4259 H   0  0  0  0  0  0  0  0  0  0  0  0  # atno 8008 bound_to 7997
  156.2093  140.1763  156.7772 H   0  0  0  0  0  0  0  0  0  0  0  0  # atno 8009 bound_to 7997
  154.5664  140.0678  156.8882 H   0  0  0  0  0  0  0  0  0  0  0  0  # atno 8010 bound_to 7997
  139.4839  144.4639  151.8668 H   0  0  0  0  0  0  0  0  0  0  0  0  # atno 10167 bound_to 10162
  155.9999  130.4973  150.5571 H   0  0  0  0  0  0  0  0  0  0  0  0  # atno 10718 bound_to 10713
  153.1218  135.6721  153.9323 H   0  0  0  0  0  0  0  0  0  0  0  0  # atno 10763 bound_to 10752
  153.8836  135.3055  155.3447 H   0  0  0  0  0  0  0  0  0  0  0  0  # atno 10764 bound_to 10752
  154.7628  135.4979  153.9577 H   0  0  0  0  0  0  0  0  0  0  0  0  # atno 10765 bound_to 10752
  141.0573  133.9591  157.2730 H   0  0  0  0  0  0  0  0  0  0  0  0  # atno 11005 bound_to 11000
  144.6728  140.1009  143.7460 LP  0  0  0  0  0  0  0  0  0  0  0  0  # atno 17320 bound_to 7965
  145.9314  139.2609  143.1323 LP  0  0  0  0  0  0  0  0  0  0  0  0  # atno 17321 bound_to 7965
  140.4103  144.2378  150.5889 LP  0  0  0  0  0  0  0  0  0  0  0  0  # atno 17342 bound_to 10162
  140.4973  143.2328  151.8731 LP  0  0  0  0  0  0  0  0  0  0  0  0  # atno 17343 bound_to 10162
  157.3486  131.0729  151.1731 LP  0  0  0  0  0  0  0  0  0  0  0  0  # atno 17370 bound_to 10713
  157.2555  130.6634  149.5951 LP  0  0  0  0  0  0  0  0  0  0  0  0  # atno 17371 bound_to 10713
  139.9402  135.0192  156.8683 LP  0  0  0  0  0  0  0  0  0  0  0  0  # atno 17394 bound_to 11000
  140.5938  134.0237  155.7510 LP  0  0  0  0  0  0  0  0  0  0  0  0  # atno 17395 bound_to 11000

$$$$
