AV-unprocessed.smi:1046|AV-procd|sdf|4552|dock9
  -GOLD-   22720 2583D 1   1.00000     0.00000
 Structure written by MMmdl.
 54 56  0  0  0  0  0  0  0  0  3 V2000
  151.8916  144.7906  160.2790 C   0  0  0  0  0  0  0  0  0  0  0  0
  151.8323  143.6062  159.3294 C   0  0  0  0  0  0  0  0  0  0  0  0
  151.0136  143.7023  158.1817 C   0  0  0  0  0  0  0  0  0  0  0  0
  150.9825  142.6037  157.3311 C   0  0  0  0  0  0  0  0  0  0  0  0
  150.2855  142.3909  156.1402 N   0  3  0  0  0  0  0  0  0  0  0  0
  150.5765  141.1512  155.6585 C   0  0  0  0  0  0  0  0  0  0  0  0
  151.4481  140.5667  156.5253 N   0  0  0  0  0  0  0  0  0  0  0  0
  152.0754  139.2380  156.4682 C   0  0  0  0  0  0  0  0  0  0  0  0
  151.0508  138.0971  156.3102 C   0  0  2  0  0  0  0  0  0  0  0  0
  151.4808  136.9662  157.0436 O   0  0  0  0  0  0  0  0  0  0  0  0
  150.8714  137.6933  154.8327 C   0  0  0  0  0  0  0  0  0  0  0  0
  149.8576  136.6235  154.6461 N   0  3  0  0  0  0  0  0  0  0  0  0
  148.6541  136.8319  155.4925 C   0  0  0  0  0  0  0  0  0  0  0  0
  147.6032  135.7367  155.2167 C   0  0  0  0  0  0  0  0  0  0  0  0
  148.1142  134.3813  155.4197 N   0  0  0  0  0  0  0  0  0  0  0  0
  148.3206  134.0593  156.8356 C   0  0  0  0  0  0  0  0  0  0  0  0
  149.0982  132.7594  157.0976 C   0  0  0  0  0  0  0  0  0  0  0  0
  150.4419  133.0708  157.3933 O   0  0  0  0  0  0  0  0  0  0  0  0
  149.2976  134.2007  154.5756 C   0  0  0  0  0  0  0  0  0  0  0  0
  150.3984  135.2498  154.8324 C   0  0  0  0  0  0  0  0  0  0  0  0
  151.7298  141.4370  157.5864 C   0  0  0  0  0  0  0  0  0  0  0  0
  152.5390  141.3257  158.7152 C   0  0  0  0  0  0  0  0  0  0  0  0
  152.5831  142.4317  159.5938 C   0  0  0  0  0  0  0  0  0  0  0  0
  153.4574  142.3371  160.8331 C   0  0  0  0  0  0  0  0  0  0  0  0
  151.3106  145.6331  159.9026 H   0  0  0  0  0  0  0  0  0  0  0  0
  152.9201  145.1283  160.4090 H   0  0  0  0  0  0  0  0  0  0  0  0
  151.4898  144.5175  161.2552 H   0  0  0  0  0  0  0  0  0  0  0  0
  150.4371  144.5923  157.9752 H   0  0  0  0  0  0  0  0  0  0  0  0
  150.1863  140.7124  154.7516 H   0  0  0  0  0  0  0  0  0  0  0  0
  152.7531  139.2449  155.6135 H   0  0  0  0  0  0  0  0  0  0  0  0
  152.7013  139.0933  157.3491 H   0  0  0  0  0  0  0  0  0  0  0  0
  150.1027  138.4306  156.7310 H   0  0  0  0  0  0  0  0  0  0  0  0
  152.3890  136.7989  156.8411 H   0  0  0  0  0  0  0  0  0  0  0  0
  150.5902  138.5587  154.2304 H   0  0  0  0  0  0  0  0  0  0  0  0
  151.8352  137.3574  154.4466 H   0  0  0  0  0  0  0  0  0  0  0  0
  148.9374  136.8447  156.5460 H   0  0  0  0  0  0  0  0  0  0  0  0
  148.2185  137.8074  155.2730 H   0  0  0  0  0  0  0  0  0  0  0  0
  146.7249  135.8995  155.8425 H   0  0  0  0  0  0  0  0  0  0  0  0
  147.2546  135.8335  154.1875 H   0  0  0  0  0  0  0  0  0  0  0  0
  148.8151  134.8835  157.3491 H   0  0  0  0  0  0  0  0  0  0  0  0
  147.3445  133.9584  157.3124 H   0  0  0  0  0  0  0  0  0  0  0  0
  148.6663  132.2144  157.9376 H   0  0  0  0  0  0  0  0  0  0  0  0
  149.0829  132.0989  156.2310 H   0  0  0  0  0  0  0  0  0  0  0  0
  151.0011  132.5684  156.8201 H   0  0  0  0  0  0  0  0  0  0  0  0
  149.7039  133.1973  154.6958 H   0  0  0  0  0  0  0  0  0  0  0  0
  148.9949  134.2640  153.5294 H   0  0  0  0  0  0  0  0  0  0  0  0
  151.2192  135.0711  154.1393 H   0  0  0  0  0  0  0  0  0  0  0  0
  150.8106  135.1419  155.8363 H   0  0  0  0  0  0  0  0  0  0  0  0
  153.1119  140.4344  158.9209 H   0  0  0  0  0  0  0  0  0  0  0  0
  153.9088  141.3490  160.9287 H   0  0  0  0  0  0  0  0  0  0  0  0
  152.8713  142.5215  161.7337 H   0  0  0  0  0  0  0  0  0  0  0  0
  154.2636  143.0698  160.7875 H   0  0  0  0  0  0  0  0  0  0  0  0
  149.5419  136.6892  153.6886 H   0  0  0  0  0  0  0  0  0  0  0  0
  149.6583  143.0430  155.6866 H   0  0  0  0  0  0  0  0  0  0  0  0
  1  2  1  0  0  0  0
  1 25  1  0  0  0  0
  1 26  1  0  0  0  0
  1 27  1  0  0  0  0
  2 23  1  0  0  0  0
  2  3  2  0  0  0  0
  3  4  1  0  0  0  0
  3 28  1  0  0  0  0
  4 21  2  0  0  0  0
  4  5  1  0  0  0  0
  5  6  2  0  0  0  0
  5 54  1  0  0  0  0
  6  7  1  0  0  0  0
  6 29  1  0  0  0  0
  7  8  1  0  0  0  0
  7 21  1  0  0  0  0
  8  9  1  0  0  0  0
  8 30  1  0  0  0  0
  8 31  1  0  0  0  0
  9 10  1  0  0  0  0
  9 11  1  0  0  0  0
  9 32  1  0  0  0  0
 10 33  1  0  0  0  0
 11 12  1  0  0  0  0
 11 34  1  0  0  0  0
 11 35  1  0  0  0  0
 12 20  1  0  0  0  0
 12 13  1  0  0  0  0
 12 53  1  0  0  0  0
 13 14  1  0  0  0  0
 13 36  1  0  0  0  0
 13 37  1  0  0  0  0
 14 15  1  0  0  0  0
 14 38  1  0  0  0  0
 14 39  1  0  0  0  0
 15 16  1  0  0  0  0
 15 19  1  0  0  0  0
 16 17  1  0  0  0  0
 16 40  1  0  0  0  0
 16 41  1  0  0  0  0
 17 18  1  0  0  0  0
 17 42  1  0  0  0  0
 17 43  1  0  0  0  0
 18 44  1  0  0  0  0
 19 20  1  0  0  0  0
 19 45  1  0  0  0  0
 19 46  1  0  0  0  0
 20 47  1  0  0  0  0
 20 48  1  0  0  0  0
 21 22  1  0  0  0  0
 22 23  2  0  0  0  0
 22 49  1  0  0  0  0
 23 24  1  0  0  0  0
 24 50  1  0  0  0  0
 24 51  1  0  0  0  0
 24 52  1  0  0  0  0
M  CHG  1   5   1
M  CHG  1  12   1
M  END
> <s_m_source_file>
AV-unprocessed.smi

> <i_m_source_file_index>
1046

> <i_lp_mmshare_version>
43012

> <i_f3d_flags>
0

> <s_epik_input>
W0NIM11jKFtjSF0xKWMoW0NIM10pW2NIXWMoYzEyKW4oW2NIXW4yKVtDSDJdW0NASF0oW09IXSlbQ0gyXU4zW0NIMl1bQ0gyXU4oW0NIMl1bQ0gyXTMpW0NIMl1bQ0gyXVtPSF0=

> <s_epik_cmdline>
J2VwaWtfcHl0aG9uJywgJy1waCcsICc3LjAnLCAnLXRuJywgJzgnLCAnLW1hJywgJzIwMCcsICctbWV0YWxfYmluZGluZycsICctaW1hZScsICc8aW5maWxlLm1hZT4nLCAnLW9tYWUnLCAnPG91dGZpbGUubWFlPic=

> <r_epik_Ionization_Penalty>
1.22056

> <r_epik_Ionization_Penalty_Charging>
1.17959

> <r_epik_Ionization_Penalty_Neutral>
0.0409743

> <r_epik_State_Penalty>
1.27074

> <r_epik_Charging_Adjusted_Penalty>
2.45032

> <i_epik_Tot_Q>
2

> <i_epik_Tot_abs_Q>
2

> <r_epik_Metal_State_Penalty>
5.26922

> <b_epik_Metal_Only>
0

> <s_lp_Force_Field>
OPLS_2005

> <r_lp_Energy>
41.2385

> <b_lp_Chiralities_Consistent>
1

> <s_lp_Variant>
AV-unprocessed.smi:1046-5

> <Gold.Version>
5.8.1

> <Gold.Id.Protein>
6NUR|6NUR_protein|mol2

> <Gold.PLP.Fitness>
55.5396

> <Gold.PLP.PLP>
-42.6733

> <Gold.PLP.part.hbond>
-3.0000

> <Gold.PLP.part.metal>
0.0000

> <Gold.PLP.part.buried>
-5.9010

> <Gold.PLP.part.nonpolar>
-34.8139

> <Gold.PLP.part.repulsive>
0.1919

> <Gold.PLP.ligand.clash>
0.0000

> <Gold.PLP.ligand.torsion>
1.1178

> <Gold.PLP.Chemscore.Hbond>
5.0000

> <Gold.PLP.Chemscore.CHOScore>
0.0000

> <Gold.PLP.Chemscore.Metal>
0.0000

> <Gold.Chemscore.Hbonds>
donor molecule, donor type, donor heavy atom, donor atom, acceptor molecule, acceptor atom, score
      L1  H     5    54       P1  8028  1.95
      L1  H    12    53       P1  7948  2.00
      P1  H  6896  6909       L1    18  1.00

> <Gold.PLP.Chemscore.Internal.Correction>
0.1020

> <Gold.Rescore>
     Score         DG    S(hbond)    S(metal)    S(lipo)     H(rot)  DE(clash)    DE(int)     intcor
     18.09     -20.31       2.89        0.00     116.27       3.29       0.03       2.19       ----

> <Gold.Chemscore.Fitness>
18.0925

> <Gold.Chemscore.DG>
-20.3128

> <Gold.Chemscore.ZeroCoef>
-5.4800

> <Gold.Chemscore.Hbond>
2.8895

> <Gold.Chemscore.Metal>
0.0000

> <Gold.Chemscore.Lipo>
116.2688

> <Gold.Chemscore.Internal_Hbond>
0.0000

> <Gold.Chemscore.DEClash>
0.0339

> <Gold.Chemscore.DEInternal>
2.1863

> <Gold.Chemscore.Rot>
3.2896

> <Gold.Chemscore.Internal.Correction>
   9.000000E+99

> <Gold.Chemscore.Hbonds>
donor molecule, donor type, donor heavy atom, donor atom, acceptor molecule, acceptor atom, score
      L1  H     5    54       P1  8028  0.93
      L1  H    12    53       P1  7948  0.78
      P1  H  6896  6909       L1    18  0.91

> <Gold.Chemscore.Hbond.Weighted>
-9.6508

> <Gold.Chemscore.Metal.Weighted>
-0.0000

> <Gold.Chemscore.Lipo.Weighted>
-13.6034

> <Gold.Chemscore.Internal_Hbond.Weighted>
0.0000

> <Gold.Chemscore.DEClash.Weighted>
0.0339

> <Gold.Chemscore.DEInternal.Weighted>
2.1863

> <Gold.Chemscore.Rot.Weighted>
8.4215

> <Gold.Chemscore.Internal.Correction.Weighted>
   9.000000E+99

> <Gold.Protein.RotatedTorsions>
[ 6907 6896 6895 6894 ] final  -26.61 input  -60.11 | X-H torsion
[ 7974 7965 7964 7962 ] final -100.44 input  175.53 | X-H torsion
[ 8008 7997 7996 7995 ] final -145.97 input   59.86 | X-H torsion
[ 10167 10162 10161 10158 ] final -138.74 input  -65.29 | X-H torsion
[ 10718 10713 10712 10709 ] final   33.59 input   66.30 | X-H torsion
[ 10763 10752 10751 10750 ] final   32.96 input  -60.55 | X-H torsion
[ 11005 11000 10999 10996 ] final   79.08 input  -57.11 | X-H torsion

> <Gold.Protein.ActiveResidues>
 VAL166  LYS551  ARG553  GLY616  TRP617  ASP618  TYR619  PRO620  LYS621  CYS622 
 ASP623  PHE694  ASN695  SER759  ASP760  ASP761  ALA762  ILE779  LEU786  VAL792 
 PHE793  MET794  SER795  GLU796  ALA797  LYS798  CYS799  TRP800  GLU811  SER814 

> <Gold.Protein.RotatedAtoms>
  151.1585  135.0262  159.8699 H   0  0  0  0  0  0  0  0  0  0  0  0  # atno 6907 bound_to 6896
  152.5452  134.1306  159.8447 H   0  0  0  0  0  0  0  0  0  0  0  0  # atno 6908 bound_to 6896
  151.1399  133.4932  159.2629 H   0  0  0  0  0  0  0  0  0  0  0  0  # atno 6909 bound_to 6896
  145.2945  140.9361  143.2858 H   0  0  0  0  0  0  0  0  0  0  0  0  # atno 7974 bound_to 7965
  155.5518  140.0617  157.2848 H   0  0  0  0  0  0  0  0  0  0  0  0  # atno 8008 bound_to 7997
  154.4418  140.1901  156.0738 H   0  0  0  0  0  0  0  0  0  0  0  0  # atno 8009 bound_to 7997
  156.0511  140.3284  155.7355 H   0  0  0  0  0  0  0  0  0  0  0  0  # atno 8010 bound_to 7997
  139.8448  143.7274  152.2661 H   0  0  0  0  0  0  0  0  0  0  0  0  # atno 10167 bound_to 10162
  157.2997  130.7344  149.6660 H   0  0  0  0  0  0  0  0  0  0  0  0  # atno 10718 bound_to 10713
  153.0235  135.6399  154.1437 H   0  0  0  0  0  0  0  0  0  0  0  0  # atno 10763 bound_to 10752
  154.1169  135.2849  155.3219 H   0  0  0  0  0  0  0  0  0  0  0  0  # atno 10764 bound_to 10752
  154.6291  135.5498  153.7723 H   0  0  0  0  0  0  0  0  0  0  0  0  # atno 10765 bound_to 10752
  139.9187  134.7814  156.1732 H   0  0  0  0  0  0  0  0  0  0  0  0  # atno 11005 bound_to 11000
  144.9145  139.4488  143.6571 LP  0  0  0  0  0  0  0  0  0  0  0  0  # atno 17320 bound_to 7965
  146.3173  139.7971  142.8973 LP  0  0  0  0  0  0  0  0  0  0  0  0  # atno 17321 bound_to 7965
  139.7523  144.7530  151.0488 LP  0  0  0  0  0  0  0  0  0  0  0  0  # atno 17342 bound_to 10162
  140.7794  143.4846  150.9973 LP  0  0  0  0  0  0  0  0  0  0  0  0  # atno 17343 bound_to 10162
  155.9671  130.4283  150.4784 LP  0  0  0  0  0  0  0  0  0  0  0  0  # atno 17370 bound_to 10713
  157.2763  131.0597  151.2227 LP  0  0  0  0  0  0  0  0  0  0  0  0  # atno 17371 bound_to 10713
  141.0687  133.6807  156.2097 LP  0  0  0  0  0  0  0  0  0  0  0  0  # atno 17394 bound_to 11000
  140.6542  134.5035  157.5579 LP  0  0  0  0  0  0  0  0  0  0  0  0  # atno 17395 bound_to 11000

$$$$
