AV-unprocessed.smi:2329|AV-procd|sdf|9302|dock8
  -GOLD-   2272012523D 1   1.00000     0.00000
 Structure written by MMmdl.
 45 48  0  0  0  0  0  0  0  0  1 V2000
  145.2879  131.4707  150.8092 C   0  0  0  0  0  0  0  0  0  0  0  0
  144.8776  132.7720  151.4654 C   0  0  0  0  0  0  0  0  0  0  0  0
  143.5206  133.0726  151.6956 C   0  0  0  0  0  0  0  0  0  0  0  0
  143.2079  134.2991  152.3088 C   0  0  0  0  0  0  0  0  0  0  0  0
  144.2573  135.1682  152.6638 C   0  0  0  0  0  0  0  0  0  0  0  0
  145.5923  134.7905  152.3966 C   0  0  0  0  0  0  0  0  0  0  0  0
  146.5738  135.7330  152.7985 N   0  0  0  0  0  0  0  0  0  0  0  0
  146.4610  136.7276  153.7001 C   0  0  0  0  0  0  0  0  0  0  0  0
  145.4784  136.9211  154.4136 O   0  0  0  0  0  0  0  0  0  0  0  0
  147.5420  137.5234  153.7725 N   0  0  0  0  0  0  0  0  0  0  0  0
  147.7430  138.6846  154.6407 C   0  0  2  0  0  0  0  0  0  0  0  0
  147.6549  139.9988  153.8641 C   0  0  1  0  0  0  0  0  0  0  0  0
  146.6902  141.1301  153.8399 C   0  0  0  0  0  0  0  0  0  0  0  0
  147.7181  142.2905  153.9097 C   0  0  0  0  0  0  0  0  0  0  0  0
  148.9927  141.6739  154.2136 O   0  0  0  0  0  0  0  0  0  0  0  0
  148.6420  140.4905  154.9018 C   0  0  2  0  0  0  0  0  0  0  0  0
  149.2548  139.0762  154.8747 C   0  0  0  0  0  0  0  0  0  0  0  0
  149.9110  138.5959  156.1750 C   0  0  0  0  0  0  0  0  0  0  0  0
  151.1132  137.7073  155.8314 C   0  0  0  0  0  0  0  0  0  0  0  0
  151.1024  137.5495  154.3144 C   0  0  0  0  0  0  0  0  0  0  0  0
  150.3134  138.7526  153.8062 C   0  0  0  0  0  0  0  0  0  0  0  0
  145.8840  133.6056  151.8050 N   0  0  0  0  0  0  0  0  0  0  0  0
  144.4288  130.8177  150.6532 H   0  0  0  0  0  0  0  0  0  0  0  0
  146.0083  130.9408  151.4329 H   0  0  0  0  0  0  0  0  0  0  0  0
  145.7490  131.6656  149.8407 H   0  0  0  0  0  0  0  0  0  0  0  0
  142.7384  132.3841  151.4114 H   0  0  0  0  0  0  0  0  0  0  0  0
  142.1808  134.5691  152.5044 H   0  0  0  0  0  0  0  0  0  0  0  0
  144.0348  136.1133  153.1374 H   0  0  0  0  0  0  0  0  0  0  0  0
  147.4526  135.6804  152.3051 H   0  0  0  0  0  0  0  0  0  0  0  0
  148.3146  137.2895  153.1655 H   0  0  0  0  0  0  0  0  0  0  0  0
  147.1281  138.6812  155.5455 H   0  0  0  0  0  0  0  0  0  0  0  0
  148.1092  139.8878  152.8750 H   0  0  0  0  0  0  0  0  0  0  0  0
  146.0895  141.1558  152.9303 H   0  0  0  0  0  0  0  0  0  0  0  0
  146.0269  141.1184  154.7059 H   0  0  0  0  0  0  0  0  0  0  0  0
  147.7902  142.8292  152.9645 H   0  0  0  0  0  0  0  0  0  0  0  0
  147.4452  143.0052  154.6871 H   0  0  0  0  0  0  0  0  0  0  0  0
  148.1892  140.7252  155.8721 H   0  0  0  0  0  0  0  0  0  0  0  0
  150.2453  139.4432  156.7748 H   0  0  0  0  0  0  0  0  0  0  0  0
  149.2016  138.0493  156.7956 H   0  0  0  0  0  0  0  0  0  0  0  0
  152.0340  138.1986  156.1469 H   0  0  0  0  0  0  0  0  0  0  0  0
  151.0674  136.7418  156.3361 H   0  0  0  0  0  0  0  0  0  0  0  0
  152.1054  137.4956  153.8902 H   0  0  0  0  0  0  0  0  0  0  0  0
  150.5822  136.6294  154.0466 H   0  0  0  0  0  0  0  0  0  0  0  0
  149.8950  138.5455  152.8216 H   0  0  0  0  0  0  0  0  0  0  0  0
  150.9877  139.6016  153.6869 H   0  0  0  0  0  0  0  0  0  0  0  0
  1  2  1  0  0  0  0
  1 23  1  0  0  0  0
  1 24  1  0  0  0  0
  1 25  1  0  0  0  0
  2 22  1  0  0  0  0
  2  3  2  0  0  0  0
  3  4  1  0  0  0  0
  3 26  1  0  0  0  0
  4  5  2  0  0  0  0
  4 27  1  0  0  0  0
  5  6  1  0  0  0  0
  5 28  1  0  0  0  0
  6  7  1  0  0  0  0
  6 22  2  0  0  0  0
  7  8  1  0  0  0  0
  7 29  1  0  0  0  0
  8  9  2  0  0  0  0
  8 10  1  0  0  0  0
 10 11  1  0  0  0  0
 10 30  1  0  0  0  0
 11 17  1  0  0  0  0
 11 12  1  0  0  0  0
 11 31  1  0  0  0  0
 12 16  1  0  0  0  0
 12 13  1  0  0  0  0
 12 32  1  0  0  0  0
 13 14  1  0  0  0  0
 13 33  1  0  0  0  0
 13 34  1  0  0  0  0
 14 15  1  0  0  0  0
 14 35  1  0  0  0  0
 14 36  1  0  0  0  0
 15 16  1  0  0  0  0
 16 17  1  0  0  0  0
 16 37  1  0  0  0  0
 17 21  1  0  0  0  0
 17 18  1  0  0  0  0
 18 19  1  0  0  0  0
 18 38  1  0  0  0  0
 18 39  1  0  0  0  0
 19 20  1  0  0  0  0
 19 40  1  0  0  0  0
 19 41  1  0  0  0  0
 20 21  1  0  0  0  0
 20 42  1  0  0  0  0
 20 43  1  0  0  0  0
 21 44  1  0  0  0  0
 21 45  1  0  0  0  0
M  END
> <s_m_source_file>
AV-unprocessed.smi

> <i_m_source_file_index>
2329

> <i_lp_mmshare_version>
43012

> <i_f3d_flags>
0

> <s_epik_input>
W0NIM11jMVtjSF1bY0hdW2NIXWMobjEpW05IXUMoPU8pW05IXVtDQEBIXTJbQ0BASF0oW0NIMl1bQ0gyXU8zKVtDQEhdM0MyNFtDSDJdW0NIMl1bQ0gyXVtDSDJdNA==

> <s_epik_cmdline>
J2VwaWtfcHl0aG9uJywgJy1waCcsICc3LjAnLCAnLXRuJywgJzgnLCAnLW1hJywgJzIwMCcsICctbWV0YWxfYmluZGluZycsICctaW1hZScsICc8aW5maWxlLm1hZT4nLCAnLW9tYWUnLCAnPG91dGZpbGUubWFlPic=

> <r_lp_tautomer_probability>
1

> <r_epik_Ionization_Penalty>
8.97002e-05

> <r_epik_Ionization_Penalty_Charging>
0

> <r_epik_Ionization_Penalty_Neutral>
8.97002e-05

> <r_epik_State_Penalty>
-0

> <r_epik_Charging_Adjusted_Penalty>
0

> <i_epik_Tot_Q>
0

> <i_epik_Tot_abs_Q>
0

> <r_epik_Metal_State_Penalty>
-0

> <b_epik_Metal_Only>
0

> <s_lp_Force_Field>
OPLS_2005

> <r_lp_Energy>
86.3971

> <b_lp_Chiralities_Consistent>
1

> <s_lp_Variant>
AV-unprocessed.smi:2329-1

> <Gold.Version>
5.8.1

> <Gold.Id.Protein>
6NUR|6NUR_protein|mol2

> <Gold.PLP.Fitness>
36.1813

> <Gold.PLP.PLP>
-30.2368

> <Gold.PLP.part.hbond>
-3.0228

> <Gold.PLP.part.metal>
0.0000

> <Gold.PLP.part.buried>
-2.9786

> <Gold.PLP.part.nonpolar>
-24.4927

> <Gold.PLP.part.repulsive>
0.3771

> <Gold.PLP.ligand.clash>
0.0000

> <Gold.PLP.ligand.torsion>
0.3227

> <Gold.PLP.Chemscore.Hbond>
2.1034

> <Gold.PLP.Chemscore.CHOScore>
0.0000

> <Gold.PLP.Chemscore.Metal>
0.0000

> <Gold.Chemscore.Hbonds>
donor molecule, donor type, donor heavy atom, donor atom, acceptor molecule, acceptor atom, score
      L1  H     7    29       P1  7948  1.00
      L1  H    10    30       P1  7948  0.98
      P1  H  8011  8017       L1    15  0.18

> <Gold.PLP.Chemscore.Internal.Correction>
0.2796

> <Gold.Rescore>
     Score         DG    S(hbond)    S(metal)    S(lipo)     H(rot)  DE(clash)    DE(int)     intcor
     17.75     -19.60       1.92        0.00      87.90       1.00       0.11       1.75       ----

> <Gold.Chemscore.Fitness>
17.7471

> <Gold.Chemscore.DG>
-19.6030

> <Gold.Chemscore.ZeroCoef>
-5.4800

> <Gold.Chemscore.Hbond>
1.9157

> <Gold.Chemscore.Metal>
0.0000

> <Gold.Chemscore.Lipo>
87.9029

> <Gold.Chemscore.Internal_Hbond>
0.0000

> <Gold.Chemscore.DEClash>
0.1096

> <Gold.Chemscore.DEInternal>
1.7462

> <Gold.Chemscore.Rot>
1.0000

> <Gold.Chemscore.Internal.Correction>
   9.000000E+99

> <Gold.Chemscore.Hbonds>
donor molecule, donor type, donor heavy atom, donor atom, acceptor molecule, acceptor atom, score
      L1  H     7    29       P1  7948  0.98
      L1  H    10    30       P1  7948  0.92
      P1  H  8011  8017       L1    15  0.01

> <Gold.Chemscore.Hbond.Weighted>
-6.3983

> <Gold.Chemscore.Metal.Weighted>
-0.0000

> <Gold.Chemscore.Lipo.Weighted>
-10.2846

> <Gold.Chemscore.Internal_Hbond.Weighted>
0.0000

> <Gold.Chemscore.DEClash.Weighted>
0.1096

> <Gold.Chemscore.DEInternal.Weighted>
1.7462

> <Gold.Chemscore.Rot.Weighted>
2.5600

> <Gold.Chemscore.Internal.Correction.Weighted>
   9.000000E+99

> <Gold.Protein.RotatedTorsions>
[ 6907 6896 6895 6894 ] final  -93.37 input  -60.11 | X-H torsion
[ 7974 7965 7964 7962 ] final  -43.61 input  175.53 | X-H torsion
[ 8008 7997 7996 7995 ] final   -1.05 input   59.86 | X-H torsion
[ 10167 10162 10161 10158 ] final   35.37 input  -65.29 | X-H torsion
[ 10718 10713 10712 10709 ] final  162.12 input   66.30 | X-H torsion
[ 10763 10752 10751 10750 ] final   48.85 input  -60.55 | X-H torsion
[ 11005 11000 10999 10996 ] final -129.90 input  -57.11 | X-H torsion

> <Gold.Protein.ActiveResidues>
 VAL166  LYS551  ARG553  GLY616  TRP617  ASP618  TYR619  PRO620  LYS621  CYS622 
 ASP623  PHE694  ASN695  SER759  ASP760  ASP761  ALA762  ILE779  LEU786  VAL792 
 PHE793  MET794  SER795  GLU796  ALA797  LYS798  CYS799  TRP800  GLU811  SER814 

> <Gold.Protein.RotatedAtoms>
  150.6921  134.1977  159.4309 H   0  0  0  0  0  0  0  0  0  0  0  0  # atno 6907 bound_to 6896
  151.9945  134.9959  160.0572 H   0  0  0  0  0  0  0  0  0  0  0  0  # atno 6908 bound_to 6896
  152.1636  133.4563  159.4910 H   0  0  0  0  0  0  0  0  0  0  0  0  # atno 6909 bound_to 6896
  146.0002  140.7083  142.9274 H   0  0  0  0  0  0  0  0  0  0  0  0  # atno 7974 bound_to 7965
  154.6511  140.2569  155.7212 H   0  0  0  0  0  0  0  0  0  0  0  0  # atno 8008 bound_to 7997
  156.2575  140.2867  156.0866 H   0  0  0  0  0  0  0  0  0  0  0  0  # atno 8009 bound_to 7997
  155.1449  140.0381  157.2797 H   0  0  0  0  0  0  0  0  0  0  0  0  # atno 8010 bound_to 7997
  140.4228  144.1436  150.6150 H   0  0  0  0  0  0  0  0  0  0  0  0  # atno 10167 bound_to 10162
  157.1270  131.0507  151.2389 H   0  0  0  0  0  0  0  0  0  0  0  0  # atno 10718 bound_to 10713
  152.9789  135.5931  154.3994 H   0  0  0  0  0  0  0  0  0  0  0  0  # atno 10763 bound_to 10752
  154.3641  135.2767  155.2305 H   0  0  0  0  0  0  0  0  0  0  0  0  # atno 10764 bound_to 10752
  154.4290  135.6041  153.6111 H   0  0  0  0  0  0  0  0  0  0  0  0  # atno 10765 bound_to 10752
  140.9392  134.1216  157.4166 H   0  0  0  0  0  0  0  0  0  0  0  0  # atno 11005 bound_to 11000
  144.6917  140.3220  143.7231 LP  0  0  0  0  0  0  0  0  0  0  0  0  # atno 17320 bound_to 7965
  145.7499  139.1790  143.2327 LP  0  0  0  0  0  0  0  0  0  0  0  0  # atno 17321 bound_to 7965
  140.4515  143.2485  151.9342 LP  0  0  0  0  0  0  0  0  0  0  0  0  # atno 17342 bound_to 10162
  139.4783  144.5558  151.8316 LP  0  0  0  0  0  0  0  0  0  0  0  0  # atno 17343 bound_to 10162
  157.4426  130.7553  149.7082 LP  0  0  0  0  0  0  0  0  0  0  0  0  # atno 17370 bound_to 10713
  155.9816  130.4018  150.3463 LP  0  0  0  0  0  0  0  0  0  0  0  0  # atno 17371 bound_to 10713
  139.8816  135.0031  156.6166 LP  0  0  0  0  0  0  0  0  0  0  0  0  # atno 17394 bound_to 11000
  140.7757  133.8701  155.8527 LP  0  0  0  0  0  0  0  0  0  0  0  0  # atno 17395 bound_to 11000

$$$$
