AV-unprocessed.smi:2339|AV-procd|sdf|9336|dock7
  -GOLD-   2272012553D 1   1.00000     0.00000
 Structure written by MMmdl.
 49 52  0  0  0  0  0  0  0  0  1 V2000
  145.0270  131.6409  161.0712 C   0  0  0  0  0  0  0  0  0  0  0  0
  146.5398  131.8674  160.9755 C   0  0  0  0  0  0  0  0  0  0  0  0
  146.8889  133.2680  161.1642 N   0  0  0  0  0  0  0  0  0  0  0  0
  146.5545  133.9455  162.3319 C   0  0  0  0  0  0  0  0  0  0  0  0
  146.7975  135.2537  162.5410 C   0  0  0  0  0  0  0  0  0  0  0  0
  147.4535  136.0463  161.4817 C   0  0  0  0  0  0  0  0  0  0  0  0
  147.6924  137.2429  161.6416 O   0  0  0  0  0  0  0  0  0  0  0  0
  147.8029  135.3245  160.2294 C   0  0  0  0  0  0  0  0  0  0  0  0
  148.4396  136.0818  159.2329 N   0  0  0  0  0  0  0  0  0  0  0  0
  149.5887  136.7855  159.2920 C   0  0  0  0  0  0  0  0  0  0  0  0
  150.3409  136.8400  160.2624 O   0  0  0  0  0  0  0  0  0  0  0  0
  149.8682  137.4625  158.1641 N   0  0  0  0  0  0  0  0  0  0  0  0
  151.0275  138.3164  157.8985 C   0  0  2  0  0  0  0  0  0  0  0  0
  151.4774  139.0841  159.1498 C   0  0  1  0  0  0  0  0  0  0  0  0
  152.7992  138.7586  159.7901 C   0  0  0  0  0  0  0  0  0  0  0  0
  153.7492  139.7722  159.1446 C   0  0  0  0  0  0  0  0  0  0  0  0
  153.0933  140.1661  157.9412 O   0  0  0  0  0  0  0  0  0  0  0  0
  151.7004  140.2708  158.2282 C   0  0  1  0  0  0  0  0  0  0  0  0
  150.7288  139.6679  157.1882 C   0  0  0  0  0  0  0  0  0  0  0  0
  149.2961  140.2455  157.2194 C   0  0  0  0  0  0  0  0  0  0  0  0
  149.0533  140.9599  155.8919 C   0  0  0  0  0  0  0  0  0  0  0  0
  149.9114  140.1855  154.9034 C   0  0  0  0  0  0  0  0  0  0  0  0
  151.1459  139.8016  155.7161 C   0  0  0  0  0  0  0  0  0  0  0  0
  147.5056  134.0021  160.1529 C   0  0  0  0  0  0  0  0  0  0  0  0
  144.7832  130.5889  160.9236 H   0  0  0  0  0  0  0  0  0  0  0  0
  144.4940  132.2160  160.3137 H   0  0  0  0  0  0  0  0  0  0  0  0
  144.6460  131.9371  162.0490 H   0  0  0  0  0  0  0  0  0  0  0  0
  147.0536  131.2611  161.7225 H   0  0  0  0  0  0  0  0  0  0  0  0
  146.9036  131.5291  160.0047 H   0  0  0  0  0  0  0  0  0  0  0  0
  146.0788  133.3314  163.0828 H   0  0  0  0  0  0  0  0  0  0  0  0
  146.5224  135.7380  163.4665 H   0  0  0  0  0  0  0  0  0  0  0  0
  147.9528  136.1012  158.3483 H   0  0  0  0  0  0  0  0  0  0  0  0
  149.1947  137.3900  157.4155 H   0  0  0  0  0  0  0  0  0  0  0  0
  151.8639  137.7847  157.4387 H   0  0  0  0  0  0  0  0  0  0  0  0
  150.6601  139.2678  159.8497 H   0  0  0  0  0  0  0  0  0  0  0  0
  152.7776  138.8646  160.8748 H   0  0  0  0  0  0  0  0  0  0  0  0
  153.1036  137.7374  159.5585 H   0  0  0  0  0  0  0  0  0  0  0  0
  153.8689  140.6468  159.7855 H   0  0  0  0  0  0  0  0  0  0  0  0
  154.7370  139.3566  158.9456 H   0  0  0  0  0  0  0  0  0  0  0  0
  151.4170  141.2320  158.6593 H   0  0  0  0  0  0  0  0  0  0  0  0
  148.5457  139.4631  157.3179 H   0  0  0  0  0  0  0  0  0  0  0  0
  149.1381  140.9239  158.0583 H   0  0  0  0  0  0  0  0  0  0  0  0
  148.0001  140.9841  155.6105 H   0  0  0  0  0  0  0  0  0  0  0  0
  149.4074  141.9896  155.9572 H   0  0  0  0  0  0  0  0  0  0  0  0
  149.3843  139.2844  154.5869 H   0  0  0  0  0  0  0  0  0  0  0  0
  150.1552  140.7620  154.0107 H   0  0  0  0  0  0  0  0  0  0  0  0
  151.8933  140.5886  155.6094 H   0  0  0  0  0  0  0  0  0  0  0  0
  151.6020  138.8909  155.3293 H   0  0  0  0  0  0  0  0  0  0  0  0
  147.7433  133.3946  159.2945 H   0  0  0  0  0  0  0  0  0  0  0  0
  1  2  1  0  0  0  0
  1 25  1  0  0  0  0
  1 26  1  0  0  0  0
  1 27  1  0  0  0  0
  2  3  1  0  0  0  0
  2 28  1  0  0  0  0
  2 29  1  0  0  0  0
  3 24  1  0  0  0  0
  3  4  1  0  0  0  0
  4  5  2  0  0  0  0
  4 30  1  0  0  0  0
  5  6  1  0  0  0  0
  5 31  1  0  0  0  0
  6  7  2  0  0  0  0
  6  8  1  0  0  0  0
  8  9  1  0  0  0  0
  8 24  2  0  0  0  0
  9 10  1  0  0  0  0
  9 32  1  0  0  0  0
 10 11  2  0  0  0  0
 10 12  1  0  0  0  0
 12 13  1  0  0  0  0
 12 33  1  0  0  0  0
 13 19  1  0  0  0  0
 13 14  1  0  0  0  0
 13 34  1  0  0  0  0
 14 18  1  0  0  0  0
 14 15  1  0  0  0  0
 14 35  1  0  0  0  0
 15 16  1  0  0  0  0
 15 36  1  0  0  0  0
 15 37  1  0  0  0  0
 16 17  1  0  0  0  0
 16 38  1  0  0  0  0
 16 39  1  0  0  0  0
 17 18  1  0  0  0  0
 18 19  1  0  0  0  0
 18 40  1  0  0  0  0
 19 23  1  0  0  0  0
 19 20  1  0  0  0  0
 20 21  1  0  0  0  0
 20 41  1  0  0  0  0
 20 42  1  0  0  0  0
 21 22  1  0  0  0  0
 21 43  1  0  0  0  0
 21 44  1  0  0  0  0
 22 23  1  0  0  0  0
 22 45  1  0  0  0  0
 22 46  1  0  0  0  0
 23 47  1  0  0  0  0
 23 48  1  0  0  0  0
 24 49  1  0  0  0  0
M  END
> <s_m_source_file>
AV-unprocessed.smi

> <i_m_source_file_index>
2339

> <i_lp_mmshare_version>
43012

> <i_f3d_flags>
0

> <s_epik_input>
W0NIM11bQ0gyXW4xW2NIXVtjSF1jKD1PKWMoW2NIXTEpW05IXUMoPU8pW05IXVtDQEBIXTJbQ0BASF0oW0NIMl1bQ0gyXU8zKVtDQEBIXTNDMjRbQ0gyXVtDSDJdW0NIMl1bQ0gyXTQ=

> <s_epik_cmdline>
J2VwaWtfcHl0aG9uJywgJy1waCcsICc3LjAnLCAnLXRuJywgJzgnLCAnLW1hJywgJzIwMCcsICctbWV0YWxfYmluZGluZycsICctaW1hZScsICc8aW5maWxlLm1hZT4nLCAnLW9tYWUnLCAnPG91dGZpbGUubWFlPic=

> <r_lp_tautomer_probability>
1

> <r_epik_Ionization_Penalty>
0.00145966

> <r_epik_Ionization_Penalty_Charging>
0.00143969

> <r_epik_Ionization_Penalty_Neutral>
1.99697e-05

> <r_epik_State_Penalty>
0.000961843

> <r_epik_Charging_Adjusted_Penalty>
0.00240153

> <i_epik_Tot_Q>
0

> <i_epik_Tot_abs_Q>
0

> <r_epik_Metal_State_Penalty>
-0

> <b_epik_Metal_Only>
0

> <s_lp_Force_Field>
OPLS_2005

> <r_lp_Energy>
57.0786

> <b_lp_Chiralities_Consistent>
1

> <s_lp_Variant>
AV-unprocessed.smi:2339-1

> <Gold.Version>
5.8.1

> <Gold.Id.Protein>
6NUR|6NUR_protein|mol2

> <Gold.PLP.Fitness>
43.7326

> <Gold.PLP.PLP>
-34.2065

> <Gold.PLP.part.hbond>
-4.9679

> <Gold.PLP.part.metal>
0.0000

> <Gold.PLP.part.buried>
0.3165

> <Gold.PLP.part.nonpolar>
-30.3641

> <Gold.PLP.part.repulsive>
0.2503

> <Gold.PLP.ligand.clash>
0.0000

> <Gold.PLP.ligand.torsion>
0.8231

> <Gold.PLP.Chemscore.Hbond>
3.6640

> <Gold.PLP.Chemscore.CHOScore>
0.0000

> <Gold.PLP.Chemscore.Metal>
0.0000

> <Gold.Chemscore.Hbonds>
donor molecule, donor type, donor heavy atom, donor atom, acceptor molecule, acceptor atom, score
      P1  H  6896  6908       L1    11  0.95
      P1  H  6931  6943       L1     7  0.99
      P1  H  6934  6947       L1     7  0.72
      P1  H  7997  8009       L1    17  0.94

> <Gold.PLP.Chemscore.Internal.Correction>
0.1803

> <Gold.Rescore>
     Score         DG    S(hbond)    S(metal)    S(lipo)     H(rot)  DE(clash)    DE(int)     intcor
     20.56     -23.49       3.47        0.00      80.42       1.17       0.61       2.32       ----

> <Gold.Chemscore.Fitness>
20.5629

> <Gold.Chemscore.DG>
-23.4910

> <Gold.Chemscore.ZeroCoef>
-5.4800

> <Gold.Chemscore.Hbond>
3.4697

> <Gold.Chemscore.Metal>
0.0000

> <Gold.Chemscore.Lipo>
80.4239

> <Gold.Chemscore.Internal_Hbond>
0.0000

> <Gold.Chemscore.DEClash>
0.6091

> <Gold.Chemscore.DEInternal>
2.3190

> <Gold.Chemscore.Rot>
1.1670

> <Gold.Chemscore.Internal.Correction>
   9.000000E+99

> <Gold.Chemscore.Hbonds>
donor molecule, donor type, donor heavy atom, donor atom, acceptor molecule, acceptor atom, score
      P1  H  6896  6908       L1    11  0.20
      P1  H  6931  6943       L1     7  0.94
      P1  H  6934  6947       L1     7  0.70
      P1  H  7997  8009       L1    17  0.23

> <Gold.Chemscore.Hbond.Weighted>
-11.5888

> <Gold.Chemscore.Metal.Weighted>
-0.0000

> <Gold.Chemscore.Lipo.Weighted>
-9.4096

> <Gold.Chemscore.Internal_Hbond.Weighted>
0.0000

> <Gold.Chemscore.DEClash.Weighted>
0.6091

> <Gold.Chemscore.DEInternal.Weighted>
2.3190

> <Gold.Chemscore.Rot.Weighted>
2.9874

> <Gold.Chemscore.Internal.Correction.Weighted>
   9.000000E+99

> <Gold.Protein.RotatedTorsions>
[ 6907 6896 6895 6894 ] final -130.57 input  -60.11 | X-H torsion
[ 7974 7965 7964 7962 ] final  137.63 input  175.53 | X-H torsion
[ 8008 7997 7996 7995 ] final  170.01 input   59.86 | X-H torsion
[ 10167 10162 10161 10158 ] final -128.07 input  -65.29 | X-H torsion
[ 10718 10713 10712 10709 ] final  112.71 input   66.30 | X-H torsion
[ 10763 10752 10751 10750 ] final -175.22 input  -60.55 | X-H torsion
[ 11005 11000 10999 10996 ] final -148.94 input  -57.11 | X-H torsion

> <Gold.Protein.ActiveResidues>
 VAL166  LYS551  ARG553  GLY616  TRP617  ASP618  TYR619  PRO620  LYS621  CYS622 
 ASP623  PHE694  ASN695  SER759  ASP760  ASP761  ALA762  ILE779  LEU786  VAL792 
 PHE793  MET794  SER795  GLU796  ALA797  LYS798  CYS799  TRP800  GLU811  SER814 

> <Gold.Protein.RotatedAtoms>
  150.9412  133.6654  159.2790 H   0  0  0  0  0  0  0  0  0  0  0  0  # atno 6907 bound_to 6896
  151.4042  135.0974  159.9575 H   0  0  0  0  0  0  0  0  0  0  0  0  # atno 6908 bound_to 6896
  152.5070  133.8899  159.7443 H   0  0  0  0  0  0  0  0  0  0  0  0  # atno 6909 bound_to 6896
  144.9449  139.4886  143.5554 H   0  0  0  0  0  0  0  0  0  0  0  0  # atno 7974 bound_to 7965
  156.1405  140.1549  156.8928 H   0  0  0  0  0  0  0  0  0  0  0  0  # atno 8008 bound_to 7997
  154.4983  140.0832  156.7783 H   0  0  0  0  0  0  0  0  0  0  0  0  # atno 8009 bound_to 7997
  155.4087  140.3418  155.4264 H   0  0  0  0  0  0  0  0  0  0  0  0  # atno 8010 bound_to 7997
  139.9542  143.6022  152.2466 H   0  0  0  0  0  0  0  0  0  0  0  0  # atno 10167 bound_to 10162
  157.6378  131.0972  150.6934 H   0  0  0  0  0  0  0  0  0  0  0  0  # atno 10718 bound_to 10713
  154.5870  135.2841  155.0674 H   0  0  0  0  0  0  0  0  0  0  0  0  # atno 10763 bound_to 10752
  154.1989  135.6428  153.5085 H   0  0  0  0  0  0  0  0  0  0  0  0  # atno 10764 bound_to 10752
  153.0108  135.5464  154.6543 H   0  0  0  0  0  0  0  0  0  0  0  0  # atno 10765 bound_to 10752
  140.7560  134.3352  157.5114 H   0  0  0  0  0  0  0  0  0  0  0  0  # atno 11005 bound_to 11000
  146.3300  139.8495  142.8875 LP  0  0  0  0  0  0  0  0  0  0  0  0  # atno 17320 bound_to 7965
  145.2933  141.0173  143.3651 LP  0  0  0  0  0  0  0  0  0  0  0  0  # atno 17321 bound_to 7965
  139.6605  144.7662  151.1973 LP  0  0  0  0  0  0  0  0  0  0  0  0  # atno 17342 bound_to 10162
  140.7573  143.6018  150.8692 LP  0  0  0  0  0  0  0  0  0  0  0  0  # atno 17343 bound_to 10162
  156.7263  130.4696  149.5510 LP  0  0  0  0  0  0  0  0  0  0  0  0  # atno 17370 bound_to 10713
  156.1632  130.6388  151.0745 LP  0  0  0  0  0  0  0  0  0  0  0  0  # atno 17371 bound_to 10713
  139.8779  134.9172  156.3173 LP  0  0  0  0  0  0  0  0  0  0  0  0  # atno 17394 bound_to 11000
  140.9707  133.7329  156.0531 LP  0  0  0  0  0  0  0  0  0  0  0  0  # atno 17395 bound_to 11000

$$$$
