AV-unprocessed.smi:1844|AV-procd|sdf|7511|dock8
  -GOLD-   22720 9213D 1   1.00000     0.00000
 Structure written by MMmdl.
 45 46  0  0  0  0  0  0  0  0  1 V2000
  148.8093  133.6715  154.0907 C   0  0  0  0  0  0  0  0  0  0  0  0
  149.5103  134.9317  154.2851 N   0  0  0  0  0  0  0  0  0  0  0  0
  150.1894  135.2614  155.3960 C   0  0  0  0  0  0  0  0  0  0  0  0
  150.2678  134.4951  156.3577 O   0  0  0  0  0  0  0  0  0  0  0  0
  150.8055  136.5894  155.3411 C   0  0  0  0  0  0  0  0  0  0  0  0
  150.6507  137.4937  154.2111 C   0  0  0  0  0  0  0  0  0  0  0  0
  151.2188  138.7154  154.2281 C   0  0  0  0  0  0  0  0  0  0  0  0
  152.0092  139.1839  155.3701 C   0  0  0  0  0  0  0  0  0  0  0  0
  152.5083  140.3087  155.4013 O   0  0  0  0  0  0  0  0  0  0  0  0
  152.1485  138.2953  156.4001 N   0  0  0  0  0  0  0  0  0  0  0  0
  152.9082  138.6516  157.6123 C   0  0  0  0  0  0  0  0  0  0  0  0
  152.1565  139.5677  158.5938 C   0  0  0  0  0  0  0  0  0  0  0  0
  151.1094  139.1692  159.1022 O   0  0  0  0  0  0  0  0  0  0  0  0
  152.6763  140.7801  158.8507 N   0  0  0  0  0  0  0  0  0  0  0  0
  152.0875  141.8028  159.7093 C   0  0  1  0  0  0  0  0  0  0  0  0
  153.0126  142.0766  160.9137 C   0  0  0  0  0  0  0  0  0  0  0  0
  152.4574  143.1932  161.8096 C   0  0  0  0  0  0  0  0  0  0  0  0
  152.2124  144.4766  161.0041 C   0  0  0  0  0  0  0  0  0  0  0  0
  151.2835  144.2100  159.8100 C   0  0  0  0  0  0  0  0  0  0  0  0
  151.8312  143.0958  158.8955 C   0  0  2  0  0  0  0  0  0  0  0  0
  150.8928  142.8651  157.6965 C   0  0  0  0  0  0  0  0  0  0  0  0
  151.5463  137.0220  156.3799 C   0  0  0  0  0  0  0  0  0  0  0  0
  148.3579  133.6468  153.0988 H   0  0  0  0  0  0  0  0  0  0  0  0
  148.0162  133.5505  154.8298 H   0  0  0  0  0  0  0  0  0  0  0  0
  149.4954  132.8275  154.1738 H   0  0  0  0  0  0  0  0  0  0  0  0
  149.4797  135.5980  153.5269 H   0  0  0  0  0  0  0  0  0  0  0  0
  150.0823  137.2101  153.3378 H   0  0  0  0  0  0  0  0  0  0  0  0
  151.0896  139.3688  153.3779 H   0  0  0  0  0  0  0  0  0  0  0  0
  153.1904  137.7440  158.1480 H   0  0  0  0  0  0  0  0  0  0  0  0
  153.8555  139.1269  157.3521 H   0  0  0  0  0  0  0  0  0  0  0  0
  153.5413  141.0246  158.3911 H   0  0  0  0  0  0  0  0  0  0  0  0
  151.1272  141.4397  160.0815 H   0  0  0  0  0  0  0  0  0  0  0  0
  153.1416  141.1690  161.5045 H   0  0  0  0  0  0  0  0  0  0  0  0
  154.0058  142.3570  160.5599 H   0  0  0  0  0  0  0  0  0  0  0  0
  151.5242  142.8639  162.2679 H   0  0  0  0  0  0  0  0  0  0  0  0
  153.1501  143.3929  162.6274 H   0  0  0  0  0  0  0  0  0  0  0  0
  151.7790  145.2426  161.6478 H   0  0  0  0  0  0  0  0  0  0  0  0
  153.1638  144.8733  160.6481 H   0  0  0  0  0  0  0  0  0  0  0  0
  150.2939  143.9324  160.1757 H   0  0  0  0  0  0  0  0  0  0  0  0
  151.1528  145.1305  159.2399 H   0  0  0  0  0  0  0  0  0  0  0  0
  152.7875  143.4388  158.4971 H   0  0  0  0  0  0  0  0  0  0  0  0
  149.9235  142.4857  158.0213 H   0  0  0  0  0  0  0  0  0  0  0  0
  151.3098  142.1497  156.9871 H   0  0  0  0  0  0  0  0  0  0  0  0
  150.7198  143.7934  157.1516 H   0  0  0  0  0  0  0  0  0  0  0  0
  151.7184  136.4367  157.2728 H   0  0  0  0  0  0  0  0  0  0  0  0
  1  2  1  0  0  0  0
  1 23  1  0  0  0  0
  1 24  1  0  0  0  0
  1 25  1  0  0  0  0
  2  3  1  0  0  0  0
  2 26  1  0  0  0  0
  3  4  2  0  0  0  0
  3  5  1  0  0  0  0
  5 22  2  0  0  0  0
  5  6  1  0  0  0  0
  6  7  2  0  0  0  0
  6 27  1  0  0  0  0
  7  8  1  0  0  0  0
  7 28  1  0  0  0  0
  8  9  2  0  0  0  0
  8 10  1  0  0  0  0
 10 11  1  0  0  0  0
 10 22  1  0  0  0  0
 11 12  1  0  0  0  0
 11 29  1  0  0  0  0
 11 30  1  0  0  0  0
 12 13  2  0  0  0  0
 12 14  1  0  0  0  0
 14 15  1  0  0  0  0
 14 31  1  0  0  0  0
 15 20  1  0  0  0  0
 15 16  1  0  0  0  0
 15 32  1  0  0  0  0
 16 17  1  0  0  0  0
 16 33  1  0  0  0  0
 16 34  1  0  0  0  0
 17 18  1  0  0  0  0
 17 35  1  0  0  0  0
 17 36  1  0  0  0  0
 18 19  1  0  0  0  0
 18 37  1  0  0  0  0
 18 38  1  0  0  0  0
 19 20  1  0  0  0  0
 19 39  1  0  0  0  0
 19 40  1  0  0  0  0
 20 21  1  0  0  0  0
 20 41  1  0  0  0  0
 21 42  1  0  0  0  0
 21 43  1  0  0  0  0
 21 44  1  0  0  0  0
 22 45  1  0  0  0  0
M  END
> <s_m_source_file>
AV-unprocessed.smi

> <i_m_source_file_index>
1844

> <i_lp_mmshare_version>
43012

> <i_f3d_flags>
0

> <s_epik_input>
W0NIM11bTkhdQyg9TyljMVtjSF1bY0hdYyg9TyluKFtjSF0xKVtDSDJdQyg9TylbTkhdW0NAQEhdMltDSDJdW0NIMl1bQ0gyXVtDSDJdW0NASF0yW0NIM10=

> <s_epik_cmdline>
J2VwaWtfcHl0aG9uJywgJy1waCcsICc3LjAnLCAnLXRuJywgJzgnLCAnLW1hJywgJzIwMCcsICctbWV0YWxfYmluZGluZycsICctaW1hZScsICc8aW5maWxlLm1hZT4nLCAnLW9tYWUnLCAnPG91dGZpbGUubWFlPic=

> <r_lp_tautomer_probability>
1

> <r_epik_Ionization_Penalty>
3.66612e-07

> <r_epik_Ionization_Penalty_Charging>
5.18929e-08

> <r_epik_Ionization_Penalty_Neutral>
3.14719e-07

> <r_epik_State_Penalty>
-0

> <r_epik_Charging_Adjusted_Penalty>
5.18929e-08

> <i_epik_Tot_Q>
0

> <i_epik_Tot_abs_Q>
0

> <r_epik_Metal_State_Penalty>
-0

> <b_epik_Metal_Only>
0

> <s_lp_Force_Field>
OPLS_2005

> <r_lp_Energy>
22.567

> <b_lp_Chiralities_Consistent>
1

> <s_lp_Variant>
AV-unprocessed.smi:1844-4

> <Gold.Version>
5.8.1

> <Gold.Id.Protein>
6NUR|6NUR_protein|mol2

> <Gold.PLP.Fitness>
47.9492

> <Gold.PLP.PLP>
-41.4253

> <Gold.PLP.part.hbond>
-3.2778

> <Gold.PLP.part.metal>
0.0000

> <Gold.PLP.part.buried>
-3.0901

> <Gold.PLP.part.nonpolar>
-35.7346

> <Gold.PLP.part.repulsive>
0.1424

> <Gold.PLP.ligand.clash>
0.0000

> <Gold.PLP.ligand.torsion>
0.2635

> <Gold.PLP.Chemscore.Hbond>
2.3440

> <Gold.PLP.Chemscore.CHOScore>
0.0000

> <Gold.PLP.Chemscore.Metal>
0.0000

> <Gold.Chemscore.Hbonds>
donor molecule, donor type, donor heavy atom, donor atom, acceptor molecule, acceptor atom, score
      L1  H     2    26       P1  7948  0.95
      P1  H  7989  7998       L1     9  0.26
      P1  H  7997  8009       L1     9  1.00

> <Gold.PLP.Chemscore.Internal.Correction>
0.0190

> <Gold.Rescore>
     Score         DG    S(hbond)    S(metal)    S(lipo)     H(rot)  DE(clash)    DE(int)     intcor
     18.92     -20.35       1.87        0.00     106.44       1.49       1.09       0.34       ----

> <Gold.Chemscore.Fitness>
18.9240

> <Gold.Chemscore.DG>
-20.3497

> <Gold.Chemscore.ZeroCoef>
-5.4800

> <Gold.Chemscore.Hbond>
1.8672

> <Gold.Chemscore.Metal>
0.0000

> <Gold.Chemscore.Lipo>
106.4424

> <Gold.Chemscore.Internal_Hbond>
0.0000

> <Gold.Chemscore.DEClash>
1.0865

> <Gold.Chemscore.DEInternal>
0.3392

> <Gold.Chemscore.Rot>
1.4923

> <Gold.Chemscore.Internal.Correction>
   9.000000E+99

> <Gold.Chemscore.Hbonds>
donor molecule, donor type, donor heavy atom, donor atom, acceptor molecule, acceptor atom, score
      L1  H     2    26       P1  7948  0.21
      P1  H  7989  7998       L1     9  0.03
      P1  H  7997  8009       L1     9  0.72

> <Gold.Chemscore.Hbond.Weighted>
-6.2363

> <Gold.Chemscore.Metal.Weighted>
-0.0000

> <Gold.Chemscore.Lipo.Weighted>
-12.4538

> <Gold.Chemscore.Internal_Hbond.Weighted>
0.0000

> <Gold.Chemscore.DEClash.Weighted>
1.0865

> <Gold.Chemscore.DEInternal.Weighted>
0.3392

> <Gold.Chemscore.Rot.Weighted>
3.8204

> <Gold.Chemscore.Internal.Correction.Weighted>
   9.000000E+99

> <Gold.Protein.RotatedTorsions>
[ 6907 6896 6895 6894 ] final   65.02 input  -60.11 | X-H torsion
[ 7974 7965 7964 7962 ] final -135.93 input  175.53 | X-H torsion
[ 8008 7997 7996 7995 ] final -144.30 input   59.86 | X-H torsion
[ 10167 10162 10161 10158 ] final   77.37 input  -65.29 | X-H torsion
[ 10718 10713 10712 10709 ] final  -26.31 input   66.30 | X-H torsion
[ 10763 10752 10751 10750 ] final -172.52 input  -60.55 | X-H torsion
[ 11005 11000 10999 10996 ] final  164.40 input  -57.11 | X-H torsion

> <Gold.Protein.ActiveResidues>
 VAL166  LYS551  ARG553  GLY616  TRP617  ASP618  TYR619  PRO620  LYS621  CYS622 
 ASP623  PHE694  ASN695  SER759  ASP760  ASP761  ALA762  ILE779  LEU786  VAL792 
 PHE793  MET794  SER795  GLU796  ALA797  LYS798  CYS799  TRP800  GLU811  SER814 

> <Gold.Protein.RotatedAtoms>
  152.4376  134.5656  159.9906 H   0  0  0  0  0  0  0  0  0  0  0  0  # atno 6907 bound_to 6896
  151.5762  133.3378  159.3007 H   0  0  0  0  0  0  0  0  0  0  0  0  # atno 6908 bound_to 6896
  150.8276  134.7549  159.6890 H   0  0  0  0  0  0  0  0  0  0  0  0  # atno 6909 bound_to 6896
  144.8971  140.6721  143.5108 H   0  0  0  0  0  0  0  0  0  0  0  0  # atno 7974 bound_to 7965
  155.5247  140.0594  157.2900 H   0  0  0  0  0  0  0  0  0  0  0  0  # atno 8008 bound_to 7997
  154.4505  140.1946  156.0479 H   0  0  0  0  0  0  0  0  0  0  0  0  # atno 8009 bound_to 7997
  156.0694  140.3262  155.7561 H   0  0  0  0  0  0  0  0  0  0  0  0  # atno 8010 bound_to 7997
  139.9823  144.5818  150.7890 H   0  0  0  0  0  0  0  0  0  0  0  0  # atno 10167 bound_to 10162
  156.4528  130.4487  149.6978 H   0  0  0  0  0  0  0  0  0  0  0  0  # atno 10718 bound_to 10713
  154.6183  135.2872  155.0354 H   0  0  0  0  0  0  0  0  0  0  0  0  # atno 10763 bound_to 10752
  154.1559  135.6496  153.4978 H   0  0  0  0  0  0  0  0  0  0  0  0  # atno 10764 bound_to 10752
  153.0225  135.5366  154.6963 H   0  0  0  0  0  0  0  0  0  0  0  0  # atno 10765 bound_to 10752
  140.2455  134.8018  157.3452 H   0  0  0  0  0  0  0  0  0  0  0  0  # atno 11005 bound_to 11000
  145.3681  139.1665  143.4347 LP  0  0  0  0  0  0  0  0  0  0  0  0  # atno 17320 bound_to 7965
  146.3087  140.3750  142.8678 LP  0  0  0  0  0  0  0  0  0  0  0  0  # atno 17321 bound_to 7965
  140.7485  143.2923  151.3298 LP  0  0  0  0  0  0  0  0  0  0  0  0  # atno 17342 bound_to 10162
  139.6401  144.0556  152.2547 LP  0  0  0  0  0  0  0  0  0  0  0  0  # atno 17343 bound_to 10162
  156.3798  130.7573  151.2565 LP  0  0  0  0  0  0  0  0  0  0  0  0  # atno 17370 bound_to 10713
  157.7502  131.0299  150.4113 LP  0  0  0  0  0  0  0  0  0  0  0  0  # atno 17371 bound_to 10713
  140.1610  134.4728  155.7894 LP  0  0  0  0  0  0  0  0  0  0  0  0  # atno 17394 bound_to 11000
  141.2206  133.6901  156.7544 LP  0  0  0  0  0  0  0  0  0  0  0  0  # atno 17395 bound_to 11000

$$$$
