AV-unprocessed.smi:2807|AV-procd|sdf|10822|dock9
  -GOLD-   2272015263D 1   1.00000     0.00000
 Structure written by MMmdl.
 31 32  0  0  0  0  0  0  0  0  2 V2000
  148.6971  142.6862  158.0253 O   0  0  0  0  0  0  0  0  0  0  0  0
  149.0145  141.7452  157.2888 C   0  0  0  0  0  0  0  0  0  0  0  0
  148.2455  141.0030  156.4420 N   0  5  0  0  0  0  0  0  0  0  0  0
  147.0713  141.5118  155.7236 C   0  0  2  0  0  0  0  0  0  0  0  0
  146.0339  140.3878  155.5809 C   0  0  0  0  0  0  0  0  0  0  0  0
  146.3708  139.6330  154.2812 C   0  0  0  0  0  0  0  0  0  0  0  0
  147.3768  140.5032  153.5122 C   0  0  0  0  0  0  0  0  0  0  0  0
  147.4033  141.8442  154.2564 C   0  0  2  0  0  0  0  0  0  0  0  0
  148.6181  142.5462  154.0725 O   0  0  0  0  0  0  0  0  0  0  0  0
  150.4863  141.2801  157.2838 C   0  0  0  0  0  0  0  0  0  0  0  0
  150.5603  140.0095  157.6949 F   0  0  0  0  0  0  0  0  0  0  0  0
  150.9464  141.3200  156.0306 F   0  0  0  0  0  0  0  0  0  0  0  0
  151.3484  142.1940  158.1539 C   0  0  0  0  0  0  0  0  0  0  0  0
  151.4730  143.5687  157.8486 C   0  0  0  0  0  0  0  0  0  0  0  0
  152.2650  144.3785  158.6847 C   0  0  0  0  0  0  0  0  0  0  0  0
  152.9042  143.7895  159.7919 C   0  0  0  0  0  0  0  0  0  0  0  0
  152.7206  142.4106  160.0145 C   0  0  0  0  0  0  0  0  0  0  0  0
  151.9646  141.6255  159.2186 N   0  0  0  0  0  0  0  0  0  0  0  0
  146.6227  142.3770  156.2147 H   0  0  0  0  0  0  0  0  0  0  0  0
  145.9955  139.7269  156.4485 H   0  0  0  0  0  0  0  0  0  0  0  0
  145.0432  140.8332  155.4819 H   0  0  0  0  0  0  0  0  0  0  0  0
  146.8064  138.6564  154.4981 H   0  0  0  0  0  0  0  0  0  0  0  0
  145.4677  139.4599  153.6947 H   0  0  0  0  0  0  0  0  0  0  0  0
  148.3603  140.0284  153.5353 H   0  0  0  0  0  0  0  0  0  0  0  0
  147.1032  140.6237  152.4636 H   0  0  0  0  0  0  0  0  0  0  0  0
  146.6005  142.4708  153.8654 H   0  0  0  0  0  0  0  0  0  0  0  0
  148.5423  143.3790  154.5126 H   0  0  0  0  0  0  0  0  0  0  0  0
  150.9642  143.9939  156.9960 H   0  0  0  0  0  0  0  0  0  0  0  0
  152.3785  145.4330  158.4813 H   0  0  0  0  0  0  0  0  0  0  0  0
  153.5185  144.3794  160.4556 H   0  0  0  0  0  0  0  0  0  0  0  0
  153.1952  141.9247  160.8541 H   0  0  0  0  0  0  0  0  0  0  0  0
  1  2  2  0  0  0  0
  2  3  1  0  0  0  0
  2 10  1  0  0  0  0
  3  4  1  0  0  0  0
  4  8  1  0  0  0  0
  4  5  1  0  0  0  0
  4 19  1  0  0  0  0
  5  6  1  0  0  0  0
  5 20  1  0  0  0  0
  5 21  1  0  0  0  0
  6  7  1  0  0  0  0
  6 22  1  0  0  0  0
  6 23  1  0  0  0  0
  7  8  1  0  0  0  0
  7 24  1  0  0  0  0
  7 25  1  0  0  0  0
  8  9  1  0  0  0  0
  8 26  1  0  0  0  0
  9 27  1  0  0  0  0
 10 11  1  0  0  0  0
 10 12  1  0  0  0  0
 10 13  1  0  0  0  0
 13 18  1  0  0  0  0
 13 14  2  0  0  0  0
 14 15  1  0  0  0  0
 14 28  1  0  0  0  0
 15 16  2  0  0  0  0
 15 29  1  0  0  0  0
 16 17  1  0  0  0  0
 16 30  1  0  0  0  0
 17 18  2  0  0  0  0
 17 31  1  0  0  0  0
M  CHG  1   3  -1
M  END
> <s_m_source_file>
AV-unprocessed.smi

> <i_m_source_file_index>
2807

> <i_lp_mmshare_version>
43012

> <i_f3d_flags>
0

> <s_epik_input>
bjFbY0hdW2NIXVtjSF1bY0hdYzFDKEYpKEYpQyg9TylbTkhdW0NAQEhdMltDSDJdW0NIMl1bQ0gyXVtDQEhdMltPSF0=

> <s_epik_cmdline>
J2VwaWtfcHl0aG9uJywgJy1waCcsICc3LjAnLCAnLXRuJywgJzgnLCAnLW1hJywgJzIwMCcsICctbWV0YWxfYmluZGluZycsICctaW1hZScsICc8aW5maWxlLm1hZT4nLCAnLW9tYWUnLCAnPG91dGZpbGUubWFlPic=

> <r_lp_tautomer_probability>
1

> <r_epik_Ionization_Penalty>
5.72231

> <r_epik_Ionization_Penalty_Charging>
5.72231

> <r_epik_Ionization_Penalty_Neutral>
5.49816e-06

> <r_epik_State_Penalty>
5.72227

> <r_epik_Charging_Adjusted_Penalty>
11.4446

> <i_epik_Tot_Q>
-1

> <i_epik_Tot_abs_Q>
1

> <r_epik_Metal_State_Penalty>
1.70075

> <b_epik_Metal_Only>
1

> <s_lp_Force_Field>
OPLS_2005

> <r_lp_Energy>
37.6883

> <b_lp_Chiralities_Consistent>
1

> <s_lp_Variant>
AV-unprocessed.smi:2807-7

> <Gold.Version>
5.8.1

> <Gold.Id.Protein>
6NUR|6NUR_protein|mol2

> <Gold.PLP.Fitness>
37.9232

> <Gold.PLP.PLP>
-35.8331

> <Gold.PLP.part.hbond>
-2.7126

> <Gold.PLP.part.metal>
0.0000

> <Gold.PLP.part.buried>
-3.9332

> <Gold.PLP.part.nonpolar>
-28.9274

> <Gold.PLP.part.repulsive>
0.2384

> <Gold.PLP.ligand.clash>
0.0000

> <Gold.PLP.ligand.torsion>
0.5826

> <Gold.PLP.Chemscore.Hbond>
1.0611

> <Gold.PLP.Chemscore.CHOScore>
0.0000

> <Gold.PLP.Chemscore.Metal>
0.0000

> <Gold.Chemscore.Hbonds>
donor molecule, donor type, donor heavy atom, donor atom, acceptor molecule, acceptor atom, score
      L1  H     9    27       P1  8028  1.00
      P1  H  8011  8017       L1     9  0.10

> <Gold.PLP.Chemscore.Internal.Correction>
0.0721

> <Gold.Rescore>
     Score         DG    S(hbond)    S(metal)    S(lipo)     H(rot)  DE(clash)    DE(int)     intcor
     13.52     -14.62       1.18        0.00      88.25       2.00       0.08       1.02       ----

> <Gold.Chemscore.Fitness>
13.5187

> <Gold.Chemscore.DG>
-14.6193

> <Gold.Chemscore.ZeroCoef>
-5.4800

> <Gold.Chemscore.Hbond>
1.1752

> <Gold.Chemscore.Metal>
0.0000

> <Gold.Chemscore.Lipo>
88.2486

> <Gold.Chemscore.Internal_Hbond>
0.0000

> <Gold.Chemscore.DEClash>
0.0814

> <Gold.Chemscore.DEInternal>
1.0192

> <Gold.Chemscore.Rot>
1.9964

> <Gold.Chemscore.Internal.Correction>
   9.000000E+99

> <Gold.Chemscore.Hbonds>
donor molecule, donor type, donor heavy atom, donor atom, acceptor molecule, acceptor atom, score
      L1  H     9    27       P1  8028  1.00
      P1  H  8011  8017       L1     9  0.11

> <Gold.Chemscore.Hbond.Weighted>
-3.9251

> <Gold.Chemscore.Metal.Weighted>
-0.0000

> <Gold.Chemscore.Lipo.Weighted>
-10.3251

> <Gold.Chemscore.Internal_Hbond.Weighted>
0.0000

> <Gold.Chemscore.DEClash.Weighted>
0.0814

> <Gold.Chemscore.DEInternal.Weighted>
1.0192

> <Gold.Chemscore.Rot.Weighted>
5.1108

> <Gold.Chemscore.Internal.Correction.Weighted>
   9.000000E+99

> <Gold.Protein.RotatedTorsions>
[ 6907 6896 6895 6894 ] final -162.84 input  -60.11 | X-H torsion
[ 7974 7965 7964 7962 ] final   67.31 input  175.53 | X-H torsion
[ 8008 7997 7996 7995 ] final  104.92 input   59.86 | X-H torsion
[ 10167 10162 10161 10158 ] final   76.26 input  -65.29 | X-H torsion
[ 10718 10713 10712 10709 ] final  -23.51 input   66.30 | X-H torsion
[ 10763 10752 10751 10750 ] final -149.07 input  -60.55 | X-H torsion
[ 11005 11000 10999 10996 ] final   43.70 input  -57.11 | X-H torsion

> <Gold.Protein.ActiveResidues>
 VAL166  LYS551  ARG553  GLY616  TRP617  ASP618  TYR619  PRO620  LYS621  CYS622 
 ASP623  PHE694  ASN695  SER759  ASP760  ASP761  ALA762  ILE779  LEU786  VAL792 
 PHE793  MET794  SER795  GLU796  ALA797  LYS798  CYS799  TRP800  GLU811  SER814 

> <Gold.Protein.RotatedAtoms>
  151.3866  133.3803  159.2715 H   0  0  0  0  0  0  0  0  0  0  0  0  # atno 6907 bound_to 6896
  150.9536  134.8934  159.7698 H   0  0  0  0  0  0  0  0  0  0  0  0  # atno 6908 bound_to 6896
  152.5122  134.3823  159.9407 H   0  0  0  0  0  0  0  0  0  0  0  0  # atno 6909 bound_to 6896
  145.8162  139.3059  143.1070 H   0  0  0  0  0  0  0  0  0  0  0  0  # atno 7974 bound_to 7965
  156.1614  140.3139  155.8814 H   0  0  0  0  0  0  0  0  0  0  0  0  # atno 8008 bound_to 7997
  155.3774  140.0485  157.3061 H   0  0  0  0  0  0  0  0  0  0  0  0  # atno 8009 bound_to 7997
  154.5150  140.2178  155.9093 H   0  0  0  0  0  0  0  0  0  0  0  0  # atno 8010 bound_to 7997
  139.9942  144.5734  150.7792 H   0  0  0  0  0  0  0  0  0  0  0  0  # atno 10167 bound_to 10162
  156.4901  130.4564  149.6761 H   0  0  0  0  0  0  0  0  0  0  0  0  # atno 10718 bound_to 10713
  154.8198  135.3318  154.7072 H   0  0  0  0  0  0  0  0  0  0  0  0  # atno 10763 bound_to 10752
  153.7707  135.6926  153.4911 H   0  0  0  0  0  0  0  0  0  0  0  0  # atno 10764 bound_to 10752
  153.2047  135.4503  155.0257 H   0  0  0  0  0  0  0  0  0  0  0  0  # atno 10765 bound_to 10752
  140.1620  134.4329  155.8311 H   0  0  0  0  0  0  0  0  0  0  0  0  # atno 11005 bound_to 11000
  145.9724  140.8749  143.0156 LP  0  0  0  0  0  0  0  0  0  0  0  0  # atno 17320 bound_to 7965
  144.6752  140.1965  143.7391 LP  0  0  0  0  0  0  0  0  0  0  0  0  # atno 17321 bound_to 7965
  140.7443  143.2859  151.3465 LP  0  0  0  0  0  0  0  0  0  0  0  0  # atno 17342 bound_to 10162
  139.6318  144.0706  152.2482 LP  0  0  0  0  0  0  0  0  0  0  0  0  # atno 17343 bound_to 10162
  156.3435  130.7395  151.2343 LP  0  0  0  0  0  0  0  0  0  0  0  0  # atno 17370 bound_to 10713
  157.7474  131.0397  150.4562 LP  0  0  0  0  0  0  0  0  0  0  0  0  # atno 17371 bound_to 10713
  141.2210  133.6917  156.7611 LP  0  0  0  0  0  0  0  0  0  0  0  0  # atno 17394 bound_to 11000
  140.2478  134.8564  157.3637 LP  0  0  0  0  0  0  0  0  0  0  0  0  # atno 17395 bound_to 11000

$$$$
