AV-unprocessed.smi:753|AV-procd|sdf|3604|dock1
  -GOLD-   22720 0593D 1   1.00000     0.00000
 Structure written by MMmdl.
 44 46  0  0  0  0  0  0  0  0  2 V2000
  151.2542  142.9159  157.1730 C   0  0  0  0  0  0  0  0  0  0  0  0
  150.5114  141.9518  156.2724 C   0  0  0  0  0  0  0  0  0  0  0  0
  151.0164  140.6719  155.9568 C   0  0  0  0  0  0  0  0  0  0  0  0
  150.2702  139.8272  155.1090 C   0  0  0  0  0  0  0  0  0  0  0  0
  149.0343  140.2776  154.5957 C   0  0  0  0  0  0  0  0  0  0  0  0
  148.2128  139.3935  153.6783 C   0  0  0  0  0  0  0  0  0  0  0  0
  147.7033  138.1326  154.3946 C   0  0  0  0  0  0  0  0  0  0  0  0
  147.3602  137.0828  153.4441 N   0  0  0  0  0  0  0  0  0  0  0  0
  146.1739  136.4541  153.3872 C   0  0  0  0  0  0  0  0  0  0  0  0
  145.2420  136.6972  154.1516 O   0  0  0  0  0  0  0  0  0  0  0  0
  146.0749  135.5290  152.4169 N   0  0  0  0  0  0  0  0  0  0  0  0
  144.9232  134.6807  152.0985 C   0  0  1  0  0  0  0  0  0  0  0  0
  144.6126  134.7057  150.5856 C   0  0  0  0  0  0  0  0  0  0  0  0
  144.7004  133.2213  150.1858 C   0  0  1  0  0  0  0  0  0  0  0  0
  146.1718  132.7659  150.2099 C   0  0  0  0  0  0  0  0  0  0  0  0
  146.4802  132.6890  151.7170 C   0  0  0  0  0  0  0  0  0  0  0  0
  145.1594  133.1694  152.3563 C   0  0  2  0  0  0  0  0  0  0  0  0
  144.1359  132.5338  151.4216 C   0  0  0  0  0  0  0  0  0  0  0  0
  148.5794  141.5670  154.9453 C   0  0  0  0  0  0  0  0  0  0  0  0
  149.3245  142.3466  155.7592 N   0  3  0  0  0  0  0  0  0  0  0  0
  152.1690  142.4668  157.5606 H   0  0  0  0  0  0  0  0  0  0  0  0
  150.6310  143.2027  158.0203 H   0  0  0  0  0  0  0  0  0  0  0  0
  151.5239  143.8175  156.6225 H   0  0  0  0  0  0  0  0  0  0  0  0
  151.9635  140.3385  156.3562 H   0  0  0  0  0  0  0  0  0  0  0  0
  150.6446  138.8457  154.8563 H   0  0  0  0  0  0  0  0  0  0  0  0
  147.3746  139.9725  153.2880 H   0  0  0  0  0  0  0  0  0  0  0  0
  148.8203  139.1140  152.8163 H   0  0  0  0  0  0  0  0  0  0  0  0
  148.4727  137.7467  155.0638 H   0  0  0  0  0  0  0  0  0  0  0  0
  146.8385  138.3682  155.0176 H   0  0  0  0  0  0  0  0  0  0  0  0
  148.0692  136.8184  152.7757 H   0  0  0  0  0  0  0  0  0  0  0  0
  146.8923  135.3924  151.8399 H   0  0  0  0  0  0  0  0  0  0  0  0
  144.0438  135.0248  152.6465 H   0  0  0  0  0  0  0  0  0  0  0  0
  143.6077  135.0925  150.4112 H   0  0  0  0  0  0  0  0  0  0  0  0
  145.3051  135.3230  150.0110 H   0  0  0  0  0  0  0  0  0  0  0  0
  144.1860  132.9894  149.2527 H   0  0  0  0  0  0  0  0  0  0  0  0
  146.2856  131.7858  149.7450 H   0  0  0  0  0  0  0  0  0  0  0  0
  146.8271  133.4631  149.6864 H   0  0  0  0  0  0  0  0  0  0  0  0
  146.6891  131.6584  152.0069 H   0  0  0  0  0  0  0  0  0  0  0  0
  147.3472  133.2855  152.0007 H   0  0  0  0  0  0  0  0  0  0  0  0
  145.0559  132.8827  153.4033 H   0  0  0  0  0  0  0  0  0  0  0  0
  143.1071  132.8216  151.6454 H   0  0  0  0  0  0  0  0  0  0  0  0
  144.2018  131.4450  151.3804 H   0  0  0  0  0  0  0  0  0  0  0  0
  147.6503  141.9966  154.5997 H   0  0  0  0  0  0  0  0  0  0  0  0
  148.9758  143.2757  155.9969 H   0  0  0  0  0  0  0  0  0  0  0  0
  1  2  1  0  0  0  0
  1 21  1  0  0  0  0
  1 22  1  0  0  0  0
  1 23  1  0  0  0  0
  2 20  1  0  0  0  0
  2  3  2  0  0  0  0
  3  4  1  0  0  0  0
  3 24  1  0  0  0  0
  4  5  2  0  0  0  0
  4 25  1  0  0  0  0
  5  6  1  0  0  0  0
  5 19  1  0  0  0  0
  6  7  1  0  0  0  0
  6 26  1  0  0  0  0
  6 27  1  0  0  0  0
  7  8  1  0  0  0  0
  7 28  1  0  0  0  0
  7 29  1  0  0  0  0
  8  9  1  0  0  0  0
  8 30  1  0  0  0  0
  9 10  2  0  0  0  0
  9 11  1  0  0  0  0
 11 12  1  0  0  0  0
 11 31  1  0  0  0  0
 12 17  1  0  0  0  0
 12 13  1  0  0  0  0
 12 32  1  0  0  0  0
 13 14  1  0  0  0  0
 13 33  1  0  0  0  0
 13 34  1  0  0  0  0
 14 18  1  0  0  0  0
 14 15  1  0  0  0  0
 14 35  1  0  0  0  0
 15 16  1  0  0  0  0
 15 36  1  0  0  0  0
 15 37  1  0  0  0  0
 16 17  1  0  0  0  0
 16 38  1  0  0  0  0
 16 39  1  0  0  0  0
 17 18  1  0  0  0  0
 17 40  1  0  0  0  0
 18 41  1  0  0  0  0
 18 42  1  0  0  0  0
 19 20  2  0  0  0  0
 19 43  1  0  0  0  0
 20 44  1  0  0  0  0
M  CHG  1  20   1
M  END
> <s_m_source_file>
AV-unprocessed.smi

> <i_m_source_file_index>
753

> <i_lp_mmshare_version>
43012

> <i_f3d_flags>
0

> <s_epik_input>
W0NIM11jMVtjSF1bY0hdYyhbY0hdbjEpW0NIMl1bQ0gyXVtOSF1DKD1PKVtOSF1bQ0BIXShbQ0gyXVtDQEBIXTIzKVtDQEBIXShbQ0gyXTMpW0NIMl1bQ0gyXTI=

> <s_epik_cmdline>
J2VwaWtfcHl0aG9uJywgJy1waCcsICc3LjAnLCAnLXRuJywgJzgnLCAnLW1hJywgJzIwMCcsICctbWV0YWxfYmluZGluZycsICctaW1hZScsICc8aW5maWxlLm1hZT4nLCAnLW9tYWUnLCAnPG91dGZpbGUubWFlPic=

> <r_epik_Ionization_Penalty>
1.41708

> <r_epik_Ionization_Penalty_Charging>
1.41702

> <r_epik_Ionization_Penalty_Neutral>
5.73163e-05

> <r_epik_State_Penalty>
1.50048

> <r_epik_Charging_Adjusted_Penalty>
2.9175

> <i_epik_Tot_Q>
1

> <i_epik_Tot_abs_Q>
1

> <r_epik_Metal_State_Penalty>
1.55295

> <b_epik_Metal_Only>
0

> <s_lp_Force_Field>
OPLS_2005

> <r_lp_Energy>
56.9964

> <b_lp_Chiralities_Consistent>
1

> <s_lp_Variant>
AV-unprocessed.smi:753-6

> <Gold.Version>
5.8.1

> <Gold.Id.Protein>
6NUR|6NUR_protein|mol2

> <Gold.PLP.Fitness>
44.7721

> <Gold.PLP.PLP>
-35.9989

> <Gold.PLP.part.hbond>
-2.2754

> <Gold.PLP.part.metal>
0.0000

> <Gold.PLP.part.buried>
-3.0120

> <Gold.PLP.part.nonpolar>
-30.7817

> <Gold.PLP.part.repulsive>
0.2195

> <Gold.PLP.ligand.clash>
0.0000

> <Gold.PLP.ligand.torsion>
0.2277

> <Gold.PLP.Chemscore.Hbond>
3.0637

> <Gold.PLP.Chemscore.CHOScore>
0.0000

> <Gold.PLP.Chemscore.Metal>
0.0000

> <Gold.Chemscore.Hbonds>
donor molecule, donor type, donor heavy atom, donor atom, acceptor molecule, acceptor atom, score
      L1  H     8    30       P1  7948  0.67
      L1  H    11    31       P1  7948  0.42
      L1  H    20    44       P1  8028  1.71

> <Gold.PLP.Chemscore.Internal.Correction>
0.0377

> <Gold.Rescore>
     Score         DG    S(hbond)    S(metal)    S(lipo)     H(rot)  DE(clash)    DE(int)     intcor
     20.89     -21.19       2.56        0.00      94.13       1.50       0.09       0.20       ----

> <Gold.Chemscore.Fitness>
20.8935

> <Gold.Chemscore.DG>
-21.1861

> <Gold.Chemscore.ZeroCoef>
-5.4800

> <Gold.Chemscore.Hbond>
2.5567

> <Gold.Chemscore.Metal>
0.0000

> <Gold.Chemscore.Lipo>
94.1320

> <Gold.Chemscore.Internal_Hbond>
0.0000

> <Gold.Chemscore.DEClash>
0.0880

> <Gold.Chemscore.DEInternal>
0.2046

> <Gold.Chemscore.Rot>
1.5027

> <Gold.Chemscore.Internal.Correction>
   9.000000E+99

> <Gold.Chemscore.Hbonds>
donor molecule, donor type, donor heavy atom, donor atom, acceptor molecule, acceptor atom, score
      L1  H     8    30       P1  7948  0.67
      L1  H    11    31       P1  7948  0.42
      L1  H    20    44       P1  8028  0.80

> <Gold.Chemscore.Hbond.Weighted>
-8.5395

> <Gold.Chemscore.Metal.Weighted>
-0.0000

> <Gold.Chemscore.Lipo.Weighted>
-11.0134

> <Gold.Chemscore.Internal_Hbond.Weighted>
0.0000

> <Gold.Chemscore.DEClash.Weighted>
0.0880

> <Gold.Chemscore.DEInternal.Weighted>
0.2046

> <Gold.Chemscore.Rot.Weighted>
3.8468

> <Gold.Chemscore.Internal.Correction.Weighted>
   9.000000E+99

> <Gold.Protein.RotatedTorsions>
[ 6907 6896 6895 6894 ] final   60.45 input  -60.11 | X-H torsion
[ 7974 7965 7964 7962 ] final  122.95 input  175.53 | X-H torsion
[ 8008 7997 7996 7995 ] final   93.96 input   59.86 | X-H torsion
[ 10167 10162 10161 10158 ] final  101.10 input  -65.29 | X-H torsion
[ 10718 10713 10712 10709 ] final -140.87 input   66.30 | X-H torsion
[ 10763 10752 10751 10750 ] final  -91.39 input  -60.55 | X-H torsion
[ 11005 11000 10999 10996 ] final  -96.77 input  -57.11 | X-H torsion

> <Gold.Protein.ActiveResidues>
 VAL166  LYS551  ARG553  GLY616  TRP617  ASP618  TYR619  PRO620  LYS621  CYS622 
 ASP623  PHE694  ASN695  SER759  ASP760  ASP761  ALA762  ILE779  LEU786  VAL792 
 PHE793  MET794  SER795  GLU796  ALA797  LYS798  CYS799  TRP800  GLU811  SER814 

> <Gold.Protein.RotatedAtoms>
  152.4003  134.6296  160.0071 H   0  0  0  0  0  0  0  0  0  0  0  0  # atno 6907 bound_to 6896
  151.6504  133.3315  159.3158 H   0  0  0  0  0  0  0  0  0  0  0  0  # atno 6908 bound_to 6896
  150.7905  134.6967  159.6572 H   0  0  0  0  0  0  0  0  0  0  0  0  # atno 6909 bound_to 6896
  145.1016  139.3515  143.4809 H   0  0  0  0  0  0  0  0  0  0  0  0  # atno 7974 bound_to 7965
  156.0526  140.3306  155.7369 H   0  0  0  0  0  0  0  0  0  0  0  0  # atno 8008 bound_to 7997
  155.5577  140.0616  157.2853 H   0  0  0  0  0  0  0  0  0  0  0  0  # atno 8009 bound_to 7997
  154.4443  140.1883  156.0739 H   0  0  0  0  0  0  0  0  0  0  0  0  # atno 8010 bound_to 7997
  139.7467  144.6996  151.0493 H   0  0  0  0  0  0  0  0  0  0  0  0  # atno 10167 bound_to 10162
  156.3273  130.7567  151.1677 H   0  0  0  0  0  0  0  0  0  0  0  0  # atno 10718 bound_to 10713
  154.6756  135.5269  153.8194 H   0  0  0  0  0  0  0  0  0  0  0  0  # atno 10763 bound_to 10752
  153.0530  135.6539  154.0657 H   0  0  0  0  0  0  0  0  0  0  0  0  # atno 10764 bound_to 10752
  154.0551  135.2966  155.3314 H   0  0  0  0  0  0  0  0  0  0  0  0  # atno 10765 bound_to 10752
  141.1401  133.8121  157.0616 H   0  0  0  0  0  0  0  0  0  0  0  0  # atno 11005 bound_to 11000
  146.3529  140.0895  142.8613 LP  0  0  0  0  0  0  0  0  0  0  0  0  # atno 17320 bound_to 7965
  145.0949  140.9309  143.4747 LP  0  0  0  0  0  0  0  0  0  0  0  0  # atno 17321 bound_to 7965
  140.7793  143.4858  150.9958 LP  0  0  0  0  0  0  0  0  0  0  0  0  # atno 17342 bound_to 10162
  139.8546  143.7394  152.3176 LP  0  0  0  0  0  0  0  0  0  0  0  0  # atno 17343 bound_to 10162
  157.7424  131.0491  150.5029 LP  0  0  0  0  0  0  0  0  0  0  0  0  # atno 17370 bound_to 10713
  156.5190  130.4157  149.6261 LP  0  0  0  0  0  0  0  0  0  0  0  0  # atno 17371 bound_to 10713
  140.0568  134.9776  157.1234 LP  0  0  0  0  0  0  0  0  0  0  0  0  # atno 17394 bound_to 11000
  140.3907  134.2187  155.7166 LP  0  0  0  0  0  0  0  0  0  0  0  0  # atno 17395 bound_to 11000

$$$$
