#       Name:                AV-unprocessed.smi:625
#       Creating user name   scv26
#       Creation time:       Fri Mar 27 00:03:12 2020


#       File generated by GOLD software.
#

@<TRIPOS>MOLECULE
AV-unprocessed.smi:625
    55    57     1
SMALL
NO_CHARGES


@<TRIPOS>ATOM
      1 ****        -5.1615   3.1692  -2.3801 C.3            1 S1                 0.0000
      2 ****        -4.4707   2.4665  -1.3094 N.am           1 S1                 0.0000
      3 ****        -4.1057   1.1747  -1.3574 C.2            1 S1                 0.0000
      4 ****        -4.3369   0.4734  -2.3437 O.2            1 S1                 0.0000
      5 ****        -3.4248   0.7066  -0.1475 C.2            1 S1                 0.0000
      6 ****        -3.1476   1.5672   0.9931 C.2            1 S1                 0.0000
      7 ****        -2.5029   1.0865   2.0742 C.2            1 S1                 0.0000
      8 ****        -2.0578  -0.3074   2.1508 C.2            1 S1                 0.0000
      9 ****        -1.4529  -0.7467   3.1288 O.2            1 S1                 0.0000
     10 ****        -2.3491  -1.0852   1.0639 N.am           1 S1                 0.0000
     11 ****        -1.9364  -2.5006   1.0190 C.3            1 S1                 0.0000
     12 ****        -0.4822  -2.7257   0.5702 C.2            1 S1                 0.0000
     13 ****         0.0391  -3.8257   0.7491 O.2            1 S1                 0.0000
     14 ****         0.1676  -1.6910   0.0110 N.am           1 S1                 0.0000
     15 ****         1.5688  -1.6694  -0.3957 C.3            1 S1                 0.0000
     16 ****         1.7282  -2.3342  -1.7741 C.3            1 S1                 0.0000
     17 ****         2.0622  -0.2035  -0.3904 C.3            1 S1                 0.0000
     18 ****         1.9326   0.5245   0.9682 C.3            1 S1                 0.0000
     19 ****         3.3227   1.1607   1.1531 C.3            1 S1                 0.0000
     20 ****         4.3310   0.0594   1.5268 C.3            1 S1                 0.0000
     21 ****         4.5067  -0.7012   0.1998 C.3            1 S1                 0.0000
     22 ****         3.5477   0.0427  -0.7528 C.3            1 S1                 0.0000
     23 ****         3.7265   1.4828  -0.2816 C.3            1 S1                 0.0000
     24 ****        -3.0191  -0.5759  -0.0659 C.2            1 S1                 0.0000
     25 ****        -5.3520   4.2008  -2.0848 H              1 S1                 0.0000
     26 ****        -6.1189   2.6961  -2.6018 H              1 S1                 0.0000
     27 ****        -4.5590   3.1803  -3.2892 H              1 S1                 0.0000
     28 ****        -4.2554   2.9941  -0.4759 H              1 S1                 0.0000
     29 ****        -3.4488   2.6043   1.0019 H              1 S1                 0.0000
     30 ****        -2.3078   1.7447   2.9081 H              1 S1                 0.0000
     31 ****        -2.0768  -2.9656   1.9964 H              1 S1                 0.0000
     32 ****        -2.5856  -3.0623   0.3461 H              1 S1                 0.0000
     33 ****        -0.3443  -0.8284  -0.1049 H              1 S1                 0.0000
     34 ****         2.1358  -2.2417   0.3389 H              1 S1                 0.0000
     35 ****         2.7742  -2.3670  -2.0784 H              1 S1                 0.0000
     36 ****         1.1742  -1.7934  -2.5421 H              1 S1                 0.0000
     37 ****         1.3646  -3.3620  -1.7636 H              1 S1                 0.0000
     38 ****         1.4587   0.3446  -1.1168 H              1 S1                 0.0000
     39 ****         1.1535   1.2863   0.9203 H              1 S1                 0.0000
     40 ****         1.6855  -0.1463   1.7924 H              1 S1                 0.0000
     41 ****         3.3283   2.0093   1.8377 H              1 S1                 0.0000
     42 ****         5.2791   0.4913   1.8496 H              1 S1                 0.0000
     43 ****         3.9653  -0.5822   2.3294 H              1 S1                 0.0000
     44 ****         5.5353  -0.6090  -0.1515 H              1 S1                 0.0000
     45 ****         4.2939  -1.7654   0.2897 H              1 S1                 0.0000
     46 ****         3.7721  -0.1147  -1.8082 H              1 S1                 0.0000
     47 ****         3.0545   2.1889  -0.7728 H              1 S1                 0.0000
     48 ****         4.7524   1.8450  -0.3719 H              1 S1                 0.0000
     49 ****        -3.1664  -1.2975  -0.8575 H              1 S1                 0.0000
     50 ****        -4.8074   0.8634  -3.1353 LP             1 S1                 0.0000
     51 ****        -4.0539  -0.4857  -2.3527 LP             1 S1                 0.0000
     52 ****        -1.2513  -0.1467   3.9030 LP             1 S1                 0.0000
     53 ****        -1.1630  -1.7035   3.1491 LP             1 S1                 0.0000
     54 ****        -0.4818  -4.5614   1.1820 LP             1 S1                 0.0000
     55 ****         0.9837  -3.9840   0.4616 LP             1 S1                 0.0000
@<TRIPOS>BOND
    1    1    2 1     
    2    1   25 1     
    3    1   26 1     
    4    1   27 1     
    5    2    3 am    
    6    2   28 1     
    7    3    4 2     
    8    3    5 1     
    9    5   24 2     
   10    5    6 1     
   11    6    7 2     
   12    6   29 1     
   13    7    8 1     
   14    7   30 1     
   15    8    9 2     
   16    8   10 am    
   17   10   11 1     
   18   10   24 1     
   19   11   12 1     
   20   11   31 1     
   21   11   32 1     
   22   12   13 2     
   23   12   14 am    
   24   14   15 1     
   25   14   33 1     
   26   15   16 1     
   27   15   17 1     
   28   15   34 1     
   29   16   35 1     
   30   16   36 1     
   31   16   37 1     
   32   17   22 1     
   33   17   18 1     
   34   17   38 1     
   35   18   19 1     
   36   18   39 1     
   37   18   40 1     
   38   19   23 1     
   39   19   20 1     
   40   19   41 1     
   41   20   21 1     
   42   20   42 1     
   43   20   43 1     
   44   21   22 1     
   45   21   44 1     
   46   21   45 1     
   47   22   23 1     
   48   22   46 1     
   49   23   47 1     
   50   23   48 1     
   51   24   49 1     
   52    4   50 1     
   53    4   51 1     
   54    9   52 1     
   55    9   53 1     
   56   13   54 1     
   57   13   55 1     
@<TRIPOS>SUBSTRUCTURE
      1 S1             1
@<TRIPOS>SET
LONE_PAIRS      STATIC     ATOMS    <user>   **** ""
6 50 51 52 53 54 55
DONOR_HYDROGENS      STATIC     ATOMS    <user>   **** ""
2 28 33
ATOM$BLUE        STATIC     ATOMS    COLORGROUP SYSTEM
6 50 51 52 53 54 55
ATOM$RED        STATIC     ATOMS    COLORGROUP SYSTEM
2 28 33
