AV-unprocessed.smi:2881|AV-procd|sdf|11062|dock6
  -GOLD-   2272015533D 1   1.00000     0.00000
 Structure written by MMmdl.
 40 42  0  0  0  0  0  0  0  0  1 V2000
  146.7249  137.5717  154.4118 C   0  0  0  0  0  0  0  0  0  0  0  0
  147.7720  138.6320  154.4591 C   0  0  0  0  0  0  0  0  0  0  0  0
  147.7715  139.8797  155.0158 C   0  0  0  0  0  0  0  0  0  0  0  0
  149.0689  140.3969  154.7258 C   0  0  0  0  0  0  0  0  0  0  0  0
  149.6362  141.7379  155.1064 C   0  0  0  0  0  0  0  0  0  0  0  0
  150.1507  141.6989  156.5454 C   0  0  0  0  0  0  0  0  0  0  0  0
  150.5414  140.6379  157.0317 O   0  0  0  0  0  0  0  0  0  0  0  0
  150.1473  142.8627  157.2133 N   0  0  0  0  0  0  0  0  0  0  0  0
  150.6135  143.0461  158.5850 C   0  0  1  0  0  0  0  0  0  0  0  0
  152.1293  142.7658  158.6838 C   0  0  2  0  0  0  0  0  0  0  0  0
  152.4995  142.5657  160.1644 C   0  0  0  0  0  0  0  0  0  0  0  0
  152.3973  143.9951  160.7287 C   0  0  0  0  0  0  0  0  0  0  0  0
  151.9662  144.8237  159.4992 C   0  0  1  0  0  0  0  0  0  0  0  0
  152.7499  144.1294  158.3926 C   0  0  0  0  0  0  0  0  0  0  0  0
  150.5100  144.5156  159.0687 C   0  0  2  0  0  0  0  0  0  0  0  0
  149.4216  144.7513  160.1344 C   0  0  0  0  0  0  0  0  0  0  0  0
  148.1441  144.4604  159.6085 O   0  0  0  0  0  0  0  0  0  0  0  0
  149.8108  139.5403  154.0368 N   0  0  0  0  0  0  0  0  0  0  0  0
  149.0106  138.4692  153.8829 N   0  0  0  0  0  0  0  0  0  0  0  0
  149.3188  137.6439  153.3886 H   0  0  0  0  0  0  0  0  0  0  0  0
  145.8946  137.8146  155.0754 H   0  0  0  0  0  0  0  0  0  0  0  0
  147.1316  136.6089  154.7217 H   0  0  0  0  0  0  0  0  0  0  0  0
  146.3289  137.4639  153.4019 H   0  0  0  0  0  0  0  0  0  0  0  0
  146.9662  140.3543  155.5565 H   0  0  0  0  0  0  0  0  0  0  0  0
  150.4464  142.0280  154.4355 H   0  0  0  0  0  0  0  0  0  0  0  0
  148.8711  142.5101  155.0184 H   0  0  0  0  0  0  0  0  0  0  0  0
  149.8122  143.6844  156.7313 H   0  0  0  0  0  0  0  0  0  0  0  0
  150.0650  142.3647  159.2383 H   0  0  0  0  0  0  0  0  0  0  0  0
  152.4746  141.9539  158.0423 H   0  0  0  0  0  0  0  0  0  0  0  0
  151.8326  141.8676  160.6714 H   0  0  0  0  0  0  0  0  0  0  0  0
  153.5175  142.1873  160.2641 H   0  0  0  0  0  0  0  0  0  0  0  0
  151.7069  144.0712  161.5674 H   0  0  0  0  0  0  0  0  0  0  0  0
  153.3727  144.3275  161.0861 H   0  0  0  0  0  0  0  0  0  0  0  0
  152.1734  145.8896  159.5985 H   0  0  0  0  0  0  0  0  0  0  0  0
  153.8307  144.1545  158.5438 H   0  0  0  0  0  0  0  0  0  0  0  0
  152.5217  144.5074  157.3943 H   0  0  0  0  0  0  0  0  0  0  0  0
  150.2789  145.1585  158.2166 H   0  0  0  0  0  0  0  0  0  0  0  0
  149.5931  144.0981  160.9898 H   0  0  0  0  0  0  0  0  0  0  0  0
  149.4370  145.7712  160.5169 H   0  0  0  0  0  0  0  0  0  0  0  0
  147.9544  145.0808  158.9213 H   0  0  0  0  0  0  0  0  0  0  0  0
  1  2  1  0  0  0  0
  1 21  1  0  0  0  0
  1 22  1  0  0  0  0
  1 23  1  0  0  0  0
  2 19  1  0  0  0  0
  2  3  2  0  0  0  0
  3  4  1  0  0  0  0
  3 24  1  0  0  0  0
  4  5  1  0  0  0  0
  4 18  2  0  0  0  0
  5  6  1  0  0  0  0
  5 25  1  0  0  0  0
  5 26  1  0  0  0  0
  6  7  2  0  0  0  0
  6  8  1  0  0  0  0
  8  9  1  0  0  0  0
  8 27  1  0  0  0  0
  9 15  1  0  0  0  0
  9 10  1  0  0  0  0
  9 28  1  0  0  0  0
 10 14  1  0  0  0  0
 10 11  1  0  0  0  0
 10 29  1  0  0  0  0
 11 12  1  0  0  0  0
 11 30  1  0  0  0  0
 11 31  1  0  0  0  0
 12 13  1  0  0  0  0
 12 32  1  0  0  0  0
 12 33  1  0  0  0  0
 13 14  1  0  0  0  0
 13 15  1  0  0  0  0
 13 34  1  0  0  0  0
 14 35  1  0  0  0  0
 14 36  1  0  0  0  0
 15 16  1  0  0  0  0
 15 37  1  0  0  0  0
 16 17  1  0  0  0  0
 16 38  1  0  0  0  0
 16 39  1  0  0  0  0
 17 40  1  0  0  0  0
 18 19  1  0  0  0  0
 19 20  1  0  0  0  0
M  END
> <s_m_source_file>
AV-unprocessed.smi

> <i_m_source_file_index>
2881

> <i_lp_mmshare_version>
43012

> <i_f3d_flags>
0

> <s_epik_input>
W0NIM11jMVtjSF1jKG5bbkhdMSlbQ0gyXUMoPU8pW05IXVtDQEhdKFtDQEBIXTIzKVtDQEhdKFtDSDJdW09IXSlbQ0BASF0oW0NIMl0zKVtDSDJdW0NIMl0y

> <s_epik_cmdline>
J2VwaWtfcHl0aG9uJywgJy1waCcsICc3LjAnLCAnLXRuJywgJzgnLCAnLW1hJywgJzIwMCcsICctbWV0YWxfYmluZGluZycsICctaW1hZScsICc8aW5maWxlLm1hZT4nLCAnLW9tYWUnLCAnPG91dGZpbGUubWFlPic=

> <r_lp_tautomer_probability>
0.5

> <r_epik_Ionization_Penalty>
9.4349e-05

> <r_epik_Ionization_Penalty_Charging>
0

> <r_epik_Ionization_Penalty_Neutral>
9.4349e-05

> <r_epik_State_Penalty>
0.41068

> <r_epik_Charging_Adjusted_Penalty>
0.41068

> <i_epik_Tot_Q>
0

> <i_epik_Tot_abs_Q>
0

> <r_epik_Metal_State_Penalty>
0.4107

> <b_epik_Metal_Only>
0

> <s_lp_Force_Field>
OPLS_2005

> <r_lp_Energy>
47.6032

> <b_lp_Chiralities_Consistent>
1

> <s_lp_Variant>
AV-unprocessed.smi:2881-8

> <Gold.Version>
5.8.1

> <Gold.Id.Protein>
6NUR|6NUR_protein|mol2

> <Gold.PLP.Fitness>
48.3744

> <Gold.PLP.PLP>
-38.5748

> <Gold.PLP.part.hbond>
-5.0000

> <Gold.PLP.part.metal>
0.0000

> <Gold.PLP.part.buried>
-5.2425

> <Gold.PLP.part.nonpolar>
-30.9033

> <Gold.PLP.part.repulsive>
2.3657

> <Gold.PLP.ligand.clash>
0.0000

> <Gold.PLP.ligand.torsion>
0.6954

> <Gold.PLP.Chemscore.Hbond>
3.7182

> <Gold.PLP.Chemscore.CHOScore>
0.0000

> <Gold.PLP.Chemscore.Metal>
0.0000

> <Gold.Chemscore.Hbonds>
donor molecule, donor type, donor heavy atom, donor atom, acceptor molecule, acceptor atom, score
      L1  H     8    27       P1  8028  1.00
      L1  H    17    40       P1  8029  1.00
      L1  H    19    20       P1  7948  0.84
      P1  H  7989  7998       L1    18  0.30

> <Gold.PLP.Chemscore.Internal.Correction>
0.0360

> <Gold.Rescore>
     Score         DG    S(hbond)    S(metal)    S(lipo)     H(rot)  DE(clash)    DE(int)     intcor
     20.38     -21.50       2.72        0.00     109.09       2.28       0.42       0.70       ----

> <Gold.Chemscore.Fitness>
20.3811

> <Gold.Chemscore.DG>
-21.4997

> <Gold.Chemscore.ZeroCoef>
-5.4800

> <Gold.Chemscore.Hbond>
2.7189

> <Gold.Chemscore.Metal>
0.0000

> <Gold.Chemscore.Lipo>
109.0922

> <Gold.Chemscore.Internal_Hbond>
0.0000

> <Gold.Chemscore.DEClash>
0.4199

> <Gold.Chemscore.DEInternal>
0.6987

> <Gold.Chemscore.Rot>
2.2755

> <Gold.Chemscore.Internal.Correction>
   9.000000E+99

> <Gold.Chemscore.Hbonds>
donor molecule, donor type, donor heavy atom, donor atom, acceptor molecule, acceptor atom, score
      L1  H     8    27       P1  8028  1.00
      L1  H    17    40       P1  8029  1.00
      L1  H    19    20       P1  7948  0.77
      P1  H  7989  7998       L1    18  0.09

> <Gold.Chemscore.Hbond.Weighted>
-9.0811

> <Gold.Chemscore.Metal.Weighted>
-0.0000

> <Gold.Chemscore.Lipo.Weighted>
-12.7638

> <Gold.Chemscore.Internal_Hbond.Weighted>
0.0000

> <Gold.Chemscore.DEClash.Weighted>
0.4199

> <Gold.Chemscore.DEInternal.Weighted>
0.6987

> <Gold.Chemscore.Rot.Weighted>
5.8252

> <Gold.Chemscore.Internal.Correction.Weighted>
   9.000000E+99

> <Gold.Protein.RotatedTorsions>
[ 6907 6896 6895 6894 ] final -117.45 input  -60.11 | X-H torsion
[ 7974 7965 7964 7962 ] final  157.58 input  175.53 | X-H torsion
[ 8008 7997 7996 7995 ] final  -11.31 input   59.86 | X-H torsion
[ 10167 10162 10161 10158 ] final -120.99 input  -65.29 | X-H torsion
[ 10718 10713 10712 10709 ] final   99.48 input   66.30 | X-H torsion
[ 10763 10752 10751 10750 ] final  108.59 input  -60.55 | X-H torsion
[ 11005 11000 10999 10996 ] final  106.63 input  -57.11 | X-H torsion

> <Gold.Protein.ActiveResidues>
 VAL166  LYS551  ARG553  GLY616  TRP617  ASP618  TYR619  PRO620  LYS621  CYS622 
 ASP623  PHE694  ASN695  SER759  ASP760  ASP761  ALA762  ILE779  LEU786  VAL792 
 PHE793  MET794  SER795  GLU796  ALA797  LYS798  CYS799  TRP800  GLU811  SER814 

> <Gold.Protein.RotatedAtoms>
  150.8138  133.8374  159.3169 H   0  0  0  0  0  0  0  0  0  0  0  0  # atno 6907 bound_to 6896
  151.6152  135.1035  160.0099 H   0  0  0  0  0  0  0  0  0  0  0  0  # atno 6908 bound_to 6896
  152.4229  133.7107  159.6533 H   0  0  0  0  0  0  0  0  0  0  0  0  # atno 6909 bound_to 6896
  144.7895  139.7360  143.6227 H   0  0  0  0  0  0  0  0  0  0  0  0  # atno 7974 bound_to 7965
  154.5476  140.2306  155.8537 H   0  0  0  0  0  0  0  0  0  0  0  0  # atno 8008 bound_to 7997
  156.1917  140.3075  155.9307 H   0  0  0  0  0  0  0  0  0  0  0  0  # atno 8009 bound_to 7997
  155.3134  140.0437  157.3026 H   0  0  0  0  0  0  0  0  0  0  0  0  # atno 8010 bound_to 7997
  140.0298  143.5259  152.2181 H   0  0  0  0  0  0  0  0  0  0  0  0  # atno 10167 bound_to 10162
  157.6875  131.0671  150.4955 H   0  0  0  0  0  0  0  0  0  0  0  0  # atno 10718 bound_to 10713
  153.4228  135.3807  155.2122 H   0  0  0  0  0  0  0  0  0  0  0  0  # atno 10763 bound_to 10752
  154.8745  135.3821  154.4363 H   0  0  0  0  0  0  0  0  0  0  0  0  # atno 10764 bound_to 10752
  153.4885  135.7088  153.5960 H   0  0  0  0  0  0  0  0  0  0  0  0  # atno 10765 bound_to 10752
  139.8816  134.9375  156.5695 H   0  0  0  0  0  0  0  0  0  0  0  0  # atno 11005 bound_to 11000
  146.2141  139.5518  142.9661 LP  0  0  0  0  0  0  0  0  0  0  0  0  # atno 17320 bound_to 7965
  145.5832  141.0380  143.2111 LP  0  0  0  0  0  0  0  0  0  0  0  0  # atno 17321 bound_to 7965
  139.6083  144.7602  151.3010 LP  0  0  0  0  0  0  0  0  0  0  0  0  # atno 17342 bound_to 10162
  140.7307  143.6873  150.7951 LP  0  0  0  0  0  0  0  0  0  0  0  0  # atno 17343 bound_to 10162
  156.5279  130.4177  149.6217 LP  0  0  0  0  0  0  0  0  0  0  0  0  # atno 17370 bound_to 10713
  156.3095  130.7221  151.2111 LP  0  0  0  0  0  0  0  0  0  0  0  0  # atno 17371 bound_to 10713
  140.8109  133.8430  155.8809 LP  0  0  0  0  0  0  0  0  0  0  0  0  # atno 17394 bound_to 11000
  140.9507  134.1782  157.4730 LP  0  0  0  0  0  0  0  0  0  0  0  0  # atno 17395 bound_to 11000

$$$$
