AV-unprocessed.smi:931|AV-procd|sdf|4198|dock6
  -GOLD-   22720 2103D 1   1.00000     0.00000
 Structure written by MMmdl.
 36 37  0  0  0  0  0  0  0  0  1 V2000
  153.1743  143.4221  163.1172 C   0  0  0  0  0  0  0  0  0  0  0  0
  152.8524  142.4916  161.9392 C   0  0  0  0  0  0  0  0  0  0  0  0
  153.9986  141.5265  161.6028 C   0  0  0  0  0  0  0  0  0  0  0  0
  152.3807  143.2479  160.7370 C   0  0  0  0  0  0  0  0  0  0  0  0
  152.0460  142.6691  159.5795 N   0  0  0  0  0  0  0  0  0  0  0  0
  151.6414  143.5922  158.6104 C   0  0  0  0  0  0  0  0  0  0  0  0
  151.2174  143.1177  157.2540 C   0  0  0  0  0  0  0  0  0  0  0  0
  150.1842  141.9816  157.3371 C   0  0  0  0  0  0  0  0  0  0  0  0
  149.2751  141.9904  156.1968 N   0  0  0  0  0  0  0  0  0  0  0  0
  149.4668  141.3122  155.0543 C   0  0  0  0  0  0  0  0  0  0  0  0
  150.4276  140.5698  154.8525 O   0  0  0  0  0  0  0  0  0  0  0  0
  148.4602  141.4616  154.1784 N   0  0  0  0  0  0  0  0  0  0  0  0
  147.7500  140.4748  153.3699 C   0  0  0  0  0  0  0  0  0  0  0  0
  146.7434  141.5823  153.0678 C   0  0  0  0  0  0  0  0  0  0  0  0
  147.3295  142.3804  154.2299 C   0  0  0  0  0  0  0  0  0  0  0  0
  151.6727  144.8906  159.0539 C   0  0  0  0  0  0  0  0  0  0  0  0
  152.2146  145.0003  160.7057 S   0  0  0  0  0  0  0  0  0  0  0  0
  152.3108  144.0334  163.3806 H   0  0  0  0  0  0  0  0  0  0  0  0
  153.9990  144.0943  162.8785 H   0  0  0  0  0  0  0  0  0  0  0  0
  153.4565  142.8515  164.0023 H   0  0  0  0  0  0  0  0  0  0  0  0
  152.0141  141.8715  162.2587 H   0  0  0  0  0  0  0  0  0  0  0  0
  153.7027  140.8232  160.8239 H   0  0  0  0  0  0  0  0  0  0  0  0
  154.2925  140.9458  162.4775 H   0  0  0  0  0  0  0  0  0  0  0  0
  154.8794  142.0642  161.2499 H   0  0  0  0  0  0  0  0  0  0  0  0
  150.8029  143.9519  156.6869 H   0  0  0  0  0  0  0  0  0  0  0  0
  152.0878  142.7785  156.6906 H   0  0  0  0  0  0  0  0  0  0  0  0
  150.6926  141.0172  157.3563 H   0  0  0  0  0  0  0  0  0  0  0  0
  149.6153  142.0513  158.2657 H   0  0  0  0  0  0  0  0  0  0  0  0
  148.4412  142.5534  156.2803 H   0  0  0  0  0  0  0  0  0  0  0  0
  148.2941  140.1248  152.4919 H   0  0  0  0  0  0  0  0  0  0  0  0
  147.3323  139.6494  153.9488 H   0  0  0  0  0  0  0  0  0  0  0  0
  146.9124  142.0572  152.0999 H   0  0  0  0  0  0  0  0  0  0  0  0
  145.7005  141.2928  153.2005 H   0  0  0  0  0  0  0  0  0  0  0  0
  146.7457  142.3094  155.1491 H   0  0  0  0  0  0  0  0  0  0  0  0
  147.5701  143.4138  153.9781 H   0  0  0  0  0  0  0  0  0  0  0  0
  151.4069  145.7858  158.5113 H   0  0  0  0  0  0  0  0  0  0  0  0
  1  2  1  0  0  0  0
  1 18  1  0  0  0  0
  1 19  1  0  0  0  0
  1 20  1  0  0  0  0
  2  3  1  0  0  0  0
  2  4  1  0  0  0  0
  2 21  1  0  0  0  0
  3 22  1  0  0  0  0
  3 23  1  0  0  0  0
  3 24  1  0  0  0  0
  4 17  1  0  0  0  0
  4  5  2  0  0  0  0
  5  6  1  0  0  0  0
  6  7  1  0  0  0  0
  6 16  2  0  0  0  0
  7  8  1  0  0  0  0
  7 25  1  0  0  0  0
  7 26  1  0  0  0  0
  8  9  1  0  0  0  0
  8 27  1  0  0  0  0
  8 28  1  0  0  0  0
  9 10  1  0  0  0  0
  9 29  1  0  0  0  0
 10 11  2  0  0  0  0
 10 12  1  0  0  0  0
 12 15  1  0  0  0  0
 12 13  1  0  0  0  0
 13 14  1  0  0  0  0
 13 30  1  0  0  0  0
 13 31  1  0  0  0  0
 14 15  1  0  0  0  0
 14 32  1  0  0  0  0
 14 33  1  0  0  0  0
 15 34  1  0  0  0  0
 15 35  1  0  0  0  0
 16 17  1  0  0  0  0
 16 36  1  0  0  0  0
M  END
> <s_m_source_file>
AV-unprocessed.smi

> <i_m_source_file_index>
931

> <i_lp_mmshare_version>
43012

> <i_f3d_flags>
0

> <s_epik_input>
W0NIM11bQ0hdKFtDSDNdKWMxbmMoW2NIXXMxKVtDSDJdW0NIMl1bTkhdQyg9TylOMltDSDJdW0NIMl1bQ0gyXTI=

> <s_epik_cmdline>
J2VwaWtfcHl0aG9uJywgJy1waCcsICc3LjAnLCAnLXRuJywgJzgnLCAnLW1hJywgJzIwMCcsICctbWV0YWxfYmluZGluZycsICctaW1hZScsICc8aW5maWxlLm1hZT4nLCAnLW9tYWUnLCAnPG91dGZpbGUubWFlPic=

> <r_epik_Ionization_Penalty>
0.00159927

> <r_epik_Ionization_Penalty_Charging>
0

> <r_epik_Ionization_Penalty_Neutral>
0.00159927

> <r_epik_State_Penalty>
0.00102964

> <r_epik_Charging_Adjusted_Penalty>
0.00102964

> <i_epik_Tot_Q>
0

> <i_epik_Tot_abs_Q>
0

> <r_epik_Metal_State_Penalty>
-0

> <b_epik_Metal_Only>
0

> <s_lp_Force_Field>
OPLS_2005

> <r_lp_Energy>
8.94744

> <b_lp_Chiralities_Consistent>
1

> <s_lp_Variant>
AV-unprocessed.smi:931-1

> <Gold.Version>
5.8.1

> <Gold.Id.Protein>
6NUR|6NUR_protein|mol2

> <Gold.PLP.Fitness>
46.1069

> <Gold.PLP.PLP>
-44.3169

> <Gold.PLP.part.hbond>
-2.0000

> <Gold.PLP.part.metal>
0.0000

> <Gold.PLP.part.buried>
-2.5532

> <Gold.PLP.part.nonpolar>
-39.1811

> <Gold.PLP.part.repulsive>
0.1470

> <Gold.PLP.ligand.clash>
0.0000

> <Gold.PLP.ligand.torsion>
0.9164

> <Gold.PLP.Chemscore.Hbond>
1.0749

> <Gold.PLP.Chemscore.CHOScore>
0.0000

> <Gold.PLP.Chemscore.Metal>
0.0000

> <Gold.Chemscore.Hbonds>
donor molecule, donor type, donor heavy atom, donor atom, acceptor molecule, acceptor atom, score
      L1  H     9    29       P1  8028  0.08
      P1  H  7989  7998       L1    11  0.96

> <Gold.PLP.Chemscore.Internal.Correction>
0.3982

> <Gold.Rescore>
     Score         DG    S(hbond)    S(metal)    S(lipo)     H(rot)  DE(clash)    DE(int)     intcor
     17.61     -18.83       0.94        0.00     119.73       1.48       0.22       1.00       ----

> <Gold.Chemscore.Fitness>
17.6135

> <Gold.Chemscore.DG>
-18.8329

> <Gold.Chemscore.ZeroCoef>
-5.4800

> <Gold.Chemscore.Hbond>
0.9418

> <Gold.Chemscore.Metal>
0.0000

> <Gold.Chemscore.Lipo>
119.7283

> <Gold.Chemscore.Internal_Hbond>
0.0000

> <Gold.Chemscore.DEClash>
0.2202

> <Gold.Chemscore.DEInternal>
0.9991

> <Gold.Chemscore.Rot>
1.4847

> <Gold.Chemscore.Internal.Correction>
   9.000000E+99

> <Gold.Chemscore.Hbonds>
donor molecule, donor type, donor heavy atom, donor atom, acceptor molecule, acceptor atom, score
      L1  H     9    29       P1  8028  0.08
      P1  H  7989  7998       L1    11  0.91

> <Gold.Chemscore.Hbond.Weighted>
-3.1456

> <Gold.Chemscore.Metal.Weighted>
-0.0000

> <Gold.Chemscore.Lipo.Weighted>
-14.0082

> <Gold.Chemscore.Internal_Hbond.Weighted>
0.0000

> <Gold.Chemscore.DEClash.Weighted>
0.2202

> <Gold.Chemscore.DEInternal.Weighted>
0.9991

> <Gold.Chemscore.Rot.Weighted>
3.8009

> <Gold.Chemscore.Internal.Correction.Weighted>
   9.000000E+99

> <Gold.Protein.RotatedTorsions>
[ 6907 6896 6895 6894 ] final  -11.43 input  -60.11 | X-H torsion
[ 7974 7965 7964 7962 ] final   76.94 input  175.53 | X-H torsion
[ 8008 7997 7996 7995 ] final   81.04 input   59.86 | X-H torsion
[ 10167 10162 10161 10158 ] final   57.45 input  -65.29 | X-H torsion
[ 10718 10713 10712 10709 ] final   90.66 input   66.30 | X-H torsion
[ 10763 10752 10751 10750 ] final   47.62 input  -60.55 | X-H torsion
[ 11005 11000 10999 10996 ] final  123.90 input  -57.11 | X-H torsion

> <Gold.Protein.ActiveResidues>
 VAL166  LYS551  ARG553  GLY616  TRP617  ASP618  TYR619  PRO620  LYS621  CYS622 
 ASP623  PHE694  ASN695  SER759  ASP760  ASP761  ALA762  ILE779  LEU786  VAL792 
 PHE793  MET794  SER795  GLU796  ALA797  LYS798  CYS799  TRP800  GLU811  SER814 

> <Gold.Protein.RotatedAtoms>
  151.3864  135.0948  159.9511 H   0  0  0  0  0  0  0  0  0  0  0  0  # atno 6907 bound_to 6896
  152.5093  133.9022  159.7457 H   0  0  0  0  0  0  0  0  0  0  0  0  # atno 6908 bound_to 6896
  150.9466  133.6540  159.2809 H   0  0  0  0  0  0  0  0  0  0  0  0  # atno 6909 bound_to 6896
  145.6965  139.2569  143.1730 H   0  0  0  0  0  0  0  0  0  0  0  0  # atno 7974 bound_to 7965
  155.8918  140.3438  155.5961 H   0  0  0  0  0  0  0  0  0  0  0  0  # atno 8008 bound_to 7997
  155.7602  140.0831  157.2178 H   0  0  0  0  0  0  0  0  0  0  0  0  # atno 8009 bound_to 7997
  154.4034  140.1537  156.2811 H   0  0  0  0  0  0  0  0  0  0  0  0  # atno 8010 bound_to 7997
  140.1978  144.4019  150.6542 H   0  0  0  0  0  0  0  0  0  0  0  0  # atno 10167 bound_to 10162
  157.6959  131.0379  150.3611 H   0  0  0  0  0  0  0  0  0  0  0  0  # atno 10718 bound_to 10713
  152.9798  135.5970  154.3792 H   0  0  0  0  0  0  0  0  0  0  0  0  # atno 10763 bound_to 10752
  154.3459  135.2767  155.2400 H   0  0  0  0  0  0  0  0  0  0  0  0  # atno 10764 bound_to 10752
  154.4461  135.6001  153.6216 H   0  0  0  0  0  0  0  0  0  0  0  0  # atno 10765 bound_to 10752
  139.9334  134.9640  156.8329 H   0  0  0  0  0  0  0  0  0  0  0  0  # atno 11005 bound_to 11000
  146.0836  140.7736  142.9629 LP  0  0  0  0  0  0  0  0  0  0  0  0  # atno 17320 bound_to 7965
  144.6981  140.3527  143.7179 LP  0  0  0  0  0  0  0  0  0  0  0  0  # atno 17321 bound_to 7965
  140.6411  143.2204  151.6287 LP  0  0  0  0  0  0  0  0  0  0  0  0  # atno 17342 bound_to 10162
  139.5229  144.3148  152.0962 LP  0  0  0  0  0  0  0  0  0  0  0  0  # atno 17343 bound_to 10162
  156.4048  130.3922  149.6934 LP  0  0  0  0  0  0  0  0  0  0  0  0  # atno 17370 bound_to 10713
  156.4239  130.7782  151.2800 LP  0  0  0  0  0  0  0  0  0  0  0  0  # atno 17371 bound_to 10713
  140.6141  134.0055  155.7589 LP  0  0  0  0  0  0  0  0  0  0  0  0  # atno 17394 bound_to 11000
  141.0935  133.9880  157.3199 LP  0  0  0  0  0  0  0  0  0  0  0  0  # atno 17395 bound_to 11000

$$$$
