#       Name:                AV-unprocessed.smi:3226
#       Creating user name   scv26
#       Creation time:       Fri Mar 27 18:16:09 2020


#       File generated by GOLD software.
#

@<TRIPOS>MOLECULE
AV-unprocessed.smi:3226
    43    45     1
SMALL
NO_CHARGES


@<TRIPOS>ATOM
      1 ****        -4.0790   0.1730  -4.1730 C.3            1 S1                 0.0000
      2 ****        -2.8141   0.8076  -3.5845 C.3            1 S1                 0.0000
      3 ****        -3.0031   1.2635  -2.1705 C.2            1 S1                 0.0000
      4 ****        -3.4862   2.4688  -1.8462 N.2            1 S1                 0.0000
      5 ****        -3.5358   2.4927  -0.4671 N.2            1 S1                 0.0000
      6 ****        -3.0872   1.2954  -0.0955 C.2            1 S1                 0.0000
      7 ****        -2.7345   0.4818  -1.1028 N.pl3          1 S1                 0.0000
      8 ****        -2.2162  -0.8736  -1.0262 C.3            1 S1                 0.0000
      9 ****        -0.6798  -0.9185  -1.0607 C.3            1 S1                 0.0000
     10 ****        -0.0861  -0.2801   0.1317 N.4            1 S1                 1.0000
     11 ****         1.3864  -0.3621   0.1863 C.3            1 S1                 0.0000
     12 ****         1.9372   0.3365   1.4436 C.3            1 S1                 0.0000
     13 ****         1.5812  -0.3685   2.7897 C.3            1 S1                 0.0000
     14 ****         2.9603  -0.5427   3.4668 C.3            1 S1                 0.0000
     15 ****         3.7376  -1.5635   2.6644 C.2            1 S1                 0.0000
     16 ****         4.0536  -0.9947   1.4998 C.2            1 S1                 0.0000
     17 ****         3.4857   0.4113   1.5145 C.3            1 S1                 0.0000
     18 ****         3.6519   0.7433   3.0023 C.3            1 S1                 0.0000
     19 ****        -3.9123  -0.1436  -5.2028 H              1 S1                 0.0000
     20 ****        -4.9103   0.8788  -4.1717 H              1 S1                 0.0000
     21 ****        -4.3833  -0.7035  -3.6004 H              1 S1                 0.0000
     22 ****        -1.9831   0.1047  -3.6382 H              1 S1                 0.0000
     23 ****        -2.5232   1.6671  -4.1895 H              1 S1                 0.0000
     24 ****        -3.0110   1.0046   0.9420 H              1 S1                 0.0000
     25 ****        -2.5904  -1.3406  -0.1141 H              1 S1                 0.0000
     26 ****        -2.6264  -1.4497  -1.8559 H              1 S1                 0.0000
     27 ****        -0.3523  -1.9580  -1.1028 H              1 S1                 0.0000
     28 ****        -0.3029  -0.4303  -1.9603 H              1 S1                 0.0000
     29 ****        -0.3549   0.6936   0.1430 H              1 S1                 0.0000
     30 ****         1.6876  -1.4100   0.1606 H              1 S1                 0.0000
     31 ****         1.7979   0.1121  -0.7056 H              1 S1                 0.0000
     32 ****         1.5492   1.3567   1.4670 H              1 S1                 0.0000
     33 ****         0.9252   0.2614   3.3921 H              1 S1                 0.0000
     34 ****         1.0810  -1.3277   2.6487 H              1 S1                 0.0000
     35 ****         2.9545  -0.7124   4.5438 H              1 S1                 0.0000
     36 ****         3.9525  -2.5708   2.9899 H              1 S1                 0.0000
     37 ****         4.5817  -1.4381   0.6686 H              1 S1                 0.0000
     38 ****         3.9675   1.1079   0.8279 H              1 S1                 0.0000
     39 ****         3.1426   1.6573   3.3143 H              1 S1                 0.0000
     40 ****         4.6975   0.8005   3.3125 H              1 S1                 0.0000
     41 ****        -0.4592  -0.7282   0.9565 H              1 S1                 0.0000
     42 ****        -3.7553   3.2001  -2.4729 LP             1 S1                 0.0000
     43 ****        -3.8405   3.2416   0.1214 LP             1 S1                 0.0000
@<TRIPOS>BOND
    1    1    2 1     
    2    1   19 1     
    3    1   20 1     
    4    1   21 1     
    5    2    3 1     
    6    2   22 1     
    7    2   23 1     
    8    3    7 1     
    9    3    4 2     
   10    4    5 1     
   11    5    6 2     
   12    6    7 1     
   13    6   24 1     
   14    7    8 1     
   15    8    9 1     
   16    8   25 1     
   17    8   26 1     
   18    9   10 1     
   19    9   27 1     
   20    9   28 1     
   21   10   11 1     
   22   10   29 1     
   23   10   41 1     
   24   11   12 1     
   25   11   30 1     
   26   11   31 1     
   27   12   17 1     
   28   12   13 1     
   29   12   32 1     
   30   13   14 1     
   31   13   33 1     
   32   13   34 1     
   33   14   18 1     
   34   14   15 1     
   35   14   35 1     
   36   15   16 2     
   37   15   36 1     
   38   16   17 1     
   39   16   37 1     
   40   17   18 1     
   41   17   38 1     
   42   18   39 1     
   43   18   40 1     
   44    4   42 1     
   45    5   43 1     
@<TRIPOS>SUBSTRUCTURE
      1 S1             1
@<TRIPOS>SET
LONE_PAIRS      STATIC     ATOMS    <user>   **** ""
2 42 43
DONOR_HYDROGENS      STATIC     ATOMS    <user>   **** ""
2 29 41
ATOM$BLUE        STATIC     ATOMS    COLORGROUP SYSTEM
2 42 43
ATOM$RED        STATIC     ATOMS    COLORGROUP SYSTEM
2 29 41
