AV-unprocessed.smi:2505|AV-procd|sdf|9857|dock3
  -GOLD-   2272013483D 1   1.00000     0.00000
 Structure written by MMmdl.
 48 52  0  0  0  0  0  0  0  0  1 V2000
  149.2792  135.2879  156.2342 O   0  0  0  0  0  0  0  0  0  0  0  0
  149.2145  135.5392  155.0331 C   0  0  0  0  0  0  0  0  0  0  0  0
  149.5773  136.7075  154.4705 N   0  0  0  0  0  0  0  0  0  0  0  0
  150.0656  137.8852  155.0950 C   0  0  0  0  0  0  0  0  0  0  0  0
  150.4757  139.0616  154.4204 C   0  0  0  0  0  0  0  0  0  0  0  0
  150.9504  140.1338  155.0908 N   0  0  0  0  0  0  0  0  0  0  0  0
  151.0298  140.0317  156.4204 C   0  0  0  0  0  0  0  0  0  0  0  0
  151.5252  141.2362  157.1587 C   0  0  0  0  0  0  0  0  0  0  0  0
  150.6904  141.8747  158.2504 C   0  0  0  0  0  0  0  0  0  0  0  0
  150.8855  142.5932  156.9446 C   0  0  0  0  0  0  0  0  0  0  0  0
  150.6683  138.9806  157.1613 N   0  0  0  0  0  0  0  0  0  0  0  0
  150.1939  137.9040  156.4995 C   0  0  0  0  0  0  0  0  0  0  0  0
  148.7865  134.6201  154.1504 N   0  0  0  0  0  0  0  0  0  0  0  0
  148.3243  133.2600  154.4343 C   0  0  2  0  0  0  0  0  0  0  0  0
  149.4036  132.2088  154.1275 C   0  0  1  0  0  0  0  0  0  0  0  0
  149.9989  131.3970  155.2456 C   0  0  0  0  0  0  0  0  0  0  0  0
  149.1681  130.1115  155.2124 C   0  0  0  0  0  0  0  0  0  0  0  0
  147.9564  130.4856  154.5608 O   0  0  0  0  0  0  0  0  0  0  0  0
  148.2985  131.3737  153.4994 C   0  0  1  0  0  0  0  0  0  0  0  0
  147.4253  132.6360  153.3387 C   0  0  0  0  0  0  0  0  0  0  0  0
  145.9297  132.4827  153.6047 C   0  0  0  0  0  0  0  0  0  0  0  0
  145.2691  132.1258  152.2689 C   0  0  0  0  0  0  0  0  0  0  0  0
  146.2513  132.5808  151.1844 C   0  0  0  0  0  0  0  0  0  0  0  0
  147.4082  133.2446  151.9338 C   0  0  0  0  0  0  0  0  0  0  0  0
  149.5315  136.7403  153.4624 H   0  0  0  0  0  0  0  0  0  0  0  0
  150.4504  139.1614  153.3469 H   0  0  0  0  0  0  0  0  0  0  0  0
  152.6037  141.1984  157.2997 H   0  0  0  0  0  0  0  0  0  0  0  0
  149.7052  141.4565  158.4483 H   0  0  0  0  0  0  0  0  0  0  0  0
  151.2159  142.2613  159.1210 H   0  0  0  0  0  0  0  0  0  0  0  0
  151.5412  143.4614  156.9410 H   0  0  0  0  0  0  0  0  0  0  0  0
  150.0305  142.6519  156.2740 H   0  0  0  0  0  0  0  0  0  0  0  0
  149.9130  137.0502  157.0988 H   0  0  0  0  0  0  0  0  0  0  0  0
  148.8029  134.8864  153.1763 H   0  0  0  0  0  0  0  0  0  0  0  0
  147.9080  133.1260  155.4355 H   0  0  0  0  0  0  0  0  0  0  0  0
  150.1212  132.5482  153.3781 H   0  0  0  0  0  0  0  0  0  0  0  0
  151.0598  131.1933  155.0984 H   0  0  0  0  0  0  0  0  0  0  0  0
  149.8842  131.9085  156.2020 H   0  0  0  0  0  0  0  0  0  0  0  0
  149.6695  129.3466  154.6172 H   0  0  0  0  0  0  0  0  0  0  0  0
  148.9820  129.7034  156.2059 H   0  0  0  0  0  0  0  0  0  0  0  0
  148.5888  130.8648  152.5790 H   0  0  0  0  0  0  0  0  0  0  0  0
  145.7096  131.7367  154.3686 H   0  0  0  0  0  0  0  0  0  0  0  0
  145.5184  133.4255  153.9658 H   0  0  0  0  0  0  0  0  0  0  0  0
  145.1112  131.0490  152.1982 H   0  0  0  0  0  0  0  0  0  0  0  0
  144.2964  132.6078  152.1670 H   0  0  0  0  0  0  0  0  0  0  0  0
  146.6136  131.7147  150.6293 H   0  0  0  0  0  0  0  0  0  0  0  0
  145.7907  133.2623  150.4685 H   0  0  0  0  0  0  0  0  0  0  0  0
  147.2190  134.3175  151.9836 H   0  0  0  0  0  0  0  0  0  0  0  0
  148.3542  133.1143  151.4070 H   0  0  0  0  0  0  0  0  0  0  0  0
  1  2  2  0  0  0  0
  2  3  1  0  0  0  0
  2 13  1  0  0  0  0
  3  4  1  0  0  0  0
  3 25  1  0  0  0  0
  4 12  1  0  0  0  0
  4  5  2  0  0  0  0
  5  6  1  0  0  0  0
  5 26  1  0  0  0  0
  6  7  2  0  0  0  0
  7  8  1  0  0  0  0
  7 11  1  0  0  0  0
  8 10  1  0  0  0  0
  8  9  1  0  0  0  0
  8 27  1  0  0  0  0
  9 10  1  0  0  0  0
  9 28  1  0  0  0  0
  9 29  1  0  0  0  0
 10 30  1  0  0  0  0
 10 31  1  0  0  0  0
 11 12  2  0  0  0  0
 12 32  1  0  0  0  0
 13 14  1  0  0  0  0
 13 33  1  0  0  0  0
 14 20  1  0  0  0  0
 14 15  1  0  0  0  0
 14 34  1  0  0  0  0
 15 19  1  0  0  0  0
 15 16  1  0  0  0  0
 15 35  1  0  0  0  0
 16 17  1  0  0  0  0
 16 36  1  0  0  0  0
 16 37  1  0  0  0  0
 17 18  1  0  0  0  0
 17 38  1  0  0  0  0
 17 39  1  0  0  0  0
 18 19  1  0  0  0  0
 19 20  1  0  0  0  0
 19 40  1  0  0  0  0
 20 24  1  0  0  0  0
 20 21  1  0  0  0  0
 21 22  1  0  0  0  0
 21 41  1  0  0  0  0
 21 42  1  0  0  0  0
 22 23  1  0  0  0  0
 22 43  1  0  0  0  0
 22 44  1  0  0  0  0
 23 24  1  0  0  0  0
 23 45  1  0  0  0  0
 23 46  1  0  0  0  0
 24 47  1  0  0  0  0
 24 48  1  0  0  0  0
M  END
> <s_m_source_file>
AV-unprocessed.smi

> <i_m_source_file_index>
2505

> <i_lp_mmshare_version>
43012

> <i_f3d_flags>
0

> <s_epik_input>
W0NIMl0xW0NIMl1bQ0hdMWMobltjSF0yKW5bY0hdYzJbTkhdQyg9TylbTkhdW0NAQEhdM1tDQEBIXShbQ0gyXVtDSDJdTzQpW0NASF00QzM1W0NIMl1bQ0gyXVtDSDJdW0NIMl01

> <s_epik_cmdline>
J2VwaWtfcHl0aG9uJywgJy1waCcsICc3LjAnLCAnLXRuJywgJzgnLCAnLW1hJywgJzIwMCcsICctbWV0YWxfYmluZGluZycsICctaW1hZScsICc8aW5maWxlLm1hZT4nLCAnLW9tYWUnLCAnPG91dGZpbGUubWFlPic=

> <r_lp_tautomer_probability>
1

> <r_epik_Ionization_Penalty>
2.6075e-05

> <r_epik_Ionization_Penalty_Charging>
0

> <r_epik_Ionization_Penalty_Neutral>
2.6075e-05

> <r_epik_State_Penalty>
-0

> <r_epik_Charging_Adjusted_Penalty>
0

> <i_epik_Tot_Q>
0

> <i_epik_Tot_abs_Q>
0

> <r_epik_Metal_State_Penalty>
-0

> <b_epik_Metal_Only>
0

> <s_lp_Force_Field>
OPLS_2005

> <r_lp_Energy>
63.1454

> <b_lp_Chiralities_Consistent>
1

> <s_lp_Variant>
AV-unprocessed.smi:2505-5

> <Gold.Version>
5.8.1

> <Gold.Id.Protein>
6NUR|6NUR_protein|mol2

> <Gold.PLP.Fitness>
47.0308

> <Gold.PLP.PLP>
-36.6090

> <Gold.PLP.part.hbond>
-3.0000

> <Gold.PLP.part.metal>
0.0000

> <Gold.PLP.part.buried>
-4.5317

> <Gold.PLP.part.nonpolar>
-29.7539

> <Gold.PLP.part.repulsive>
0.1351

> <Gold.PLP.ligand.clash>
0.0000

> <Gold.PLP.ligand.torsion>
0.3410

> <Gold.PLP.Chemscore.Hbond>
2.6000

> <Gold.PLP.Chemscore.CHOScore>
1.0000

> <Gold.PLP.Chemscore.Metal>
0.0000

> <Gold.Chemscore.Hbonds>
donor molecule, donor type, donor heavy atom, donor atom, acceptor molecule, acceptor atom, score
      L1  H     3    25       P1  7948  1.00
      L1  H    13    33       P1  7948  1.00
      P1  H  7989  7998       L1     6  0.55
      L1  C     5    26       P1  7957  1.00

> <Gold.PLP.Chemscore.Internal.Correction>
0.3038

> <Gold.Rescore>
     Score         DG    S(hbond)    S(metal)    S(lipo)     H(rot)  DE(clash)    DE(int)     intcor
     16.72     -18.51       1.77        0.00      86.62       1.17       0.03       1.76       ----

> <Gold.Chemscore.Fitness>
16.7166

> <Gold.Chemscore.DG>
-18.5101

> <Gold.Chemscore.ZeroCoef>
-5.4800

> <Gold.Chemscore.Hbond>
1.7671

> <Gold.Chemscore.Metal>
0.0000

> <Gold.Chemscore.Lipo>
86.6182

> <Gold.Chemscore.Internal_Hbond>
0.0000

> <Gold.Chemscore.DEClash>
0.0336

> <Gold.Chemscore.DEInternal>
1.7599

> <Gold.Chemscore.Rot>
1.1744

> <Gold.Chemscore.Internal.Correction>
   9.000000E+99

> <Gold.Chemscore.Hbonds>
donor molecule, donor type, donor heavy atom, donor atom, acceptor molecule, acceptor atom, score
      L1  H     3    25       P1  7948  0.73
      L1  H    13    33       P1  7948  0.29
      P1  H  7989  7998       L1     6  0.03

> <Gold.Chemscore.Hbond.Weighted>
-5.9022

> <Gold.Chemscore.Metal.Weighted>
-0.0000

> <Gold.Chemscore.Lipo.Weighted>
-10.1343

> <Gold.Chemscore.Internal_Hbond.Weighted>
0.0000

> <Gold.Chemscore.DEClash.Weighted>
0.0336

> <Gold.Chemscore.DEInternal.Weighted>
1.7599

> <Gold.Chemscore.Rot.Weighted>
3.0064

> <Gold.Chemscore.Internal.Correction.Weighted>
   9.000000E+99

> <Gold.Protein.RotatedTorsions>
[ 6907 6896 6895 6894 ] final   55.51 input  -60.11 | X-H torsion
[ 7974 7965 7964 7962 ] final  -63.73 input  175.53 | X-H torsion
[ 8008 7997 7996 7995 ] final  -13.71 input   59.86 | X-H torsion
[ 10167 10162 10161 10158 ] final  154.24 input  -65.29 | X-H torsion
[ 10718 10713 10712 10709 ] final  -44.79 input   66.30 | X-H torsion
[ 10763 10752 10751 10750 ] final  -77.71 input  -60.55 | X-H torsion
[ 11005 11000 10999 10996 ] final   58.52 input  -57.11 | X-H torsion

> <Gold.Protein.ActiveResidues>
 VAL166  LYS551  ARG553  GLY616  TRP617  ASP618  TYR619  PRO620  LYS621  CYS622 
 ASP623  PHE694  ASN695  SER759  ASP760  ASP761  ALA762  ILE779  LEU786  VAL792 
 PHE793  MET794  SER795  GLU796  ALA797  LYS798  CYS799  TRP800  GLU811  SER814 

> <Gold.Protein.RotatedAtoms>
  152.3546  134.6958  160.0225 H   0  0  0  0  0  0  0  0  0  0  0  0  # atno 6907 bound_to 6896
  151.7301  133.3312  159.3346 H   0  0  0  0  0  0  0  0  0  0  0  0  # atno 6908 bound_to 6896
  150.7563  134.6305  159.6228 H   0  0  0  0  0  0  0  0  0  0  0  0  # atno 6909 bound_to 6896
  145.7755  140.8790  143.0358 H   0  0  0  0  0  0  0  0  0  0  0  0  # atno 7974 bound_to 7965
  154.5269  140.2242  155.8873 H   0  0  0  0  0  0  0  0  0  0  0  0  # atno 8008 bound_to 7997
  156.1723  140.3119  155.8960 H   0  0  0  0  0  0  0  0  0  0  0  0  # atno 8009 bound_to 7997
  155.3532  140.0457  157.3037 H   0  0  0  0  0  0  0  0  0  0  0  0  # atno 8010 bound_to 7997
  139.4824  144.5204  151.7885 H   0  0  0  0  0  0  0  0  0  0  0  0  # atno 10167 bound_to 10162
  156.2349  130.4175  149.8830 H   0  0  0  0  0  0  0  0  0  0  0  0  # atno 10718 bound_to 10713
  154.5165  135.5754  153.6646 H   0  0  0  0  0  0  0  0  0  0  0  0  # atno 10763 bound_to 10752
  152.9908  135.6171  154.2810 H   0  0  0  0  0  0  0  0  0  0  0  0  # atno 10764 bound_to 10752
  154.2728  135.2853  155.2710 H   0  0  0  0  0  0  0  0  0  0  0  0  # atno 10765 bound_to 10752
  140.0371  134.5927  155.9430 H   0  0  0  0  0  0  0  0  0  0  0  0  # atno 11005 bound_to 11000
  144.6805  139.9915  143.7484 LP  0  0  0  0  0  0  0  0  0  0  0  0  # atno 17320 bound_to 7965
  146.0127  139.3184  143.0860 LP  0  0  0  0  0  0  0  0  0  0  0  0  # atno 17321 bound_to 7965
  140.4717  144.1577  150.5919 LP  0  0  0  0  0  0  0  0  0  0  0  0  # atno 17342 bound_to 10162
  140.4375  143.2541  151.9516 LP  0  0  0  0  0  0  0  0  0  0  0  0  # atno 17343 bound_to 10162
  156.6431  130.8713  151.3517 LP  0  0  0  0  0  0  0  0  0  0  0  0  # atno 17370 bound_to 10713
  157.7150  130.9486  150.1222 LP  0  0  0  0  0  0  0  0  0  0  0  0  # atno 17371 bound_to 10713
  141.1863  133.6557  156.5234 LP  0  0  0  0  0  0  0  0  0  0  0  0  # atno 17394 bound_to 11000
  140.4129  134.7256  157.4846 LP  0  0  0  0  0  0  0  0  0  0  0  0  # atno 17395 bound_to 11000

$$$$
