AV-unprocessed.smi:227|AV-procd|sdf|1729|dock1
  -GOLD-   2262020213D 1   1.00000     0.00000
 Structure written by MMmdl.
 54 58  0  0  0  0  0  0  0  0  1 V2000
  153.0774  139.6207  157.3488 O   0  0  0  0  0  0  0  0  0  0  0  0
  152.6542  139.9840  158.6463 C   0  0  0  0  0  0  0  0  0  0  0  0
  151.3769  140.8623  158.6106 C   0  0  2  0  0  0  0  0  0  0  0  0
  150.2819  140.2280  157.7151 C   0  0  0  0  0  0  0  0  0  0  0  0
  150.2870  138.7753  157.7290 N   0  0  0  0  0  0  0  0  0  0  0  0
  150.0009  137.9592  158.7986 C   0  0  0  0  0  0  0  0  0  0  0  0
  150.0781  136.6802  158.5546 N   0  0  0  0  0  0  0  0  0  0  0  0
  150.4512  136.6025  157.2169 C   0  0  0  0  0  0  0  0  0  0  0  0
  150.7105  135.5335  156.3082 C   0  0  0  0  0  0  0  0  0  0  0  0
  150.6209  134.2112  156.6244 N   0  0  0  0  0  0  0  0  0  0  0  0
  149.3696  133.6318  157.0862 C   0  0  1  0  0  0  0  0  0  0  0  0
  148.5002  133.5575  155.8155 C   0  0  0  0  0  0  0  0  0  0  0  0
  149.5605  133.2554  154.7444 C   0  0  0  0  0  0  0  0  0  0  0  0
  150.8453  133.1990  155.5992 C   0  0  2  0  0  0  0  0  0  0  0  0
  150.8485  131.8827  156.4044 C   0  0  1  0  0  0  0  0  0  0  0  0
  152.2368  131.5342  156.9707 C   0  0  0  0  0  0  0  0  0  0  0  0
  152.7836  132.6497  157.6417 O   0  0  0  0  0  0  0  0  0  0  0  0
  149.8015  132.2119  157.4885 C   0  0  0  0  0  0  0  0  0  0  0  0
  151.0976  135.8718  155.0492 N   0  0  0  0  0  0  0  0  0  0  0  0
  151.2001  137.1536  154.6888 C   0  0  0  0  0  0  0  0  0  0  0  0
  150.9731  138.2451  155.4197 N   0  0  0  0  0  0  0  0  0  0  0  0
  150.6000  137.9182  156.6894 C   0  0  0  0  0  0  0  0  0  0  0  0
  151.6707  142.3138  158.1413 C   0  0  2  0  0  0  0  0  0  0  0  0
  152.6915  143.0844  158.9612 C   0  0  0  0  0  0  0  0  0  0  0  0
  152.4101  144.5280  158.5607 C   0  0  0  0  0  0  0  0  0  0  0  0
  151.0139  144.5868  158.2959 O   0  0  0  0  0  0  0  0  0  0  0  0
  150.4755  143.2701  158.2363 C   0  0  0  0  0  0  0  0  0  0  0  0
  152.5013  140.0268  156.7193 H   0  0  0  0  0  0  0  0  0  0  0  0
  152.4903  139.0865  159.2434 H   0  0  0  0  0  0  0  0  0  0  0  0
  153.4932  140.5112  159.0976 H   0  0  0  0  0  0  0  0  0  0  0  0
  150.9763  140.9074  159.6246 H   0  0  0  0  0  0  0  0  0  0  0  0
  149.2890  140.5462  158.0327 H   0  0  0  0  0  0  0  0  0  0  0  0
  150.3990  140.5651  156.6843 H   0  0  0  0  0  0  0  0  0  0  0  0
  149.7251  138.3441  159.7695 H   0  0  0  0  0  0  0  0  0  0  0  0
  148.8832  134.1471  157.9119 H   0  0  0  0  0  0  0  0  0  0  0  0
  147.7284  132.7897  155.8784 H   0  0  0  0  0  0  0  0  0  0  0  0
  148.0134  134.5131  155.6165 H   0  0  0  0  0  0  0  0  0  0  0  0
  149.3678  132.3278  154.2045 H   0  0  0  0  0  0  0  0  0  0  0  0
  149.6087  134.0641  154.0143 H   0  0  0  0  0  0  0  0  0  0  0  0
  151.7547  133.3300  155.0112 H   0  0  0  0  0  0  0  0  0  0  0  0
  150.5112  131.0574  155.7751 H   0  0  0  0  0  0  0  0  0  0  0  0
  152.1590  130.7102  157.6805 H   0  0  0  0  0  0  0  0  0  0  0  0
  152.9177  131.2151  156.1810 H   0  0  0  0  0  0  0  0  0  0  0  0
  153.2777  133.1611  157.0194 H   0  0  0  0  0  0  0  0  0  0  0  0
  150.2468  132.2201  158.4845 H   0  0  0  0  0  0  0  0  0  0  0  0
  148.9700  131.5065  157.5007 H   0  0  0  0  0  0  0  0  0  0  0  0
  151.5081  137.3294  153.6685 H   0  0  0  0  0  0  0  0  0  0  0  0
  152.0127  142.2928  157.1050 H   0  0  0  0  0  0  0  0  0  0  0  0
  152.5052  142.9486  160.0276 H   0  0  0  0  0  0  0  0  0  0  0  0
  153.7212  142.7944  158.7519 H   0  0  0  0  0  0  0  0  0  0  0  0
  152.7020  145.2404  159.3325 H   0  0  0  0  0  0  0  0  0  0  0  0
  152.9471  144.7800  157.6455 H   0  0  0  0  0  0  0  0  0  0  0  0
  149.7917  143.1713  157.3930 H   0  0  0  0  0  0  0  0  0  0  0  0
  149.9102  143.0919  159.1522 H   0  0  0  0  0  0  0  0  0  0  0  0
  1  2  1  0  0  0  0
  1 28  1  0  0  0  0
  2  3  1  0  0  0  0
  2 29  1  0  0  0  0
  2 30  1  0  0  0  0
  3  4  1  0  0  0  0
  3 23  1  0  0  0  0
  3 31  1  0  0  0  0
  4  5  1  0  0  0  0
  4 32  1  0  0  0  0
  4 33  1  0  0  0  0
  5 22  1  0  0  0  0
  5  6  1  0  0  0  0
  6  7  2  0  0  0  0
  6 34  1  0  0  0  0
  7  8  1  0  0  0  0
  8 22  2  0  0  0  0
  8  9  1  0  0  0  0
  9 10  1  0  0  0  0
  9 19  2  0  0  0  0
 10 14  1  0  0  0  0
 10 11  1  0  0  0  0
 11 18  1  0  0  0  0
 11 12  1  0  0  0  0
 11 35  1  0  0  0  0
 12 13  1  0  0  0  0
 12 36  1  0  0  0  0
 12 37  1  0  0  0  0
 13 14  1  0  0  0  0
 13 38  1  0  0  0  0
 13 39  1  0  0  0  0
 14 15  1  0  0  0  0
 14 40  1  0  0  0  0
 15 16  1  0  0  0  0
 15 18  1  0  0  0  0
 15 41  1  0  0  0  0
 16 17  1  0  0  0  0
 16 42  1  0  0  0  0
 16 43  1  0  0  0  0
 17 44  1  0  0  0  0
 18 45  1  0  0  0  0
 18 46  1  0  0  0  0
 19 20  1  0  0  0  0
 20 21  2  0  0  0  0
 20 47  1  0  0  0  0
 21 22  1  0  0  0  0
 23 27  1  0  0  0  0
 23 24  1  0  0  0  0
 23 48  1  0  0  0  0
 24 25  1  0  0  0  0
 24 49  1  0  0  0  0
 24 50  1  0  0  0  0
 25 26  1  0  0  0  0
 25 51  1  0  0  0  0
 25 52  1  0  0  0  0
 26 27  1  0  0  0  0
 27 53  1  0  0  0  0
 27 54  1  0  0  0  0
M  END
> <s_m_source_file>
AV-unprocessed.smi

> <i_m_source_file_index>
227

> <i_lp_mmshare_version>
43012

> <i_f3d_flags>
0

> <s_epik_input>
W0NIMl0xT1tDSDJdW0NIMl1bQ0BIXTFbQ0BIXShbQ0gyXVtPSF0pW0NIMl1uKFtjSF1uMiljKGMyMyluW2NIXW5jM04oW0NASF00NSlbQ0BASF0oW0NIMl1bQ0gyXTQpW0NASF0oW0NIMl01KVtDSDJdW09IXQ==

> <s_epik_cmdline>
J2VwaWtfcHl0aG9uJywgJy1waCcsICc3LjAnLCAnLXRuJywgJzgnLCAnLW1hJywgJzIwMCcsICctbWV0YWxfYmluZGluZycsICctaW1hZScsICc8aW5maWxlLm1hZT4nLCAnLW9tYWUnLCAnPG91dGZpbGUubWFlPic=

> <r_lp_tautomer_probability>
1

> <r_epik_Ionization_Penalty>
0.0055791

> <r_epik_Ionization_Penalty_Charging>
0

> <r_epik_Ionization_Penalty_Neutral>
0.0055791

> <r_epik_State_Penalty>
0.00401299

> <r_epik_Charging_Adjusted_Penalty>
0.00401299

> <i_epik_Tot_Q>
0

> <i_epik_Tot_abs_Q>
0

> <r_epik_Metal_State_Penalty>
-0

> <b_epik_Metal_Only>
0

> <s_lp_Force_Field>
OPLS_2005

> <r_lp_Energy>
88.7609

> <b_lp_Chiralities_Consistent>
1

> <s_lp_Variant>
AV-unprocessed.smi:227-3

> <Gold.Version>
5.8.1

> <Gold.Id.Protein>
6NUR|6NUR_protein|mol2

> <Gold.PLP.Fitness>
47.6555

> <Gold.PLP.PLP>
-37.3155

> <Gold.PLP.part.hbond>
-3.3407

> <Gold.PLP.part.metal>
0.0000

> <Gold.PLP.part.buried>
-6.4142

> <Gold.PLP.part.nonpolar>
-27.8543

> <Gold.PLP.part.repulsive>
0.3537

> <Gold.PLP.ligand.clash>
0.0000

> <Gold.PLP.ligand.torsion>
0.4439

> <Gold.PLP.Chemscore.Hbond>
2.7200

> <Gold.PLP.Chemscore.CHOScore>
0.9367

> <Gold.PLP.Chemscore.Metal>
0.0000

> <Gold.Chemscore.Hbonds>
donor molecule, donor type, donor heavy atom, donor atom, acceptor molecule, acceptor atom, score
      P1  H  6896  6907       L1    17  1.00
      P1  H  7997  8010       L1     1  1.00
      P1  H 10752 10764       L1    19  0.72
      L1  C    20    47       P1  7949  0.88

> <Gold.PLP.Chemscore.Internal.Correction>
0.2576

> <Gold.Rescore>
     Score         DG    S(hbond)    S(metal)    S(lipo)     H(rot)  DE(clash)    DE(int)     intcor
     11.08     -13.40       1.96        0.00      90.56       3.61       0.06       2.27       ----

> <Gold.Chemscore.Fitness>
11.0762

> <Gold.Chemscore.DG>
-13.3998

> <Gold.Chemscore.ZeroCoef>
-5.4800

> <Gold.Chemscore.Hbond>
1.9635

> <Gold.Chemscore.Metal>
0.0000

> <Gold.Chemscore.Lipo>
90.5631

> <Gold.Chemscore.Internal_Hbond>
0.0000

> <Gold.Chemscore.DEClash>
0.0556

> <Gold.Chemscore.DEInternal>
2.2679

> <Gold.Chemscore.Rot>
3.6071

> <Gold.Chemscore.Internal.Correction>
   9.000000E+99

> <Gold.Chemscore.Hbonds>
donor molecule, donor type, donor heavy atom, donor atom, acceptor molecule, acceptor atom, score
      P1  H  6896  6907       L1    17  0.88
      P1  H  7997  8010       L1     1  0.54
      P1  H 10752 10764       L1    19  0.05

> <Gold.Chemscore.Hbond.Weighted>
-6.5581

> <Gold.Chemscore.Metal.Weighted>
-0.0000

> <Gold.Chemscore.Lipo.Weighted>
-10.5959

> <Gold.Chemscore.Internal_Hbond.Weighted>
0.0000

> <Gold.Chemscore.DEClash.Weighted>
0.0556

> <Gold.Chemscore.DEInternal.Weighted>
2.2679

> <Gold.Chemscore.Rot.Weighted>
9.2342

> <Gold.Chemscore.Internal.Correction.Weighted>
   9.000000E+99

> <Gold.Protein.RotatedTorsions>
[ 6907 6896 6895 6894 ] final  152.36 input  -60.11 | X-H torsion
[ 7974 7965 7964 7962 ] final -114.37 input  175.53 | X-H torsion
[ 8008 7997 7996 7995 ] final   37.99 input   59.86 | X-H torsion
[ 10167 10162 10161 10158 ] final    6.73 input  -65.29 | X-H torsion
[ 10718 10713 10712 10709 ] final  -76.79 input   66.30 | X-H torsion
[ 10763 10752 10751 10750 ] final  -37.19 input  -60.55 | X-H torsion
[ 11005 11000 10999 10996 ] final -175.39 input  -57.11 | X-H torsion

> <Gold.Protein.ActiveResidues>
 VAL166  LYS551  ARG553  GLY616  TRP617  ASP618  TYR619  PRO620  LYS621  CYS622 
 ASP623  PHE694  ASN695  SER759  ASP760  ASP761  ALA762  ILE779  LEU786  VAL792 
 PHE793  MET794  SER795  GLU796  ALA797  LYS798  CYS799  TRP800  GLU811  SER814 

> <Gold.Protein.RotatedAtoms>
  152.0878  133.4185  159.4529 H   0  0  0  0  0  0  0  0  0  0  0  0  # atno 6907 bound_to 6896
  150.6862  134.2907  159.4674 H   0  0  0  0  0  0  0  0  0  0  0  0  # atno 6908 bound_to 6896
  152.0755  134.9505  160.0624 H   0  0  0  0  0  0  0  0  0  0  0  0  # atno 6909 bound_to 6896
  145.1210  140.8669  143.3814 H   0  0  0  0  0  0  0  0  0  0  0  0  # atno 7974 bound_to 7965
  155.2129  140.3325  155.4326 H   0  0  0  0  0  0  0  0  0  0  0  0  # atno 8008 bound_to 7997
  156.2363  140.1874  156.7157 H   0  0  0  0  0  0  0  0  0  0  0  0  # atno 8009 bound_to 7997
  154.6066  140.0615  156.9425 H   0  0  0  0  0  0  0  0  0  0  0  0  # atno 8010 bound_to 7997
  140.6411  143.7771  150.7430 H   0  0  0  0  0  0  0  0  0  0  0  0  # atno 10167 bound_to 10162
  156.0164  130.4474  150.3247 H   0  0  0  0  0  0  0  0  0  0  0  0  # atno 10718 bound_to 10713
  153.8922  135.6811  153.4760 H   0  0  0  0  0  0  0  0  0  0  0  0  # atno 10763 bound_to 10752
  153.1175  135.4755  154.9137 H   0  0  0  0  0  0  0  0  0  0  0  0  # atno 10764 bound_to 10752
  154.7617  135.3212  154.8319 H   0  0  0  0  0  0  0  0  0  0  0  0  # atno 10765 bound_to 10752
  140.4639  134.6229  157.4854 H   0  0  0  0  0  0  0  0  0  0  0  0  # atno 11005 bound_to 11000
  145.0740  139.3009  143.5817 LP  0  0  0  0  0  0  0  0  0  0  0  0  # atno 17320 bound_to 7965
  146.3521  140.0225  142.8657 LP  0  0  0  0  0  0  0  0  0  0  0  0  # atno 17321 bound_to 7965
  140.1402  143.4448  152.2198 LP  0  0  0  0  0  0  0  0  0  0  0  0  # atno 17342 bound_to 10162
  139.5621  144.7412  151.4126 LP  0  0  0  0  0  0  0  0  0  0  0  0  # atno 17343 bound_to 10162
  157.1346  131.0281  151.2954 LP  0  0  0  0  0  0  0  0  0  0  0  0  # atno 17370 bound_to 10713
  157.4522  130.7605  149.7161 LP  0  0  0  0  0  0  0  0  0  0  0  0  # atno 17371 bound_to 10713
  139.9928  134.6958  155.9661 LP  0  0  0  0  0  0  0  0  0  0  0  0  # atno 17394 bound_to 11000
  141.1608  133.6539  156.4314 LP  0  0  0  0  0  0  0  0  0  0  0  0  # atno 17395 bound_to 11000

$$$$
