#       Name:                AV-unprocessed.smi:1506
#       Creating user name   scv26
#       Creation time:       Fri Mar 27 06:20:21 2020


#       File generated by GOLD software.
#

@<TRIPOS>MOLECULE
AV-unprocessed.smi:1506
    44    46     1
SMALL
NO_CHARGES


@<TRIPOS>ATOM
      1 ****        -5.3678   3.3585   1.4729 C.3            1 S1                 0.0000
      2 ****        -4.8231   1.9755   1.1810 C.ar           1 S1                 0.0000
      3 ****        -5.6996   0.9100   0.8956 C.ar           1 S1                 0.0000
      4 ****        -5.1830  -0.3704   0.6247 C.ar           1 S1                 0.0000
      5 ****        -3.7922  -0.5910   0.6370 C.ar           1 S1                 0.0000
      6 ****        -2.8997   0.4737   0.9209 C.ar           1 S1                 0.0000
      7 ****        -1.5272   0.3475   0.9525 O.3            1 S1                 0.0000
      8 ****        -0.9622  -0.9256   0.6683 C.3            1 S1                 0.0000
      9 ****         0.5688  -0.8226   0.7337 C.3            1 S1                 0.0000
     10 ****         1.1073  -2.1275   0.6527 O.3            1 S1                 0.0000
     11 ****         1.1489   0.0628  -0.3876 C.3            1 S1                 0.0000
     12 ****         2.6136   0.1714  -0.3251 N.pl3          1 S1                 0.0000
     13 ****         3.3887   0.9928   0.4339 C.2            1 S1                 0.0000
     14 ****         4.6900   0.7176   0.1419 N.pl3          1 S1                 1.0000
     15 ****         4.7485  -0.2948  -0.8180 C.ar           1 S1                 0.0000
     16 ****         5.8383  -0.9105  -1.4260 C.ar           1 S1                 0.0000
     17 ****         5.5508  -1.9187  -2.3693 C.ar           1 S1                 0.0000
     18 ****         4.2230  -2.2802  -2.6760 C.ar           1 S1                 0.0000
     19 ****         3.1257  -1.6488  -2.0540 C.ar           1 S1                 0.0000
     20 ****         3.4176  -0.6517  -1.1233 C.ar           1 S1                 0.0000
     21 ****        -3.4312   1.7519   1.1908 C.ar           1 S1                 0.0000
     22 ****        -6.4388   3.3279   1.6762 H              1 S1                 0.0000
     23 ****        -5.1995   4.0163   0.6200 H              1 S1                 0.0000
     24 ****        -4.8707   3.7885   2.3428 H              1 S1                 0.0000
     25 ****        -6.7679   1.0697   0.8833 H              1 S1                 0.0000
     26 ****        -5.8555  -1.1870   0.4067 H              1 S1                 0.0000
     27 ****        -3.4359  -1.5875   0.4257 H              1 S1                 0.0000
     28 ****        -1.3125  -1.6479   1.4081 H              1 S1                 0.0000
     29 ****        -1.2707  -1.2742  -0.3189 H              1 S1                 0.0000
     30 ****         0.8560  -0.4129   1.7030 H              1 S1                 0.0000
     31 ****         0.8260  -2.5188  -0.1599 H              1 S1                 0.0000
     32 ****         0.8526  -0.2975  -1.3727 H              1 S1                 0.0000
     33 ****         0.7521   1.0752  -0.3033 H              1 S1                 0.0000
     34 ****         3.0350   1.7286   1.1418 H              1 S1                 0.0000
     35 ****         6.8565  -0.6363  -1.1918 H              1 S1                 0.0000
     36 ****         6.3651  -2.4257  -2.8667 H              1 S1                 0.0000
     37 ****         4.0421  -3.0586  -3.4030 H              1 S1                 0.0000
     38 ****         2.1138  -1.9379  -2.2952 H              1 S1                 0.0000
     39 ****        -2.7606   2.5706   1.4080 H              1 S1                 0.0000
     40 ****         5.4782   1.1864   0.5697 H              1 S1                 0.0000
     41 ****        -1.2268   0.6068   1.8704 LP             1 S1                 0.0000
     42 ****        -1.1549   0.9926   0.2853 LP             1 S1                 0.0000
     43 ****         0.7796  -2.6758   1.4221 LP             1 S1                 0.0000
     44 ****         2.1060  -2.0822   0.6771 LP             1 S1                 0.0000
@<TRIPOS>BOND
    1    1    2 1     
    2    1   22 1     
    3    1   23 1     
    4    1   24 1     
    5    2   21 ar    
    6    2    3 ar    
    7    3    4 ar    
    8    3   25 1     
    9    4    5 ar    
   10    4   26 1     
   11    5    6 ar    
   12    5   27 1     
   13    6    7 1     
   14    6   21 ar    
   15    7    8 1     
   16    8    9 1     
   17    8   28 1     
   18    8   29 1     
   19    9   10 1     
   20    9   11 1     
   21    9   30 1     
   22   10   31 1     
   23   11   12 1     
   24   11   32 1     
   25   11   33 1     
   26   12   20 1     
   27   12   13 1     
   28   13   14 2     
   29   13   34 1     
   30   14   15 1     
   31   14   40 1     
   32   15   20 ar    
   33   15   16 ar    
   34   16   17 ar    
   35   16   35 1     
   36   17   18 ar    
   37   17   36 1     
   38   18   19 ar    
   39   18   37 1     
   40   19   20 ar    
   41   19   38 1     
   42   21   39 1     
   43    7   41 1     
   44    7   42 1     
   45   10   43 1     
   46   10   44 1     
@<TRIPOS>SUBSTRUCTURE
      1 S1             1
@<TRIPOS>SET
LONE_PAIRS      STATIC     ATOMS    <user>   **** ""
4 41 42 43 44
DONOR_HYDROGENS      STATIC     ATOMS    <user>   **** ""
2 31 40
ATOM$BLUE        STATIC     ATOMS    COLORGROUP SYSTEM
4 41 42 43 44
ATOM$RED        STATIC     ATOMS    COLORGROUP SYSTEM
2 31 40
