AV-unprocessed.smi:607|AV-procd|sdf|3043|dock1
  -GOLD-   2262023563D 1   1.00000     0.00000
 Structure written by MMmdl.
 42 43  0  0  0  0  0  0  0  0  1 V2000
  154.3247  140.2269  160.9399 C   0  0  0  0  0  0  0  0  0  0  0  0
  153.4278  141.0136  160.0270 C   0  0  0  0  0  0  0  0  0  0  0  0
  153.2873  142.3129  160.2241 N   0  0  0  0  0  0  0  0  0  0  0  0
  152.4423  142.7175  159.2563 N   0  0  0  0  0  0  0  0  0  0  0  0
  152.0665  144.1161  159.1814 C   0  0  0  0  0  0  0  0  0  0  0  0
  152.0497  141.6728  158.4422 C   0  0  0  0  0  0  0  0  0  0  0  0
  151.1172  141.8860  157.2913 C   0  0  0  0  0  0  0  0  0  0  0  0
  152.6699  140.5421  158.9139 C   0  0  0  0  0  0  0  0  0  0  0  0
  152.6089  139.1152  158.4053 C   0  0  1  0  0  0  0  0  0  0  0  0
  151.7211  138.2283  159.2988 C   0  0  0  0  0  0  0  0  0  0  0  0
  152.1876  139.1057  156.9266 C   0  0  0  0  0  0  0  0  0  0  0  0
  152.8990  139.6189  156.0627 O   0  0  0  0  0  0  0  0  0  0  0  0
  151.0166  138.5066  156.6513 N   0  0  0  0  0  0  0  0  0  0  0  0
  150.4275  138.3018  155.3265 C   0  0  0  0  0  0  0  0  0  0  0  0
  150.3582  139.5730  154.5809 C   0  0  0  0  0  0  0  0  0  0  0  0
  150.3025  140.5702  153.9965 N   0  0  0  0  0  0  0  0  0  0  0  0
  151.2746  137.2688  154.5686 C   0  0  0  0  0  0  0  0  0  0  0  0
  150.7457  135.8868  154.9760 C   0  0  0  0  0  0  0  0  0  0  0  0
  149.3654  136.1169  155.6048 C   0  0  0  0  0  0  0  0  0  0  0  0
  149.0591  137.6059  155.4214 C   0  0  0  0  0  0  0  0  0  0  0  0
  155.2072  139.8733  160.4063 H   0  0  0  0  0  0  0  0  0  0  0  0
  153.8062  139.3557  161.3401 H   0  0  0  0  0  0  0  0  0  0  0  0
  154.6660  140.8238  161.7865 H   0  0  0  0  0  0  0  0  0  0  0  0
  152.4064  144.5365  158.2346 H   0  0  0  0  0  0  0  0  0  0  0  0
  152.5161  144.6813  159.9993 H   0  0  0  0  0  0  0  0  0  0  0  0
  150.9820  144.2081  159.2445 H   0  0  0  0  0  0  0  0  0  0  0  0
  151.0630  141.0091  156.6478 H   0  0  0  0  0  0  0  0  0  0  0  0
  151.4454  142.7224  156.6737 H   0  0  0  0  0  0  0  0  0  0  0  0
  150.1098  142.1024  157.6473 H   0  0  0  0  0  0  0  0  0  0  0  0
  153.6056  138.6733  158.4267 H   0  0  0  0  0  0  0  0  0  0  0  0
  150.6927  138.5870  159.3416 H   0  0  0  0  0  0  0  0  0  0  0  0
  152.1030  138.2053  160.3198 H   0  0  0  0  0  0  0  0  0  0  0  0
  151.6982  137.1991  158.9383 H   0  0  0  0  0  0  0  0  0  0  0  0
  150.5049  138.1173  157.4299 H   0  0  0  0  0  0  0  0  0  0  0  0
  151.1253  137.3963  153.4951 H   0  0  0  0  0  0  0  0  0  0  0  0
  152.3445  137.3765  154.7529 H   0  0  0  0  0  0  0  0  0  0  0  0
  150.6887  135.2226  154.1131 H   0  0  0  0  0  0  0  0  0  0  0  0
  151.4126  135.4205  155.7021 H   0  0  0  0  0  0  0  0  0  0  0  0
  148.5966  135.4866  155.1567 H   0  0  0  0  0  0  0  0  0  0  0  0
  149.4041  135.8785  156.6683 H   0  0  0  0  0  0  0  0  0  0  0  0
  148.4179  137.9984  156.2109 H   0  0  0  0  0  0  0  0  0  0  0  0
  148.5216  137.7408  154.4815 H   0  0  0  0  0  0  0  0  0  0  0  0
  1  2  1  0  0  0  0
  1 21  1  0  0  0  0
  1 22  1  0  0  0  0
  1 23  1  0  0  0  0
  2  8  1  0  0  0  0
  2  3  2  0  0  0  0
  3  4  1  0  0  0  0
  4  5  1  0  0  0  0
  4  6  1  0  0  0  0
  5 24  1  0  0  0  0
  5 25  1  0  0  0  0
  5 26  1  0  0  0  0
  6  7  1  0  0  0  0
  6  8  2  0  0  0  0
  7 27  1  0  0  0  0
  7 28  1  0  0  0  0
  7 29  1  0  0  0  0
  8  9  1  0  0  0  0
  9 10  1  0  0  0  0
  9 11  1  0  0  0  0
  9 30  1  0  0  0  0
 10 31  1  0  0  0  0
 10 32  1  0  0  0  0
 10 33  1  0  0  0  0
 11 12  2  0  0  0  0
 11 13  1  0  0  0  0
 13 14  1  0  0  0  0
 13 34  1  0  0  0  0
 14 20  1  0  0  0  0
 14 15  1  0  0  0  0
 14 17  1  0  0  0  0
 15 16  3  0  0  0  0
 17 18  1  0  0  0  0
 17 35  1  0  0  0  0
 17 36  1  0  0  0  0
 18 19  1  0  0  0  0
 18 37  1  0  0  0  0
 18 38  1  0  0  0  0
 19 20  1  0  0  0  0
 19 39  1  0  0  0  0
 19 40  1  0  0  0  0
 20 41  1  0  0  0  0
 20 42  1  0  0  0  0
M  END
> <s_m_source_file>
AV-unprocessed.smi

> <i_m_source_file_index>
607

> <i_lp_mmshare_version>
43012

> <i_f3d_flags>
0

> <s_epik_input>
W0NIM11jMW5uKFtDSDNdKWMoW0NIM10pYzFbQ0BIXShbQ0gzXSlDKD1PKVtOSF1DMihDI04pW0NIMl1bQ0gyXVtDSDJdW0NIMl0y

> <s_epik_cmdline>
J2VwaWtfcHl0aG9uJywgJy1waCcsICc3LjAnLCAnLXRuJywgJzgnLCAnLW1hJywgJzIwMCcsICctbWV0YWxfYmluZGluZycsICctaW1hZScsICc8aW5maWxlLm1hZT4nLCAnLW9tYWUnLCAnPG91dGZpbGUubWFlPic=

> <r_lp_tautomer_probability>
1

> <r_epik_Ionization_Penalty>
0.00342632

> <r_epik_Ionization_Penalty_Charging>
0

> <r_epik_Ionization_Penalty_Neutral>
0.00342632

> <r_epik_State_Penalty>
0.00242724

> <r_epik_Charging_Adjusted_Penalty>
0.00242724

> <i_epik_Tot_Q>
0

> <i_epik_Tot_abs_Q>
0

> <r_epik_Metal_State_Penalty>
-0

> <b_epik_Metal_Only>
0

> <s_lp_Force_Field>
OPLS_2005

> <r_lp_Energy>
13.7926

> <b_lp_Chiralities_Consistent>
1

> <s_lp_Variant>
AV-unprocessed.smi:607-2

> <Gold.Version>
5.8.1

> <Gold.Id.Protein>
6NUR|6NUR_protein|mol2

> <Gold.PLP.Fitness>
39.9967

> <Gold.PLP.PLP>
-35.8559

> <Gold.PLP.part.hbond>
-1.9813

> <Gold.PLP.part.metal>
0.0000

> <Gold.PLP.part.buried>
-5.4970

> <Gold.PLP.part.nonpolar>
-29.6006

> <Gold.PLP.part.repulsive>
0.8474

> <Gold.PLP.ligand.clash>
0.0000

> <Gold.PLP.ligand.torsion>
0.6978

> <Gold.PLP.Chemscore.Hbond>
1.8000

> <Gold.PLP.Chemscore.CHOScore>
0.0000

> <Gold.PLP.Chemscore.Metal>
0.0000

> <Gold.Chemscore.Hbonds>
donor molecule, donor type, donor heavy atom, donor atom, acceptor molecule, acceptor atom, score
      P1  H  7989  7998       L1    16  0.59
      P1  H  7997  8009       L1    12  1.00

> <Gold.PLP.Chemscore.Internal.Correction>
0.1363

> <Gold.Rescore>
     Score         DG    S(hbond)    S(metal)    S(lipo)     H(rot)  DE(clash)    DE(int)     intcor
     15.17     -18.14       1.95        0.00      82.69       1.37       0.16       2.82       ----

> <Gold.Chemscore.Fitness>
15.1698

> <Gold.Chemscore.DG>
-18.1449

> <Gold.Chemscore.ZeroCoef>
-5.4800

> <Gold.Chemscore.Hbond>
1.9469

> <Gold.Chemscore.Metal>
0.0000

> <Gold.Chemscore.Lipo>
82.6882

> <Gold.Chemscore.Internal_Hbond>
0.0000

> <Gold.Chemscore.DEClash>
0.1596

> <Gold.Chemscore.DEInternal>
2.8155

> <Gold.Chemscore.Rot>
1.3720

> <Gold.Chemscore.Internal.Correction>
   9.000000E+99

> <Gold.Chemscore.Hbonds>
donor molecule, donor type, donor heavy atom, donor atom, acceptor molecule, acceptor atom, score
      P1  H  7989  7998       L1    16  0.40
      P1  H  7997  8009       L1    12  0.94
      P1  H  8011  8017       L1    16  0.01

> <Gold.Chemscore.Hbond.Weighted>
-6.5027

> <Gold.Chemscore.Metal.Weighted>
-0.0000

> <Gold.Chemscore.Lipo.Weighted>
-9.6745

> <Gold.Chemscore.Internal_Hbond.Weighted>
0.0000

> <Gold.Chemscore.DEClash.Weighted>
0.1596

> <Gold.Chemscore.DEInternal.Weighted>
2.8155

> <Gold.Chemscore.Rot.Weighted>
3.5123

> <Gold.Chemscore.Internal.Correction.Weighted>
   9.000000E+99

> <Gold.Protein.RotatedTorsions>
[ 6907 6896 6895 6894 ] final   53.94 input  -60.11 | X-H torsion
[ 7974 7965 7964 7962 ] final    5.08 input  175.53 | X-H torsion
[ 8008 7997 7996 7995 ] final -162.73 input   59.86 | X-H torsion
[ 10167 10162 10161 10158 ] final  -58.87 input  -65.29 | X-H torsion
[ 10718 10713 10712 10709 ] final  -33.96 input   66.30 | X-H torsion
[ 10763 10752 10751 10750 ] final  -32.51 input  -60.55 | X-H torsion
[ 11005 11000 10999 10996 ] final  115.27 input  -57.11 | X-H torsion

> <Gold.Protein.ActiveResidues>
 VAL166  LYS551  ARG553  GLY616  TRP617  ASP618  TYR619  PRO620  LYS621  CYS622 
 ASP623  PHE694  ASN695  SER759  ASP760  ASP761  ALA762  ILE779  LEU786  VAL792 
 PHE793  MET794  SER795  GLU796  ALA797  LYS798  CYS799  TRP800  GLU811  SER814 

> <Gold.Protein.RotatedAtoms>
  152.3388  134.7162  160.0269 H   0  0  0  0  0  0  0  0  0  0  0  0  # atno 6907 bound_to 6896
  151.7553  133.3324  159.3411 H   0  0  0  0  0  0  0  0  0  0  0  0  # atno 6908 bound_to 6896
  150.7467  134.6087  159.6119 H   0  0  0  0  0  0  0  0  0  0  0  0  # atno 6909 bound_to 6896
  146.2442  140.0438  142.8380 H   0  0  0  0  0  0  0  0  0  0  0  0  # atno 7974 bound_to 7965
  155.8111  140.0906  157.1903 H   0  0  0  0  0  0  0  0  0  0  0  0  # atno 8008 bound_to 7997
  154.3980  140.1454  156.3447 H   0  0  0  0  0  0  0  0  0  0  0  0  # atno 8009 bound_to 7997
  155.8364  140.3440  155.5607 H   0  0  0  0  0  0  0  0  0  0  0  0  # atno 8010 bound_to 7997
  140.6171  143.2406  151.5571 H   0  0  0  0  0  0  0  0  0  0  0  0  # atno 10167 bound_to 10162
  156.3563  130.4316  149.7661 H   0  0  0  0  0  0  0  0  0  0  0  0  # atno 10718 bound_to 10713
  153.8149  135.6879  153.4835 H   0  0  0  0  0  0  0  0  0  0  0  0  # atno 10763 bound_to 10752
  153.1605  135.4582  154.9763 H   0  0  0  0  0  0  0  0  0  0  0  0  # atno 10764 bound_to 10752
  154.7952  135.3316  154.7627 H   0  0  0  0  0  0  0  0  0  0  0  0  # atno 10765 bound_to 10752
  139.9005  134.9581  156.7019 H   0  0  0  0  0  0  0  0  0  0  0  0  # atno 11005 bound_to 11000
  145.1046  140.9367  143.4692 LP  0  0  0  0  0  0  0  0  0  0  0  0  # atno 17320 bound_to 7965
  145.0638  139.3084  143.5867 LP  0  0  0  0  0  0  0  0  0  0  0  0  # atno 17321 bound_to 7965
  139.5407  144.2655  152.1345 LP  0  0  0  0  0  0  0  0  0  0  0  0  # atno 17342 bound_to 10162
  140.1867  144.4792  150.6500 LP  0  0  0  0  0  0  0  0  0  0  0  0  # atno 17343 bound_to 10162
  156.4843  130.8055  151.3068 LP  0  0  0  0  0  0  0  0  0  0  0  0  # atno 17370 bound_to 10713
  157.7468  130.9996  150.2894 LP  0  0  0  0  0  0  0  0  0  0  0  0  # atno 17371 bound_to 10713
  140.7143  133.9196  155.8105 LP  0  0  0  0  0  0  0  0  0  0  0  0  # atno 17394 bound_to 11000
  141.0276  134.0801  157.4051 LP  0  0  0  0  0  0  0  0  0  0  0  0  # atno 17395 bound_to 11000

$$$$
