AV-unprocessed.smi:72|AV-procd|sdf|687|dock7
  -GOLD-   2262017 03D 1   1.00000     0.00000
 Structure written by MMmdl.
 29 30  0  0  0  0  0  0  0  0  1 V2000
  154.0222  138.5467  154.8372 N   0  0  0  0  0  0  0  0  0  0  0  0
  152.7516  138.7331  154.8019 C   0  0  0  0  0  0  0  0  0  0  0  0
  151.8540  138.0518  153.9658 N   0  0  0  0  0  0  0  0  0  0  0  0
  150.5918  138.3416  154.0445 C   0  0  0  0  0  0  0  0  0  0  0  0
  150.0815  139.3401  154.9719 N   0  0  0  0  0  0  0  0  0  0  0  0
  148.5998  139.6459  155.0411 C   0  0  2  0  0  0  0  0  0  0  0  0
  147.9158  138.6562  154.3364 O   0  0  0  0  0  0  0  0  0  0  0  0
  146.8289  139.2423  153.6375 C   0  0  2  0  0  0  0  0  0  0  0  0
  146.4403  138.3360  152.4584 C   0  0  0  0  0  0  0  0  0  0  0  0
  147.3179  138.5316  151.3703 O   0  0  0  0  0  0  0  0  0  0  0  0
  147.3548  140.6279  153.2437 C   0  0  1  0  0  0  0  0  0  0  0  0
  146.2870  141.5417  153.0902 O   0  0  0  0  0  0  0  0  0  0  0  0
  148.2238  141.0179  154.4344 C   0  0  2  0  0  0  0  0  0  0  0  0
  149.3271  141.8030  154.0181 O   0  0  0  0  0  0  0  0  0  0  0  0
  150.9764  140.0504  155.8085 C   0  0  0  0  0  0  0  0  0  0  0  0
  150.6026  140.9278  156.5865 O   0  0  0  0  0  0  0  0  0  0  0  0
  152.2776  139.7085  155.6893 N   0  0  0  0  0  0  0  0  0  0  0  0
  148.3081  139.5638  156.0891 H   0  0  0  0  0  0  0  0  0  0  0  0
  146.0014  139.3313  154.3447 H   0  0  0  0  0  0  0  0  0  0  0  0
  147.9480  140.5661  152.3297 H   0  0  0  0  0  0  0  0  0  0  0  0
  147.6476  141.5633  155.1835 H   0  0  0  0  0  0  0  0  0  0  0  0
  154.2862  137.8327  154.1732 H   0  0  0  0  0  0  0  0  0  0  0  0
  149.8344  137.8634  153.4216 H   0  0  0  0  0  0  0  0  0  0  0  0
  146.4428  137.2859  152.7524 H   0  0  0  0  0  0  0  0  0  0  0  0
  145.4302  138.5733  152.1235 H   0  0  0  0  0  0  0  0  0  0  0  0
  147.8998  139.2468  151.5775 H   0  0  0  0  0  0  0  0  0  0  0  0
  145.4973  141.0542  152.9138 H   0  0  0  0  0  0  0  0  0  0  0  0
  150.1187  141.4062  154.3484 H   0  0  0  0  0  0  0  0  0  0  0  0
  152.9450  140.1923  156.2724 H   0  0  0  0  0  0  0  0  0  0  0  0
  1  2  2  0  0  0  0
  1 22  1  0  0  0  0
  2 17  1  0  0  0  0
  2  3  1  0  0  0  0
  3  4  2  0  0  0  0
  4  5  1  0  0  0  0
  4 23  1  0  0  0  0
  5  6  1  0  0  0  0
  5 15  1  0  0  0  0
  6 18  1  0  0  0  0
  6 13  1  0  0  0  0
  6  7  1  0  0  0  0
  7  8  1  0  0  0  0
  8 19  1  0  0  0  0
  8  9  1  0  0  0  0
  8 11  1  0  0  0  0
  9 10  1  0  0  0  0
  9 24  1  0  0  0  0
  9 25  1  0  0  0  0
 10 26  1  0  0  0  0
 11 20  1  0  0  0  0
 11 12  1  0  0  0  0
 11 13  1  0  0  0  0
 12 27  1  0  0  0  0
 13 21  1  0  0  0  0
 13 14  1  0  0  0  0
 14 28  1  0  0  0  0
 15 16  2  0  0  0  0
 15 17  1  0  0  0  0
 17 29  1  0  0  0  0
M  END
> <s_m_source_file>
AV-unprocessed.smi

> <i_m_source_file_index>
72

> <i_lp_mmshare_version>
43012

> <i_f3d_flags>
0

> <s_epik_input>
W05IMl1jMW5bY0hdbihjKD1PKW4xKVtDQEBIXTJPW0NASF0oW0NIMl1bT0hdKVtDQEBIXShbT0hdKVtDQEhdMltPSF0=

> <s_epik_cmdline>
J2VwaWtfcHl0aG9uJywgJy1waCcsICc3LjAnLCAnLXRuJywgJzgnLCAnLW1hJywgJzIwMCcsICctbWV0YWxfYmluZGluZycsICctaW1hZScsICc8aW5maWxlLm1hZT4nLCAnLW9tYWUnLCAnPG91dGZpbGUubWFlPic=

> <r_lp_tautomer_probability>
7.17554e-07

> <r_epik_Ionization_Penalty>
0.0066451

> <r_epik_Ionization_Penalty_Charging>
0.00663793

> <r_epik_Ionization_Penalty_Neutral>
7.17052e-06

> <r_epik_State_Penalty>
0.419231

> <r_epik_Charging_Adjusted_Penalty>
0.425868

> <i_epik_Tot_Q>
0

> <i_epik_Tot_abs_Q>
0

> <r_epik_Metal_State_Penalty>
1.44144

> <b_epik_Metal_Only>
0

> <s_epik_Chemistry_Notes>
This compound contains an acetal/aminal-like group ( X-CH(R)-Y where X, Y are N, S, or O) that may be acid/base labile, releasing an aldehyde.

> <s_lp_Force_Field>
OPLS_2005

> <r_lp_Energy>
41.3964

> <b_lp_Chiralities_Consistent>
1

> <s_lp_Variant>
AV-unprocessed.smi:72-25

> <Gold.Version>
5.8.1

> <Gold.Id.Protein>
6NUR|6NUR_protein|mol2

> <Gold.PLP.Fitness>
42.3138

> <Gold.PLP.PLP>
-27.9666

> <Gold.PLP.part.hbond>
-7.0284

> <Gold.PLP.part.metal>
0.0000

> <Gold.PLP.part.buried>
-1.7349

> <Gold.PLP.part.nonpolar>
-19.4040

> <Gold.PLP.part.repulsive>
0.5387

> <Gold.PLP.ligand.clash>
0.0134

> <Gold.PLP.ligand.torsion>
0.4784

> <Gold.PLP.Chemscore.Hbond>
4.0640

> <Gold.PLP.Chemscore.CHOScore>
1.0000

> <Gold.PLP.Chemscore.Metal>
0.0000

> <Gold.Chemscore.Hbonds>
donor molecule, donor type, donor heavy atom, donor atom, acceptor molecule, acceptor atom, score
      L1  H    10    26       P1  7957  0.85
      L1  H    12    27       P1 10175  0.90
      P1  H  7954  7966       L1    10  0.95
      P1  H  7997  8008       L1     1  0.70
      P1  H  8011  8017       L1    14  0.53
      L1  C     4    23       P1  7948  1.00

> <Gold.PLP.Chemscore.Internal.Correction>
0.1254

> <Gold.Rescore>
     Score         DG    S(hbond)    S(metal)    S(lipo)     H(rot)  DE(clash)    DE(int)     intcor
      4.80      -5.97       2.39        0.00      24.67       4.06       0.46       0.71       ----

> <Gold.Chemscore.Fitness>
4.7970

> <Gold.Chemscore.DG>
-5.9683

> <Gold.Chemscore.ZeroCoef>
-5.4800

> <Gold.Chemscore.Hbond>
2.3939

> <Gold.Chemscore.Metal>
0.0000

> <Gold.Chemscore.Lipo>
24.6686

> <Gold.Chemscore.Internal_Hbond>
0.0000

> <Gold.Chemscore.DEClash>
0.4645

> <Gold.Chemscore.DEInternal>
0.7068

> <Gold.Chemscore.Rot>
4.0600

> <Gold.Chemscore.Internal.Correction>
   9.000000E+99

> <Gold.Chemscore.Hbonds>
donor molecule, donor type, donor heavy atom, donor atom, acceptor molecule, acceptor atom, score
      L1  H    10    26       P1  7957  0.81
      L1  H    12    27       P1 10175  0.18
      P1  H  7954  7966       L1    10  0.21
      P1  H  7997  8008       L1     1  0.16
      P1  H  8011  8017       L1    14  0.23

> <Gold.Chemscore.Hbond.Weighted>
-7.9956

> <Gold.Chemscore.Metal.Weighted>
-0.0000

> <Gold.Chemscore.Lipo.Weighted>
-2.8862

> <Gold.Chemscore.Internal_Hbond.Weighted>
0.0000

> <Gold.Chemscore.DEClash.Weighted>
0.4645

> <Gold.Chemscore.DEInternal.Weighted>
0.7068

> <Gold.Chemscore.Rot.Weighted>
10.3936

> <Gold.Chemscore.Internal.Correction.Weighted>
   9.000000E+99

> <Gold.Protein.RotatedTorsions>
[ 6907 6896 6895 6894 ] final  -97.33 input  -60.11 | X-H torsion
[ 7974 7965 7964 7962 ] final    9.41 input  175.53 | X-H torsion
[ 8008 7997 7996 7995 ] final   -8.33 input   59.86 | X-H torsion
[ 10167 10162 10161 10158 ] final  155.55 input  -65.29 | X-H torsion
[ 10718 10713 10712 10709 ] final -142.52 input   66.30 | X-H torsion
[ 10763 10752 10751 10750 ] final  121.52 input  -60.55 | X-H torsion
[ 11005 11000 10999 10996 ] final   28.56 input  -57.11 | X-H torsion

> <Gold.Protein.ActiveResidues>
 VAL166  LYS551  ARG553  GLY616  TRP617  ASP618  TYR619  PRO620  LYS621  CYS622 
 ASP623  PHE694  ASN695  SER759  ASP760  ASP761  ALA762  ILE779  LEU786  VAL792 
 PHE793  MET794  SER795  GLU796  ALA797  LYS798  CYS799  TRP800  GLU811  SER814 

> <Gold.Protein.RotatedAtoms>
  150.7013  134.1365  159.4088 H   0  0  0  0  0  0  0  0  0  0  0  0  # atno 6907 bound_to 6896
  151.9350  135.0237  160.0541 H   0  0  0  0  0  0  0  0  0  0  0  0  # atno 6908 bound_to 6896
  152.2143  133.4899  159.5164 H   0  0  0  0  0  0  0  0  0  0  0  0  # atno 6909 bound_to 6896
  146.2404  139.9788  142.8438 H   0  0  0  0  0  0  0  0  0  0  0  0  # atno 7974 bound_to 7965
  154.5751  140.2384  155.8134 H   0  0  0  0  0  0  0  0  0  0  0  0  # atno 8008 bound_to 7997
  156.2137  140.3018  155.9747 H   0  0  0  0  0  0  0  0  0  0  0  0  # atno 8009 bound_to 7997
  155.2641  140.0415  157.2991 H   0  0  0  0  0  0  0  0  0  0  0  0  # atno 8010 bound_to 7997
  139.4821  144.5088  151.8056 H   0  0  0  0  0  0  0  0  0  0  0  0  # atno 10167 bound_to 10162
  156.3469  130.7667  151.1813 H   0  0  0  0  0  0  0  0  0  0  0  0  # atno 10718 bound_to 10713
  153.6154  135.3423  155.2993 H   0  0  0  0  0  0  0  0  0  0  0  0  # atno 10763 bound_to 10752
  154.8610  135.4260  154.2265 H   0  0  0  0  0  0  0  0  0  0  0  0  # atno 10764 bound_to 10752
  153.3125  135.7032  153.7175 H   0  0  0  0  0  0  0  0  0  0  0  0  # atno 10765 bound_to 10752
  140.3143  134.2614  155.7728 H   0  0  0  0  0  0  0  0  0  0  0  0  # atno 11005 bound_to 11000
  145.1612  140.9673  143.4376 LP  0  0  0  0  0  0  0  0  0  0  0  0  # atno 17320 bound_to 7965
  145.0115  139.3506  143.6118 LP  0  0  0  0  0  0  0  0  0  0  0  0  # atno 17321 bound_to 7965
  140.4589  144.1750  150.5904 LP  0  0  0  0  0  0  0  0  0  0  0  0  # atno 17342 bound_to 10162
  140.4506  143.2488  151.9353 LP  0  0  0  0  0  0  0  0  0  0  0  0  # atno 17343 bound_to 10162
  157.7455  131.0438  150.4764 LP  0  0  0  0  0  0  0  0  0  0  0  0  # atno 17370 bound_to 10713
  156.4953  130.4104  149.6383 LP  0  0  0  0  0  0  0  0  0  0  0  0  # atno 17371 bound_to 10713
  141.2101  133.7729  156.9954 LP  0  0  0  0  0  0  0  0  0  0  0  0  # atno 17394 bound_to 11000
  140.0997  134.9543  157.1904 LP  0  0  0  0  0  0  0  0  0  0  0  0  # atno 17395 bound_to 11000

$$$$
