AV-unprocessed.smi:333|AV-procd|sdf|2360|dock4
  -GOLD-   2262022273D 1   1.00000     0.00000
 Structure written by MMmdl.
 25 25  0  0  0  0  0  0  0  0  2 V2000
  149.6341  142.7054  156.3844 N   0  0  0  0  0  0  0  0  0  0  0  0
  150.3044  141.5965  156.0467 C   0  0  0  0  0  0  0  0  0  0  0  0
  150.0918  141.0879  154.9457 O   0  0  0  0  0  0  0  0  0  0  0  0
  151.2427  141.1177  157.0880 C   0  0  0  0  0  0  0  0  0  0  0  0
  151.4150  141.7441  158.2796 C   0  0  0  0  0  0  0  0  0  0  0  0
  152.3410  141.2621  159.2942 C   0  0  0  0  0  0  0  0  0  0  0  0
  152.4944  142.0206  160.6070 C   0  0  0  0  0  0  0  0  0  0  0  0
  152.2326  143.5288  160.4626 C   0  0  0  0  0  0  0  0  0  0  0  0
  152.1313  144.1461  161.7283 O   0  0  0  0  0  0  0  0  0  0  0  0
  153.0570  140.1130  158.9423 C   0  0  0  0  0  0  0  0  0  0  0  0
  154.0902  139.4932  159.8990 C   0  0  0  0  0  0  0  0  0  0  0  0
  155.0095  140.3963  160.2426 F   0  0  0  0  0  0  0  0  0  0  0  0
  153.5032  139.0443  161.0086 F   0  0  0  0  0  0  0  0  0  0  0  0
  154.7346  138.4614  159.3465 F   0  0  0  0  0  0  0  0  0  0  0  0
  152.8970  139.4651  157.7550 N   0  5  0  0  0  0  0  0  0  0  0  0
  152.0292  139.8961  156.7981 C   0  0  0  0  0  0  0  0  0  0  0  0
  151.9205  139.2751  155.7400 O   0  0  0  0  0  0  0  0  0  0  0  0
  148.9690  143.1047  155.7389 H   0  0  0  0  0  0  0  0  0  0  0  0
  149.7954  143.1340  157.2838 H   0  0  0  0  0  0  0  0  0  0  0  0
  150.8627  142.6398  158.5206 H   0  0  0  0  0  0  0  0  0  0  0  0
  151.8603  141.6108  161.3905 H   0  0  0  0  0  0  0  0  0  0  0  0
  153.5172  141.8704  160.9536 H   0  0  0  0  0  0  0  0  0  0  0  0
  153.0477  143.9984  159.9118 H   0  0  0  0  0  0  0  0  0  0  0  0
  151.3181  143.7142  159.8986 H   0  0  0  0  0  0  0  0  0  0  0  0
  151.2704  143.9760  162.0781 H   0  0  0  0  0  0  0  0  0  0  0  0
  1  2  1  0  0  0  0
  1 18  1  0  0  0  0
  1 19  1  0  0  0  0
  2  3  2  0  0  0  0
  2  4  1  0  0  0  0
  4 16  1  0  0  0  0
  4  5  2  0  0  0  0
  5  6  1  0  0  0  0
  5 20  1  0  0  0  0
  6  7  1  0  0  0  0
  6 10  2  0  0  0  0
  7  8  1  0  0  0  0
  7 21  1  0  0  0  0
  7 22  1  0  0  0  0
  8  9  1  0  0  0  0
  8 23  1  0  0  0  0
  8 24  1  0  0  0  0
  9 25  1  0  0  0  0
 10 11  1  0  0  0  0
 10 15  1  0  0  0  0
 11 12  1  0  0  0  0
 11 13  1  0  0  0  0
 11 14  1  0  0  0  0
 15 16  1  0  0  0  0
 16 17  2  0  0  0  0
M  CHG  1  15  -1
M  END
> <s_m_source_file>
AV-unprocessed.smi

> <i_m_source_file_index>
333

> <i_lp_mmshare_version>
43012

> <i_f3d_flags>
0

> <s_epik_input>
W05IMl1DKD1PKWMxW2NIXWMoW0NIMl1bQ0gyXVtPSF0pYyhDKEYpKEYpRilbbkhdYzE9Tw==

> <s_epik_cmdline>
J2VwaWtfcHl0aG9uJywgJy1waCcsICc3LjAnLCAnLXRuJywgJzgnLCAnLW1hJywgJzIwMCcsICctbWV0YWxfYmluZGluZycsICctaW1hZScsICc8aW5maWxlLm1hZT4nLCAnLW9tYWUnLCAnPG91dGZpbGUubWFlPic=

> <r_epik_Ionization_Penalty>
0.0673264

> <r_epik_Ionization_Penalty_Charging>
0.00196754

> <r_epik_Ionization_Penalty_Neutral>
0.0653589

> <r_epik_State_Penalty>
0.0569931

> <r_epik_Charging_Adjusted_Penalty>
0.0589607

> <i_epik_Tot_Q>
-1

> <i_epik_Tot_abs_Q>
1

> <r_epik_Metal_State_Penalty>
0.0511714

> <b_epik_Metal_Only>
0

> <s_lp_Force_Field>
OPLS_2005

> <r_lp_Energy>
33.2875

> <b_lp_Chiralities_Consistent>
1

> <s_lp_Variant>
AV-unprocessed.smi:333-1

> <Gold.Version>
5.8.1

> <Gold.Id.Protein>
6NUR|6NUR_protein|mol2

> <Gold.PLP.Fitness>
36.9511

> <Gold.PLP.PLP>
-29.3635

> <Gold.PLP.part.hbond>
-3.4326

> <Gold.PLP.part.metal>
0.0000

> <Gold.PLP.part.buried>
-1.4680

> <Gold.PLP.part.nonpolar>
-22.3078

> <Gold.PLP.part.repulsive>
0.1776

> <Gold.PLP.ligand.clash>
4.2679

> <Gold.PLP.ligand.torsion>
0.4652

> <Gold.PLP.Chemscore.Hbond>
2.8103

> <Gold.PLP.Chemscore.CHOScore>
0.0000

> <Gold.PLP.Chemscore.Metal>
0.0000

> <Gold.Chemscore.Hbonds>
donor molecule, donor type, donor heavy atom, donor atom, acceptor molecule, acceptor atom, score
      L1  H     1    18       P1  8028  0.37
      P1  H  7989  7998       L1     3  0.51
      P1  H  7997  8010       L1    15  1.50

> <Gold.PLP.Chemscore.Internal.Correction>
4.3550

> <Gold.Rescore>
     Score         DG    S(hbond)    S(metal)    S(lipo)     H(rot)  DE(clash)    DE(int)     intcor
      7.60     -10.72       1.12        0.00      58.88       2.11       0.06       3.06       ----

> <Gold.Chemscore.Fitness>
7.5985

> <Gold.Chemscore.DG>
-10.7184

> <Gold.Chemscore.ZeroCoef>
-5.4800

> <Gold.Chemscore.Hbond>
1.1218

> <Gold.Chemscore.Metal>
0.0000

> <Gold.Chemscore.Lipo>
58.8824

> <Gold.Chemscore.Internal_Hbond>
0.0000

> <Gold.Chemscore.DEClash>
0.0588

> <Gold.Chemscore.DEInternal>
3.0611

> <Gold.Chemscore.Rot>
2.1084

> <Gold.Chemscore.Internal.Correction>
   9.000000E+99

> <Gold.Chemscore.Hbonds>
donor molecule, donor type, donor heavy atom, donor atom, acceptor molecule, acceptor atom, score
      L1  H     1    18       P1  8028  0.36
      P1  H  7989  7998       L1     3  0.50
      P1  H  7997  8010       L1    15  0.02

> <Gold.Chemscore.Hbond.Weighted>
-3.7468

> <Gold.Chemscore.Metal.Weighted>
-0.0000

> <Gold.Chemscore.Lipo.Weighted>
-6.8892

> <Gold.Chemscore.Internal_Hbond.Weighted>
0.0000

> <Gold.Chemscore.DEClash.Weighted>
0.0588

> <Gold.Chemscore.DEInternal.Weighted>
3.0611

> <Gold.Chemscore.Rot.Weighted>
5.3976

> <Gold.Chemscore.Internal.Correction.Weighted>
   9.000000E+99

> <Gold.Protein.RotatedTorsions>
[ 6907 6896 6895 6894 ] final  -56.74 input  -60.11 | X-H torsion
[ 7974 7965 7964 7962 ] final -123.29 input  175.53 | X-H torsion
[ 8008 7997 7996 7995 ] final   47.70 input   59.86 | X-H torsion
[ 10167 10162 10161 10158 ] final  178.73 input  -65.29 | X-H torsion
[ 10718 10713 10712 10709 ] final  165.50 input   66.30 | X-H torsion
[ 10763 10752 10751 10750 ] final  162.69 input  -60.55 | X-H torsion
[ 11005 11000 10999 10996 ] final -124.90 input  -57.11 | X-H torsion

> <Gold.Protein.ActiveResidues>
 VAL166  LYS551  ARG553  GLY616  TRP617  ASP618  TYR619  PRO620  LYS621  CYS622 
 ASP623  PHE694  ASN695  SER759  ASP760  ASP761  ALA762  ILE779  LEU786  VAL792 
 PHE793  MET794  SER795  GLU796  ALA797  LYS798  CYS799  TRP800  GLU811  SER814 

> <Gold.Protein.RotatedAtoms>
  150.8142  134.7315  159.6715 H   0  0  0  0  0  0  0  0  0  0  0  0  # atno 6907 bound_to 6896
  152.4262  134.5861  159.9971 H   0  0  0  0  0  0  0  0  0  0  0  0  # atno 6908 bound_to 6896
  151.6063  133.3314  159.3094 H   0  0  0  0  0  0  0  0  0  0  0  0  # atno 6909 bound_to 6896
  145.0202  140.7982  143.4385 H   0  0  0  0  0  0  0  0  0  0  0  0  # atno 7974 bound_to 7965
  155.3734  140.3425  155.4244 H   0  0  0  0  0  0  0  0  0  0  0  0  # atno 8008 bound_to 7997
  156.1650  140.1613  156.8581 H   0  0  0  0  0  0  0  0  0  0  0  0  # atno 8009 bound_to 7997
  154.5176  140.0774  156.8093 H   0  0  0  0  0  0  0  0  0  0  0  0  # atno 8010 bound_to 7997
  139.5306  144.2646  152.0679 H   0  0  0  0  0  0  0  0  0  0  0  0  # atno 10167 bound_to 10162
  157.0793  131.0387  151.2581 H   0  0  0  0  0  0  0  0  0  0  0  0  # atno 10718 bound_to 10713
  154.2823  135.2763  155.2692 H   0  0  0  0  0  0  0  0  0  0  0  0  # atno 10763 bound_to 10752
  154.5207  135.5757  153.6682 H   0  0  0  0  0  0  0  0  0  0  0  0  # atno 10764 bound_to 10752
  152.9927  135.6204  154.2983 H   0  0  0  0  0  0  0  0  0  0  0  0  # atno 10765 bound_to 10752
  140.9805  134.0680  157.3770 H   0  0  0  0  0  0  0  0  0  0  0  0  # atno 11005 bound_to 11000
  145.1905  139.2303  143.5245 LP  0  0  0  0  0  0  0  0  0  0  0  0  # atno 17320 bound_to 7965
  146.3484  140.1700  142.8590 LP  0  0  0  0  0  0  0  0  0  0  0  0  # atno 17321 bound_to 7965
  140.2109  144.4564  150.6386 LP  0  0  0  0  0  0  0  0  0  0  0  0  # atno 17342 bound_to 10162
  140.6481  143.2218  151.6139 LP  0  0  0  0  0  0  0  0  0  0  0  0  # atno 17343 bound_to 10162
  157.4813  130.7767  149.7417 LP  0  0  0  0  0  0  0  0  0  0  0  0  # atno 17370 bound_to 10713
  155.9928  130.3928  150.2926 LP  0  0  0  0  0  0  0  0  0  0  0  0  # atno 17371 bound_to 10713
  139.8948  135.0138  156.6970 LP  0  0  0  0  0  0  0  0  0  0  0  0  # atno 17394 bound_to 11000
  140.7194  133.9154  155.8136 LP  0  0  0  0  0  0  0  0  0  0  0  0  # atno 17395 bound_to 11000

$$$$
