#       Name:                AV-unprocessed.smi:2849
#       Creating user name   scv26
#       Creation time:       Fri Mar 27 15:41:34 2020


#       File generated by GOLD software.
#

@<TRIPOS>MOLECULE
AV-unprocessed.smi:2849
    59    62     1
SMALL
NO_CHARGES


@<TRIPOS>ATOM
      1 ****        -3.9546  -4.5820   0.0199 C.3            1 S1                 0.0000
      2 ****        -4.6776  -3.2880   0.0353 N.4            1 S1                 1.0000
      3 ****        -4.4601  -2.4364  -1.1596 C.3            1 S1                 0.0000
      4 ****        -5.5748  -1.3655  -1.2211 C.3            1 S1                 0.0000
      5 ****        -5.7291  -0.5478   0.0780 C.3            1 S1                 0.0000
      6 ****        -5.6180  -1.4235   1.3432 C.3            1 S1                 0.0000
      7 ****        -4.4984  -2.4883   1.2715 C.3            1 S1                 0.0000
      8 ****        -3.0574  -1.9271   1.3755 C.3            1 S1                 0.0000
      9 ****        -2.5618  -1.1853   0.1122 C.3            1 S1                 0.0000
     10 ****        -1.1011  -1.1119   0.1355 N.am           1 S1                 0.0000
     11 ****        -0.3673   0.0067   0.0357 C.2            1 S1                 0.0000
     12 ****        -0.8501   1.1317  -0.0902 O.2            1 S1                 0.0000
     13 ****         0.9476  -0.2708   0.0680 N.am           1 S1                 0.0000
     14 ****         2.0404   0.6376   0.0543 C.ar           1 S1                 0.0000
     15 ****         3.3075   0.1408  -0.3203 C.ar           1 S1                 0.0000
     16 ****         4.4235   1.0022  -0.3246 C.ar           1 S1                 0.0000
     17 ****         4.2592   2.3530   0.0608 C.ar           1 S1                 0.0000
     18 ****         5.3018   3.2900   0.0898 N.3            1 S1                 0.0000
     19 ****         6.4494   2.9247   0.9041 C.3            1 S1                 0.0000
     20 ****         7.5813   3.8506   0.4528 C.3            1 S1                 0.0000
     21 ****         7.1863   4.2955  -0.9603 C.3            1 S1                 0.0000
     22 ****         5.8290   3.6353  -1.2194 C.3            1 S1                 0.0000
     23 ****         3.0320   2.7885   0.4199 N.pl3          1 S1                 1.0000
     24 ****         1.9368   1.9981   0.4347 C.ar           1 S1                 0.0000
     25 ****        -3.0171  -1.8740  -1.1951 C.3            1 S1                 0.0000
     26 ****        -2.8731  -4.4524   0.0485 H              1 S1                 0.0000
     27 ****        -4.2034  -5.1456  -0.8796 H              1 S1                 0.0000
     28 ****        -4.2445  -5.1884   0.8785 H              1 S1                 0.0000
     29 ****        -4.5856  -3.0637  -2.0435 H              1 S1                 0.0000
     30 ****        -5.4148  -0.6964  -2.0673 H              1 S1                 0.0000
     31 ****        -6.5209  -1.8714  -1.4180 H              1 S1                 0.0000
     32 ****        -5.0008   0.2581   0.1088 H              1 S1                 0.0000
     33 ****        -6.6938  -0.0395   0.0731 H              1 S1                 0.0000
     34 ****        -5.4908  -0.7937   2.2245 H              1 S1                 0.0000
     35 ****        -6.5688  -1.9396   1.4826 H              1 S1                 0.0000
     36 ****        -4.6500  -3.1527   2.1235 H              1 S1                 0.0000
     37 ****        -2.9750  -1.2718   2.2434 H              1 S1                 0.0000
     38 ****        -2.3855  -2.7609   1.5826 H              1 S1                 0.0000
     39 ****        -2.9642  -0.1761   0.1313 H              1 S1                 0.0000
     40 ****        -0.6082  -1.9881   0.2293 H              1 S1                 0.0000
     41 ****         1.1964  -1.2491   0.0746 H              1 S1                 0.0000
     42 ****         3.4272  -0.8933  -0.6092 H              1 S1                 0.0000
     43 ****         5.3903   0.6238  -0.6231 H              1 S1                 0.0000
     44 ****         6.2317   3.0489   1.9654 H              1 S1                 0.0000
     45 ****         6.7303   1.8842   0.7385 H              1 S1                 0.0000
     46 ****         7.6445   4.7190   1.1097 H              1 S1                 0.0000
     47 ****         8.5479   3.3464   0.4759 H              1 S1                 0.0000
     48 ****         7.0960   5.3818  -0.9968 H              1 S1                 0.0000
     49 ****         7.9221   3.9985  -1.7081 H              1 S1                 0.0000
     50 ****         5.9562   2.7388  -1.8280 H              1 S1                 0.0000
     51 ****         5.1521   4.3072  -1.7481 H              1 S1                 0.0000
     52 ****         1.0313   2.4850   0.7639 H              1 S1                 0.0000
     53 ****        -2.3396  -2.7007  -1.4133 H              1 S1                 0.0000
     54 ****        -2.9060  -1.1847  -2.0331 H              1 S1                 0.0000
     55 ****        -5.6554  -3.5409   0.0142 H              1 S1                 0.0000
     56 ****         2.9268   3.7641   0.6994 H              1 S1                 0.0000
     57 ****        -1.8426   1.2490  -0.1230 LP             1 S1                 0.0000
     58 ****        -0.2499   1.9285  -0.1597 LP             1 S1                 0.0000
     59 ****         4.8339   4.0708   0.5038 LP             1 S1                 0.0000
@<TRIPOS>BOND
    1    1    2 1     
    2    1   26 1     
    3    1   27 1     
    4    1   28 1     
    5    2    7 1     
    6    2    3 1     
    7    2   55 1     
    8    3   25 1     
    9    3    4 1     
   10    3   29 1     
   11    4    5 1     
   12    4   30 1     
   13    4   31 1     
   14    5    6 1     
   15    5   32 1     
   16    5   33 1     
   17    6    7 1     
   18    6   34 1     
   19    6   35 1     
   20    7    8 1     
   21    7   36 1     
   22    8    9 1     
   23    8   37 1     
   24    8   38 1     
   25    9   10 1     
   26    9   25 1     
   27    9   39 1     
   28   10   11 am    
   29   10   40 1     
   30   11   12 2     
   31   11   13 am    
   32   13   14 1     
   33   13   41 1     
   34   14   24 ar    
   35   14   15 ar    
   36   15   16 ar    
   37   15   42 1     
   38   16   17 ar    
   39   16   43 1     
   40   17   18 1     
   41   17   23 ar    
   42   18   22 1     
   43   18   19 1     
   44   19   20 1     
   45   19   44 1     
   46   19   45 1     
   47   20   21 1     
   48   20   46 1     
   49   20   47 1     
   50   21   22 1     
   51   21   48 1     
   52   21   49 1     
   53   22   50 1     
   54   22   51 1     
   55   23   24 ar    
   56   23   56 1     
   57   24   52 1     
   58   25   53 1     
   59   25   54 1     
   60   12   57 1     
   61   12   58 1     
   62   18   59 1     
@<TRIPOS>SUBSTRUCTURE
      1 S1             1
@<TRIPOS>SET
LONE_PAIRS      STATIC     ATOMS    <user>   **** ""
3 57 58 59
DONOR_HYDROGENS      STATIC     ATOMS    <user>   **** ""
4 55 40 41 56
ATOM$BLUE        STATIC     ATOMS    COLORGROUP SYSTEM
3 57 58 59
ATOM$RED        STATIC     ATOMS    COLORGROUP SYSTEM
4 55 40 41 56
