AV-unprocessed.smi:187|AV-procd|sdf|1470|dock1
  -GOLD-   2262019283D 1   1.00000     0.00000
 Structure written by MMmdl.
 53 56  0  0  0  0  0  0  0  0  1 V2000
  143.1385  137.2353  157.7333 C   0  0  0  0  0  0  0  0  0  0  0  0
  144.2816  138.0430  157.0833 C   0  0  2  0  0  0  0  0  0  0  0  0
  144.7297  139.1684  158.0391 C   0  0  0  0  0  0  0  0  0  0  0  0
  145.8273  140.0481  157.4159 C   0  0  0  0  0  0  0  0  0  0  0  0
  145.4269  140.5858  156.0257 C   0  0  2  0  0  0  0  0  0  0  0  0
  144.3934  141.7261  156.1056 C   0  0  0  0  0  0  0  0  0  0  0  0
  143.7458  142.0337  154.9785 N   0  0  0  0  0  0  0  0  0  0  0  0
  144.1692  142.3166  157.1606 O   0  0  0  0  0  0  0  0  0  0  0  0
  144.9529  139.4172  155.1351 C   0  0  0  0  0  0  0  0  0  0  0  0
  143.9146  138.6075  155.7765 N   0  0  0  0  0  0  0  0  0  0  0  0
  143.3582  137.7345  154.9075 C   0  0  0  0  0  0  0  0  0  0  0  0
  142.0358  137.4342  154.9977 N   0  0  0  0  0  0  0  0  0  0  0  0
  141.4884  136.5825  154.1255 C   0  0  0  0  0  0  0  0  0  0  0  0
  142.0690  135.9393  153.1101 N   0  0  0  0  0  0  0  0  0  0  0  0
  143.3968  136.2425  153.0182 C   0  0  0  0  0  0  0  0  0  0  0  0
  144.1143  137.1228  153.8746 C   0  0  0  0  0  0  0  0  0  0  0  0
  145.4449  137.1934  153.4855 N   0  0  0  0  0  0  0  0  0  0  0  0
  145.5119  136.3989  152.4522 C   0  0  0  0  0  0  0  0  0  0  0  0
  144.3290  135.7863  152.0991 N   0  0  0  0  0  0  0  0  0  0  0  0
  144.1328  134.8768  151.0049 C   0  0  0  0  0  0  0  0  0  0  0  0
  143.6980  133.4283  151.2431 C   0  0  0  0  0  0  0  0  0  0  0  0
  144.5393  132.9858  150.0224 C   0  0  0  0  0  0  0  0  0  0  0  0
  145.3533  131.6842  150.1628 C   0  0  0  0  0  0  0  0  0  0  0  0
  146.5055  131.6745  149.3436 O   0  0  0  0  0  0  0  0  0  0  0  0
  143.7716  132.9032  148.6899 C   0  0  0  0  0  0  0  0  0  0  0  0
  143.5157  134.1861  148.1547 O   0  0  0  0  0  0  0  0  0  0  0  0
  145.3174  134.3087  150.2186 C   0  0  0  0  0  0  0  0  0  0  0  0
  143.4242  136.8831  158.7248 H   0  0  0  0  0  0  0  0  0  0  0  0
  142.8760  136.3536  157.1480 H   0  0  0  0  0  0  0  0  0  0  0  0
  142.2394  137.8426  157.8441 H   0  0  0  0  0  0  0  0  0  0  0  0
  145.1285  137.3727  156.9288 H   0  0  0  0  0  0  0  0  0  0  0  0
  143.8724  139.7850  158.3109 H   0  0  0  0  0  0  0  0  0  0  0  0
  145.0966  138.7391  158.9720 H   0  0  0  0  0  0  0  0  0  0  0  0
  146.0713  140.8709  158.0892 H   0  0  0  0  0  0  0  0  0  0  0  0
  146.7400  139.4590  157.3182 H   0  0  0  0  0  0  0  0  0  0  0  0
  146.3229  141.0014  155.5618 H   0  0  0  0  0  0  0  0  0  0  0  0
  143.0579  142.7728  154.9769 H   0  0  0  0  0  0  0  0  0  0  0  0
  143.9473  141.5236  154.1308 H   0  0  0  0  0  0  0  0  0  0  0  0
  144.5796  139.8057  154.1858 H   0  0  0  0  0  0  0  0  0  0  0  0
  145.8060  138.7806  154.8947 H   0  0  0  0  0  0  0  0  0  0  0  0
  140.4340  136.3903  154.2579 H   0  0  0  0  0  0  0  0  0  0  0  0
  146.4356  136.2396  151.9150 H   0  0  0  0  0  0  0  0  0  0  0  0
  143.4346  135.3624  150.3205 H   0  0  0  0  0  0  0  0  0  0  0  0
  144.0605  133.0269  152.1901 H   0  0  0  0  0  0  0  0  0  0  0  0
  142.6245  133.2644  151.1454 H   0  0  0  0  0  0  0  0  0  0  0  0
  145.6822  131.5354  151.1916 H   0  0  0  0  0  0  0  0  0  0  0  0
  144.7475  130.8172  149.8976 H   0  0  0  0  0  0  0  0  0  0  0  0
  147.2210  131.3005  149.8345 H   0  0  0  0  0  0  0  0  0  0  0  0
  144.3331  132.3385  147.9452 H   0  0  0  0  0  0  0  0  0  0  0  0
  142.8224  132.3810  148.8162 H   0  0  0  0  0  0  0  0  0  0  0  0
  144.3047  134.5026  147.7415 H   0  0  0  0  0  0  0  0  0  0  0  0
  145.5403  134.8474  149.2972 H   0  0  0  0  0  0  0  0  0  0  0  0
  146.2164  134.2063  150.8271 H   0  0  0  0  0  0  0  0  0  0  0  0
  1  2  1  0  0  0  0
  1 28  1  0  0  0  0
  1 29  1  0  0  0  0
  1 30  1  0  0  0  0
  2 10  1  0  0  0  0
  2  3  1  0  0  0  0
  2 31  1  0  0  0  0
  3  4  1  0  0  0  0
  3 32  1  0  0  0  0
  3 33  1  0  0  0  0
  4  5  1  0  0  0  0
  4 34  1  0  0  0  0
  4 35  1  0  0  0  0
  5  6  1  0  0  0  0
  5  9  1  0  0  0  0
  5 36  1  0  0  0  0
  6  7  1  0  0  0  0
  6  8  2  0  0  0  0
  7 37  1  0  0  0  0
  7 38  1  0  0  0  0
  9 10  1  0  0  0  0
  9 39  1  0  0  0  0
  9 40  1  0  0  0  0
 10 11  1  0  0  0  0
 11 16  1  0  0  0  0
 11 12  2  0  0  0  0
 12 13  1  0  0  0  0
 13 14  2  0  0  0  0
 13 41  1  0  0  0  0
 14 15  1  0  0  0  0
 15 19  1  0  0  0  0
 15 16  2  0  0  0  0
 16 17  1  0  0  0  0
 17 18  2  0  0  0  0
 18 19  1  0  0  0  0
 18 42  1  0  0  0  0
 19 20  1  0  0  0  0
 20 27  1  0  0  0  0
 20 21  1  0  0  0  0
 20 43  1  0  0  0  0
 21 22  1  0  0  0  0
 21 44  1  0  0  0  0
 21 45  1  0  0  0  0
 22 23  1  0  0  0  0
 22 25  1  0  0  0  0
 22 27  1  0  0  0  0
 23 24  1  0  0  0  0
 23 46  1  0  0  0  0
 23 47  1  0  0  0  0
 24 48  1  0  0  0  0
 25 26  1  0  0  0  0
 25 49  1  0  0  0  0
 25 50  1  0  0  0  0
 26 51  1  0  0  0  0
 27 52  1  0  0  0  0
 27 53  1  0  0  0  0
M  END
> <s_m_source_file>
AV-unprocessed.smi

> <i_m_source_file_index>
187

> <i_lp_mmshare_version>
43012

> <i_f3d_flags>
0

> <s_epik_input>
W0NIM11bQ0BASF0xW0NIMl1bQ0gyXVtDQEBIXShDKD1PKVtOSDJdKVtDSDJdTjFjKG5bY0hdbjIpYyhjMjMpbltjSF1uM1tDSF0oW0NIMl00KVtDSDJdQzQoW0NIMl1bT0hdKVtDSDJdW09IXQ==

> <s_epik_cmdline>
J2VwaWtfcHl0aG9uJywgJy1waCcsICc3LjAnLCAnLXRuJywgJzgnLCAnLW1hJywgJzIwMCcsICctbWV0YWxfYmluZGluZycsICctaW1hZScsICc8aW5maWxlLm1hZT4nLCAnLW9tYWUnLCAnPG91dGZpbGUubWFlPic=

> <r_lp_tautomer_probability>
1

> <r_epik_Ionization_Penalty>
0.0017711

> <r_epik_Ionization_Penalty_Charging>
0

> <r_epik_Ionization_Penalty_Neutral>
0.0017711

> <r_epik_State_Penalty>
0.00107211

> <r_epik_Charging_Adjusted_Penalty>
0.00107211

> <i_epik_Tot_Q>
0

> <i_epik_Tot_abs_Q>
0

> <r_epik_Metal_State_Penalty>
-0

> <b_epik_Metal_Only>
0

> <s_lp_Force_Field>
OPLS_2005

> <r_lp_Energy>
40.7321

> <b_lp_Chiralities_Consistent>
1

> <s_lp_Variant>
AV-unprocessed.smi:187-3

> <Gold.Version>
5.8.1

> <Gold.Id.Protein>
6NUR|6NUR_protein|mol2

> <Gold.PLP.Fitness>
42.4145

> <Gold.PLP.PLP>
-31.3931

> <Gold.PLP.part.hbond>
-6.0831

> <Gold.PLP.part.metal>
0.0000

> <Gold.PLP.part.buried>
-1.9796

> <Gold.PLP.part.nonpolar>
-23.0622

> <Gold.PLP.part.repulsive>
0.4140

> <Gold.PLP.ligand.clash>
0.4187

> <Gold.PLP.ligand.torsion>
1.9506

> <Gold.PLP.Chemscore.Hbond>
3.8913

> <Gold.PLP.Chemscore.CHOScore>
1.0000

> <Gold.PLP.Chemscore.Metal>
0.0000

> <Gold.Chemscore.Hbonds>
donor molecule, donor type, donor heavy atom, donor atom, acceptor molecule, acceptor atom, score
      L1  H     7    38       P1 10175  0.85
      L1  H    24    48       P1 10747  1.00
      L1  H    26    51       P1  7921  1.00
      P1  H 10192 10197       L1    26  0.94
      L1  C    18    42       P1  7948  1.00

> <Gold.PLP.Chemscore.Internal.Correction>
0.6676

> <Gold.Rescore>
     Score         DG    S(hbond)    S(metal)    S(lipo)     H(rot)  DE(clash)    DE(int)     intcor
      7.21     -14.53       3.66        0.00      60.21       3.99       1.37       5.95       ----

> <Gold.Chemscore.Fitness>
7.2083

> <Gold.Chemscore.DG>
-14.5261

> <Gold.Chemscore.ZeroCoef>
-5.4800

> <Gold.Chemscore.Hbond>
3.6576

> <Gold.Chemscore.Metal>
0.0000

> <Gold.Chemscore.Lipo>
60.2088

> <Gold.Chemscore.Internal_Hbond>
0.0000

> <Gold.Chemscore.DEClash>
1.3665

> <Gold.Chemscore.DEInternal>
5.9513

> <Gold.Chemscore.Rot>
3.9902

> <Gold.Chemscore.Internal.Correction>
   9.000000E+99

> <Gold.Chemscore.Hbonds>
donor molecule, donor type, donor heavy atom, donor atom, acceptor molecule, acceptor atom, score
      L1  H     7    38       P1 10175  0.14
      L1  H    24    48       P1 10747  0.99
      L1  H    26    51       P1  7921  0.99
      P1  H 10192 10197       L1    26  0.40

> <Gold.Chemscore.Hbond.Weighted>
-12.2165

> <Gold.Chemscore.Metal.Weighted>
-0.0000

> <Gold.Chemscore.Lipo.Weighted>
-7.0444

> <Gold.Chemscore.Internal_Hbond.Weighted>
0.0000

> <Gold.Chemscore.DEClash.Weighted>
1.3665

> <Gold.Chemscore.DEInternal.Weighted>
5.9513

> <Gold.Chemscore.Rot.Weighted>
10.2148

> <Gold.Chemscore.Internal.Correction.Weighted>
   9.000000E+99

> <Gold.Protein.RotatedTorsions>
[ 6907 6896 6895 6894 ] final  -27.58 input  -60.11 | X-H torsion
[ 7974 7965 7964 7962 ] final -136.91 input  175.53 | X-H torsion
[ 8008 7997 7996 7995 ] final  154.59 input   59.86 | X-H torsion
[ 10167 10162 10161 10158 ] final  -92.41 input  -65.29 | X-H torsion
[ 10718 10713 10712 10709 ] final -116.65 input   66.30 | X-H torsion
[ 10763 10752 10751 10750 ] final  -27.27 input  -60.55 | X-H torsion
[ 11005 11000 10999 10996 ] final  -13.62 input  -57.11 | X-H torsion

> <Gold.Protein.ActiveResidues>
 VAL166  LYS551  ARG553  GLY616  TRP617  ASP618  TYR619  PRO620  LYS621  CYS622 
 ASP623  PHE694  ASN695  SER759  ASP760  ASP761  ALA762  ILE779  LEU786  VAL792 
 PHE793  MET794  SER795  GLU796  ALA797  LYS798  CYS799  TRP800  GLU811  SER814 

> <Gold.Protein.RotatedAtoms>
  151.1449  135.0198  159.8642 H   0  0  0  0  0  0  0  0  0  0  0  0  # atno 6907 bound_to 6896
  152.5453  134.1456  159.8507 H   0  0  0  0  0  0  0  0  0  0  0  0  # atno 6908 bound_to 6896
  151.1535  133.4846  159.2627 H   0  0  0  0  0  0  0  0  0  0  0  0  # atno 6909 bound_to 6896
  144.8887  140.6611  143.5159 H   0  0  0  0  0  0  0  0  0  0  0  0  # atno 7974 bound_to 7965
  156.2523  140.1962  156.6670 H   0  0  0  0  0  0  0  0  0  0  0  0  # atno 8008 bound_to 7997
  154.6421  140.0582  156.9884 H   0  0  0  0  0  0  0  0  0  0  0  0  # atno 8009 bound_to 7997
  155.1546  140.3254  155.4426 H   0  0  0  0  0  0  0  0  0  0  0  0  # atno 8010 bound_to 7997
  140.3351  143.2973  151.9899 H   0  0  0  0  0  0  0  0  0  0  0  0  # atno 10167 bound_to 10162
  156.0978  130.6147  150.9063 H   0  0  0  0  0  0  0  0  0  0  0  0  # atno 10718 bound_to 10713
  153.7295  135.6940  153.4993 H   0  0  0  0  0  0  0  0  0  0  0  0  # atno 10763 bound_to 10752
  153.2146  135.4391  155.0418 H   0  0  0  0  0  0  0  0  0  0  0  0  # atno 10764 bound_to 10752
  154.8258  135.3445  154.6825 H   0  0  0  0  0  0  0  0  0  0  0  0  # atno 10765 bound_to 10752
  140.7780  133.8386  155.9266 H   0  0  0  0  0  0  0  0  0  0  0  0  # atno 11005 bound_to 11000
  145.3822  139.1634  143.4274 LP  0  0  0  0  0  0  0  0  0  0  0  0  # atno 17320 bound_to 7965
  146.3040  140.3904  142.8694 LP  0  0  0  0  0  0  0  0  0  0  0  0  # atno 17321 bound_to 7965
  139.4850  144.6203  151.7267 LP  0  0  0  0  0  0  0  0  0  0  0  0  # atno 17342 bound_to 10162
  140.5361  144.0653  150.6071 LP  0  0  0  0  0  0  0  0  0  0  0  0  # atno 17343 bound_to 10162
  157.6143  131.0934  150.8739 LP  0  0  0  0  0  0  0  0  0  0  0  0  # atno 17370 bound_to 10713
  156.8873  130.5200  149.5288 LP  0  0  0  0  0  0  0  0  0  0  0  0  # atno 17371 bound_to 10713
  140.9510  134.1778  157.4727 LP  0  0  0  0  0  0  0  0  0  0  0  0  # atno 17394 bound_to 11000
  139.8746  134.9909  156.5524 LP  0  0  0  0  0  0  0  0  0  0  0  0  # atno 17395 bound_to 11000

$$$$
