AV-unprocessed.smi:565|AV-procd|sdf|2952|dock3
  -GOLD-   2262023453D 1   1.00000     0.00000
 Structure written by MMmdl.
 50 51  0  0  0  0  0  0  0  0  2 V2000
  148.0393  141.0162  153.8499 C   0  0  0  0  0  0  0  0  0  0  0  0
  149.2217  140.9149  154.7709 C   0  0  0  0  0  0  0  0  0  0  0  0
  149.4462  141.8845  155.6413 N   0  0  0  0  0  0  0  0  0  0  0  0
  150.5621  141.5078  156.2970 N   0  0  0  0  0  0  0  0  0  0  0  0
  151.0935  142.3593  157.3437 C   0  0  0  0  0  0  0  0  0  0  0  0
  151.0488  140.3008  155.8341 C   0  0  0  0  0  0  0  0  0  0  0  0
  152.2854  139.6731  156.3925 C   0  0  0  0  0  0  0  0  0  0  0  0
  150.2015  139.8803  154.8436 C   0  0  0  0  0  0  0  0  0  0  0  0
  150.2789  138.6266  154.0098 C   0  0  0  0  0  0  0  0  0  0  0  0
  150.2129  137.4067  154.9272 C   0  0  0  0  0  0  0  0  0  0  0  0
  150.6531  137.4729  156.0749 O   0  0  0  0  0  0  0  0  0  0  0  0
  149.6838  136.2908  154.4024 N   0  0  0  0  0  0  0  0  0  0  0  0
  149.5991  135.0072  155.0865 C   0  0  0  0  0  0  0  0  0  0  0  0
  149.4842  133.8477  154.0779 C   0  0  0  0  0  0  0  0  0  0  0  0
  148.1627  133.8093  153.4031 N   0  3  2  0  0  0  0  0  0  0  0  0
  147.0681  134.2878  154.2866 C   0  0  0  0  0  0  0  0  0  0  0  0
  145.7417  134.3951  153.5176 C   0  0  0  0  0  0  0  0  0  0  0  0
  145.3752  133.0568  152.8606 C   0  0  0  0  0  0  0  0  0  0  0  0
  146.5313  132.5242  151.9943 C   0  0  1  0  0  0  0  0  0  0  0  0
  146.6916  133.2957  150.6723 C   0  0  0  0  0  0  0  0  0  0  0  0
  147.8421  132.4837  152.8069 C   0  0  0  0  0  0  0  0  0  0  0  0
  147.5785  140.0413  153.6916 H   0  0  0  0  0  0  0  0  0  0  0  0
  148.3393  141.4043  152.8765 H   0  0  0  0  0  0  0  0  0  0  0  0
  147.2724  141.6803  154.2508 H   0  0  0  0  0  0  0  0  0  0  0  0
  151.1977  141.7859  158.2651 H   0  0  0  0  0  0  0  0  0  0  0  0
  150.4288  143.2042  157.5285 H   0  0  0  0  0  0  0  0  0  0  0  0
  152.0716  142.7376  157.0464 H   0  0  0  0  0  0  0  0  0  0  0  0
  152.6405  138.8632  155.7552 H   0  0  0  0  0  0  0  0  0  0  0  0
  152.0954  139.2626  157.3844 H   0  0  0  0  0  0  0  0  0  0  0  0
  153.0908  140.4031  156.4759 H   0  0  0  0  0  0  0  0  0  0  0  0
  149.4611  138.5702  153.2908 H   0  0  0  0  0  0  0  0  0  0  0  0
  151.1960  138.5957  153.4204 H   0  0  0  0  0  0  0  0  0  0  0  0
  149.3430  136.3289  153.4524 H   0  0  0  0  0  0  0  0  0  0  0  0
  150.4663  134.8687  155.7347 H   0  0  0  0  0  0  0  0  0  0  0  0
  148.7273  135.0471  155.7381 H   0  0  0  0  0  0  0  0  0  0  0  0
  150.2803  133.9001  153.3332 H   0  0  0  0  0  0  0  0  0  0  0  0
  149.6311  132.9109  154.6173 H   0  0  0  0  0  0  0  0  0  0  0  0
  146.9607  133.6093  155.1345 H   0  0  0  0  0  0  0  0  0  0  0  0
  147.3212  135.2672  154.6944 H   0  0  0  0  0  0  0  0  0  0  0  0
  144.9451  134.7054  154.1943 H   0  0  0  0  0  0  0  0  0  0  0  0
  145.8177  135.1751  152.7594 H   0  0  0  0  0  0  0  0  0  0  0  0
  145.1468  132.3292  153.6404 H   0  0  0  0  0  0  0  0  0  0  0  0
  144.4665  133.1621  152.2666 H   0  0  0  0  0  0  0  0  0  0  0  0
  146.2847  131.4973  151.7210 H   0  0  0  0  0  0  0  0  0  0  0  0
  146.9653  134.3377  150.8382 H   0  0  0  0  0  0  0  0  0  0  0  0
  145.7654  133.2840  150.0970 H   0  0  0  0  0  0  0  0  0  0  0  0
  147.4673  132.8481  150.0503 H   0  0  0  0  0  0  0  0  0  0  0  0
  148.6507  132.1443  152.1607 H   0  0  0  0  0  0  0  0  0  0  0  0
  147.7573  131.7460  153.6067 H   0  0  0  0  0  0  0  0  0  0  0  0
  148.2147  134.4701  152.6408 H   0  0  0  0  0  0  0  0  0  0  0  0
  1  2  1  0  0  0  0
  1 22  1  0  0  0  0
  1 23  1  0  0  0  0
  1 24  1  0  0  0  0
  2  8  1  0  0  0  0
  2  3  2  0  0  0  0
  3  4  1  0  0  0  0
  4  5  1  0  0  0  0
  4  6  1  0  0  0  0
  5 25  1  0  0  0  0
  5 26  1  0  0  0  0
  5 27  1  0  0  0  0
  6  7  1  0  0  0  0
  6  8  2  0  0  0  0
  7 28  1  0  0  0  0
  7 29  1  0  0  0  0
  7 30  1  0  0  0  0
  8  9  1  0  0  0  0
  9 10  1  0  0  0  0
  9 31  1  0  0  0  0
  9 32  1  0  0  0  0
 10 11  2  0  0  0  0
 10 12  1  0  0  0  0
 12 13  1  0  0  0  0
 12 33  1  0  0  0  0
 13 14  1  0  0  0  0
 13 34  1  0  0  0  0
 13 35  1  0  0  0  0
 14 15  1  0  0  0  0
 14 36  1  0  0  0  0
 14 37  1  0  0  0  0
 15 21  1  0  0  0  0
 15 16  1  0  0  0  0
 15 50  1  0  0  0  0
 16 17  1  0  0  0  0
 16 38  1  0  0  0  0
 16 39  1  0  0  0  0
 17 18  1  0  0  0  0
 17 40  1  0  0  0  0
 17 41  1  0  0  0  0
 18 19  1  0  0  0  0
 18 42  1  0  0  0  0
 18 43  1  0  0  0  0
 19 20  1  0  0  0  0
 19 21  1  0  0  0  0
 19 44  1  0  0  0  0
 20 45  1  0  0  0  0
 20 46  1  0  0  0  0
 20 47  1  0  0  0  0
 21 48  1  0  0  0  0
 21 49  1  0  0  0  0
M  CHG  1  15   1
M  END
> <s_m_source_file>
AV-unprocessed.smi

> <i_m_source_file_index>
565

> <i_lp_mmshare_version>
43012

> <i_f3d_flags>
0

> <s_epik_input>
W0NIM11jMW5uKFtDSDNdKWMoW0NIM10pYzFbQ0gyXUMoPU8pW05IXVtDSDJdW0NIMl1OMltDSDJdW0NIMl1bQ0gyXVtDQEBIXShbQ0gzXSlbQ0gyXTI=

> <s_epik_cmdline>
J2VwaWtfcHl0aG9uJywgJy1waCcsICc3LjAnLCAnLXRuJywgJzgnLCAnLW1hJywgJzIwMCcsICctbWV0YWxfYmluZGluZycsICctaW1hZScsICc8aW5maWxlLm1hZT4nLCAnLW9tYWUnLCAnPG91dGZpbGUubWFlPic=

> <r_lp_tautomer_probability>
1

> <r_epik_Ionization_Penalty>
0.00411138

> <r_epik_Ionization_Penalty_Charging>
0.0019503

> <r_epik_Ionization_Penalty_Neutral>
0.00216107

> <r_epik_State_Penalty>
-0

> <r_epik_Charging_Adjusted_Penalty>
0.0019503

> <i_epik_Tot_Q>
1

> <i_epik_Tot_abs_Q>
1

> <r_epik_Metal_State_Penalty>
-0

> <b_epik_Metal_Only>
0

> <s_lp_Force_Field>
OPLS_2005

> <r_lp_Energy>
12.6128

> <b_lp_Chiralities_Consistent>
1

> <s_lp_Variant>
AV-unprocessed.smi:565-2

> <Gold.Version>
5.8.1

> <Gold.Id.Protein>
6NUR|6NUR_protein|mol2

> <Gold.PLP.Fitness>
44.3430

> <Gold.PLP.PLP>
-36.9309

> <Gold.PLP.part.hbond>
-2.0696

> <Gold.PLP.part.metal>
0.0000

> <Gold.PLP.part.buried>
-2.1571

> <Gold.PLP.part.nonpolar>
-34.2465

> <Gold.PLP.part.repulsive>
1.7772

> <Gold.PLP.ligand.clash>
0.0000

> <Gold.PLP.ligand.torsion>
0.8244

> <Gold.PLP.Chemscore.Hbond>
3.0000

> <Gold.PLP.Chemscore.CHOScore>
0.0000

> <Gold.PLP.Chemscore.Metal>
0.0000

> <Gold.Chemscore.Hbonds>
donor molecule, donor type, donor heavy atom, donor atom, acceptor molecule, acceptor atom, score
      L1  H    12    33       P1  7948  1.00
      L1  H    15    50       P1  7948  2.00

> <Gold.PLP.Chemscore.Internal.Correction>
0.0609

> <Gold.Rescore>
     Score         DG    S(hbond)    S(metal)    S(lipo)     H(rot)  DE(clash)    DE(int)     intcor
     13.84     -17.52       1.75        0.00      88.27       1.61       0.24       3.44       ----

> <Gold.Chemscore.Fitness>
13.8388

> <Gold.Chemscore.DG>
-17.5227

> <Gold.Chemscore.ZeroCoef>
-5.4800

> <Gold.Chemscore.Hbond>
1.7508

> <Gold.Chemscore.Metal>
0.0000

> <Gold.Chemscore.Lipo>
88.2689

> <Gold.Chemscore.Internal_Hbond>
0.0000

> <Gold.Chemscore.DEClash>
0.2443

> <Gold.Chemscore.DEInternal>
3.4397

> <Gold.Chemscore.Rot>
1.6142

> <Gold.Chemscore.Internal.Correction>
   9.000000E+99

> <Gold.Chemscore.Hbonds>
donor molecule, donor type, donor heavy atom, donor atom, acceptor molecule, acceptor atom, score
      L1  H    12    33       P1  7948  0.81
      L1  H    15    50       P1  7948  0.27

> <Gold.Chemscore.Hbond.Weighted>
-5.8477

> <Gold.Chemscore.Metal.Weighted>
-0.0000

> <Gold.Chemscore.Lipo.Weighted>
-10.3275

> <Gold.Chemscore.Internal_Hbond.Weighted>
0.0000

> <Gold.Chemscore.DEClash.Weighted>
0.2443

> <Gold.Chemscore.DEInternal.Weighted>
3.4397

> <Gold.Chemscore.Rot.Weighted>
4.1324

> <Gold.Chemscore.Internal.Correction.Weighted>
   9.000000E+99

> <Gold.Protein.RotatedTorsions>
[ 6907 6896 6895 6894 ] final -117.85 input  -60.11 | X-H torsion
[ 7974 7965 7964 7962 ] final  176.44 input  175.53 | X-H torsion
[ 8008 7997 7996 7995 ] final  -84.46 input   59.86 | X-H torsion
[ 10167 10162 10161 10158 ] final  168.06 input  -65.29 | X-H torsion
[ 10718 10713 10712 10709 ] final   40.80 input   66.30 | X-H torsion
[ 10763 10752 10751 10750 ] final   76.30 input  -60.55 | X-H torsion
[ 11005 11000 10999 10996 ] final  -37.58 input  -57.11 | X-H torsion

> <Gold.Protein.ActiveResidues>
 VAL166  LYS551  ARG553  GLY616  TRP617  ASP618  TYR619  PRO620  LYS621  CYS622 
 ASP623  PHE694  ASN695  SER759  ASP760  ASP761  ALA762  ILE779  LEU786  VAL792 
 PHE793  MET794  SER795  GLU796  ALA797  LYS798  CYS799  TRP800  GLU811  SER814 

> <Gold.Protein.RotatedAtoms>
  150.8171  133.8318  159.3155 H   0  0  0  0  0  0  0  0  0  0  0  0  # atno 6907 bound_to 6896
  151.6087  135.1040  160.0086 H   0  0  0  0  0  0  0  0  0  0  0  0  # atno 6908 bound_to 6896
  152.4262  133.7158  159.6561 H   0  0  0  0  0  0  0  0  0  0  0  0  # atno 6909 bound_to 6896
  144.7184  140.0096  143.6440 H   0  0  0  0  0  0  0  0  0  0  0  0  # atno 7974 bound_to 7965
  154.6301  140.0604  156.9721 H   0  0  0  0  0  0  0  0  0  0  0  0  # atno 8008 bound_to 7997
  155.1679  140.3288  155.4380 H   0  0  0  0  0  0  0  0  0  0  0  0  # atno 8009 bound_to 7997
  156.2478  140.1919  156.6783 H   0  0  0  0  0  0  0  0  0  0  0  0  # atno 8010 bound_to 7997
  139.4959  144.3854  151.9576 H   0  0  0  0  0  0  0  0  0  0  0  0  # atno 10167 bound_to 10162
  157.3863  130.7781  149.7233 H   0  0  0  0  0  0  0  0  0  0  0  0  # atno 10718 bound_to 10713
  153.0715  135.4956  154.8316 H   0  0  0  0  0  0  0  0  0  0  0  0  # atno 10763 bound_to 10752
  154.7030  135.3005  154.9315 H   0  0  0  0  0  0  0  0  0  0  0  0  # atno 10764 bound_to 10752
  154.0033  135.6763  153.4813 H   0  0  0  0  0  0  0  0  0  0  0  0  # atno 10765 bound_to 10752
  140.9963  133.6978  156.1940 H   0  0  0  0  0  0  0  0  0  0  0  0  # atno 11005 bound_to 11000
  146.0269  139.3300  143.0779 LP  0  0  0  0  0  0  0  0  0  0  0  0  # atno 17320 bound_to 7965
  145.8500  140.9534  143.0754 LP  0  0  0  0  0  0  0  0  0  0  0  0  # atno 17321 bound_to 7965
  140.3291  144.3337  150.5991 LP  0  0  0  0  0  0  0  0  0  0  0  0  # atno 17342 bound_to 10162
  140.5659  143.2186  151.7683 LP  0  0  0  0  0  0  0  0  0  0  0  0  # atno 17343 bound_to 10162
  155.9787  130.4048  150.3630 LP  0  0  0  0  0  0  0  0  0  0  0  0  # atno 17370 bound_to 10713
  157.1740  131.0376  151.2781 LP  0  0  0  0  0  0  0  0  0  0  0  0  # atno 17371 bound_to 10713
  140.6961  134.4614  157.5587 LP  0  0  0  0  0  0  0  0  0  0  0  0  # atno 17394 bound_to 11000
  139.9016  134.8543  156.1872 LP  0  0  0  0  0  0  0  0  0  0  0  0  # atno 17395 bound_to 11000

$$$$
