#       Name:                AV-unprocessed.smi:657
#       Creating user name   scv26
#       Creation time:       Fri Mar 27 00:17:00 2020


#       File generated by GOLD software.
#

@<TRIPOS>MOLECULE
AV-unprocessed.smi:657
    50    51     1
SMALL
NO_CHARGES


@<TRIPOS>ATOM
      1 ****        -1.5514   4.2253  -0.4549 C.3            1 S1                 0.0000
      2 ****        -1.0128   2.7793  -0.4161 C.3            1 S1                 0.0000
      3 ****        -1.4451   2.0729  -1.7186 C.3            1 S1                 0.0000
      4 ****        -1.4497   2.0193   0.8068 N.4            1 S1                 1.0000
      5 ****        -1.3001   2.7636   2.0952 C.3            1 S1                 0.0000
      6 ****        -1.9616   2.0219   3.2688 C.3            1 S1                 0.0000
      7 ****        -1.4135   0.6024   3.4224 C.3            1 S1                 0.0000
      8 ****        -1.5584  -0.1483   2.0927 C.3            1 S1                 0.0000
      9 ****        -0.9382   0.6077   0.8931 C.3            1 S1                 0.0000
     10 ****         0.6074   0.4858   0.8558 C.2            1 S1                 0.0000
     11 ****         1.2711   0.9437   1.7918 O.2            1 S1                 0.0000
     12 ****         1.0214  -0.1339  -0.2827 N.pl3          1 S1                -1.0000
     13 ****         2.4244  -0.3557  -0.6244 C.3            1 S1                 0.0000
     14 ****         2.5405  -1.0758  -1.9839 C.3            1 S1                 0.0000
     15 ****         2.0159  -2.4936  -1.9726 C.2            1 S1                 0.0000
     16 ****         0.6861  -2.9407  -2.2271 C.2            1 S1                 0.0000
     17 ****         0.5584  -4.2555  -2.1499 N.2            1 S1                 0.0000
     18 ****         1.7979  -4.6951  -1.8511 N.pl3          1 S1                 0.0000
     19 ****         2.0325  -6.1138  -1.6875 C.3            1 S1                 0.0000
     20 ****         2.6972  -3.6568  -1.7406 C.2            1 S1                 0.0000
     21 ****        -1.3306   4.7003  -1.4113 H              1 S1                 0.0000
     22 ****        -1.0896   4.8568   0.3038 H              1 S1                 0.0000
     23 ****        -2.6329   4.2536  -0.3172 H              1 S1                 0.0000
     24 ****         0.0754   2.8516  -0.4151 H              1 S1                 0.0000
     25 ****        -1.2009   2.6778  -2.5923 H              1 S1                 0.0000
     26 ****        -2.5204   1.8931  -1.7336 H              1 S1                 0.0000
     27 ****        -0.9417   1.1188  -1.8662 H              1 S1                 0.0000
     28 ****        -0.2481   2.9579   2.3037 H              1 S1                 0.0000
     29 ****        -1.7874   3.7348   2.0413 H              1 S1                 0.0000
     30 ****        -1.8088   2.5792   4.1935 H              1 S1                 0.0000
     31 ****        -3.0399   1.9800   3.1099 H              1 S1                 0.0000
     32 ****        -0.3717   0.6344   3.7397 H              1 S1                 0.0000
     33 ****        -1.9547   0.0756   4.2087 H              1 S1                 0.0000
     34 ****        -1.1202  -1.1437   2.1807 H              1 S1                 0.0000
     35 ****        -2.6194  -0.3086   1.8960 H              1 S1                 0.0000
     36 ****        -1.3454   0.0819   0.0285 H              1 S1                 0.0000
     37 ****         2.9617   0.5910  -0.6921 H              1 S1                 0.0000
     38 ****         2.9450  -0.9382   0.1366 H              1 S1                 0.0000
     39 ****         2.0318  -0.4860  -2.7476 H              1 S1                 0.0000
     40 ****         3.5902  -1.0742  -2.2786 H              1 S1                 0.0000
     41 ****        -0.1855  -2.3476  -2.4618 H              1 S1                 0.0000
     42 ****         3.1038  -6.3172  -1.6914 H              1 S1                 0.0000
     43 ****         1.5655  -6.6662  -2.5037 H              1 S1                 0.0000
     44 ****         1.6100  -6.4483  -0.7397 H              1 S1                 0.0000
     45 ****         3.7378  -3.8267  -1.5066 H              1 S1                 0.0000
     46 ****        -2.4476   1.9166   0.6960 H              1 S1                 0.0000
     47 ****         0.8110   1.3865   2.5614 LP             1 S1                 0.0000
     48 ****         2.2685   0.8716   1.7799 LP             1 S1                 0.0000
     49 ****         0.3244  -0.4564  -0.9231 LP             1 S1                 0.0000
     50 ****        -0.2697  -4.7999  -2.2830 LP             1 S1                 0.0000
@<TRIPOS>BOND
    1    1    2 1     
    2    1   21 1     
    3    1   22 1     
    4    1   23 1     
    5    2    3 1     
    6    2    4 1     
    7    2   24 1     
    8    3   25 1     
    9    3   26 1     
   10    3   27 1     
   11    4    9 1     
   12    4    5 1     
   13    4   46 1     
   14    5    6 1     
   15    5   28 1     
   16    5   29 1     
   17    6    7 1     
   18    6   30 1     
   19    6   31 1     
   20    7    8 1     
   21    7   32 1     
   22    7   33 1     
   23    8    9 1     
   24    8   34 1     
   25    8   35 1     
   26    9   10 1     
   27    9   36 1     
   28   10   11 2     
   29   10   12 1     
   30   12   13 1     
   31   13   14 1     
   32   13   37 1     
   33   13   38 1     
   34   14   15 1     
   35   14   39 1     
   36   14   40 1     
   37   15   20 2     
   38   15   16 1     
   39   16   17 2     
   40   16   41 1     
   41   17   18 1     
   42   18   19 1     
   43   18   20 1     
   44   19   42 1     
   45   19   43 1     
   46   19   44 1     
   47   20   45 1     
   48   11   47 1     
   49   11   48 1     
   50   12   49 1     
   51   17   50 1     
@<TRIPOS>SUBSTRUCTURE
      1 S1             1
@<TRIPOS>SET
LONE_PAIRS      STATIC     ATOMS    <user>   **** ""
4 47 48 49 50
DONOR_HYDROGENS      STATIC     ATOMS    <user>   **** ""
1 46
ATOM$BLUE        STATIC     ATOMS    COLORGROUP SYSTEM
4 47 48 49 50
ATOM$RED        STATIC     ATOMS    COLORGROUP SYSTEM
1 46
