AV-unprocessed.smi:2764|AV-procd|sdf|10640|dock1
  -GOLD-   2272015 93D 1   1.00000     0.00000
 Structure written by MMmdl.
 47 49  0  0  0  0  0  0  0  0  2 V2000
  148.0452  141.3247  156.3110 O   0  0  0  0  0  0  0  0  0  0  0  0
  148.9697  140.5120  156.3275 C   0  0  0  0  0  0  0  0  0  0  0  0
  150.1601  140.7042  156.9229 N   0  0  0  0  0  0  0  0  0  0  0  0
  150.5923  141.8254  157.6807 C   0  0  0  0  0  0  0  0  0  0  0  0
  151.9102  141.7350  158.1837 C   0  0  0  0  0  0  0  0  0  0  0  0
  152.4324  142.7931  158.9533 C   0  0  0  0  0  0  0  0  0  0  0  0
  151.6203  143.9142  159.1995 C   0  0  0  0  0  0  0  0  0  0  0  0
  152.0782  144.9548  159.9349 F   0  0  0  0  0  0  0  0  0  0  0  0
  150.3198  143.9261  158.6626 C   0  0  0  0  0  0  0  0  0  0  0  0
  149.8182  142.9129  157.9244 N   0  0  0  0  0  0  0  0  0  0  0  0
  148.9117  139.3040  155.7423 N   0  0  0  0  0  0  0  0  0  0  0  0
  147.7847  138.7195  155.0110 C   0  0  2  0  0  0  0  0  0  0  0  0
  147.8203  137.1793  154.9877 C   0  0  0  0  0  0  0  0  0  0  0  0
  146.6011  136.6154  154.2384 C   0  0  0  0  0  0  0  0  0  0  0  0
  146.5139  137.1680  152.8606 N   0  3  1  0  0  0  0  0  0  0  0  0
  145.4419  136.5334  152.0502 C   0  0  0  0  0  0  0  0  0  0  0  0
  145.8673  135.1567  151.5046 C   0  0  2  0  0  0  0  0  0  0  0  0
  144.8228  134.4253  150.6828 C   0  0  0  0  0  0  0  0  0  0  0  0
  145.3199  132.9836  150.7376 C   0  0  0  0  0  0  0  0  0  0  0  0
  146.0065  132.8532  151.9788 O   0  0  0  0  0  0  0  0  0  0  0  0
  146.1302  134.1262  152.6031 C   0  0  0  0  0  0  0  0  0  0  0  0
  146.4322  138.6529  152.8716 C   0  0  0  0  0  0  0  0  0  0  0  0
  147.6508  139.2691  153.5773 C   0  0  0  0  0  0  0  0  0  0  0  0
  150.8302  139.9541  156.8402 H   0  0  0  0  0  0  0  0  0  0  0  0
  152.5193  140.8650  157.9855 H   0  0  0  0  0  0  0  0  0  0  0  0
  153.4368  142.7434  159.3473 H   0  0  0  0  0  0  0  0  0  0  0  0
  149.6645  144.7681  158.8301 H   0  0  0  0  0  0  0  0  0  0  0  0
  149.7333  138.7216  155.8167 H   0  0  0  0  0  0  0  0  0  0  0  0
  146.8945  139.0209  155.5647 H   0  0  0  0  0  0  0  0  0  0  0  0
  148.7287  136.8220  154.5019 H   0  0  0  0  0  0  0  0  0  0  0  0
  147.8399  136.7887  156.0057 H   0  0  0  0  0  0  0  0  0  0  0  0
  146.6853  135.5288  154.1947 H   0  0  0  0  0  0  0  0  0  0  0  0
  145.6829  136.8429  154.7826 H   0  0  0  0  0  0  0  0  0  0  0  0
  144.5594  136.3785  152.6729 H   0  0  0  0  0  0  0  0  0  0  0  0
  145.1183  137.1963  151.2457 H   0  0  0  0  0  0  0  0  0  0  0  0
  146.7768  135.2628  150.9103 H   0  0  0  0  0  0  0  0  0  0  0  0
  143.8429  134.4984  151.1569 H   0  0  0  0  0  0  0  0  0  0  0  0
  144.7393  134.7974  149.6613 H   0  0  0  0  0  0  0  0  0  0  0  0
  144.5075  132.2616  150.6537 H   0  0  0  0  0  0  0  0  0  0  0  0
  146.0273  132.7933  149.9296 H   0  0  0  0  0  0  0  0  0  0  0  0
  147.1100  134.2484  153.0654 H   0  0  0  0  0  0  0  0  0  0  0  0
  145.3762  134.1978  153.3884 H   0  0  0  0  0  0  0  0  0  0  0  0
  146.3776  139.0355  151.8533 H   0  0  0  0  0  0  0  0  0  0  0  0
  145.5136  138.9641  153.3720 H   0  0  0  0  0  0  0  0  0  0  0  0
  147.5548  140.3552  153.5991 H   0  0  0  0  0  0  0  0  0  0  0  0
  148.5443  139.0489  152.9923 H   0  0  0  0  0  0  0  0  0  0  0  0
  147.3857  136.9258  152.4113 H   0  0  0  0  0  0  0  0  0  0  0  0
  1  2  2  0  0  0  0
  2  3  1  0  0  0  0
  2 11  1  0  0  0  0
  3  4  1  0  0  0  0
  3 24  1  0  0  0  0
  4 10  1  0  0  0  0
  4  5  2  0  0  0  0
  5  6  1  0  0  0  0
  5 25  1  0  0  0  0
  6  7  2  0  0  0  0
  6 26  1  0  0  0  0
  7  8  1  0  0  0  0
  7  9  1  0  0  0  0
  9 10  2  0  0  0  0
  9 27  1  0  0  0  0
 11 12  1  0  0  0  0
 11 28  1  0  0  0  0
 12 23  1  0  0  0  0
 12 13  1  0  0  0  0
 12 29  1  0  0  0  0
 13 14  1  0  0  0  0
 13 30  1  0  0  0  0
 13 31  1  0  0  0  0
 14 15  1  0  0  0  0
 14 32  1  0  0  0  0
 14 33  1  0  0  0  0
 15 16  1  0  0  0  0
 15 22  1  0  0  0  0
 15 47  1  0  0  0  0
 16 17  1  0  0  0  0
 16 34  1  0  0  0  0
 16 35  1  0  0  0  0
 17 21  1  0  0  0  0
 17 18  1  0  0  0  0
 17 36  1  0  0  0  0
 18 19  1  0  0  0  0
 18 37  1  0  0  0  0
 18 38  1  0  0  0  0
 19 20  1  0  0  0  0
 19 39  1  0  0  0  0
 19 40  1  0  0  0  0
 20 21  1  0  0  0  0
 21 41  1  0  0  0  0
 21 42  1  0  0  0  0
 22 23  1  0  0  0  0
 22 43  1  0  0  0  0
 22 44  1  0  0  0  0
 23 45  1  0  0  0  0
 23 46  1  0  0  0  0
M  CHG  1  15   1
M  END
> <s_m_source_file>
AV-unprocessed.smi

> <i_m_source_file_index>
2764

> <i_lp_mmshare_version>
43012

> <i_f3d_flags>
0

> <s_epik_input>
bjFbY0hdYyhGKVtjSF1bY0hdYzFbTkhdQyg9TylbTkhdW0NIXTJbQ0gyXVtDSDJdTihbQ0gyXVtDSDJdMilbQ0gyXVtDQEBIXTNbQ0gyXVtDSDJdT1tDSDJdMw==

> <s_epik_cmdline>
J2VwaWtfcHl0aG9uJywgJy1waCcsICc3LjAnLCAnLXRuJywgJzgnLCAnLW1hJywgJzIwMCcsICctbWV0YWxfYmluZGluZycsICctaW1hZScsICc8aW5maWxlLm1hZT4nLCAnLW9tYWUnLCAnPG91dGZpbGUubWFlPic=

> <r_epik_Ionization_Penalty>
0.0075076

> <r_epik_Ionization_Penalty_Charging>
0.00747775

> <r_epik_Ionization_Penalty_Neutral>
2.98483e-05

> <r_epik_State_Penalty>
0.00558817

> <r_epik_Charging_Adjusted_Penalty>
0.0130659

> <i_epik_Tot_Q>
1

> <i_epik_Tot_abs_Q>
1

> <r_epik_Metal_State_Penalty>
-0

> <b_epik_Metal_Only>
0

> <s_lp_Force_Field>
OPLS_2005

> <r_lp_Energy>
38.4399

> <b_lp_Chiralities_Consistent>
1

> <s_lp_Variant>
AV-unprocessed.smi:2764-1

> <Gold.Version>
5.8.1

> <Gold.Id.Protein>
6NUR|6NUR_protein|mol2

> <Gold.PLP.Fitness>
41.4254

> <Gold.PLP.PLP>
-33.4406

> <Gold.PLP.part.hbond>
-1.0000

> <Gold.PLP.part.metal>
0.0000

> <Gold.PLP.part.buried>
-4.7886

> <Gold.PLP.part.nonpolar>
-29.6347

> <Gold.PLP.part.repulsive>
1.6211

> <Gold.PLP.ligand.clash>
0.0000

> <Gold.PLP.ligand.torsion>
0.5367

> <Gold.PLP.Chemscore.Hbond>
2.0000

> <Gold.PLP.Chemscore.CHOScore>
0.9968

> <Gold.PLP.Chemscore.Metal>
0.0000

> <Gold.Chemscore.Hbonds>
donor molecule, donor type, donor heavy atom, donor atom, acceptor molecule, acceptor atom, score
      L1  H    15    47       P1  7948  2.00
      L1  C     9    27       P1  8029  0.76

> <Gold.PLP.Chemscore.Internal.Correction>
0.0677

> <Gold.Rescore>
     Score         DG    S(hbond)    S(metal)    S(lipo)     H(rot)  DE(clash)    DE(int)     intcor
     12.84     -14.72       1.00        0.00      83.01       1.49       0.01       1.87       ----

> <Gold.Chemscore.Fitness>
12.8386

> <Gold.Chemscore.DG>
-14.7199

> <Gold.Chemscore.ZeroCoef>
-5.4800

> <Gold.Chemscore.Hbond>
0.9998

> <Gold.Chemscore.Metal>
0.0000

> <Gold.Chemscore.Lipo>
83.0146

> <Gold.Chemscore.Internal_Hbond>
0.0000

> <Gold.Chemscore.DEClash>
0.0099

> <Gold.Chemscore.DEInternal>
1.8714

> <Gold.Chemscore.Rot>
1.4891

> <Gold.Chemscore.Internal.Correction>
   9.000000E+99

> <Gold.Chemscore.Hbonds>
donor molecule, donor type, donor heavy atom, donor atom, acceptor molecule, acceptor atom, score
      L1  H    15    47       P1  7948  1.00

> <Gold.Chemscore.Hbond.Weighted>
-3.3393

> <Gold.Chemscore.Metal.Weighted>
-0.0000

> <Gold.Chemscore.Lipo.Weighted>
-9.7127

> <Gold.Chemscore.Internal_Hbond.Weighted>
0.0000

> <Gold.Chemscore.DEClash.Weighted>
0.0099

> <Gold.Chemscore.DEInternal.Weighted>
1.8714

> <Gold.Chemscore.Rot.Weighted>
3.8121

> <Gold.Chemscore.Internal.Correction.Weighted>
   9.000000E+99

> <Gold.Protein.RotatedTorsions>
[ 6907 6896 6895 6894 ] final -120.80 input  -60.11 | X-H torsion
[ 7974 7965 7964 7962 ] final  175.73 input  175.53 | X-H torsion
[ 8008 7997 7996 7995 ] final   85.04 input   59.86 | X-H torsion
[ 10167 10162 10161 10158 ] final  -66.88 input  -65.29 | X-H torsion
[ 10718 10713 10712 10709 ] final -139.93 input   66.30 | X-H torsion
[ 10763 10752 10751 10750 ] final  -20.10 input  -60.55 | X-H torsion
[ 11005 11000 10999 10996 ] final  -84.80 input  -57.11 | X-H torsion

> <Gold.Protein.ActiveResidues>
 VAL166  LYS551  ARG553  GLY616  TRP617  ASP618  TYR619  PRO620  LYS621  CYS622 
 ASP623  PHE694  ASN695  SER759  ASP760  ASP761  ALA762  ILE779  LEU786  VAL792 
 PHE793  MET794  SER795  GLU796  ALA797  LYS798  CYS799  TRP800  GLU811  SER814 

> <Gold.Protein.RotatedAtoms>
  150.8426  133.7912  159.3054 H   0  0  0  0  0  0  0  0  0  0  0  0  # atno 6907 bound_to 6896
  151.5608  135.1064  159.9982 H   0  0  0  0  0  0  0  0  0  0  0  0  # atno 6908 bound_to 6896
  152.4487  133.7543  159.6768 H   0  0  0  0  0  0  0  0  0  0  0  0  # atno 6909 bound_to 6896
  144.7196  139.9990  143.6440 H   0  0  0  0  0  0  0  0  0  0  0  0  # atno 7974 bound_to 7965
  155.9448  140.3405  155.6358 H   0  0  0  0  0  0  0  0  0  0  0  0  # atno 8008 bound_to 7997
  155.6994  140.0758  157.2435 H   0  0  0  0  0  0  0  0  0  0  0  0  # atno 8009 bound_to 7997
  154.4110  140.1643  156.2162 H   0  0  0  0  0  0  0  0  0  0  0  0  # atno 8010 bound_to 7997
  140.5624  143.2313  151.6701 H   0  0  0  0  0  0  0  0  0  0  0  0  # atno 10167 bound_to 10162
  156.3164  130.7510  151.1598 H   0  0  0  0  0  0  0  0  0  0  0  0  # atno 10718 bound_to 10713
  153.6152  135.6995  153.5331 H   0  0  0  0  0  0  0  0  0  0  0  0  # atno 10763 bound_to 10752
  153.2983  135.4136  155.1229 H   0  0  0  0  0  0  0  0  0  0  0  0  # atno 10764 bound_to 10752
  154.8555  135.3642  154.5692 H   0  0  0  0  0  0  0  0  0  0  0  0  # atno 10765 bound_to 10752
  141.1647  133.7365  156.8921 H   0  0  0  0  0  0  0  0  0  0  0  0  # atno 11005 bound_to 11000
  146.0350  139.3369  143.0732 LP  0  0  0  0  0  0  0  0  0  0  0  0  # atno 17320 bound_to 7965
  145.8405  140.9583  143.0801 LP  0  0  0  0  0  0  0  0  0  0  0  0  # atno 17321 bound_to 7965
  139.5077  144.3638  152.0536 LP  0  0  0  0  0  0  0  0  0  0  0  0  # atno 17342 bound_to 10162
  140.2766  144.3905  150.6133 LP  0  0  0  0  0  0  0  0  0  0  0  0  # atno 17343 bound_to 10162
  157.7402  131.0519  150.5179 LP  0  0  0  0  0  0  0  0  0  0  0  0  # atno 17370 bound_to 10713
  156.5325  130.4188  149.6194 LP  0  0  0  0  0  0  0  0  0  0  0  0  # atno 17371 bound_to 10713
  140.1641  134.9145  157.2752 LP  0  0  0  0  0  0  0  0  0  0  0  0  # atno 17394 bound_to 11000
  140.2577  134.3608  155.7418 LP  0  0  0  0  0  0  0  0  0  0  0  0  # atno 17395 bound_to 11000

$$$$
