AV-unprocessed.smi:2251|AV-procd|sdf|9101|dock6
  -GOLD-   2272012303D 1   1.00000     0.00000
 Structure written by MMmdl.
 44 45  0  0  0  0  0  0  0  0  1 V2000
  147.3605  134.8315  162.3432 C   0  0  0  0  0  0  0  0  0  0  0  0
  147.8134  136.0834  161.5999 C   0  0  0  0  0  0  0  0  0  0  0  0
  148.4718  136.9443  162.1828 O   0  0  0  0  0  0  0  0  0  0  0  0
  147.4547  136.1704  160.3096 N   0  0  0  0  0  0  0  0  0  0  0  0
  147.7977  137.2721  159.4133 C   0  0  0  0  0  0  0  0  0  0  0  0
  149.2599  137.2367  158.9518 C   0  0  0  0  0  0  0  0  0  0  0  0
  149.9967  136.2974  159.2558 O   0  0  0  0  0  0  0  0  0  0  0  0
  149.6614  138.2661  158.1943 N   0  0  0  0  0  0  0  0  0  0  0  0
  151.0077  138.4176  157.6511 C   0  0  0  0  0  0  0  0  0  0  0  0
  151.1204  139.6211  156.6719 C   0  0  0  0  0  0  0  0  0  0  0  0
  151.2295  140.9203  157.5018 C   0  0  0  0  0  0  0  0  0  0  0  0
  150.2986  141.9684  157.3026 C   0  0  0  0  0  0  0  0  0  0  0  0
  150.4015  143.1412  158.0757 C   0  0  0  0  0  0  0  0  0  0  0  0
  151.3494  143.3284  159.0158 N   0  0  0  0  0  0  0  0  0  0  0  0
  152.2354  142.3319  159.2162 C   0  0  0  0  0  0  0  0  0  0  0  0
  152.2191  141.1202  158.4973 C   0  0  0  0  0  0  0  0  0  0  0  0
  152.3483  139.4352  155.7256 C   0  0  0  0  0  0  0  0  0  0  0  0
  152.2120  138.2692  154.7297 C   0  0  0  0  0  0  0  0  0  0  0  0
  150.9411  138.4089  153.8844 C   0  0  0  0  0  0  0  0  0  0  0  0
  149.7023  138.5407  154.7774 C   0  0  0  0  0  0  0  0  0  0  0  0
  149.8480  139.7019  155.7788 C   0  0  0  0  0  0  0  0  0  0  0  0
  146.2827  134.6973  162.2477 H   0  0  0  0  0  0  0  0  0  0  0  0
  147.6024  134.9014  163.4042 H   0  0  0  0  0  0  0  0  0  0  0  0
  147.8568  133.9494  161.9374 H   0  0  0  0  0  0  0  0  0  0  0  0
  146.9200  135.4113  159.9129 H   0  0  0  0  0  0  0  0  0  0  0  0
  147.1569  137.2107  158.5338 H   0  0  0  0  0  0  0  0  0  0  0  0
  147.5792  138.2277  159.8937 H   0  0  0  0  0  0  0  0  0  0  0  0
  148.9948  138.9941  157.9810 H   0  0  0  0  0  0  0  0  0  0  0  0
  151.7076  138.5088  158.4809 H   0  0  0  0  0  0  0  0  0  0  0  0
  151.2759  137.4928  157.1382 H   0  0  0  0  0  0  0  0  0  0  0  0
  149.5066  141.8839  156.5739 H   0  0  0  0  0  0  0  0  0  0  0  0
  149.6993  143.9498  157.9364 H   0  0  0  0  0  0  0  0  0  0  0  0
  152.9816  142.5026  159.9780 H   0  0  0  0  0  0  0  0  0  0  0  0
  152.9639  140.3763  158.7323 H   0  0  0  0  0  0  0  0  0  0  0  0
  152.4865  140.3415  155.1341 H   0  0  0  0  0  0  0  0  0  0  0  0
  153.2660  139.3026  156.2996 H   0  0  0  0  0  0  0  0  0  0  0  0
  153.0833  138.2454  154.0746 H   0  0  0  0  0  0  0  0  0  0  0  0
  152.2082  137.3148  155.2561 H   0  0  0  0  0  0  0  0  0  0  0  0
  151.0237  139.2871  153.2427 H   0  0  0  0  0  0  0  0  0  0  0  0
  150.8354  137.5493  153.2221 H   0  0  0  0  0  0  0  0  0  0  0  0
  148.8208  138.7021  154.1563 H   0  0  0  0  0  0  0  0  0  0  0  0
  149.5277  137.6048  155.3079 H   0  0  0  0  0  0  0  0  0  0  0  0
  148.9464  139.7436  156.3896 H   0  0  0  0  0  0  0  0  0  0  0  0
  149.8692  140.6360  155.2152 H   0  0  0  0  0  0  0  0  0  0  0  0
  1  2  1  0  0  0  0
  1 22  1  0  0  0  0
  1 23  1  0  0  0  0
  1 24  1  0  0  0  0
  2  3  2  0  0  0  0
  2  4  1  0  0  0  0
  4  5  1  0  0  0  0
  4 25  1  0  0  0  0
  5  6  1  0  0  0  0
  5 26  1  0  0  0  0
  5 27  1  0  0  0  0
  6  7  2  0  0  0  0
  6  8  1  0  0  0  0
  8  9  1  0  0  0  0
  8 28  1  0  0  0  0
  9 10  1  0  0  0  0
  9 29  1  0  0  0  0
  9 30  1  0  0  0  0
 10 21  1  0  0  0  0
 10 11  1  0  0  0  0
 10 17  1  0  0  0  0
 11 16  1  0  0  0  0
 11 12  2  0  0  0  0
 12 13  1  0  0  0  0
 12 31  1  0  0  0  0
 13 14  2  0  0  0  0
 13 32  1  0  0  0  0
 14 15  1  0  0  0  0
 15 16  2  0  0  0  0
 15 33  1  0  0  0  0
 16 34  1  0  0  0  0
 17 18  1  0  0  0  0
 17 35  1  0  0  0  0
 17 36  1  0  0  0  0
 18 19  1  0  0  0  0
 18 37  1  0  0  0  0
 18 38  1  0  0  0  0
 19 20  1  0  0  0  0
 19 39  1  0  0  0  0
 19 40  1  0  0  0  0
 20 21  1  0  0  0  0
 20 41  1  0  0  0  0
 20 42  1  0  0  0  0
 21 43  1  0  0  0  0
 21 44  1  0  0  0  0
M  END
> <s_m_source_file>
AV-unprocessed.smi

> <i_m_source_file_index>
2251

> <i_lp_mmshare_version>
43012

> <i_f3d_flags>
0

> <s_epik_input>
W0NIM11DKD1PKVtOSF1bQ0gyXUMoPU8pW05IXVtDSDJdQzEoW0NIMl1bQ0gyXVtDSDJdW0NIMl1bQ0gyXTEpYzJbY0hdW2NIXW5bY0hdW2NIXTI=

> <s_epik_cmdline>
J2VwaWtfcHl0aG9uJywgJy1waCcsICc3LjAnLCAnLXRuJywgJzgnLCAnLW1hJywgJzIwMCcsICctbWV0YWxfYmluZGluZycsICctaW1hZScsICc8aW5maWxlLm1hZT4nLCAnLW9tYWUnLCAnPG91dGZpbGUubWFlPic=

> <r_epik_Ionization_Penalty>
0.0619926

> <r_epik_Ionization_Penalty_Charging>
0

> <r_epik_Ionization_Penalty_Neutral>
0.0619926

> <r_epik_State_Penalty>
0.0538453

> <r_epik_Charging_Adjusted_Penalty>
0.0538453

> <i_epik_Tot_Q>
0

> <i_epik_Tot_abs_Q>
0

> <r_epik_Metal_State_Penalty>
0.048714

> <b_epik_Metal_Only>
0

> <s_lp_Force_Field>
OPLS_2005

> <r_lp_Energy>
14.8117

> <b_lp_Chiralities_Consistent>
1

> <s_lp_Variant>
AV-unprocessed.smi:2251-1

> <Gold.Version>
5.8.1

> <Gold.Id.Protein>
6NUR|6NUR_protein|mol2

> <Gold.PLP.Fitness>
43.4621

> <Gold.PLP.PLP>
-35.3236

> <Gold.PLP.part.hbond>
-2.0000

> <Gold.PLP.part.metal>
0.0000

> <Gold.PLP.part.buried>
-5.1594

> <Gold.PLP.part.nonpolar>
-28.5525

> <Gold.PLP.part.repulsive>
0.2751

> <Gold.PLP.ligand.clash>
0.0000

> <Gold.PLP.ligand.torsion>
0.5056

> <Gold.PLP.Chemscore.Hbond>
2.0000

> <Gold.PLP.Chemscore.CHOScore>
1.0346

> <Gold.PLP.Chemscore.Metal>
0.0000

> <Gold.Chemscore.Hbonds>
donor molecule, donor type, donor heavy atom, donor atom, acceptor molecule, acceptor atom, score
      P1  H  6896  6907       L1     7  0.98
      P1  H  6931  6943       L1     3  0.76
      L1  C    13    32       P1  8028  0.85
      L1  C    13    32       P1  8029  0.16

> <Gold.PLP.Chemscore.Internal.Correction>
0.0459

> <Gold.Rescore>
     Score         DG    S(hbond)    S(metal)    S(lipo)     H(rot)  DE(clash)    DE(int)     intcor
     17.02     -17.43       1.95        0.00      90.44       2.02       0.04       0.37       ----

> <Gold.Chemscore.Fitness>
17.0178

> <Gold.Chemscore.DG>
-17.4252

> <Gold.Chemscore.ZeroCoef>
-5.4800

> <Gold.Chemscore.Hbond>
1.9537

> <Gold.Chemscore.Metal>
0.0000

> <Gold.Chemscore.Lipo>
90.4361

> <Gold.Chemscore.Internal_Hbond>
0.0000

> <Gold.Chemscore.DEClash>
0.0377

> <Gold.Chemscore.DEInternal>
0.3697

> <Gold.Chemscore.Rot>
2.0160

> <Gold.Chemscore.Internal.Correction>
   9.000000E+99

> <Gold.Chemscore.Hbonds>
donor molecule, donor type, donor heavy atom, donor atom, acceptor molecule, acceptor atom, score
      P1  H  6896  6907       L1     7  0.93
      P1  H  6931  6943       L1     3  0.75

> <Gold.Chemscore.Hbond.Weighted>
-6.5252

> <Gold.Chemscore.Metal.Weighted>
-0.0000

> <Gold.Chemscore.Lipo.Weighted>
-10.5810

> <Gold.Chemscore.Internal_Hbond.Weighted>
0.0000

> <Gold.Chemscore.DEClash.Weighted>
0.0377

> <Gold.Chemscore.DEInternal.Weighted>
0.3697

> <Gold.Chemscore.Rot.Weighted>
5.1610

> <Gold.Chemscore.Internal.Correction.Weighted>
   9.000000E+99

> <Gold.Protein.RotatedTorsions>
[ 6907 6896 6895 6894 ] final  -64.10 input  -60.11 | X-H torsion
[ 7974 7965 7964 7962 ] final  -70.30 input  175.53 | X-H torsion
[ 8008 7997 7996 7995 ] final   82.00 input   59.86 | X-H torsion
[ 10167 10162 10161 10158 ] final   51.13 input  -65.29 | X-H torsion
[ 10718 10713 10712 10709 ] final  107.53 input   66.30 | X-H torsion
[ 10763 10752 10751 10750 ] final  158.59 input  -60.55 | X-H torsion
[ 11005 11000 10999 10996 ] final   95.54 input  -57.11 | X-H torsion

> <Gold.Protein.ActiveResidues>
 VAL166  LYS551  ARG553  GLY616  TRP617  ASP618  TYR619  PRO620  LYS621  CYS622 
 ASP623  PHE694  ASN695  SER759  ASP760  ASP761  ALA762  ILE779  LEU786  VAL792 
 PHE793  MET794  SER795  GLU796  ALA797  LYS798  CYS799  TRP800  GLU811  SER814 

> <Gold.Protein.RotatedAtoms>
  150.7607  134.6345  159.6203 H   0  0  0  0  0  0  0  0  0  0  0  0  # atno 6907 bound_to 6896
  152.3612  134.6866  160.0215 H   0  0  0  0  0  0  0  0  0  0  0  0  # atno 6908 bound_to 6896
  151.7255  133.3279  159.3363 H   0  0  0  0  0  0  0  0  0  0  0  0  # atno 6909 bound_to 6896
  145.6927  140.9147  143.0773 H   0  0  0  0  0  0  0  0  0  0  0  0  # atno 7974 bound_to 7965
  155.9047  140.3431  155.6053 H   0  0  0  0  0  0  0  0  0  0  0  0  # atno 8008 bound_to 7997
  155.7458  140.0813  157.2243 H   0  0  0  0  0  0  0  0  0  0  0  0  # atno 8009 bound_to 7997
  154.4048  140.1562  156.2655 H   0  0  0  0  0  0  0  0  0  0  0  0  # atno 8010 bound_to 7997
  140.2652  144.3328  150.6306 H   0  0  0  0  0  0  0  0  0  0  0  0  # atno 10167 bound_to 10162
  157.6624  131.0874  150.6169 H   0  0  0  0  0  0  0  0  0  0  0  0  # atno 10718 bound_to 10713
  154.2184  135.2783  155.2933 H   0  0  0  0  0  0  0  0  0  0  0  0  # atno 10763 bound_to 10752
  154.5722  135.5615  153.7109 H   0  0  0  0  0  0  0  0  0  0  0  0  # atno 10764 bound_to 10752
  153.0047  135.6324  154.2324 H   0  0  0  0  0  0  0  0  0  0  0  0  # atno 10765 bound_to 10752
  139.8788  134.8904  156.4026 H   0  0  0  0  0  0  0  0  0  0  0  0  # atno 11005 bound_to 11000
  144.6992  139.8843  143.7449 LP  0  0  0  0  0  0  0  0  0  0  0  0  # atno 17320 bound_to 7965
  146.0867  139.3856  143.0431 LP  0  0  0  0  0  0  0  0  0  0  0  0  # atno 17321 bound_to 7965
  140.5934  143.2167  151.7209 LP  0  0  0  0  0  0  0  0  0  0  0  0  # atno 17342 bound_to 10162
  139.5005  144.3904  152.0286 LP  0  0  0  0  0  0  0  0  0  0  0  0  # atno 17343 bound_to 10162
  156.6472  130.4475  149.5732 LP  0  0  0  0  0  0  0  0  0  0  0  0  # atno 17370 bound_to 10713
  156.2165  130.6711  151.1324 LP  0  0  0  0  0  0  0  0  0  0  0  0  # atno 17371 bound_to 10713
  140.9256  133.7614  155.9961 LP  0  0  0  0  0  0  0  0  0  0  0  0  # atno 17394 bound_to 11000
  140.8389  134.3090  157.5321 LP  0  0  0  0  0  0  0  0  0  0  0  0  # atno 17395 bound_to 11000

$$$$
