AV-unprocessed.smi:2384|AV-procd|sdf|9462|dock8
  -GOLD-   2272013 93D 1   1.00000     0.00000
 Structure written by MMmdl.
 43 44  0  0  0  0  0  0  0  0  1 V2000
  151.0659  145.1351  159.5014 C   0  0  0  0  0  0  0  0  0  0  0  0
  151.6560  143.7538  159.3083 C   0  0  0  0  0  0  0  0  0  0  0  0
  152.6162  143.2467  160.2047 C   0  0  0  0  0  0  0  0  0  0  0  0
  153.1301  141.9565  159.9685 C   0  0  0  0  0  0  0  0  0  0  0  0
  154.1627  141.3468  160.8930 C   0  0  0  0  0  0  0  0  0  0  0  0
  152.7464  141.1903  158.9253 N   0  0  0  0  0  0  0  0  0  0  0  0
  151.8223  141.6680  158.0555 C   0  0  0  0  0  0  0  0  0  0  0  0
  151.3497  140.9388  156.9320 N   0  0  0  0  0  0  0  0  0  0  0  0
  151.9124  139.8705  156.3396 C   0  0  0  0  0  0  0  0  0  0  0  0
  152.9809  139.3533  156.6674 O   0  0  0  0  0  0  0  0  0  0  0  0
  151.1624  139.4313  155.3188 N   0  0  0  0  0  0  0  0  0  0  0  0
  151.5026  138.3083  154.4512 C   0  0  0  0  0  0  0  0  0  0  0  0
  150.5935  137.0886  154.6863 C   0  0  0  0  0  0  0  0  0  0  0  0
  151.0760  136.1745  155.8283 C   0  0  0  0  0  0  0  0  0  0  0  0
  151.0095  134.7641  155.4555 N   0  0  0  0  0  0  0  0  0  0  0  0
  150.1168  134.3163  154.3995 C   0  0  0  0  0  0  0  0  0  0  0  0
  150.1858  132.7822  154.4361 C   0  0  0  0  0  0  0  0  0  0  0  0
  151.3510  132.4333  155.3686 C   0  0  0  0  0  0  0  0  0  0  0  0
  151.7021  133.7637  156.0118 C   0  0  0  0  0  0  0  0  0  0  0  0
  152.5208  133.8677  156.9242 O   0  0  0  0  0  0  0  0  0  0  0  0
  151.2533  142.9509  158.2218 C   0  0  0  0  0  0  0  0  0  0  0  0
  151.4459  145.6056  160.4090 H   0  0  0  0  0  0  0  0  0  0  0  0
  149.9800  145.0764  159.5774 H   0  0  0  0  0  0  0  0  0  0  0  0
  151.3182  145.7743  158.6551 H   0  0  0  0  0  0  0  0  0  0  0  0
  152.9497  143.8301  161.0505 H   0  0  0  0  0  0  0  0  0  0  0  0
  154.4030  142.0187  161.7172 H   0  0  0  0  0  0  0  0  0  0  0  0
  155.0822  141.1357  160.3467 H   0  0  0  0  0  0  0  0  0  0  0  0
  153.7899  140.4125  161.3140 H   0  0  0  0  0  0  0  0  0  0  0  0
  150.4835  141.2689  156.5332 H   0  0  0  0  0  0  0  0  0  0  0  0
  150.2979  139.9133  155.1202 H   0  0  0  0  0  0  0  0  0  0  0  0
  151.4526  138.6177  153.4060 H   0  0  0  0  0  0  0  0  0  0  0  0
  152.5414  138.0364  154.6394 H   0  0  0  0  0  0  0  0  0  0  0  0
  149.5761  137.4239  154.8922 H   0  0  0  0  0  0  0  0  0  0  0  0
  150.5389  136.5163  153.7595 H   0  0  0  0  0  0  0  0  0  0  0  0
  152.1012  136.4267  156.1035 H   0  0  0  0  0  0  0  0  0  0  0  0
  150.4709  136.3345  156.7214 H   0  0  0  0  0  0  0  0  0  0  0  0
  149.0996  134.6751  154.5613 H   0  0  0  0  0  0  0  0  0  0  0  0
  150.4676  134.7032  153.4417 H   0  0  0  0  0  0  0  0  0  0  0  0
  149.2560  132.3723  154.8328 H   0  0  0  0  0  0  0  0  0  0  0  0
  150.3281  132.3645  153.4390 H   0  0  0  0  0  0  0  0  0  0  0  0
  151.0699  131.6939  156.1193 H   0  0  0  0  0  0  0  0  0  0  0  0
  152.2105  132.0591  154.8117 H   0  0  0  0  0  0  0  0  0  0  0  0
  150.5170  143.3201  157.5223 H   0  0  0  0  0  0  0  0  0  0  0  0
  1  2  1  0  0  0  0
  1 22  1  0  0  0  0
  1 23  1  0  0  0  0
  1 24  1  0  0  0  0
  2 21  1  0  0  0  0
  2  3  2  0  0  0  0
  3  4  1  0  0  0  0
  3 25  1  0  0  0  0
  4  5  1  0  0  0  0
  4  6  2  0  0  0  0
  5 26  1  0  0  0  0
  5 27  1  0  0  0  0
  5 28  1  0  0  0  0
  6  7  1  0  0  0  0
  7  8  1  0  0  0  0
  7 21  2  0  0  0  0
  8  9  1  0  0  0  0
  8 29  1  0  0  0  0
  9 10  2  0  0  0  0
  9 11  1  0  0  0  0
 11 12  1  0  0  0  0
 11 30  1  0  0  0  0
 12 13  1  0  0  0  0
 12 31  1  0  0  0  0
 12 32  1  0  0  0  0
 13 14  1  0  0  0  0
 13 33  1  0  0  0  0
 13 34  1  0  0  0  0
 14 15  1  0  0  0  0
 14 35  1  0  0  0  0
 14 36  1  0  0  0  0
 15 19  1  0  0  0  0
 15 16  1  0  0  0  0
 16 17  1  0  0  0  0
 16 37  1  0  0  0  0
 16 38  1  0  0  0  0
 17 18  1  0  0  0  0
 17 39  1  0  0  0  0
 17 40  1  0  0  0  0
 18 19  1  0  0  0  0
 18 41  1  0  0  0  0
 18 42  1  0  0  0  0
 19 20  2  0  0  0  0
 21 43  1  0  0  0  0
M  END
> <s_m_source_file>
AV-unprocessed.smi

> <i_m_source_file_index>
2384

> <i_lp_mmshare_version>
43012

> <i_f3d_flags>
0

> <s_epik_input>
W0NIM11jMVtjSF1jKFtDSDNdKW5jKFtjSF0xKVtOSF1DKD1PKVtOSF1bQ0gyXVtDSDJdW0NIMl1OMltDSDJdW0NIMl1bQ0gyXUMyPU8=

> <s_epik_cmdline>
J2VwaWtfcHl0aG9uJywgJy1waCcsICc3LjAnLCAnLXRuJywgJzgnLCAnLW1hJywgJzIwMCcsICctbWV0YWxfYmluZGluZycsICctaW1hZScsICc8aW5maWxlLm1hZT4nLCAnLW9tYWUnLCAnPG91dGZpbGUubWFlPic=

> <r_lp_tautomer_probability>
1

> <r_epik_Ionization_Penalty>
0.000241796

> <r_epik_Ionization_Penalty_Charging>
0

> <r_epik_Ionization_Penalty_Neutral>
0.000241796

> <r_epik_State_Penalty>
-0

> <r_epik_Charging_Adjusted_Penalty>
0

> <i_epik_Tot_Q>
0

> <i_epik_Tot_abs_Q>
0

> <r_epik_Metal_State_Penalty>
-0

> <b_epik_Metal_Only>
0

> <s_lp_Force_Field>
OPLS_2005

> <r_lp_Energy>
18.86

> <b_lp_Chiralities_Consistent>
1

> <s_lp_Variant>
AV-unprocessed.smi:2384-1

> <Gold.Version>
5.8.1

> <Gold.Id.Protein>
6NUR|6NUR_protein|mol2

> <Gold.PLP.Fitness>
48.5383

> <Gold.PLP.PLP>
-46.2101

> <Gold.PLP.part.hbond>
-2.0000

> <Gold.PLP.part.metal>
0.0000

> <Gold.PLP.part.buried>
-6.5321

> <Gold.PLP.part.nonpolar>
-38.6573

> <Gold.PLP.part.repulsive>
0.2402

> <Gold.PLP.ligand.clash>
0.0000

> <Gold.PLP.ligand.torsion>
0.8994

> <Gold.PLP.Chemscore.Hbond>
1.3680

> <Gold.PLP.Chemscore.CHOScore>
0.0000

> <Gold.PLP.Chemscore.Metal>
0.0000

> <Gold.Chemscore.Hbonds>
donor molecule, donor type, donor heavy atom, donor atom, acceptor molecule, acceptor atom, score
      P1  H  7997  8010       L1    10  1.00

> <Gold.PLP.Chemscore.Internal.Correction>
0.0230

> <Gold.Rescore>
     Score         DG    S(hbond)    S(metal)    S(lipo)     H(rot)  DE(clash)    DE(int)     intcor
     14.92     -17.06       1.29        0.00     100.30       1.75       0.07       2.06       ----

> <Gold.Chemscore.Fitness>
14.9249

> <Gold.Chemscore.DG>
-17.0594

> <Gold.Chemscore.ZeroCoef>
-5.4800

> <Gold.Chemscore.Hbond>
1.2910

> <Gold.Chemscore.Metal>
0.0000

> <Gold.Chemscore.Lipo>
100.2974

> <Gold.Chemscore.Internal_Hbond>
0.0000

> <Gold.Chemscore.DEClash>
0.0746

> <Gold.Chemscore.DEInternal>
2.0599

> <Gold.Chemscore.Rot>
1.7451

> <Gold.Chemscore.Internal.Correction>
   9.000000E+99

> <Gold.Chemscore.Hbonds>
donor molecule, donor type, donor heavy atom, donor atom, acceptor molecule, acceptor atom, score
      P1  H  7997  8010       L1    10  0.98

> <Gold.Chemscore.Hbond.Weighted>
-4.3121

> <Gold.Chemscore.Metal.Weighted>
-0.0000

> <Gold.Chemscore.Lipo.Weighted>
-11.7348

> <Gold.Chemscore.Internal_Hbond.Weighted>
0.0000

> <Gold.Chemscore.DEClash.Weighted>
0.0746

> <Gold.Chemscore.DEInternal.Weighted>
2.0599

> <Gold.Chemscore.Rot.Weighted>
4.4675

> <Gold.Chemscore.Internal.Correction.Weighted>
   9.000000E+99

> <Gold.Protein.RotatedTorsions>
[ 6907 6896 6895 6894 ] final -169.55 input  -60.11 | X-H torsion
[ 7974 7965 7964 7962 ] final   89.79 input  175.53 | X-H torsion
[ 8008 7997 7996 7995 ] final   56.10 input   59.86 | X-H torsion
[ 10167 10162 10161 10158 ] final  179.26 input  -65.29 | X-H torsion
[ 10718 10713 10712 10709 ] final  -42.77 input   66.30 | X-H torsion
[ 10763 10752 10751 10750 ] final   56.38 input  -60.55 | X-H torsion
[ 11005 11000 10999 10996 ] final  -65.98 input  -57.11 | X-H torsion

> <Gold.Protein.ActiveResidues>
 VAL166  LYS551  ARG553  GLY616  TRP617  ASP618  TYR619  PRO620  LYS621  CYS622 
 ASP623  PHE694  ASN695  SER759  ASP760  ASP761  ALA762  ILE779  LEU786  VAL792 
 PHE793  MET794  SER795  GLU796  ALA797  LYS798  CYS799  TRP800  GLU811  SER814 

> <Gold.Protein.RotatedAtoms>
  151.4934  133.3520  159.2856 H   0  0  0  0  0  0  0  0  0  0  0  0  # atno 6907 bound_to 6896
  150.8820  134.8214  159.7242 H   0  0  0  0  0  0  0  0  0  0  0  0  # atno 6908 bound_to 6896
  152.4768  134.4833  159.9724 H   0  0  0  0  0  0  0  0  0  0  0  0  # atno 6909 bound_to 6896
  145.5276  139.2282  143.2637 H   0  0  0  0  0  0  0  0  0  0  0  0  # atno 7974 bound_to 7965
  155.5119  140.3477  155.4390 H   0  0  0  0  0  0  0  0  0  0  0  0  # atno 8008 bound_to 7997
  156.0844  140.1394  156.9699 H   0  0  0  0  0  0  0  0  0  0  0  0  # atno 8009 bound_to 7997
  154.4598  140.0939  156.6837 H   0  0  0  0  0  0  0  0  0  0  0  0  # atno 8010 bound_to 7997
  139.5329  144.2582  152.0729 H   0  0  0  0  0  0  0  0  0  0  0  0  # atno 10167 bound_to 10162
  156.2561  130.4192  149.8595 H   0  0  0  0  0  0  0  0  0  0  0  0  # atno 10718 bound_to 10713
  152.9831  135.5678  154.5220 H   0  0  0  0  0  0  0  0  0  0  0  0  # atno 10763 bound_to 10752
  154.4706  135.2785  155.1647 H   0  0  0  0  0  0  0  0  0  0  0  0  # atno 10764 bound_to 10752
  154.3197  135.6271  153.5555 H   0  0  0  0  0  0  0  0  0  0  0  0  # atno 10765 bound_to 10752
  141.1469  133.6691  156.6069 H   0  0  0  0  0  0  0  0  0  0  0  0  # atno 11005 bound_to 11000
  146.2065  140.6091  142.9079 LP  0  0  0  0  0  0  0  0  0  0  0  0  # atno 17320 bound_to 7965
  144.7643  140.5494  143.6714 LP  0  0  0  0  0  0  0  0  0  0  0  0  # atno 17321 bound_to 7965
  140.2048  144.4622  150.6414 LP  0  0  0  0  0  0  0  0  0  0  0  0  # atno 17342 bound_to 10162
  140.6518  143.2227  151.6060 LP  0  0  0  0  0  0  0  0  0  0  0  0  # atno 17343 bound_to 10162
  156.6126  130.8593  151.3458 LP  0  0  0  0  0  0  0  0  0  0  0  0  # atno 17370 bound_to 10713
  157.7233  130.9588  150.1528 LP  0  0  0  0  0  0  0  0  0  0  0  0  # atno 17371 bound_to 10713
  140.3644  134.7659  157.4556 LP  0  0  0  0  0  0  0  0  0  0  0  0  # atno 17394 bound_to 11000
  140.0759  134.5798  155.8591 LP  0  0  0  0  0  0  0  0  0  0  0  0  # atno 17395 bound_to 11000

$$$$
