AV-unprocessed.smi:2632|AV-procd|sdf|10251|dock3
  -GOLD-   2272014263D 1   1.00000     0.00000
 Structure written by MMmdl.
 37 38  0  0  0  0  0  0  0  0  2 V2000
  147.1170  139.9421  153.5969 C   0  0  0  0  0  0  0  0  0  0  0  0
  147.8523  140.3028  154.7522 O   0  0  0  0  0  0  0  0  0  0  0  0
  149.2473  140.3737  154.5106 C   0  0  0  0  0  0  0  0  0  0  0  0
  149.8508  138.9584  154.5023 C   0  0  0  0  0  0  0  0  0  0  0  0
  150.0210  138.4226  155.8698 N   0  0  0  0  0  0  0  0  0  0  0  0
  151.1474  138.8320  156.6318 C   0  0  0  0  0  0  0  0  0  0  0  0
  152.0621  139.7232  156.0946 N   0  0  0  0  0  0  0  0  0  0  0  0
  151.3126  138.3481  157.8833 C   0  0  0  0  0  0  0  0  0  0  0  0
  152.6428  138.7560  158.9918 S   0  0  0  0  0  0  0  0  0  0  0  0
  152.4141  140.4954  159.1588 C   0  0  0  0  0  0  0  0  0  0  0  0
  153.3920  141.2751  159.8068 C   0  0  0  0  0  0  0  0  0  0  0  0
  153.2110  142.6665  159.9314 C   0  0  0  0  0  0  0  0  0  0  0  0
  152.0519  143.2796  159.4116 C   0  0  0  0  0  0  0  0  0  0  0  0
  151.8650  144.7768  159.5462 C   0  0  0  0  0  0  0  0  0  0  0  0
  151.0742  142.4946  158.7649 C   0  0  0  0  0  0  0  0  0  0  0  0
  151.2544  141.1035  158.6394 C   0  0  0  0  0  0  0  0  0  0  0  0
  150.3436  137.4086  158.4511 C   0  0  0  0  0  0  0  0  0  0  0  0
  150.4859  136.9504  159.5856 O   0  0  0  0  0  0  0  0  0  0  0  0
  149.2847  137.0756  157.6635 N   0  5  0  0  0  0  0  0  0  0  0  0
  149.0967  137.5600  156.3995 C   0  0  0  0  0  0  0  0  0  0  0  0
  148.1168  137.2385  155.7260 O   0  0  0  0  0  0  0  0  0  0  0  0
  146.0551  139.8989  153.8386 H   0  0  0  0  0  0  0  0  0  0  0  0
  147.4186  138.9614  153.2271 H   0  0  0  0  0  0  0  0  0  0  0  0
  147.2516  140.6743  152.7996 H   0  0  0  0  0  0  0  0  0  0  0  0
  149.4200  140.8459  153.5426 H   0  0  0  0  0  0  0  0  0  0  0  0
  149.7331  140.9957  155.2639 H   0  0  0  0  0  0  0  0  0  0  0  0
  149.2404  138.3049  153.8773 H   0  0  0  0  0  0  0  0  0  0  0  0
  150.8119  138.9754  153.9882 H   0  0  0  0  0  0  0  0  0  0  0  0
  151.9519  140.0973  155.1633 H   0  0  0  0  0  0  0  0  0  0  0  0
  152.8242  140.0959  156.6421 H   0  0  0  0  0  0  0  0  0  0  0  0
  154.2818  140.8102  160.2050 H   0  0  0  0  0  0  0  0  0  0  0  0
  153.9641  143.2624  160.4260 H   0  0  0  0  0  0  0  0  0  0  0  0
  150.8479  145.0739  159.2887 H   0  0  0  0  0  0  0  0  0  0  0  0
  152.5531  145.3029  158.8844 H   0  0  0  0  0  0  0  0  0  0  0  0
  152.0612  145.0945  160.5704 H   0  0  0  0  0  0  0  0  0  0  0  0
  150.1844  142.9549  158.3614 H   0  0  0  0  0  0  0  0  0  0  0  0
  150.5049  140.5064  158.1407 H   0  0  0  0  0  0  0  0  0  0  0  0
  1  2  1  0  0  0  0
  1 22  1  0  0  0  0
  1 23  1  0  0  0  0
  1 24  1  0  0  0  0
  2  3  1  0  0  0  0
  3  4  1  0  0  0  0
  3 25  1  0  0  0  0
  3 26  1  0  0  0  0
  4  5  1  0  0  0  0
  4 27  1  0  0  0  0
  4 28  1  0  0  0  0
  5 20  1  0  0  0  0
  5  6  1  0  0  0  0
  6  7  1  0  0  0  0
  6  8  2  0  0  0  0
  7 29  1  0  0  0  0
  7 30  1  0  0  0  0
  8  9  1  0  0  0  0
  8 17  1  0  0  0  0
  9 10  1  0  0  0  0
 10 16  1  0  0  0  0
 10 11  2  0  0  0  0
 11 12  1  0  0  0  0
 11 31  1  0  0  0  0
 12 13  2  0  0  0  0
 12 32  1  0  0  0  0
 13 14  1  0  0  0  0
 13 15  1  0  0  0  0
 14 33  1  0  0  0  0
 14 34  1  0  0  0  0
 14 35  1  0  0  0  0
 15 16  2  0  0  0  0
 15 36  1  0  0  0  0
 16 37  1  0  0  0  0
 17 18  2  0  0  0  0
 17 19  1  0  0  0  0
 19 20  1  0  0  0  0
 20 21  2  0  0  0  0
M  CHG  1  19  -1
M  END
> <s_m_source_file>
AV-unprocessed.smi

> <i_m_source_file_index>
2632

> <i_lp_mmshare_version>
43012

> <i_f3d_flags>
0

> <s_epik_input>
W0NIM11PW0NIMl1bQ0gyXW4xYyhbTkgyXSljKGMoPU8pW25IXWMxPU8pU2MyW2NIXVtjSF1jKFtDSDNdKVtjSF1bY0hdMg==

> <s_epik_cmdline>
J2VwaWtfcHl0aG9uJywgJy1waCcsICc3LjAnLCAnLXRuJywgJzgnLCAnLW1hJywgJzIwMCcsICctbWV0YWxfYmluZGluZycsICctaW1hZScsICc8aW5maWxlLm1hZT4nLCAnLW9tYWUnLCAnPG91dGZpbGUubWFlPic=

> <r_lp_tautomer_probability>
1

> <r_epik_Ionization_Penalty>
6.52921

> <r_epik_Ionization_Penalty_Charging>
0.111036

> <r_epik_Ionization_Penalty_Neutral>
6.41817

> <r_epik_State_Penalty>
6.41816

> <r_epik_Charging_Adjusted_Penalty>
6.5292

> <i_epik_Tot_Q>
-1

> <i_epik_Tot_abs_Q>
1

> <r_epik_Metal_State_Penalty>
2.337

> <b_epik_Metal_Only>
1

> <s_epik_Chemistry_Notes>
This compound has an imine and may undergo hydrolysis.

> <s_lp_Force_Field>
OPLS_2005

> <r_lp_Energy>
30.26

> <b_lp_Chiralities_Consistent>
1

> <s_lp_Variant>
AV-unprocessed.smi:2632-2

> <Gold.Version>
5.8.1

> <Gold.Id.Protein>
6NUR|6NUR_protein|mol2

> <Gold.PLP.Fitness>
37.8480

> <Gold.PLP.PLP>
-35.7994

> <Gold.PLP.part.hbond>
-1.0000

> <Gold.PLP.part.metal>
0.0000

> <Gold.PLP.part.buried>
-4.0625

> <Gold.PLP.part.nonpolar>
-30.9642

> <Gold.PLP.part.repulsive>
0.9646

> <Gold.PLP.ligand.clash>
0.0000

> <Gold.PLP.ligand.torsion>
0.5341

> <Gold.PLP.Chemscore.Hbond>
1.0000

> <Gold.PLP.Chemscore.CHOScore>
0.0000

> <Gold.PLP.Chemscore.Metal>
0.0000

> <Gold.Chemscore.Hbonds>
donor molecule, donor type, donor heavy atom, donor atom, acceptor molecule, acceptor atom, score
      P1  H  6896  6909       L1    18  1.00

> <Gold.PLP.Chemscore.Internal.Correction>
0.1168

> <Gold.Rescore>
     Score         DG    S(hbond)    S(metal)    S(lipo)     H(rot)  DE(clash)    DE(int)     intcor
     14.66     -15.18       1.00        0.00      97.70       1.97       0.03       0.50       ----

> <Gold.Chemscore.Fitness>
14.6571

> <Gold.Chemscore.DG>
-15.1821

> <Gold.Chemscore.ZeroCoef>
-5.4800

> <Gold.Chemscore.Hbond>
0.9959

> <Gold.Chemscore.Metal>
0.0000

> <Gold.Chemscore.Lipo>
97.6967

> <Gold.Chemscore.Internal_Hbond>
0.0000

> <Gold.Chemscore.DEClash>
0.0282

> <Gold.Chemscore.DEInternal>
0.4967

> <Gold.Chemscore.Rot>
1.9744

> <Gold.Chemscore.Internal.Correction>
   9.000000E+99

> <Gold.Chemscore.Hbonds>
donor molecule, donor type, donor heavy atom, donor atom, acceptor molecule, acceptor atom, score
      P1  H  6896  6909       L1    18  0.96

> <Gold.Chemscore.Hbond.Weighted>
-3.3261

> <Gold.Chemscore.Metal.Weighted>
-0.0000

> <Gold.Chemscore.Lipo.Weighted>
-11.4305

> <Gold.Chemscore.Internal_Hbond.Weighted>
0.0000

> <Gold.Chemscore.DEClash.Weighted>
0.0282

> <Gold.Chemscore.DEInternal.Weighted>
0.4967

> <Gold.Chemscore.Rot.Weighted>
5.0546

> <Gold.Chemscore.Internal.Correction.Weighted>
   9.000000E+99

> <Gold.Protein.RotatedTorsions>
[ 6907 6896 6895 6894 ] final   97.68 input  -60.11 | X-H torsion
[ 7974 7965 7964 7962 ] final  -79.17 input  175.53 | X-H torsion
[ 8008 7997 7996 7995 ] final -139.66 input   59.86 | X-H torsion
[ 10167 10162 10161 10158 ] final  -79.56 input  -65.29 | X-H torsion
[ 10718 10713 10712 10709 ] final  -20.87 input   66.30 | X-H torsion
[ 10763 10752 10751 10750 ] final  -13.58 input  -60.55 | X-H torsion
[ 11005 11000 10999 10996 ] final  -90.30 input  -57.11 | X-H torsion

> <Gold.Protein.ActiveResidues>
 VAL166  LYS551  ARG553  GLY616  TRP617  ASP618  TYR619  PRO620  LYS621  CYS622 
 ASP623  PHE694  ASN695  SER759  ASP760  ASP761  ALA762  ILE779  LEU786  VAL792 
 PHE793  MET794  SER795  GLU796  ALA797  LYS798  CYS799  TRP800  GLU811  SER814 

> <Gold.Protein.RotatedAtoms>
  152.5420  134.0696  159.8187 H   0  0  0  0  0  0  0  0  0  0  0  0  # atno 6907 bound_to 6896
  151.0813  133.5381  159.2628 H   0  0  0  0  0  0  0  0  0  0  0  0  # atno 6908 bound_to 6896
  151.2207  135.0526  159.9002 H   0  0  0  0  0  0  0  0  0  0  0  0  # atno 6909 bound_to 6896
  145.5768  140.9456  143.1365 H   0  0  0  0  0  0  0  0  0  0  0  0  # atno 7974 bound_to 7965
  155.4485  140.0537  157.3003 H   0  0  0  0  0  0  0  0  0  0  0  0  # atno 8008 bound_to 7997
  154.4787  140.2072  155.9771 H   0  0  0  0  0  0  0  0  0  0  0  0  # atno 8009 bound_to 7997
  156.1173  140.3194  155.8162 H   0  0  0  0  0  0  0  0  0  0  0  0  # atno 8010 bound_to 7997
  140.4582  143.2461  151.8387 H   0  0  0  0  0  0  0  0  0  0  0  0  # atno 10167 bound_to 10162
  156.5259  130.4643  149.6572 H   0  0  0  0  0  0  0  0  0  0  0  0  # atno 10718 bound_to 10713
  153.5154  135.7016  153.5759 H   0  0  0  0  0  0  0  0  0  0  0  0  # atno 10763 bound_to 10752
  153.3831  135.3915  155.1871 H   0  0  0  0  0  0  0  0  0  0  0  0  # atno 10764 bound_to 10752
  154.8699  135.3840  154.4638 H   0  0  0  0  0  0  0  0  0  0  0  0  # atno 10765 bound_to 10752
  141.1568  133.7683  156.9717 H   0  0  0  0  0  0  0  0  0  0  0  0  # atno 11005 bound_to 11000
  144.7412  139.7444  143.7310 LP  0  0  0  0  0  0  0  0  0  0  0  0  # atno 17320 bound_to 7965
  146.1745  139.4909  142.9906 LP  0  0  0  0  0  0  0  0  0  0  0  0  # atno 17321 bound_to 7965
  139.4803  144.5039  151.9024 LP  0  0  0  0  0  0  0  0  0  0  0  0  # atno 17342 bound_to 10162
  140.4125  144.2350  150.5888 LP  0  0  0  0  0  0  0  0  0  0  0  0  # atno 17343 bound_to 10162
  156.3105  130.7226  151.2118 LP  0  0  0  0  0  0  0  0  0  0  0  0  # atno 17370 bound_to 10713
  157.7429  131.0482  150.4985 LP  0  0  0  0  0  0  0  0  0  0  0  0  # atno 17371 bound_to 10713
  140.1125  134.9468  157.2086 LP  0  0  0  0  0  0  0  0  0  0  0  0  # atno 17394 bound_to 11000
  140.3176  134.2953  155.7253 LP  0  0  0  0  0  0  0  0  0  0  0  0  # atno 17395 bound_to 11000

$$$$
