AV-unprocessed.smi:3184|AV-procd|sdf|12164|dock10
  -GOLD-   2272018 03D 1   1.00000     0.00000
 Structure written by MMmdl.
 34 35  0  0  0  0  0  0  0  0  1 V2000
  149.6882  141.6712  155.1065 C   0  0  0  0  0  0  0  0  0  0  0  0
  150.4427  141.1285  156.3283 C   0  0  1  0  0  0  0  0  0  0  0  0
  151.7947  140.5036  155.9342 C   0  0  0  0  0  0  0  0  0  0  0  0
  151.6572  139.1198  155.5176 N   0  0  0  0  0  0  0  0  0  0  0  0
  150.9358  138.6386  154.4334 C   0  0  0  0  0  0  0  0  0  0  0  0
  151.0837  137.2699  154.4393 C   0  0  0  0  0  0  0  0  0  0  0  0
  151.8889  136.8897  155.5104 N   0  0  0  0  0  0  0  0  0  0  0  0
  152.1912  138.0382  156.1016 C   0  0  0  0  0  0  0  0  0  0  0  0
  150.6553  142.2071  157.2912 N   0  0  0  0  0  0  0  0  0  0  0  0
  151.4268  142.1438  158.3900 C   0  0  0  0  0  0  0  0  0  0  0  0
  152.0072  141.1177  158.7462 O   0  0  0  0  0  0  0  0  0  0  0  0
  151.5209  143.3123  159.0610 N   0  0  0  0  0  0  0  0  0  0  0  0
  151.2565  144.6509  158.5240 C   0  0  0  0  0  0  0  0  0  0  0  0
  151.3074  145.5980  159.7230 C   0  0  0  0  0  0  0  0  0  0  0  0
  152.1953  144.8792  160.7287 C   0  0  0  0  0  0  0  0  0  0  0  0
  151.9410  143.3962  160.4587 C   0  0  0  0  0  0  0  0  0  0  0  0
  149.5037  140.8813  154.3779 H   0  0  0  0  0  0  0  0  0  0  0  0
  150.2533  142.4591  154.6074 H   0  0  0  0  0  0  0  0  0  0  0  0
  148.7210  142.0851  155.3939 H   0  0  0  0  0  0  0  0  0  0  0  0
  149.8305  140.3432  156.7755 H   0  0  0  0  0  0  0  0  0  0  0  0
  152.2412  141.0609  155.1099 H   0  0  0  0  0  0  0  0  0  0  0  0
  152.5004  140.5536  156.7649 H   0  0  0  0  0  0  0  0  0  0  0  0
  150.3888  139.2912  153.7691 H   0  0  0  0  0  0  0  0  0  0  0  0
  150.6754  136.5353  153.7610 H   0  0  0  0  0  0  0  0  0  0  0  0
  152.8104  138.0933  156.9851 H   0  0  0  0  0  0  0  0  0  0  0  0
  150.2130  143.0909  157.0841 H   0  0  0  0  0  0  0  0  0  0  0  0
  152.0357  144.9052  157.8036 H   0  0  0  0  0  0  0  0  0  0  0  0
  150.2911  144.7112  158.0193 H   0  0  0  0  0  0  0  0  0  0  0  0
  151.6781  146.5900  159.4633 H   0  0  0  0  0  0  0  0  0  0  0  0
  150.3062  145.7143  160.1400 H   0  0  0  0  0  0  0  0  0  0  0  0
  153.2408  145.1139  160.5245 H   0  0  0  0  0  0  0  0  0  0  0  0
  151.9843  145.1635  161.7601 H   0  0  0  0  0  0  0  0  0  0  0  0
  151.1357  143.0233  161.0930 H   0  0  0  0  0  0  0  0  0  0  0  0
  152.8330  142.7998  160.6573 H   0  0  0  0  0  0  0  0  0  0  0  0
  1  2  1  0  0  0  0
  1 17  1  0  0  0  0
  1 18  1  0  0  0  0
  1 19  1  0  0  0  0
  2  3  1  0  0  0  0
  2  9  1  0  0  0  0
  2 20  1  0  0  0  0
  3  4  1  0  0  0  0
  3 21  1  0  0  0  0
  3 22  1  0  0  0  0
  4  8  1  0  0  0  0
  4  5  1  0  0  0  0
  5  6  2  0  0  0  0
  5 23  1  0  0  0  0
  6  7  1  0  0  0  0
  6 24  1  0  0  0  0
  7  8  2  0  0  0  0
  8 25  1  0  0  0  0
  9 10  1  0  0  0  0
  9 26  1  0  0  0  0
 10 11  2  0  0  0  0
 10 12  1  0  0  0  0
 12 16  1  0  0  0  0
 12 13  1  0  0  0  0
 13 14  1  0  0  0  0
 13 27  1  0  0  0  0
 13 28  1  0  0  0  0
 14 15  1  0  0  0  0
 14 29  1  0  0  0  0
 14 30  1  0  0  0  0
 15 16  1  0  0  0  0
 15 31  1  0  0  0  0
 15 32  1  0  0  0  0
 16 33  1  0  0  0  0
 16 34  1  0  0  0  0
M  END
> <s_m_source_file>
AV-unprocessed.smi

> <i_m_source_file_index>
3184

> <i_lp_mmshare_version>
43012

> <i_f3d_flags>
0

> <s_epik_input>
W2NIXTFuW2NIXVtjSF1uMVtDSDJdW0NAQEhdKFtDSDNdKVtOSF1DKD1PKU4yW0NIMl1bQ0gyXVtDSDJdW0NIMl0y

> <s_epik_cmdline>
J2VwaWtfcHl0aG9uJywgJy1waCcsICc3LjAnLCAnLXRuJywgJzgnLCAnLW1hJywgJzIwMCcsICctbWV0YWxfYmluZGluZycsICctaW1hZScsICc8aW5maWxlLm1hZT4nLCAnLW9tYWUnLCAnPG91dGZpbGUubWFlPic=

> <r_lp_tautomer_probability>
1

> <r_epik_Ionization_Penalty>
0.625774

> <r_epik_Ionization_Penalty_Charging>
0.625709

> <r_epik_Ionization_Penalty_Neutral>
6.46152e-05

> <r_epik_State_Penalty>
0.642123

> <r_epik_Charging_Adjusted_Penalty>
1.26783

> <i_epik_Tot_Q>
0

> <i_epik_Tot_abs_Q>
0

> <r_epik_Metal_State_Penalty>
0.307922

> <b_epik_Metal_Only>
0

> <s_lp_Force_Field>
OPLS_2005

> <r_lp_Energy>
35.7196

> <b_lp_Chiralities_Consistent>
1

> <s_lp_Variant>
AV-unprocessed.smi:3184-4

> <Gold.Version>
5.8.1

> <Gold.Id.Protein>
6NUR|6NUR_protein|mol2

> <Gold.PLP.Fitness>
42.3783

> <Gold.PLP.PLP>
-36.5682

> <Gold.PLP.part.hbond>
-1.0000

> <Gold.PLP.part.metal>
0.0000

> <Gold.PLP.part.buried>
-2.3922

> <Gold.PLP.part.nonpolar>
-31.4717

> <Gold.PLP.part.repulsive>
0.0833

> <Gold.PLP.ligand.clash>
0.0000

> <Gold.PLP.ligand.torsion>
0.5937

> <Gold.PLP.Chemscore.Hbond>
1.0000

> <Gold.PLP.Chemscore.CHOScore>
1.3272

> <Gold.PLP.Chemscore.Metal>
0.0000

> <Gold.Chemscore.Hbonds>
donor molecule, donor type, donor heavy atom, donor atom, acceptor molecule, acceptor atom, score
      P1  H 10752 10765       L1     7  1.00
      L1  C     5    23       P1  7957  0.29
      L1  C     6    24       P1  7948  0.31
      L1  C     6    24       P1  7949  0.63

> <Gold.PLP.Chemscore.Internal.Correction>
0.0159

> <Gold.Rescore>
     Score         DG    S(hbond)    S(metal)    S(lipo)     H(rot)  DE(clash)    DE(int)     intcor
     11.65     -14.61       0.94        0.00      86.09       1.60       1.16       1.80       ----

> <Gold.Chemscore.Fitness>
11.6513

> <Gold.Chemscore.DG>
-14.6060

> <Gold.Chemscore.ZeroCoef>
-5.4800

> <Gold.Chemscore.Hbond>
0.9436

> <Gold.Chemscore.Metal>
0.0000

> <Gold.Chemscore.Lipo>
86.0932

> <Gold.Chemscore.Internal_Hbond>
0.0000

> <Gold.Chemscore.DEClash>
1.1576

> <Gold.Chemscore.DEInternal>
1.7971

> <Gold.Chemscore.Rot>
1.6009

> <Gold.Chemscore.Internal.Correction>
   9.000000E+99

> <Gold.Chemscore.Hbonds>
donor molecule, donor type, donor heavy atom, donor atom, acceptor molecule, acceptor atom, score
      L1  H     9    26       P1  8028  0.01
      P1  H 10752 10765       L1     7  0.54

> <Gold.Chemscore.Hbond.Weighted>
-3.1515

> <Gold.Chemscore.Metal.Weighted>
-0.0000

> <Gold.Chemscore.Lipo.Weighted>
-10.0729

> <Gold.Chemscore.Internal_Hbond.Weighted>
0.0000

> <Gold.Chemscore.DEClash.Weighted>
1.1576

> <Gold.Chemscore.DEInternal.Weighted>
1.7971

> <Gold.Chemscore.Rot.Weighted>
4.0983

> <Gold.Chemscore.Internal.Correction.Weighted>
   9.000000E+99

> <Gold.Protein.RotatedTorsions>
[ 6907 6896 6895 6894 ] final  134.84 input  -60.11 | X-H torsion
[ 7974 7965 7964 7962 ] final   30.60 input  175.53 | X-H torsion
[ 8008 7997 7996 7995 ] final  146.76 input   59.86 | X-H torsion
[ 10167 10162 10161 10158 ] final  -19.40 input  -65.29 | X-H torsion
[ 10718 10713 10712 10709 ] final   39.10 input   66.30 | X-H torsion
[ 10763 10752 10751 10750 ] final -163.93 input  -60.55 | X-H torsion
[ 11005 11000 10999 10996 ] final -157.65 input  -57.11 | X-H torsion

> <Gold.Protein.ActiveResidues>
 VAL166  LYS551  ARG553  GLY616  TRP617  ASP618  TYR619  PRO620  LYS621  CYS622 
 ASP623  PHE694  ASN695  SER759  ASP760  ASP761  ALA762  ILE779  LEU786  VAL792 
 PHE793  MET794  SER795  GLU796  ALA797  LYS798  CYS799  TRP800  GLU811  SER814 

> <Gold.Protein.RotatedAtoms>
  152.3070  133.5713  159.5655 H   0  0  0  0  0  0  0  0  0  0  0  0  # atno 6907 bound_to 6896
  150.7304  134.0209  159.3710 H   0  0  0  0  0  0  0  0  0  0  0  0  # atno 6908 bound_to 6896
  151.8104  135.0683  160.0463 H   0  0  0  0  0  0  0  0  0  0  0  0  # atno 6909 bound_to 6896
  146.1602  139.6767  142.9039 H   0  0  0  0  0  0  0  0  0  0  0  0  # atno 7974 bound_to 7965
  156.2846  140.2174  156.5428 H   0  0  0  0  0  0  0  0  0  0  0  0  # atno 8008 bound_to 7997
  154.7355  140.0492  157.0787 H   0  0  0  0  0  0  0  0  0  0  0  0  # atno 8009 bound_to 7997
  155.0298  140.3133  155.4766 H   0  0  0  0  0  0  0  0  0  0  0  0  # atno 8010 bound_to 7997
  140.7268  143.4822  151.0102 H   0  0  0  0  0  0  0  0  0  0  0  0  # atno 10167 bound_to 10162
  157.3666  130.7678  149.7087 H   0  0  0  0  0  0  0  0  0  0  0  0  # atno 10718 bound_to 10713
  154.7077  135.3000  154.9246 H   0  0  0  0  0  0  0  0  0  0  0  0  # atno 10763 bound_to 10752
  154.0157  135.6689  153.4772 H   0  0  0  0  0  0  0  0  0  0  0  0  # atno 10764 bound_to 10752
  153.0730  135.5050  154.8257 H   0  0  0  0  0  0  0  0  0  0  0  0  # atno 10765 bound_to 10752
  140.6623  134.4336  157.5234 H   0  0  0  0  0  0  0  0  0  0  0  0  # atno 11005 bound_to 11000
  145.4608  141.0432  143.2753 LP  0  0  0  0  0  0  0  0  0  0  0  0  # atno 17320 bound_to 7965
  144.8016  139.6129  143.7069 LP  0  0  0  0  0  0  0  0  0  0  0  0  # atno 17321 bound_to 7965
  139.8522  143.7424  152.3177 LP  0  0  0  0  0  0  0  0  0  0  0  0  # atno 17342 bound_to 10162
  139.7610  144.7506  151.0364 LP  0  0  0  0  0  0  0  0  0  0  0  0  # atno 17343 bound_to 10162
  155.9747  130.4099  150.3901 LP  0  0  0  0  0  0  0  0  0  0  0  0  # atno 17370 bound_to 10713
  157.1986  131.0432  151.2662 LP  0  0  0  0  0  0  0  0  0  0  0  0  # atno 17371 bound_to 10713
  139.9009  134.8559  156.1901 LP  0  0  0  0  0  0  0  0  0  0  0  0  # atno 17394 bound_to 11000
  141.0456  133.6915  156.1677 LP  0  0  0  0  0  0  0  0  0  0  0  0  # atno 17395 bound_to 11000

$$$$
