#       Name:                AV-unprocessed.smi:46
#       Creating user name   scv26
#       Creation time:       Thu Mar 26 16:30:08 2020


#       File generated by GOLD software.
#

@<TRIPOS>MOLECULE
AV-unprocessed.smi:46
    38    39     1
SMALL
NO_CHARGES


@<TRIPOS>ATOM
      1 ****        -3.7760   0.8898   1.6555 C.3            1 S1                 0.0000
      2 ****        -3.1903   1.5277   0.3870 C.3            1 S1                 0.0000
      3 ****        -3.7643   0.8993  -0.8918 C.3            1 S1                 0.0000
      4 ****        -1.7373   1.4520   0.3943 N.pl3          1 S1                 0.0000
      5 ****        -0.9303   0.3329   0.3684 C.2            1 S1                 0.0000
      6 ****         0.3695   0.7568   0.3921 C.2            1 S1                 0.0000
      7 ****         1.6394  -0.0543   0.3732 C.3            1 S1                 0.0000
      8 ****         1.7495  -1.0279   1.5474 C.3            1 S1                 0.0000
      9 ****         2.7761  -2.0020   1.1394 N.4            1 S1                 1.0000
     10 ****         2.8533  -1.9896  -0.3367 C.3            1 S1                 0.0000
     11 ****         1.7925  -0.9885  -0.8303 C.3            1 S1                 0.0000
     12 ****         2.1649  -0.2707  -2.1393 C.3            1 S1                 0.0000
     13 ****         2.2239  -1.1980  -3.2015 O.3            1 S1                 0.0000
     14 ****         0.2495   2.1748   0.4345 C.2            1 S1                 0.0000
     15 ****        -1.0069   2.5863   0.4375 N.2            1 S1                 0.0000
     16 ****         2.5058   0.6092   0.4047 H              1 S1                 0.0000
     17 ****         0.8550  -1.5304  -0.9702 H              1 S1                 0.0000
     18 ****        -4.8604   0.9991   1.6825 H              1 S1                 0.0000
     19 ****        -3.3750   1.3622   2.5527 H              1 S1                 0.0000
     20 ****        -3.5486  -0.1753   1.7089 H              1 S1                 0.0000
     21 ****        -3.4706   2.5828   0.3889 H              1 S1                 0.0000
     22 ****        -4.8486   1.0073  -0.9275 H              1 S1                 0.0000
     23 ****        -3.5357  -0.1651  -0.9528 H              1 S1                 0.0000
     24 ****        -3.3565   1.3794  -1.7820 H              1 S1                 0.0000
     25 ****        -1.3447  -0.6640   0.3343 H              1 S1                 0.0000
     26 ****         2.0005  -0.5363   2.4877 H              1 S1                 0.0000
     27 ****         0.8131  -1.5694   1.6895 H              1 S1                 0.0000
     28 ****         3.6716  -1.7192   1.5114 H              1 S1                 0.0000
     29 ****         3.8569  -1.6702  -0.6203 H              1 S1                 0.0000
     30 ****         2.6930  -2.9871  -0.7472 H              1 S1                 0.0000
     31 ****         1.4174   0.4847  -2.3831 H              1 S1                 0.0000
     32 ****         3.1239   0.2407  -2.0507 H              1 S1                 0.0000
     33 ****         2.4122  -0.7293  -4.0009 H              1 S1                 0.0000
     34 ****         1.0364   2.9140   0.4627 H              1 S1                 0.0000
     35 ****         2.5407  -2.9229   1.4810 H              1 S1                 0.0000
     36 ****         1.3462  -1.6695  -3.2862 LP             1 S1                 0.0000
     37 ****         2.9460  -1.8669  -3.0250 LP             1 S1                 0.0000
     38 ****        -1.3416   3.5282   0.4656 LP             1 S1                 0.0000
@<TRIPOS>BOND
    1    1    2 1     
    2    1   18 1     
    3    1   19 1     
    4    1   20 1     
    5    2    3 1     
    6    2    4 1     
    7    2   21 1     
    8    3   22 1     
    9    3   23 1     
   10    3   24 1     
   11    4   15 1     
   12    4    5 1     
   13    5    6 2     
   14    5   25 1     
   15    6    7 1     
   16    6   14 1     
   17    7   16 1     
   18    7   11 1     
   19    7    8 1     
   20    8    9 1     
   21    8   26 1     
   22    8   27 1     
   23    9   10 1     
   24    9   28 1     
   25    9   35 1     
   26   10   11 1     
   27   10   29 1     
   28   10   30 1     
   29   11   17 1     
   30   11   12 1     
   31   12   13 1     
   32   12   31 1     
   33   12   32 1     
   34   13   33 1     
   35   14   15 2     
   36   14   34 1     
   37   13   36 1     
   38   13   37 1     
   39   15   38 1     
@<TRIPOS>SUBSTRUCTURE
      1 S1             1
@<TRIPOS>SET
LONE_PAIRS      STATIC     ATOMS    <user>   **** ""
3 36 37 38
DONOR_HYDROGENS      STATIC     ATOMS    <user>   **** ""
3 28 35 33
ATOM$BLUE        STATIC     ATOMS    COLORGROUP SYSTEM
3 36 37 38
ATOM$RED        STATIC     ATOMS    COLORGROUP SYSTEM
3 28 35 33
