AV-unprocessed.smi:2976|AV-procd|sdf|11359|dock10
  -GOLD-   2272016273D 1   1.00000     0.00000
 Structure written by MMmdl.
 40 41  0  0  0  0  0  0  0  0  1 V2000
  146.0259  142.9681  155.0524 C   0  0  0  0  0  0  0  0  0  0  0  0
  147.2151  142.0033  154.8997 C   0  0  2  0  0  0  0  0  0  0  0  0
  147.2218  141.4045  153.4776 C   0  0  0  0  0  0  0  0  0  0  0  0
  148.3969  140.4418  153.2590 C   0  0  0  0  0  0  0  0  0  0  0  0
  148.4015  139.3268  154.3158 C   0  0  0  0  0  0  0  0  0  0  0  0
  148.4081  139.8935  155.7477 C   0  0  1  0  0  0  0  0  0  0  0  0
  149.7003  140.5265  156.0187 N   0  0  0  0  0  0  0  0  0  0  0  0
  150.2711  140.6866  157.2226 C   0  0  0  0  0  0  0  0  0  0  0  0
  149.7756  140.2756  158.2722 O   0  0  0  0  0  0  0  0  0  0  0  0
  151.6165  141.4227  157.2393 C   0  0  0  0  0  0  0  0  0  0  0  0
  152.1306  141.6122  158.6029 N   0  0  0  0  0  0  0  0  0  0  0  0
  151.6051  142.7107  159.2600 N   0  0  0  0  0  0  0  0  0  0  0  0
  151.9977  142.9809  160.4572 C   0  0  0  0  0  0  0  0  0  0  0  0
  152.9737  142.1690  161.1501 C   0  0  0  0  0  0  0  0  0  0  0  0
  153.4617  142.5814  162.7561 Cl  0  0  0  0  0  0  0  0  0  0  0  0
  153.4780  141.0907  160.4991 C   0  0  0  0  0  0  0  0  0  0  0  0
  154.6486  140.0706  161.2627 Cl  0  0  0  0  0  0  0  0  0  0  0  0
  153.0533  140.7514  159.1339 C   0  0  0  0  0  0  0  0  0  0  0  0
  153.4838  139.7792  158.5114 O   0  0  0  0  0  0  0  0  0  0  0  0
  147.2231  140.8741  155.9680 C   0  0  1  0  0  0  0  0  0  0  0  0
  147.1795  141.4095  157.4138 C   0  0  0  0  0  0  0  0  0  0  0  0
  145.0755  142.4345  155.0252 H   0  0  0  0  0  0  0  0  0  0  0  0
  146.0151  143.7053  154.2491 H   0  0  0  0  0  0  0  0  0  0  0  0
  146.0742  143.5233  155.9888 H   0  0  0  0  0  0  0  0  0  0  0  0
  148.1255  142.5932  155.0172 H   0  0  0  0  0  0  0  0  0  0  0  0
  146.2847  140.8759  153.2974 H   0  0  0  0  0  0  0  0  0  0  0  0
  147.2697  142.2035  152.7369 H   0  0  0  0  0  0  0  0  0  0  0  0
  148.3372  140.0060  152.2612 H   0  0  0  0  0  0  0  0  0  0  0  0
  149.3358  140.9953  153.2957 H   0  0  0  0  0  0  0  0  0  0  0  0
  147.5170  138.7031  154.1803 H   0  0  0  0  0  0  0  0  0  0  0  0
  149.2602  138.6712  154.1644 H   0  0  0  0  0  0  0  0  0  0  0  0
  148.2801  139.0470  156.4248 H   0  0  0  0  0  0  0  0  0  0  0  0
  150.1900  140.8993  155.2184 H   0  0  0  0  0  0  0  0  0  0  0  0
  152.3237  140.8456  156.6411 H   0  0  0  0  0  0  0  0  0  0  0  0
  151.5284  142.3883  156.7371 H   0  0  0  0  0  0  0  0  0  0  0  0
  151.6145  143.8369  161.0127 H   0  0  0  0  0  0  0  0  0  0  0  0
  146.3096  140.2932  155.8301 H   0  0  0  0  0  0  0  0  0  0  0  0
  147.9804  142.1240  157.6043 H   0  0  0  0  0  0  0  0  0  0  0  0
  147.2798  140.5976  158.1344 H   0  0  0  0  0  0  0  0  0  0  0  0
  146.2343  141.9067  157.6300 H   0  0  0  0  0  0  0  0  0  0  0  0
  1  2  1  0  0  0  0
  1 22  1  0  0  0  0
  1 23  1  0  0  0  0
  1 24  1  0  0  0  0
  2 20  1  0  0  0  0
  2  3  1  0  0  0  0
  2 25  1  0  0  0  0
  3  4  1  0  0  0  0
  3 26  1  0  0  0  0
  3 27  1  0  0  0  0
  4  5  1  0  0  0  0
  4 28  1  0  0  0  0
  4 29  1  0  0  0  0
  5  6  1  0  0  0  0
  5 30  1  0  0  0  0
  5 31  1  0  0  0  0
  6  7  1  0  0  0  0
  6 20  1  0  0  0  0
  6 32  1  0  0  0  0
  7  8  1  0  0  0  0
  7 33  1  0  0  0  0
  8  9  2  0  0  0  0
  8 10  1  0  0  0  0
 10 11  1  0  0  0  0
 10 34  1  0  0  0  0
 10 35  1  0  0  0  0
 11 18  1  0  0  0  0
 11 12  1  0  0  0  0
 12 13  2  0  0  0  0
 13 14  1  0  0  0  0
 13 36  1  0  0  0  0
 14 15  1  0  0  0  0
 14 16  2  0  0  0  0
 16 17  1  0  0  0  0
 16 18  1  0  0  0  0
 18 19  2  0  0  0  0
 20 21  1  0  0  0  0
 20 37  1  0  0  0  0
 21 38  1  0  0  0  0
 21 39  1  0  0  0  0
 21 40  1  0  0  0  0
M  END
> <s_m_source_file>
AV-unprocessed.smi

> <i_m_source_file_index>
2976

> <i_lp_mmshare_version>
43012

> <i_f3d_flags>
0

> <s_epik_input>
W0NIM11bQ0BASF0xW0NIMl1bQ0gyXVtDSDJdW0NASF0oW0NASF0xW0NIM10pW05IXUMoPU8pW0NIMl1uMm5bY0hdYyhDbCljKENsKWMyPU8=

> <s_epik_cmdline>
J2VwaWtfcHl0aG9uJywgJy1waCcsICc3LjAnLCAnLXRuJywgJzgnLCAnLW1hJywgJzIwMCcsICctbWV0YWxfYmluZGluZycsICctaW1hZScsICc8aW5maWxlLm1hZT4nLCAnLW9tYWUnLCAnPG91dGZpbGUubWFlPic=

> <r_lp_tautomer_probability>
1

> <r_epik_Ionization_Penalty>
1.90777e-08

> <r_epik_Ionization_Penalty_Charging>
3.07942e-11

> <r_epik_Ionization_Penalty_Neutral>
1.90469e-08

> <r_epik_State_Penalty>
-0

> <r_epik_Charging_Adjusted_Penalty>
3.07942e-11

> <i_epik_Tot_Q>
0

> <i_epik_Tot_abs_Q>
0

> <r_epik_Metal_State_Penalty>
-0

> <b_epik_Metal_Only>
0

> <s_lp_Force_Field>
OPLS_2005

> <r_lp_Energy>
25.2962

> <b_lp_Chiralities_Consistent>
1

> <s_lp_Variant>
AV-unprocessed.smi:2976-1

> <Gold.Version>
5.8.1

> <Gold.Id.Protein>
6NUR|6NUR_protein|mol2

> <Gold.PLP.Fitness>
38.1039

> <Gold.PLP.PLP>
-36.4433

> <Gold.PLP.part.hbond>
-1.0000

> <Gold.PLP.part.metal>
0.0000

> <Gold.PLP.part.buried>
-1.2616

> <Gold.PLP.part.nonpolar>
-33.0986

> <Gold.PLP.part.repulsive>
0.0607

> <Gold.PLP.ligand.clash>
0.0000

> <Gold.PLP.ligand.torsion>
0.6739

> <Gold.PLP.Chemscore.Hbond>
1.0000

> <Gold.PLP.Chemscore.CHOScore>
0.0000

> <Gold.PLP.Chemscore.Metal>
0.0000

> <Gold.Chemscore.Hbonds>
donor molecule, donor type, donor heavy atom, donor atom, acceptor molecule, acceptor atom, score
      P1  H  7997  8008       L1    19  1.00

> <Gold.PLP.Chemscore.Internal.Correction>
0.0084

> <Gold.Rescore>
     Score         DG    S(hbond)    S(metal)    S(lipo)     H(rot)  DE(clash)    DE(int)     intcor
     13.64     -15.99       0.98        0.00      94.51       1.49       1.64       0.71       ----

> <Gold.Chemscore.Fitness>
13.6399

> <Gold.Chemscore.DG>
-15.9929

> <Gold.Chemscore.ZeroCoef>
-5.4800

> <Gold.Chemscore.Hbond>
0.9762

> <Gold.Chemscore.Metal>
0.0000

> <Gold.Chemscore.Lipo>
94.5130

> <Gold.Chemscore.Internal_Hbond>
0.0000

> <Gold.Chemscore.DEClash>
1.6437

> <Gold.Chemscore.DEInternal>
0.7093

> <Gold.Chemscore.Rot>
1.4866

> <Gold.Chemscore.Internal.Correction>
   9.000000E+99

> <Gold.Chemscore.Hbonds>
donor molecule, donor type, donor heavy atom, donor atom, acceptor molecule, acceptor atom, score
      P1  H  7997  8008       L1    19  0.95

> <Gold.Chemscore.Hbond.Weighted>
-3.2605

> <Gold.Chemscore.Metal.Weighted>
-0.0000

> <Gold.Chemscore.Lipo.Weighted>
-11.0580

> <Gold.Chemscore.Internal_Hbond.Weighted>
0.0000

> <Gold.Chemscore.DEClash.Weighted>
1.6437

> <Gold.Chemscore.DEInternal.Weighted>
0.7093

> <Gold.Chemscore.Rot.Weighted>
3.8057

> <Gold.Chemscore.Internal.Correction.Weighted>
   9.000000E+99

> <Gold.Protein.RotatedTorsions>
[ 6907 6896 6895 6894 ] final   63.01 input  -60.11 | X-H torsion
[ 7974 7965 7964 7962 ] final  -53.59 input  175.53 | X-H torsion
[ 8008 7997 7996 7995 ] final -103.59 input   59.86 | X-H torsion
[ 10167 10162 10161 10158 ] final   28.53 input  -65.29 | X-H torsion
[ 10718 10713 10712 10709 ] final  106.22 input   66.30 | X-H torsion
[ 10763 10752 10751 10750 ] final  -31.39 input  -60.55 | X-H torsion
[ 11005 11000 10999 10996 ] final -148.91 input  -57.11 | X-H torsion

> <Gold.Protein.ActiveResidues>
 VAL166  LYS551  ARG553  GLY616  TRP617  ASP618  TYR619  PRO620  LYS621  CYS622 
 ASP623  PHE694  ASN695  SER759  ASP760  ASP761  ALA762  ILE779  LEU786  VAL792 
 PHE793  MET794  SER795  GLU796  ALA797  LYS798  CYS799  TRP800  GLU811  SER814 

> <Gold.Protein.RotatedAtoms>
  152.4218  134.5940  159.9981 H   0  0  0  0  0  0  0  0  0  0  0  0  # atno 6907 bound_to 6896
  151.6088  133.3343  159.3071 H   0  0  0  0  0  0  0  0  0  0  0  0  # atno 6908 bound_to 6896
  150.8107  134.7297  159.6751 H   0  0  0  0  0  0  0  0  0  0  0  0  # atno 6909 bound_to 6896
  145.8951  140.8040  142.9772 H   0  0  0  0  0  0  0  0  0  0  0  0  # atno 7974 bound_to 7965
  154.8731  140.0422  157.1737 H   0  0  0  0  0  0  0  0  0  0  0  0  # atno 8008 bound_to 7997
  154.8718  140.2959  155.5456 H   0  0  0  0  0  0  0  0  0  0  0  0  # atno 8009 bound_to 7997
  156.2999  140.2427  156.3708 H   0  0  0  0  0  0  0  0  0  0  0  0  # atno 8010 bound_to 7997
  140.4844  144.0565  150.6276 H   0  0  0  0  0  0  0  0  0  0  0  0  # atno 10167 bound_to 10162
  157.6676  131.0846  150.5974 H   0  0  0  0  0  0  0  0  0  0  0  0  # atno 10718 bound_to 10713
  153.7966  135.6893  153.4862 H   0  0  0  0  0  0  0  0  0  0  0  0  # atno 10763 bound_to 10752
  153.1715  135.4541  154.9907 H   0  0  0  0  0  0  0  0  0  0  0  0  # atno 10764 bound_to 10752
  154.8023  135.3343  154.7458 H   0  0  0  0  0  0  0  0  0  0  0  0  # atno 10765 bound_to 10752
  140.7563  134.3350  157.5113 H   0  0  0  0  0  0  0  0  0  0  0  0  # atno 11005 bound_to 11000
  144.6732  140.1589  143.7424 LP  0  0  0  0  0  0  0  0  0  0  0  0  # atno 17320 bound_to 7965
  145.8861  139.2349  143.1577 LP  0  0  0  0  0  0  0  0  0  0  0  0  # atno 17321 bound_to 7965
  140.3816  143.2799  152.0163 LP  0  0  0  0  0  0  0  0  0  0  0  0  # atno 17342 bound_to 10162
  139.4839  144.6150  151.7363 LP  0  0  0  0  0  0  0  0  0  0  0  0  # atno 17343 bound_to 10162
  156.6275  130.4422  149.5799 LP  0  0  0  0  0  0  0  0  0  0  0  0  # atno 17370 bound_to 10713
  156.2308  130.6793  151.1461 LP  0  0  0  0  0  0  0  0  0  0  0  0  # atno 17371 bound_to 10713
  139.8778  134.9174  156.3177 LP  0  0  0  0  0  0  0  0  0  0  0  0  # atno 17394 bound_to 11000
  140.9705  133.7330  156.0527 LP  0  0  0  0  0  0  0  0  0  0  0  0  # atno 17395 bound_to 11000

$$$$
