AV-unprocessed.smi:1696|AV-procd|sdf|6801|dock3
  -GOLD-   22720 7573D 1   1.00000     0.00000
 Structure written by MMmdl.
 38 39  0  0  0  0  0  0  0  0  3 V2000
  151.4574  137.5243  154.2563 C   0  0  0  0  0  0  0  0  0  0  0  0
  150.4881  138.6873  154.5212 C   0  0  0  0  0  0  0  0  0  0  0  0
  149.0785  138.2618  155.0151 C   0  0  2  0  0  0  0  0  0  0  0  0
  149.1374  137.0752  156.0156 C   0  0  0  0  0  0  0  0  0  0  0  0
  148.7642  137.4616  157.3723 N   0  0  0  0  0  0  0  0  0  0  0  0
  148.8703  136.6866  158.4608 C   0  0  0  0  0  0  0  0  0  0  0  0
  149.3304  135.5469  158.3604 O   0  0  0  0  0  0  0  0  0  0  0  0
  148.4303  137.2779  159.5935 N   0  5  0  0  0  0  0  0  0  0  0  0
  148.0423  136.5255  160.6360 C   0  0  0  0  0  0  0  0  0  0  0  0
  147.9508  136.9988  161.8840 N   0  0  0  0  0  0  0  0  0  0  0  0
  147.5232  136.0449  162.8095 C   0  0  0  0  0  0  0  0  0  0  0  0
  147.2747  134.8191  162.2513 C   0  0  0  0  0  0  0  0  0  0  0  0
  147.5731  134.8259  160.5365 S   0  0  0  0  0  0  0  0  0  0  0  0
  148.1521  137.9657  153.8834 N   0  3  0  0  0  0  0  0  0  0  0  0
  146.8238  137.4295  154.2762 C   0  0  0  0  0  0  0  0  0  0  0  0
  145.7909  138.0004  153.2940 C   0  0  0  0  0  0  0  0  0  0  0  0
  146.6150  138.6978  152.2176 C   0  0  0  0  0  0  0  0  0  0  0  0
  147.8904  139.0872  152.9552 C   0  0  0  0  0  0  0  0  0  0  0  0
  152.4084  137.8983  153.8766 H   0  0  0  0  0  0  0  0  0  0  0  0
  151.0596  136.8287  153.5175 H   0  0  0  0  0  0  0  0  0  0  0  0
  151.6709  136.9643  155.1667 H   0  0  0  0  0  0  0  0  0  0  0  0
  150.9435  139.3567  155.2513 H   0  0  0  0  0  0  0  0  0  0  0  0
  150.4036  139.2924  153.6187 H   0  0  0  0  0  0  0  0  0  0  0  0
  148.6570  139.1207  155.5399 H   0  0  0  0  0  0  0  0  0  0  0  0
  148.4865  136.2570  155.7059 H   0  0  0  0  0  0  0  0  0  0  0  0
  150.1429  136.6561  156.0482 H   0  0  0  0  0  0  0  0  0  0  0  0
  148.3876  138.3898  157.4991 H   0  0  0  0  0  0  0  0  0  0  0  0
  147.4218  136.3270  163.8468 H   0  0  0  0  0  0  0  0  0  0  0  0
  146.9359  133.9182  162.7400 H   0  0  0  0  0  0  0  0  0  0  0  0
  146.8478  136.3398  154.2421 H   0  0  0  0  0  0  0  0  0  0  0  0
  146.5582  137.7250  155.2926 H   0  0  0  0  0  0  0  0  0  0  0  0
  145.1372  137.2316  152.8804 H   0  0  0  0  0  0  0  0  0  0  0  0
  145.1611  138.7292  153.8062 H   0  0  0  0  0  0  0  0  0  0  0  0
  146.8509  137.9950  151.4173 H   0  0  0  0  0  0  0  0  0  0  0  0
  146.1020  139.5528  151.7758 H   0  0  0  0  0  0  0  0  0  0  0  0
  147.7230  140.0043  153.5227 H   0  0  0  0  0  0  0  0  0  0  0  0
  148.7201  139.2558  152.2683 H   0  0  0  0  0  0  0  0  0  0  0  0
  148.5897  137.2454  153.3273 H   0  0  0  0  0  0  0  0  0  0  0  0
  1  2  1  0  0  0  0
  1 19  1  0  0  0  0
  1 20  1  0  0  0  0
  1 21  1  0  0  0  0
  2  3  1  0  0  0  0
  2 22  1  0  0  0  0
  2 23  1  0  0  0  0
  3  4  1  0  0  0  0
  3 14  1  0  0  0  0
  3 24  1  0  0  0  0
  4  5  1  0  0  0  0
  4 25  1  0  0  0  0
  4 26  1  0  0  0  0
  5  6  1  0  0  0  0
  5 27  1  0  0  0  0
  6  7  2  0  0  0  0
  6  8  1  0  0  0  0
  8  9  1  0  0  0  0
  9 13  1  0  0  0  0
  9 10  2  0  0  0  0
 10 11  1  0  0  0  0
 11 12  2  0  0  0  0
 11 28  1  0  0  0  0
 12 13  1  0  0  0  0
 12 29  1  0  0  0  0
 14 18  1  0  0  0  0
 14 15  1  0  0  0  0
 14 38  1  0  0  0  0
 15 16  1  0  0  0  0
 15 30  1  0  0  0  0
 15 31  1  0  0  0  0
 16 17  1  0  0  0  0
 16 32  1  0  0  0  0
 16 33  1  0  0  0  0
 17 18  1  0  0  0  0
 17 34  1  0  0  0  0
 17 35  1  0  0  0  0
 18 36  1  0  0  0  0
 18 37  1  0  0  0  0
M  CHG  1   8  -1
M  CHG  1  14   1
M  END
> <s_m_source_file>
AV-unprocessed.smi

> <i_m_source_file_index>
1696

> <i_lp_mmshare_version>
43012

> <i_f3d_flags>
0

> <s_epik_input>
W0NIMl0xW0NIMl1bQ0gyXVtDSDJdTjFbQ0BIXShbQ0gyXVtDSDNdKVtDSDJdW05IXUMoPU8pW05IXWMybltjSF1bY0hdczI=

> <s_epik_cmdline>
J2VwaWtfcHl0aG9uJywgJy1waCcsICc3LjAnLCAnLXRuJywgJzgnLCAnLW1hJywgJzIwMCcsICctbWV0YWxfYmluZGluZycsICctaW1hZScsICc8aW5maWxlLm1hZT4nLCAnLW9tYWUnLCAnPG91dGZpbGUubWFlPic=

> <r_lp_tautomer_probability>
1

> <r_epik_Ionization_Penalty>
7.71903

> <r_epik_Ionization_Penalty_Charging>
6.3282

> <r_epik_Ionization_Penalty_Neutral>
1.39083

> <r_epik_State_Penalty>
6.32705

> <r_epik_Charging_Adjusted_Penalty>
12.6552

> <i_epik_Tot_Q>
0

> <i_epik_Tot_abs_Q>
2

> <r_epik_Metal_State_Penalty>
2.26116

> <b_epik_Metal_Only>
1

> <s_lp_Force_Field>
OPLS_2005

> <r_lp_Energy>
21.91

> <b_lp_Chiralities_Consistent>
1

> <s_lp_Variant>
AV-unprocessed.smi:1696-3

> <Gold.Version>
5.8.1

> <Gold.Id.Protein>
6NUR|6NUR_protein|mol2

> <Gold.PLP.Fitness>
41.8078

> <Gold.PLP.PLP>
-31.9637

> <Gold.PLP.part.hbond>
-5.4738

> <Gold.PLP.part.metal>
0.0000

> <Gold.PLP.part.buried>
-0.7416

> <Gold.PLP.part.nonpolar>
-27.0564

> <Gold.PLP.part.repulsive>
0.0338

> <Gold.PLP.ligand.clash>
0.0000

> <Gold.PLP.ligand.torsion>
1.2690

> <Gold.PLP.Chemscore.Hbond>
4.0710

> <Gold.PLP.Chemscore.CHOScore>
0.0000

> <Gold.PLP.Chemscore.Metal>
0.0000

> <Gold.Chemscore.Hbonds>
donor molecule, donor type, donor heavy atom, donor atom, acceptor molecule, acceptor atom, score
      L1  H    14    38       P1  7948  2.00
      P1  H  6896  6908       L1     7  0.98
      P1  H  6931  6943       L1    10  1.00
      P1  H  6934  6947       L1    10  0.05

> <Gold.PLP.Chemscore.Internal.Correction>
0.1693

> <Gold.Rescore>
     Score         DG    S(hbond)    S(metal)    S(lipo)     H(rot)  DE(clash)    DE(int)     intcor
     14.58     -18.42       2.76        0.00      69.71       1.73       1.21       2.64       ----

> <Gold.Chemscore.Fitness>
14.5766

> <Gold.Chemscore.DG>
-18.4230

> <Gold.Chemscore.ZeroCoef>
-5.4800

> <Gold.Chemscore.Hbond>
2.7568

> <Gold.Chemscore.Metal>
0.0000

> <Gold.Chemscore.Lipo>
69.7138

> <Gold.Chemscore.Internal_Hbond>
0.0000

> <Gold.Chemscore.DEClash>
1.2063

> <Gold.Chemscore.DEInternal>
2.6401

> <Gold.Chemscore.Rot>
1.7270

> <Gold.Chemscore.Internal.Correction>
   9.000000E+99

> <Gold.Chemscore.Hbonds>
donor molecule, donor type, donor heavy atom, donor atom, acceptor molecule, acceptor atom, score
      L1  H    14    38       P1  7948  0.99
      P1  H  6896  6908       L1     7  0.91
      P1  H  6931  6943       L1    10  0.45

> <Gold.Chemscore.Hbond.Weighted>
-9.2076

> <Gold.Chemscore.Metal.Weighted>
-0.0000

> <Gold.Chemscore.Lipo.Weighted>
-8.1565

> <Gold.Chemscore.Internal_Hbond.Weighted>
0.0000

> <Gold.Chemscore.DEClash.Weighted>
1.2063

> <Gold.Chemscore.DEInternal.Weighted>
2.6401

> <Gold.Chemscore.Rot.Weighted>
4.4212

> <Gold.Chemscore.Internal.Correction.Weighted>
   9.000000E+99

> <Gold.Protein.RotatedTorsions>
[ 6907 6896 6895 6894 ] final  173.71 input  -60.11 | X-H torsion
[ 7974 7965 7964 7962 ] final  167.36 input  175.53 | X-H torsion
[ 8008 7997 7996 7995 ] final -109.47 input   59.86 | X-H torsion
[ 10167 10162 10161 10158 ] final   15.60 input  -65.29 | X-H torsion
[ 10718 10713 10712 10709 ] final  173.37 input   66.30 | X-H torsion
[ 10763 10752 10751 10750 ] final   26.11 input  -60.55 | X-H torsion
[ 11005 11000 10999 10996 ] final   -4.43 input  -57.11 | X-H torsion

> <Gold.Protein.ActiveResidues>
 VAL166  LYS551  ARG553  GLY616  TRP617  ASP618  TYR619  PRO620  LYS621  CYS622 
 ASP623  PHE694  ASN695  SER759  ASP760  ASP761  ALA762  ILE779  LEU786  VAL792 
 PHE793  MET794  SER795  GLU796  ALA797  LYS798  CYS799  TRP800  GLU811  SER814 

> <Gold.Protein.RotatedAtoms>
  151.7640  133.3336  159.3425 H   0  0  0  0  0  0  0  0  0  0  0  0  # atno 6907 bound_to 6896
  150.7487  134.6080  159.6080 H   0  0  0  0  0  0  0  0  0  0  0  0  # atno 6908 bound_to 6896
  152.3386  134.7166  160.0321 H   0  0  0  0  0  0  0  0  0  0  0  0  # atno 6909 bound_to 6896
  144.7427  139.8749  143.6392 H   0  0  0  0  0  0  0  0  0  0  0  0  # atno 7974 bound_to 7965
  154.9598  140.0399  157.2184 H   0  0  0  0  0  0  0  0  0  0  0  0  # atno 8008 bound_to 7997
  154.7900  140.2834  155.5977 H   0  0  0  0  0  0  0  0  0  0  0  0  # atno 8009 bound_to 7997
  156.2948  140.2575  156.2745 H   0  0  0  0  0  0  0  0  0  0  0  0  # atno 8010 bound_to 7997
  140.5856  143.8897  150.6827 H   0  0  0  0  0  0  0  0  0  0  0  0  # atno 10167 bound_to 10162
  156.9652  131.0073  151.2918 H   0  0  0  0  0  0  0  0  0  0  0  0  # atno 10718 bound_to 10713
  153.0645  135.6568  154.0386 H   0  0  0  0  0  0  0  0  0  0  0  0  # atno 10763 bound_to 10752
  154.0046  135.2934  155.3400 H   0  0  0  0  0  0  0  0  0  0  0  0  # atno 10764 bound_to 10752
  154.6997  135.5249  153.8578 H   0  0  0  0  0  0  0  0  0  0  0  0  # atno 10765 bound_to 10752
  140.6802  133.9160  155.8550 H   0  0  0  0  0  0  0  0  0  0  0  0  # atno 11005 bound_to 11000
  146.1253  139.4278  143.0202 LP  0  0  0  0  0  0  0  0  0  0  0  0  # atno 17320 bound_to 7965
  145.7244  141.0064  143.1385 LP  0  0  0  0  0  0  0  0  0  0  0  0  # atno 17321 bound_to 7965
  140.2407  143.3666  152.1489 LP  0  0  0  0  0  0  0  0  0  0  0  0  # atno 17342 bound_to 10162
  139.5195  144.7021  151.5463 LP  0  0  0  0  0  0  0  0  0  0  0  0  # atno 17343 bound_to 10162
  157.5630  130.8259  149.8291 LP  0  0  0  0  0  0  0  0  0  0  0  0  # atno 17370 bound_to 10713
  156.0305  130.3766  150.1700 LP  0  0  0  0  0  0  0  0  0  0  0  0  # atno 17371 bound_to 10713
  141.0323  134.0738  157.3999 LP  0  0  0  0  0  0  0  0  0  0  0  0  # atno 17394 bound_to 11000
  139.8954  135.0141  156.7000 LP  0  0  0  0  0  0  0  0  0  0  0  0  # atno 17395 bound_to 11000

$$$$
