AV-unprocessed.smi:850|AV-procd|sdf|3948|dock2
  -GOLD-   22720 1413D 1   1.00000     0.00000
 Structure written by MMmdl.
 40 42  0  0  0  0  0  0  0  0  1 V2000
  154.5334  141.7165  159.7802 C   0  0  0  0  0  0  0  0  0  0  0  0
  153.1755  141.7551  159.2507 N   0  0  0  0  0  0  0  0  0  0  0  0
  152.5544  140.7939  158.5274 C   0  0  0  0  0  0  0  0  0  0  0  0
  153.0401  139.7149  158.1879 O   0  0  0  0  0  0  0  0  0  0  0  0
  151.3055  141.2294  158.2377 N   0  0  0  0  0  0  0  0  0  0  0  0
  150.2970  140.5187  157.4547 C   0  0  0  0  0  0  0  0  0  0  0  0
  150.1093  141.1506  156.0606 C   0  0  1  0  0  0  0  0  0  0  0  0
  151.2400  140.9068  155.2489 O   0  0  0  0  0  0  0  0  0  0  0  0
  148.8730  140.6165  155.3182 C   0  0  0  0  0  0  0  0  0  0  0  0
  147.6950  140.9404  156.0470 O   0  0  0  0  0  0  0  0  0  0  0  0
  146.8168  141.8515  155.5011 C   0  0  0  0  0  0  0  0  0  0  0  0
  145.8563  142.4118  156.3688 C   0  0  0  0  0  0  0  0  0  0  0  0
  144.9209  143.3531  155.8980 C   0  0  0  0  0  0  0  0  0  0  0  0
  144.9369  143.7452  154.5468 C   0  0  0  0  0  0  0  0  0  0  0  0
  145.8884  143.1929  153.6692 C   0  0  0  0  0  0  0  0  0  0  0  0
  146.8243  142.2514  154.1405 C   0  0  0  0  0  0  0  0  0  0  0  0
  151.1285  142.5111  158.7788 C   0  0  0  0  0  0  0  0  0  0  0  0
  150.0299  143.3876  158.7445 C   0  0  0  0  0  0  0  0  0  0  0  0
  150.1781  144.6346  159.3961 C   0  0  0  0  0  0  0  0  0  0  0  0
  151.3906  144.9737  160.0513 C   0  0  0  0  0  0  0  0  0  0  0  0
  152.4813  144.0728  160.0692 C   0  0  0  0  0  0  0  0  0  0  0  0
  152.3062  142.8411  159.4153 C   0  0  0  0  0  0  0  0  0  0  0  0
  154.9946  140.7361  159.6539 H   0  0  0  0  0  0  0  0  0  0  0  0
  154.5306  141.9497  160.8452 H   0  0  0  0  0  0  0  0  0  0  0  0
  155.1559  142.4520  159.2703 H   0  0  0  0  0  0  0  0  0  0  0  0
  150.5398  139.4576  157.3746 H   0  0  0  0  0  0  0  0  0  0  0  0
  149.3580  140.5651  158.0073 H   0  0  0  0  0  0  0  0  0  0  0  0
  150.0025  142.2321  156.1540 H   0  0  0  0  0  0  0  0  0  0  0  0
  152.0169  141.0443  155.7695 H   0  0  0  0  0  0  0  0  0  0  0  0
  148.8251  141.0903  154.3363 H   0  0  0  0  0  0  0  0  0  0  0  0
  148.9572  139.5392  155.1630 H   0  0  0  0  0  0  0  0  0  0  0  0
  145.8373  142.1162  157.4076 H   0  0  0  0  0  0  0  0  0  0  0  0
  144.1916  143.7741  156.5742 H   0  0  0  0  0  0  0  0  0  0  0  0
  144.2205  144.4676  154.1842 H   0  0  0  0  0  0  0  0  0  0  0  0
  145.9011  143.4918  152.6313 H   0  0  0  0  0  0  0  0  0  0  0  0
  147.5383  141.8507  153.4372 H   0  0  0  0  0  0  0  0  0  0  0  0
  149.1106  143.1251  158.2420 H   0  0  0  0  0  0  0  0  0  0  0  0
  149.3583  145.3380  159.3938 H   0  0  0  0  0  0  0  0  0  0  0  0
  151.4821  145.9320  160.5412 H   0  0  0  0  0  0  0  0  0  0  0  0
  153.4081  144.3239  160.5636 H   0  0  0  0  0  0  0  0  0  0  0  0
  1  2  1  0  0  0  0
  1 23  1  0  0  0  0
  1 24  1  0  0  0  0
  1 25  1  0  0  0  0
  2 22  1  0  0  0  0
  2  3  1  0  0  0  0
  3  4  2  0  0  0  0
  3  5  1  0  0  0  0
  5  6  1  0  0  0  0
  5 17  1  0  0  0  0
  6  7  1  0  0  0  0
  6 26  1  0  0  0  0
  6 27  1  0  0  0  0
  7  8  1  0  0  0  0
  7  9  1  0  0  0  0
  7 28  1  0  0  0  0
  8 29  1  0  0  0  0
  9 10  1  0  0  0  0
  9 30  1  0  0  0  0
  9 31  1  0  0  0  0
 10 11  1  0  0  0  0
 11 16  1  0  0  0  0
 11 12  2  0  0  0  0
 12 13  1  0  0  0  0
 12 32  1  0  0  0  0
 13 14  2  0  0  0  0
 13 33  1  0  0  0  0
 14 15  1  0  0  0  0
 14 34  1  0  0  0  0
 15 16  2  0  0  0  0
 15 35  1  0  0  0  0
 16 36  1  0  0  0  0
 17 22  2  0  0  0  0
 17 18  1  0  0  0  0
 18 19  2  0  0  0  0
 18 37  1  0  0  0  0
 19 20  1  0  0  0  0
 19 38  1  0  0  0  0
 20 21  2  0  0  0  0
 20 39  1  0  0  0  0
 21 22  1  0  0  0  0
 21 40  1  0  0  0  0
M  END
> <s_m_source_file>
AV-unprocessed.smi

> <i_m_source_file_index>
850

> <i_lp_mmshare_version>
43012

> <i_f3d_flags>
0

> <s_epik_input>
W2NIXTFbY0hdW2NIXVtjSF1jKGMxMiluKFtDSDNdKWMoPU8pbjJbQ0gyXVtDQEhdKFtPSF0pW0NIMl1PYzNbY0hdW2NIXVtjSF1bY0hdW2NIXTM=

> <s_epik_cmdline>
J2VwaWtfcHl0aG9uJywgJy1waCcsICc3LjAnLCAnLXRuJywgJzgnLCAnLW1hJywgJzIwMCcsICctbWV0YWxfYmluZGluZycsICctaW1hZScsICc8aW5maWxlLm1hZT4nLCAnLW9tYWUnLCAnPG91dGZpbGUubWFlPic=

> <r_lp_tautomer_probability>
1

> <r_epik_Ionization_Penalty>
2.40205e-06

> <r_epik_Ionization_Penalty_Charging>
2.75209e-09

> <r_epik_Ionization_Penalty_Neutral>
2.3993e-06

> <r_epik_State_Penalty>
-0

> <r_epik_Charging_Adjusted_Penalty>
2.75209e-09

> <i_epik_Tot_Q>
0

> <i_epik_Tot_abs_Q>
0

> <r_epik_Metal_State_Penalty>
-0

> <b_epik_Metal_Only>
0

> <s_lp_Force_Field>
OPLS_2005

> <r_lp_Energy>
47.9965

> <b_lp_Chiralities_Consistent>
1

> <s_lp_Variant>
AV-unprocessed.smi:850-2

> <Gold.Version>
5.8.1

> <Gold.Id.Protein>
6NUR|6NUR_protein|mol2

> <Gold.PLP.Fitness>
49.8677

> <Gold.PLP.PLP>
-46.0735

> <Gold.PLP.part.hbond>
-2.0000

> <Gold.PLP.part.metal>
0.0000

> <Gold.PLP.part.buried>
-6.8051

> <Gold.PLP.part.nonpolar>
-36.7315

> <Gold.PLP.part.repulsive>
0.0550

> <Gold.PLP.ligand.clash>
0.0000

> <Gold.PLP.ligand.torsion>
0.7623

> <Gold.PLP.Chemscore.Hbond>
1.7360

> <Gold.PLP.Chemscore.CHOScore>
0.0000

> <Gold.PLP.Chemscore.Metal>
0.0000

> <Gold.Chemscore.Hbonds>
donor molecule, donor type, donor heavy atom, donor atom, acceptor molecule, acceptor atom, score
      P1  H  7989  7998       L1     8  0.70
      P1  H  7997  8009       L1     4  1.00

> <Gold.PLP.Chemscore.Internal.Correction>
0.1108

> <Gold.Rescore>
     Score         DG    S(hbond)    S(metal)    S(lipo)     H(rot)  DE(clash)    DE(int)     intcor
     17.02     -18.04       1.46        0.00     112.02       2.12       0.24       0.78       ----

> <Gold.Chemscore.Fitness>
17.0245

> <Gold.Chemscore.DG>
-18.0436

> <Gold.Chemscore.ZeroCoef>
-5.4800

> <Gold.Chemscore.Hbond>
1.4612

> <Gold.Chemscore.Metal>
0.0000

> <Gold.Chemscore.Lipo>
112.0209

> <Gold.Chemscore.Internal_Hbond>
0.0000

> <Gold.Chemscore.DEClash>
0.2363

> <Gold.Chemscore.DEInternal>
0.7828

> <Gold.Chemscore.Rot>
2.1184

> <Gold.Chemscore.Internal.Correction>
   9.000000E+99

> <Gold.Chemscore.Hbonds>
donor molecule, donor type, donor heavy atom, donor atom, acceptor molecule, acceptor atom, score
      P1  H  7989  7998       L1     8  0.52
      P1  H  7997  8009       L1     4  0.69

> <Gold.Chemscore.Hbond.Weighted>
-4.8803

> <Gold.Chemscore.Metal.Weighted>
-0.0000

> <Gold.Chemscore.Lipo.Weighted>
-13.1064

> <Gold.Chemscore.Internal_Hbond.Weighted>
0.0000

> <Gold.Chemscore.DEClash.Weighted>
0.2363

> <Gold.Chemscore.DEInternal.Weighted>
0.7828

> <Gold.Chemscore.Rot.Weighted>
5.4231

> <Gold.Chemscore.Internal.Correction.Weighted>
   9.000000E+99

> <Gold.Protein.RotatedTorsions>
[ 6907 6896 6895 6894 ] final    8.61 input  -60.11 | X-H torsion
[ 7974 7965 7964 7962 ] final  128.50 input  175.53 | X-H torsion
[ 8008 7997 7996 7995 ] final  153.27 input   59.86 | X-H torsion
[ 10167 10162 10161 10158 ] final   40.37 input  -65.29 | X-H torsion
[ 10718 10713 10712 10709 ] final  133.93 input   66.30 | X-H torsion
[ 10763 10752 10751 10750 ] final  -28.40 input  -60.55 | X-H torsion
[ 11005 11000 10999 10996 ] final   72.00 input  -57.11 | X-H torsion

> <Gold.Protein.ActiveResidues>
 VAL166  LYS551  ARG553  GLY616  TRP617  ASP618  TYR619  PRO620  LYS621  CYS622 
 ASP623  PHE694  ASN695  SER759  ASP760  ASP761  ALA762  ILE779  LEU786  VAL792 
 PHE793  MET794  SER795  GLU796  ALA797  LYS798  CYS799  TRP800  GLU811  SER814 

> <Gold.Protein.RotatedAtoms>
  151.7088  135.0916  160.0263 H   0  0  0  0  0  0  0  0  0  0  0  0  # atno 6907 bound_to 6896
  152.3674  133.6371  159.6070 H   0  0  0  0  0  0  0  0  0  0  0  0  # atno 6908 bound_to 6896
  150.7648  133.9241  159.3448 H   0  0  0  0  0  0  0  0  0  0  0  0  # atno 6909 bound_to 6896
  145.0389  139.3980  143.5112 H   0  0  0  0  0  0  0  0  0  0  0  0  # atno 7974 bound_to 7965
  156.2589  140.1998  156.6464 H   0  0  0  0  0  0  0  0  0  0  0  0  # atno 8008 bound_to 7997
  154.6570  140.0565  157.0045 H   0  0  0  0  0  0  0  0  0  0  0  0  # atno 8009 bound_to 7997
  155.1333  140.3236  155.4472 H   0  0  0  0  0  0  0  0  0  0  0  0  # atno 8010 bound_to 7997
  140.3749  144.2057  150.6132 H   0  0  0  0  0  0  0  0  0  0  0  0  # atno 10167 bound_to 10162
  157.4723  131.1081  150.9787 H   0  0  0  0  0  0  0  0  0  0  0  0  # atno 10718 bound_to 10713
  153.7477  135.6928  153.4952 H   0  0  0  0  0  0  0  0  0  0  0  0  # atno 10763 bound_to 10752
  153.2025  135.4431  155.0282 H   0  0  0  0  0  0  0  0  0  0  0  0  # atno 10764 bound_to 10752
  154.8198  135.3416  154.7000 H   0  0  0  0  0  0  0  0  0  0  0  0  # atno 10765 bound_to 10752
  139.9514  134.7221  156.0855 H   0  0  0  0  0  0  0  0  0  0  0  0  # atno 11005 bound_to 11000
  146.3507  139.9979  142.8679 LP  0  0  0  0  0  0  0  0  0  0  0  0  # atno 17320 bound_to 7965
  145.1673  140.9703  143.4342 LP  0  0  0  0  0  0  0  0  0  0  0  0  # atno 17321 bound_to 7965
  140.4996  143.2322  151.8698 LP  0  0  0  0  0  0  0  0  0  0  0  0  # atno 17342 bound_to 10162
  139.4800  144.5074  151.8979 LP  0  0  0  0  0  0  0  0  0  0  0  0  # atno 17343 bound_to 10162
  157.0547  130.5801  149.5376 LP  0  0  0  0  0  0  0  0  0  0  0  0  # atno 17370 bound_to 10713
  156.0079  130.5168  150.7893 LP  0  0  0  0  0  0  0  0  0  0  0  0  # atno 17371 bound_to 10713
  141.1177  133.6622  156.3135 LP  0  0  0  0  0  0  0  0  0  0  0  0  # atno 17394 bound_to 11000
  140.5711  134.5839  157.5458 LP  0  0  0  0  0  0  0  0  0  0  0  0  # atno 17395 bound_to 11000

$$$$
