AV-unprocessed.smi:1722|AV-procd|sdf|6943|dock7
  -GOLD-   22720 8153D 1   1.00000     0.00000
 Structure written by MMmdl.
 39 40  0  0  0  0  0  0  0  0  1 V2000
  151.2441  140.2054  155.1972 O   0  0  0  0  0  0  0  0  0  0  0  0
  150.7847  140.7604  156.1946 C   0  0  0  0  0  0  0  0  0  0  0  0
  151.7420  141.4056  157.1949 C   0  0  0  0  0  0  0  0  0  0  0  0
  151.1762  142.6274  157.6507 O   0  0  0  0  0  0  0  0  0  0  0  0
  151.9333  143.2917  158.6537 C   0  0  0  0  0  0  0  0  0  0  0  0
  152.1872  142.2750  159.7807 C   0  0  0  0  0  0  0  0  0  0  0  0
  152.9398  142.9152  160.9584 C   0  0  0  0  0  0  0  0  0  0  0  0
  152.1879  144.1432  161.4949 C   0  0  0  0  0  0  0  0  0  0  0  0
  151.9247  145.1643  160.3770 C   0  0  0  0  0  0  0  0  0  0  0  0
  151.1770  144.5230  159.1966 C   0  0  0  0  0  0  0  0  0  0  0  0
  149.4774  140.8289  156.5164 N   0  0  0  0  0  0  0  0  0  0  0  0
  148.3566  140.3639  155.8084 C   0  0  0  0  0  0  0  0  0  0  0  0
  147.3435  139.6364  156.3477 C   0  0  0  0  0  0  0  0  0  0  0  0
  146.2159  139.1769  155.5541 C   0  0  0  0  0  0  0  0  0  0  0  0
  145.1176  138.3150  156.1575 C   0  0  0  0  0  0  0  0  0  0  0  0
  143.9373  138.9135  156.0035 F   0  0  0  0  0  0  0  0  0  0  0  0
  145.0581  137.1204  155.5670 F   0  0  0  0  0  0  0  0  0  0  0  0
  145.3204  138.1272  157.4617 F   0  0  0  0  0  0  0  0  0  0  0  0
  146.2392  139.4838  154.2440 C   0  0  0  0  0  0  0  0  0  0  0  0
  147.2765  140.2314  153.6816 N   0  0  0  0  0  0  0  0  0  0  0  0
  148.3429  140.6921  154.3730 C   0  0  0  0  0  0  0  0  0  0  0  0
  149.2204  141.3389  153.8021 O   0  0  0  0  0  0  0  0  0  0  0  0
  147.2165  140.4284  152.6930 H   0  0  0  0  0  0  0  0  0  0  0  0
  151.8967  140.7195  158.0288 H   0  0  0  0  0  0  0  0  0  0  0  0
  152.7073  141.5745  156.7173 H   0  0  0  0  0  0  0  0  0  0  0  0
  152.8981  143.5998  158.2465 H   0  0  0  0  0  0  0  0  0  0  0  0
  151.2365  141.8727  160.1336 H   0  0  0  0  0  0  0  0  0  0  0  0
  152.7561  141.4281  159.3955 H   0  0  0  0  0  0  0  0  0  0  0  0
  153.0735  142.1838  161.7559 H   0  0  0  0  0  0  0  0  0  0  0  0
  153.9399  143.2092  160.6371 H   0  0  0  0  0  0  0  0  0  0  0  0
  151.2396  143.8288  161.9328 H   0  0  0  0  0  0  0  0  0  0  0  0
  152.7601  144.6089  162.2978 H   0  0  0  0  0  0  0  0  0  0  0  0
  151.3495  146.0036  160.7689 H   0  0  0  0  0  0  0  0  0  0  0  0
  152.8727  145.5753  160.0276 H   0  0  0  0  0  0  0  0  0  0  0  0
  151.0415  145.2690  158.4142 H   0  0  0  0  0  0  0  0  0  0  0  0
  150.1775  144.2263  159.5173 H   0  0  0  0  0  0  0  0  0  0  0  0
  149.2638  141.2539  157.4076 H   0  0  0  0  0  0  0  0  0  0  0  0
  147.3504  139.3619  157.3897 H   0  0  0  0  0  0  0  0  0  0  0  0
  145.4826  139.1826  153.5346 H   0  0  0  0  0  0  0  0  0  0  0  0
  1  2  2  0  0  0  0
  2  3  1  0  0  0  0
  2 11  1  0  0  0  0
  3  4  1  0  0  0  0
  3 24  1  0  0  0  0
  3 25  1  0  0  0  0
  4  5  1  0  0  0  0
  5 10  1  0  0  0  0
  5  6  1  0  0  0  0
  5 26  1  0  0  0  0
  6  7  1  0  0  0  0
  6 27  1  0  0  0  0
  6 28  1  0  0  0  0
  7  8  1  0  0  0  0
  7 29  1  0  0  0  0
  7 30  1  0  0  0  0
  8  9  1  0  0  0  0
  8 31  1  0  0  0  0
  8 32  1  0  0  0  0
  9 10  1  0  0  0  0
  9 33  1  0  0  0  0
  9 34  1  0  0  0  0
 10 35  1  0  0  0  0
 10 36  1  0  0  0  0
 11 12  1  0  0  0  0
 11 37  1  0  0  0  0
 12 21  1  0  0  0  0
 12 13  2  0  0  0  0
 13 14  1  0  0  0  0
 13 38  1  0  0  0  0
 14 15  1  0  0  0  0
 14 19  2  0  0  0  0
 15 16  1  0  0  0  0
 15 17  1  0  0  0  0
 15 18  1  0  0  0  0
 19 20  1  0  0  0  0
 19 39  1  0  0  0  0
 20 23  1  0  0  0  0
 20 21  1  0  0  0  0
 21 22  2  0  0  0  0
M  END
> <s_m_source_file>
AV-unprocessed.smi

> <i_m_source_file_index>
1722

> <i_lp_mmshare_version>
43012

> <i_f3d_flags>
0

> <s_epik_input>
Tz1jMVtuSF1bY0hdYyhDKEYpKEYpRilbY0hdYzFbTkhdQyg9TylbQ0gyXU9bQ0hdMltDSDJdW0NIMl1bQ0gyXVtDSDJdW0NIMl0y

> <s_epik_cmdline>
J2VwaWtfcHl0aG9uJywgJy1waCcsICc3LjAnLCAnLXRuJywgJzgnLCAnLW1hJywgJzIwMCcsICctbWV0YWxfYmluZGluZycsICctaW1hZScsICc8aW5maWxlLm1hZT4nLCAnLW9tYWUnLCAnPG91dGZpbGUubWFlPic=

> <r_lp_tautomer_probability>
0.999

> <r_epik_Ionization_Penalty>
0.008897

> <r_epik_Ionization_Penalty_Charging>
0.00889691

> <r_epik_Ionization_Penalty_Neutral>
9.17026e-08

> <r_epik_State_Penalty>
0.00672877

> <r_epik_Charging_Adjusted_Penalty>
0.0156257

> <i_epik_Tot_Q>
0

> <i_epik_Tot_abs_Q>
0

> <r_epik_Metal_State_Penalty>
0.320955

> <b_epik_Metal_Only>
0

> <s_lp_Force_Field>
OPLS_2005

> <r_lp_Energy>
24.9811

> <b_lp_Chiralities_Consistent>
1

> <s_lp_Variant>
AV-unprocessed.smi:1722-1

> <Gold.Version>
5.8.1

> <Gold.Id.Protein>
6NUR|6NUR_protein|mol2

> <Gold.PLP.Fitness>
40.4817

> <Gold.PLP.PLP>
-33.4863

> <Gold.PLP.part.hbond>
-3.0000

> <Gold.PLP.part.metal>
0.0000

> <Gold.PLP.part.buried>
-7.2606

> <Gold.PLP.part.nonpolar>
-24.8096

> <Gold.PLP.part.repulsive>
1.2347

> <Gold.PLP.ligand.clash>
0.0000

> <Gold.PLP.ligand.torsion>
0.7198

> <Gold.PLP.Chemscore.Hbond>
1.8000

> <Gold.PLP.Chemscore.CHOScore>
1.0000

> <Gold.PLP.Chemscore.Metal>
0.0000

> <Gold.Chemscore.Hbonds>
donor molecule, donor type, donor heavy atom, donor atom, acceptor molecule, acceptor atom, score
      P1  H  7989  7998       L1     1  1.00
      P1  H  8011  8017       L1    22  0.83
      L1  C    19    39       P1 10175  1.00

> <Gold.PLP.Chemscore.Internal.Correction>
0.0350

> <Gold.Rescore>
     Score         DG    S(hbond)    S(metal)    S(lipo)     H(rot)  DE(clash)    DE(int)     intcor
     13.21     -16.73       1.74        0.00      81.41       1.59       0.16       3.36       ----

> <Gold.Chemscore.Fitness>
13.2086

> <Gold.Chemscore.DG>
-16.7298

> <Gold.Chemscore.ZeroCoef>
-5.4800

> <Gold.Chemscore.Hbond>
1.7385

> <Gold.Chemscore.Metal>
0.0000

> <Gold.Chemscore.Lipo>
81.4109

> <Gold.Chemscore.Internal_Hbond>
0.0000

> <Gold.Chemscore.DEClash>
0.1574

> <Gold.Chemscore.DEInternal>
3.3637

> <Gold.Chemscore.Rot>
1.5945

> <Gold.Chemscore.Internal.Correction>
   9.000000E+99

> <Gold.Chemscore.Hbonds>
donor molecule, donor type, donor heavy atom, donor atom, acceptor molecule, acceptor atom, score
      P1  H  7989  7998       L1     1  0.98
      P1  H  8011  8017       L1    22  0.81

> <Gold.Chemscore.Hbond.Weighted>
-5.8066

> <Gold.Chemscore.Metal.Weighted>
-0.0000

> <Gold.Chemscore.Lipo.Weighted>
-9.5251

> <Gold.Chemscore.Internal_Hbond.Weighted>
0.0000

> <Gold.Chemscore.DEClash.Weighted>
0.1574

> <Gold.Chemscore.DEInternal.Weighted>
3.3637

> <Gold.Chemscore.Rot.Weighted>
4.0820

> <Gold.Chemscore.Internal.Correction.Weighted>
   9.000000E+99

> <Gold.Protein.RotatedTorsions>
[ 6907 6896 6895 6894 ] final  -55.06 input  -60.11 | X-H torsion
[ 7974 7965 7964 7962 ] final  120.15 input  175.53 | X-H torsion
[ 8008 7997 7996 7995 ] final -155.76 input   59.86 | X-H torsion
[ 10167 10162 10161 10158 ] final  133.31 input  -65.29 | X-H torsion
[ 10718 10713 10712 10709 ] final   96.56 input   66.30 | X-H torsion
[ 10763 10752 10751 10750 ] final   39.33 input  -60.55 | X-H torsion
[ 11005 11000 10999 10996 ] final  158.16 input  -57.11 | X-H torsion

> <Gold.Protein.ActiveResidues>
 VAL166  LYS551  ARG553  GLY616  TRP617  ASP618  TYR619  PRO620  LYS621  CYS622 
 ASP623  PHE694  ASN695  SER759  ASP760  ASP761  ALA762  ILE779  LEU786  VAL792 
 PHE793  MET794  SER795  GLU796  ALA797  LYS798  CYS799  TRP800  GLU811  SER814 

> <Gold.Protein.RotatedAtoms>
  150.8284  134.7526  159.6832 H   0  0  0  0  0  0  0  0  0  0  0  0  # atno 6907 bound_to 6896
  152.4392  134.5621  159.9907 H   0  0  0  0  0  0  0  0  0  0  0  0  # atno 6908 bound_to 6896
  151.5788  133.3343  159.3040 H   0  0  0  0  0  0  0  0  0  0  0  0  # atno 6909 bound_to 6896
  145.1346  139.3306  143.4647 H   0  0  0  0  0  0  0  0  0  0  0  0  # atno 7974 bound_to 7965
  155.7069  140.0773  157.2387 H   0  0  0  0  0  0  0  0  0  0  0  0  # atno 8008 bound_to 7997
  154.4064  140.1637  156.2306 H   0  0  0  0  0  0  0  0  0  0  0  0  # atno 8009 bound_to 7997
  155.9318  140.3390  155.6258 H   0  0  0  0  0  0  0  0  0  0  0  0  # atno 8010 bound_to 7997
  139.5302  144.6622  151.4977 H   0  0  0  0  0  0  0  0  0  0  0  0  # atno 10167 bound_to 10162
  157.6925  131.0582  150.4511 H   0  0  0  0  0  0  0  0  0  0  0  0  # atno 10718 bound_to 10713
  152.9971  135.6224  154.2447 H   0  0  0  0  0  0  0  0  0  0  0  0  # atno 10763 bound_to 10752
  154.2187  135.2797  155.2934 H   0  0  0  0  0  0  0  0  0  0  0  0  # atno 10764 bound_to 10752
  154.5546  135.5723  153.7011 H   0  0  0  0  0  0  0  0  0  0  0  0  # atno 10765 bound_to 10752
  140.1839  134.8456  157.2834 H   0  0  0  0  0  0  0  0  0  0  0  0  # atno 11005 bound_to 11000
  146.3511  140.1359  142.8596 LP  0  0  0  0  0  0  0  0  0  0  0  0  # atno 17320 bound_to 7965
  145.0598  140.9079  143.4945 LP  0  0  0  0  0  0  0  0  0  0  0  0  # atno 17321 bound_to 7965
  140.6475  143.8764  150.6752 LP  0  0  0  0  0  0  0  0  0  0  0  0  # atno 17342 bound_to 10162
  140.2118  143.3877  152.1712 LP  0  0  0  0  0  0  0  0  0  0  0  0  # atno 17343 bound_to 10162
  156.4862  130.4085  149.6433 LP  0  0  0  0  0  0  0  0  0  0  0  0  # atno 17370 bound_to 10713
  156.3460  130.7407  151.2360 LP  0  0  0  0  0  0  0  0  0  0  0  0  # atno 17371 bound_to 10713
  140.2236  134.3993  155.7554 LP  0  0  0  0  0  0  0  0  0  0  0  0  # atno 17394 bound_to 11000
  141.2224  133.7178  156.8530 LP  0  0  0  0  0  0  0  0  0  0  0  0  # atno 17395 bound_to 11000

$$$$
