AV-unprocessed.smi:1583|AV-procd|sdf|6363|dock3
  -GOLD-   22720 6593D 1   1.00000     0.00000
 Structure written by MMmdl.
 36 37  0  0  0  0  0  0  0  0  1 V2000
  146.8330  139.4599  152.4433 C   0  0  0  0  0  0  0  0  0  0  0  0
  147.9988  140.0914  153.0424 N   0  0  0  0  0  0  0  0  0  0  0  0
  147.9564  140.8859  154.1217 C   0  0  0  0  0  0  0  0  0  0  0  0
  146.9154  141.1633  154.7170 O   0  0  0  0  0  0  0  0  0  0  0  0
  149.2881  141.4518  154.6082 C   0  0  0  0  0  0  0  0  0  0  0  0
  150.3607  140.1656  155.3138 S   0  0  0  0  0  0  0  0  0  0  0  0
  151.0264  141.0298  156.7087 C   0  0  0  0  0  0  0  0  0  0  0  0
  150.9584  142.3557  156.8511 N   0  0  0  0  0  0  0  0  0  0  0  0
  151.6087  142.5747  158.0486 C   0  0  0  0  0  0  0  0  0  0  0  0
  151.8737  143.7756  158.7450 C   0  0  0  0  0  0  0  0  0  0  0  0
  152.5719  143.7505  159.9701 C   0  0  0  0  0  0  0  0  0  0  0  0
  153.0132  142.5274  160.5153 C   0  0  0  0  0  0  0  0  0  0  0  0
  152.7578  141.3195  159.8377 C   0  0  0  0  0  0  0  0  0  0  0  0
  152.0605  141.3510  158.6151 C   0  0  0  0  0  0  0  0  0  0  0  0
  151.6582  140.3715  157.7137 N   0  0  0  0  0  0  0  0  0  0  0  0
  151.8958  138.9415  157.8492 C   0  0  0  0  0  0  0  0  0  0  0  0
  150.9688  138.3018  158.8921 C   0  0  0  0  0  0  0  0  0  0  0  0
  151.5981  137.1667  159.4636 O   0  0  0  0  0  0  0  0  0  0  0  0
  152.7628  137.5016  160.1963 C   0  0  0  0  0  0  0  0  0  0  0  0
  147.1291  138.8964  151.5587 H   0  0  0  0  0  0  0  0  0  0  0  0
  146.0966  140.2062  152.1417 H   0  0  0  0  0  0  0  0  0  0  0  0
  146.3630  138.7701  153.1458 H   0  0  0  0  0  0  0  0  0  0  0  0
  148.8947  139.9114  152.6131 H   0  0  0  0  0  0  0  0  0  0  0  0
  149.8062  141.9444  153.7841 H   0  0  0  0  0  0  0  0  0  0  0  0
  149.0891  142.2101  155.3662 H   0  0  0  0  0  0  0  0  0  0  0  0
  151.5409  144.7176  158.3348 H   0  0  0  0  0  0  0  0  0  0  0  0
  152.7708  144.6741  160.4935 H   0  0  0  0  0  0  0  0  0  0  0  0
  153.5487  142.5171  161.4534 H   0  0  0  0  0  0  0  0  0  0  0  0
  153.0953  140.3809  160.2515 H   0  0  0  0  0  0  0  0  0  0  0  0
  151.7399  138.4730  156.8769 H   0  0  0  0  0  0  0  0  0  0  0  0
  152.9395  138.7630  158.1056 H   0  0  0  0  0  0  0  0  0  0  0  0
  150.7308  139.0277  159.6712 H   0  0  0  0  0  0  0  0  0  0  0  0
  150.0290  138.0105  158.4211 H   0  0  0  0  0  0  0  0  0  0  0  0
  153.2019  136.5978  160.6184 H   0  0  0  0  0  0  0  0  0  0  0  0
  152.5305  138.1794  161.0188 H   0  0  0  0  0  0  0  0  0  0  0  0
  153.5102  137.9708  159.5551 H   0  0  0  0  0  0  0  0  0  0  0  0
  1  2  1  0  0  0  0
  1 20  1  0  0  0  0
  1 21  1  0  0  0  0
  1 22  1  0  0  0  0
  2  3  1  0  0  0  0
  2 23  1  0  0  0  0
  3  4  2  0  0  0  0
  3  5  1  0  0  0  0
  5  6  1  0  0  0  0
  5 24  1  0  0  0  0
  5 25  1  0  0  0  0
  6  7  1  0  0  0  0
  7 15  1  0  0  0  0
  7  8  2  0  0  0  0
  8  9  1  0  0  0  0
  9 14  2  0  0  0  0
  9 10  1  0  0  0  0
 10 11  2  0  0  0  0
 10 26  1  0  0  0  0
 11 12  1  0  0  0  0
 11 27  1  0  0  0  0
 12 13  2  0  0  0  0
 12 28  1  0  0  0  0
 13 14  1  0  0  0  0
 13 29  1  0  0  0  0
 14 15  1  0  0  0  0
 15 16  1  0  0  0  0
 16 17  1  0  0  0  0
 16 30  1  0  0  0  0
 16 31  1  0  0  0  0
 17 18  1  0  0  0  0
 17 32  1  0  0  0  0
 17 33  1  0  0  0  0
 18 19  1  0  0  0  0
 19 34  1  0  0  0  0
 19 35  1  0  0  0  0
 19 36  1  0  0  0  0
M  END
> <s_m_source_file>
AV-unprocessed.smi

> <i_m_source_file_index>
1583

> <i_lp_mmshare_version>
43012

> <i_f3d_flags>
0

> <s_epik_input>
W0NIM11bTkhdQyg9TylbQ0gyXVNjKG4xKW4oW0NIMl1bQ0gyXU9bQ0gzXSljKGMxMilbY0hdW2NIXVtjSF1bY0hdMg==

> <s_epik_cmdline>
J2VwaWtfcHl0aG9uJywgJy1waCcsICc3LjAnLCAnLXRuJywgJzgnLCAnLW1hJywgJzIwMCcsICctbWV0YWxfYmluZGluZycsICctaW1hZScsICc8aW5maWxlLm1hZT4nLCAnLW9tYWUnLCAnPG91dGZpbGUubWFlPic=

> <r_epik_Ionization_Penalty>
0.0356249

> <r_epik_Ionization_Penalty_Charging>
0

> <r_epik_Ionization_Penalty_Neutral>
0.0356249

> <r_epik_State_Penalty>
0.0297112

> <r_epik_Charging_Adjusted_Penalty>
0.0297112

> <i_epik_Tot_Q>
0

> <i_epik_Tot_abs_Q>
0

> <r_epik_Metal_State_Penalty>
0.0280118

> <b_epik_Metal_Only>
0

> <s_lp_Force_Field>
OPLS_2005

> <r_lp_Energy>
5.95406

> <b_lp_Chiralities_Consistent>
1

> <s_lp_Variant>
AV-unprocessed.smi:1583-1

> <Gold.Version>
5.8.1

> <Gold.Id.Protein>
6NUR|6NUR_protein|mol2

> <Gold.PLP.Fitness>
44.8249

> <Gold.PLP.PLP>
-41.3619

> <Gold.PLP.part.hbond>
-2.0000

> <Gold.PLP.part.metal>
0.0000

> <Gold.PLP.part.buried>
-5.6823

> <Gold.PLP.part.nonpolar>
-35.3465

> <Gold.PLP.part.repulsive>
0.3092

> <Gold.PLP.ligand.clash>
0.0000

> <Gold.PLP.ligand.torsion>
0.9202

> <Gold.PLP.Chemscore.Hbond>
1.7590

> <Gold.PLP.Chemscore.CHOScore>
0.0000

> <Gold.PLP.Chemscore.Metal>
0.0000

> <Gold.Chemscore.Hbonds>
donor molecule, donor type, donor heavy atom, donor atom, acceptor molecule, acceptor atom, score
      L1  H     2    23       P1  7957  0.77
      P1  H  6896  6909       L1    18  0.79

> <Gold.PLP.Chemscore.Internal.Correction>
0.0265

> <Gold.Rescore>
     Score         DG    S(hbond)    S(metal)    S(lipo)     H(rot)  DE(clash)    DE(int)     intcor
     16.68     -17.74       1.85        0.00      99.59       2.18       0.03       1.03       ----

> <Gold.Chemscore.Fitness>
16.6830

> <Gold.Chemscore.DG>
-17.7378

> <Gold.Chemscore.ZeroCoef>
-5.4800

> <Gold.Chemscore.Hbond>
1.8542

> <Gold.Chemscore.Metal>
0.0000

> <Gold.Chemscore.Lipo>
99.5907

> <Gold.Chemscore.Internal_Hbond>
0.0000

> <Gold.Chemscore.DEClash>
0.0270

> <Gold.Chemscore.DEInternal>
1.0278

> <Gold.Chemscore.Rot>
2.1826

> <Gold.Chemscore.Internal.Correction>
   9.000000E+99

> <Gold.Chemscore.Hbonds>
donor molecule, donor type, donor heavy atom, donor atom, acceptor molecule, acceptor atom, score
      L1  H     2    23       P1  7957  0.77
      P1  H  6896  6909       L1    18  0.13

> <Gold.Chemscore.Hbond.Weighted>
-6.1931

> <Gold.Chemscore.Metal.Weighted>
-0.0000

> <Gold.Chemscore.Lipo.Weighted>
-11.6521

> <Gold.Chemscore.Internal_Hbond.Weighted>
0.0000

> <Gold.Chemscore.DEClash.Weighted>
0.0270

> <Gold.Chemscore.DEInternal.Weighted>
1.0278

> <Gold.Chemscore.Rot.Weighted>
5.5874

> <Gold.Chemscore.Internal.Correction.Weighted>
   9.000000E+99

> <Gold.Protein.RotatedTorsions>
[ 6907 6896 6895 6894 ] final  117.19 input  -60.11 | X-H torsion
[ 7974 7965 7964 7962 ] final -153.48 input  175.53 | X-H torsion
[ 8008 7997 7996 7995 ] final  -70.52 input   59.86 | X-H torsion
[ 10167 10162 10161 10158 ] final   26.02 input  -65.29 | X-H torsion
[ 10718 10713 10712 10709 ] final  -60.37 input   66.30 | X-H torsion
[ 10763 10752 10751 10750 ] final   57.28 input  -60.55 | X-H torsion
[ 11005 11000 10999 10996 ] final   11.37 input  -57.11 | X-H torsion

> <Gold.Protein.ActiveResidues>
 VAL166  LYS551  ARG553  GLY616  TRP617  ASP618  TYR619  PRO620  LYS621  CYS622 
 ASP623  PHE694  ASN695  SER759  ASP760  ASP761  ALA762  ILE779  LEU786  VAL792 
 PHE793  MET794  SER795  GLU796  ALA797  LYS798  CYS799  TRP800  GLU811  SER814 

> <Gold.Protein.RotatedAtoms>
  152.4628  133.7859  159.6875 H   0  0  0  0  0  0  0  0  0  0  0  0  # atno 6907 bound_to 6896
  150.8579  133.7677  159.3008 H   0  0  0  0  0  0  0  0  0  0  0  0  # atno 6908 bound_to 6896
  151.5252  135.1071  159.9940 H   0  0  0  0  0  0  0  0  0  0  0  0  # atno 6909 bound_to 6896
  144.7739  140.4520  143.5887 H   0  0  0  0  0  0  0  0  0  0  0  0  # atno 7974 bound_to 7965
  154.5018  140.0833  156.7814 H   0  0  0  0  0  0  0  0  0  0  0  0  # atno 8008 bound_to 7997
  155.3984  140.3436  155.4237 H   0  0  0  0  0  0  0  0  0  0  0  0  # atno 8009 bound_to 7997
  156.1466  140.1545  156.8824 H   0  0  0  0  0  0  0  0  0  0  0  0  # atno 8010 bound_to 7997
  140.5058  144.0241  150.6351 H   0  0  0  0  0  0  0  0  0  0  0  0  # atno 10167 bound_to 10162
  156.0996  130.4188  150.0844 H   0  0  0  0  0  0  0  0  0  0  0  0  # atno 10718 bound_to 10713
  152.9847  135.5647  154.5365 H   0  0  0  0  0  0  0  0  0  0  0  0  # atno 10763 bound_to 10752
  154.4828  135.2789  155.1560 H   0  0  0  0  0  0  0  0  0  0  0  0  # atno 10764 bound_to 10752
  154.3061  135.6297  153.5499 H   0  0  0  0  0  0  0  0  0  0  0  0  # atno 10765 bound_to 10752
  140.5040  134.0717  155.7801 H   0  0  0  0  0  0  0  0  0  0  0  0  # atno 11005 bound_to 11000
  145.6244  139.1528  143.3004 LP  0  0  0  0  0  0  0  0  0  0  0  0  # atno 17320 bound_to 7965
  146.1905  140.6352  142.9148 LP  0  0  0  0  0  0  0  0  0  0  0  0  # atno 17321 bound_to 7965
  140.3550  143.2941  152.0446 LP  0  0  0  0  0  0  0  0  0  0  0  0  # atno 17342 bound_to 10162
  139.4883  144.6346  151.7002 LP  0  0  0  0  0  0  0  0  0  0  0  0  # atno 17343 bound_to 10162
  156.8835  130.9564  151.3597 LP  0  0  0  0  0  0  0  0  0  0  0  0  # atno 17370 bound_to 10713
  157.6163  130.8621  149.9034 LP  0  0  0  0  0  0  0  0  0  0  0  0  # atno 17371 bound_to 10713
  141.1420  133.9121  157.2303 LP  0  0  0  0  0  0  0  0  0  0  0  0  # atno 17394 bound_to 11000
  139.9697  135.0132  156.9479 LP  0  0  0  0  0  0  0  0  0  0  0  0  # atno 17395 bound_to 11000

$$$$
