#       Name:                AV-unprocessed.smi:2202
#       Creating user name   scv26
#       Creation time:       Fri Mar 27 12:14:38 2020


#       File generated by GOLD software.
#

@<TRIPOS>MOLECULE
AV-unprocessed.smi:2202
    49    51     1
SMALL
NO_CHARGES


@<TRIPOS>ATOM
      1 ****         0.2423   1.0529   0.4028 O.2            1 S1                 0.0000
      2 ****        -0.1037   0.3551   1.3573 C.2            1 S1                 0.0000
      3 ****        -1.5760  -0.0287   1.5624 C.3            1 S1                 0.0000
      4 ****        -2.3815   0.0970   0.3411 N.am           1 S1                 0.0000
      5 ****        -3.0791   1.1986  -0.0000 C.2            1 S1                 0.0000
      6 ****        -3.2536   2.2096   0.6795 O.2            1 S1                 0.0000
      7 ****        -3.5714   1.0484  -1.4316 C.3            1 S1                 0.0000
      8 ****        -4.9249   1.5917  -1.9054 C.3            1 S1                 0.0000
      9 ****        -5.1955   1.0356  -3.3076 C.2            1 S1                 0.0000
     10 ****        -4.5187  -0.0080  -3.8468 C.2            1 S1                 0.0000
     11 ****        -3.4278  -0.7882  -3.1054 C.3            1 S1                 0.0000
     12 ****        -3.5385  -0.4558  -1.6127 C.3            1 S1                 0.0000
     13 ****        -2.4810  -0.8638  -0.5986 C.2            1 S1                 0.0000
     14 ****        -1.8781  -1.9364  -0.6324 O.2            1 S1                 0.0000
     15 ****         0.7556  -0.1067   2.2778 N.am           1 S1                 0.0000
     16 ****         2.1947   0.1290   2.2709 C.3            1 S1                 0.0000
     17 ****         2.9161  -0.7992   1.2788 C.3            1 S1                 0.0000
     18 ****         4.4179  -0.5861   1.2808 C.ar           1 S1                 0.0000
     19 ****         5.2694  -1.4628   1.9864 C.ar           1 S1                 0.0000
     20 ****         6.6559  -1.2167   1.9603 C.ar           1 S1                 0.0000
     21 ****         7.1347  -0.1085   1.2351 C.ar           1 S1                 0.0000
     22 ****         6.2016   0.7080   0.5654 C.ar           1 S1                 0.0000
     23 ****         4.8704   0.4807   0.5838 N.ar           1 S1                 0.0000
     24 ****        -1.6321  -1.0543   1.9322 H              1 S1                 0.0000
     25 ****        -1.9892   0.5966   2.3557 H              1 S1                 0.0000
     26 ****        -2.7963   1.5056  -2.0514 H              1 S1                 0.0000
     27 ****        -5.7336   1.3044  -1.2327 H              1 S1                 0.0000
     28 ****        -4.9002   2.6808  -1.9470 H              1 S1                 0.0000
     29 ****        -5.9703   1.5232  -3.8807 H              1 S1                 0.0000
     30 ****        -4.7458  -0.3303  -4.8524 H              1 S1                 0.0000
     31 ****        -3.5738  -1.8570  -3.2656 H              1 S1                 0.0000
     32 ****        -2.4487  -0.5240  -3.5068 H              1 S1                 0.0000
     33 ****        -4.4733  -0.8869  -1.2458 H              1 S1                 0.0000
     34 ****         0.3871  -0.6652   3.0340 H              1 S1                 0.0000
     35 ****         2.3996   1.1751   2.0375 H              1 S1                 0.0000
     36 ****         2.5706  -0.0434   3.2799 H              1 S1                 0.0000
     37 ****         2.7012  -1.8412   1.5196 H              1 S1                 0.0000
     38 ****         2.5421  -0.6367   0.2668 H              1 S1                 0.0000
     39 ****         4.8720  -2.3039   2.5355 H              1 S1                 0.0000
     40 ****         7.3394  -1.8655   2.4878 H              1 S1                 0.0000
     41 ****         8.1911   0.1112   1.1932 H              1 S1                 0.0000
     42 ****         6.5330   1.5665   0.0002 H              1 S1                 0.0000
     43 ****        -0.4399   1.3779  -0.2523 LP             1 S1                 0.0000
     44 ****         1.2053   1.2943   0.2830 LP             1 S1                 0.0000
     45 ****        -2.8549   2.2720   1.5944 LP             1 S1                 0.0000
     46 ****        -3.7942   2.9686   0.3167 LP             1 S1                 0.0000
     47 ****        -1.2313  -2.1694   0.0937 LP             1 S1                 0.0000
     48 ****        -2.0352  -2.5747  -1.3860 LP             1 S1                 0.0000
     49 ****         4.2384   1.0832   0.0965 LP             1 S1                 0.0000
@<TRIPOS>BOND
    1    1    2 2     
    2    2    3 1     
    3    2   15 am    
    4    3    4 1     
    5    3   24 1     
    6    3   25 1     
    7    4   13 am    
    8    4    5 am    
    9    5    6 2     
   10    5    7 1     
   11    7   12 1     
   12    7    8 1     
   13    7   26 1     
   14    8    9 1     
   15    8   27 1     
   16    8   28 1     
   17    9   10 2     
   18    9   29 1     
   19   10   11 1     
   20   10   30 1     
   21   11   12 1     
   22   11   31 1     
   23   11   32 1     
   24   12   13 1     
   25   12   33 1     
   26   13   14 2     
   27   15   16 1     
   28   15   34 1     
   29   16   17 1     
   30   16   35 1     
   31   16   36 1     
   32   17   18 1     
   33   17   37 1     
   34   17   38 1     
   35   18   23 ar    
   36   18   19 ar    
   37   19   20 ar    
   38   19   39 1     
   39   20   21 ar    
   40   20   40 1     
   41   21   22 ar    
   42   21   41 1     
   43   22   23 ar    
   44   22   42 1     
   45    1   43 1     
   46    1   44 1     
   47    6   45 1     
   48    6   46 1     
   49   14   47 1     
   50   14   48 1     
   51   23   49 1     
@<TRIPOS>SUBSTRUCTURE
      1 S1             1
@<TRIPOS>SET
LONE_PAIRS      STATIC     ATOMS    <user>   **** ""
7 43 44 45 46 47 48 49
DONOR_HYDROGENS      STATIC     ATOMS    <user>   **** ""
1 34
ATOM$BLUE        STATIC     ATOMS    COLORGROUP SYSTEM
7 43 44 45 46 47 48 49
ATOM$RED        STATIC     ATOMS    COLORGROUP SYSTEM
1 34
