AV-unprocessed.smi:1409|AV-procd|sdf|5727|dock7
  -GOLD-   22720 5363D 1   1.00000     0.00000
 Structure written by MMmdl.
 37 38  0  0  0  0  0  0  0  0  1 V2000
  151.6104  138.2237  154.1781 C   0  0  0  0  0  0  0  0  0  0  0  0
  150.2208  138.2454  153.8710 O   0  0  0  0  0  0  0  0  0  0  0  0
  149.5209  139.4216  154.0624 C   0  0  0  0  0  0  0  0  0  0  0  0
  150.1652  140.4710  154.6321 N   0  0  0  0  0  0  0  0  0  0  0  0
  149.4832  141.6198  154.8178 C   0  0  0  0  0  0  0  0  0  0  0  0
  148.1374  141.7860  154.4430 C   0  0  0  0  0  0  0  0  0  0  0  0
  147.4669  140.6993  153.8517 C   0  0  0  0  0  0  0  0  0  0  0  0
  148.1649  139.4817  153.6645 C   0  0  0  0  0  0  0  0  0  0  0  0
  147.5887  138.3324  153.0570 N   0  0  0  0  0  0  0  0  0  0  0  0
  146.3410  137.8534  153.1944 C   0  0  0  0  0  0  0  0  0  0  0  0
  145.4671  138.3388  153.9127 O   0  0  0  0  0  0  0  0  0  0  0  0
  146.1646  136.7457  152.4607 N   0  0  0  0  0  0  0  0  0  0  0  0
  144.9368  135.9586  152.4119 C   0  0  0  0  0  0  0  0  0  0  0  0
  144.9900  134.8585  151.3330 C   0  0  2  0  0  0  0  0  0  0  0  0
  143.7258  133.9739  151.2935 C   0  0  0  0  0  0  0  0  0  0  0  0
  144.0081  132.7592  150.4052 C   0  0  0  0  0  0  0  0  0  0  0  0
  145.7715  132.3516  150.6793 S   0  0  0  0  0  0  0  0  0  0  0  0
  145.8746  131.2619  151.6616 O   0  0  0  0  0  0  0  0  0  0  0  0
  146.4525  132.2656  149.3786 O   0  0  0  0  0  0  0  0  0  0  0  0
  146.2065  133.9329  151.5005 C   0  0  0  0  0  0  0  0  0  0  0  0
  152.0073  137.2281  153.9808 H   0  0  0  0  0  0  0  0  0  0  0  0
  151.7913  138.4480  155.2303 H   0  0  0  0  0  0  0  0  0  0  0  0
  152.1664  138.9301  153.5598 H   0  0  0  0  0  0  0  0  0  0  0  0
  150.0287  142.4333  155.2729 H   0  0  0  0  0  0  0  0  0  0  0  0
  147.6324  142.7277  154.6002 H   0  0  0  0  0  0  0  0  0  0  0  0
  146.4411  140.8240  153.5408 H   0  0  0  0  0  0  0  0  0  0  0  0
  148.2241  137.7708  152.5091 H   0  0  0  0  0  0  0  0  0  0  0  0
  146.9383  136.4173  151.9015 H   0  0  0  0  0  0  0  0  0  0  0  0
  144.7393  135.5188  153.3911 H   0  0  0  0  0  0  0  0  0  0  0  0
  144.1098  136.6399  152.2100 H   0  0  0  0  0  0  0  0  0  0  0  0
  145.0819  135.3331  150.3548 H   0  0  0  0  0  0  0  0  0  0  0  0
  143.4986  133.6279  152.3027 H   0  0  0  0  0  0  0  0  0  0  0  0
  142.8530  134.5244  150.9408 H   0  0  0  0  0  0  0  0  0  0  0  0
  143.3792  131.8999  150.6383 H   0  0  0  0  0  0  0  0  0  0  0  0
  143.8798  133.0135  149.3528 H   0  0  0  0  0  0  0  0  0  0  0  0
  147.1154  134.3456  151.0623 H   0  0  0  0  0  0  0  0  0  0  0  0
  146.3976  133.7168  152.5519 H   0  0  0  0  0  0  0  0  0  0  0  0
  1  2  1  0  0  0  0
  1 21  1  0  0  0  0
  1 22  1  0  0  0  0
  1 23  1  0  0  0  0
  2  3  1  0  0  0  0
  3  8  1  0  0  0  0
  3  4  2  0  0  0  0
  4  5  1  0  0  0  0
  5  6  2  0  0  0  0
  5 24  1  0  0  0  0
  6  7  1  0  0  0  0
  6 25  1  0  0  0  0
  7  8  2  0  0  0  0
  7 26  1  0  0  0  0
  8  9  1  0  0  0  0
  9 10  1  0  0  0  0
  9 27  1  0  0  0  0
 10 11  2  0  0  0  0
 10 12  1  0  0  0  0
 12 13  1  0  0  0  0
 12 28  1  0  0  0  0
 13 14  1  0  0  0  0
 13 29  1  0  0  0  0
 13 30  1  0  0  0  0
 14 20  1  0  0  0  0
 14 15  1  0  0  0  0
 14 31  1  0  0  0  0
 15 16  1  0  0  0  0
 15 32  1  0  0  0  0
 15 33  1  0  0  0  0
 16 17  1  0  0  0  0
 16 34  1  0  0  0  0
 16 35  1  0  0  0  0
 17 18  2  0  0  0  0
 17 19  2  0  0  0  0
 17 20  1  0  0  0  0
 20 36  1  0  0  0  0
 20 37  1  0  0  0  0
M  END
> <s_m_source_file>
AV-unprocessed.smi

> <i_m_source_file_index>
1409

> <i_lp_mmshare_version>
43012

> <i_f3d_flags>
0

> <s_epik_input>
W0NIM11PYzFuW2NIXVtjSF1bY0hdYzFbTkhdQyg9TylbTkhdW0NIMl1bQ0BASF0oW0NIMl0yKVtDSDJdW0NIMl1TMig9Tyk9Tw==

> <s_epik_cmdline>
J2VwaWtfcHl0aG9uJywgJy1waCcsICc3LjAnLCAnLXRuJywgJzgnLCAnLW1hJywgJzIwMCcsICctbWV0YWxfYmluZGluZycsICctaW1hZScsICc8aW5maWxlLm1hZT4nLCAnLW9tYWUnLCAnPG91dGZpbGUubWFlPic=

> <r_lp_tautomer_probability>
1

> <r_epik_Ionization_Penalty>
9.0549e-05

> <r_epik_Ionization_Penalty_Charging>
0

> <r_epik_Ionization_Penalty_Neutral>
9.0549e-05

> <r_epik_State_Penalty>
-0

> <r_epik_Charging_Adjusted_Penalty>
0

> <i_epik_Tot_Q>
0

> <i_epik_Tot_abs_Q>
0

> <r_epik_Metal_State_Penalty>
-0

> <b_epik_Metal_Only>
0

> <s_lp_Force_Field>
OPLS_2005

> <r_lp_Energy>
8.54576

> <b_lp_Chiralities_Consistent>
1

> <s_lp_Variant>
AV-unprocessed.smi:1409-1

> <Gold.Version>
5.8.1

> <Gold.Id.Protein>
6NUR|6NUR_protein|mol2

> <Gold.PLP.Fitness>
42.2088

> <Gold.PLP.PLP>
-31.6303

> <Gold.PLP.part.hbond>
-3.2370

> <Gold.PLP.part.metal>
0.0000

> <Gold.PLP.part.buried>
-3.1233

> <Gold.PLP.part.nonpolar>
-28.2757

> <Gold.PLP.part.repulsive>
3.6027

> <Gold.PLP.ligand.clash>
0.0000

> <Gold.PLP.ligand.torsion>
0.3442

> <Gold.PLP.Chemscore.Hbond>
2.9200

> <Gold.PLP.Chemscore.CHOScore>
0.8334

> <Gold.PLP.Chemscore.Metal>
0.0000

> <Gold.Chemscore.Hbonds>
donor molecule, donor type, donor heavy atom, donor atom, acceptor molecule, acceptor atom, score
      L1  H     9    27       P1  7948  1.00
      L1  H    12    28       P1  7948  0.90
      P1  H  7989  7998       L1     4  0.94
      L1  C     5    24       P1  8028  0.71

> <Gold.PLP.Chemscore.Internal.Correction>
0.0068

> <Gold.Rescore>
     Score         DG    S(hbond)    S(metal)    S(lipo)     H(rot)  DE(clash)    DE(int)     intcor
     13.08     -15.74       1.95        0.00      66.81       1.59       1.54       1.12       ----

> <Gold.Chemscore.Fitness>
13.0846

> <Gold.Chemscore.DG>
-15.7441

> <Gold.Chemscore.ZeroCoef>
-5.4800

> <Gold.Chemscore.Hbond>
1.9530

> <Gold.Chemscore.Metal>
0.0000

> <Gold.Chemscore.Lipo>
66.8071

> <Gold.Chemscore.Internal_Hbond>
0.0000

> <Gold.Chemscore.DEClash>
1.5436

> <Gold.Chemscore.DEInternal>
1.1158

> <Gold.Chemscore.Rot>
1.5919

> <Gold.Chemscore.Internal.Correction>
   9.000000E+99

> <Gold.Chemscore.Hbonds>
donor molecule, donor type, donor heavy atom, donor atom, acceptor molecule, acceptor atom, score
      L1  H     9    27       P1  7948  0.99
      L1  H    12    28       P1  7948  0.85
      P1  H  7989  7998       L1     4  0.28

> <Gold.Chemscore.Hbond.Weighted>
-6.5230

> <Gold.Chemscore.Metal.Weighted>
-0.0000

> <Gold.Chemscore.Lipo.Weighted>
-7.8164

> <Gold.Chemscore.Internal_Hbond.Weighted>
0.0000

> <Gold.Chemscore.DEClash.Weighted>
1.5436

> <Gold.Chemscore.DEInternal.Weighted>
1.1158

> <Gold.Chemscore.Rot.Weighted>
4.0754

> <Gold.Chemscore.Internal.Correction.Weighted>
   9.000000E+99

> <Gold.Protein.RotatedTorsions>
[ 6907 6896 6895 6894 ] final  114.68 input  -60.11 | X-H torsion
[ 7974 7965 7964 7962 ] final  151.59 input  175.53 | X-H torsion
[ 8008 7997 7996 7995 ] final   30.27 input   59.86 | X-H torsion
[ 10167 10162 10161 10158 ] final -155.59 input  -65.29 | X-H torsion
[ 10718 10713 10712 10709 ] final  156.72 input   66.30 | X-H torsion
[ 10763 10752 10751 10750 ] final  122.70 input  -60.55 | X-H torsion
[ 11005 11000 10999 10996 ] final  138.63 input  -57.11 | X-H torsion

> <Gold.Protein.ActiveResidues>
 VAL166  LYS551  ARG553  GLY616  TRP617  ASP618  TYR619  PRO620  LYS621  CYS622 
 ASP623  PHE694  ASN695  SER759  ASP760  ASP761  ALA762  ILE779  LEU786  VAL792 
 PHE793  MET794  SER795  GLU796  ALA797  LYS798  CYS799  TRP800  GLU811  SER814 

> <Gold.Protein.RotatedAtoms>
  152.4788  133.8203  159.7049 H   0  0  0  0  0  0  0  0  0  0  0  0  # atno 6907 bound_to 6896
  150.8823  133.7346  159.2935 H   0  0  0  0  0  0  0  0  0  0  0  0  # atno 6908 bound_to 6896
  151.4846  135.1058  159.9839 H   0  0  0  0  0  0  0  0  0  0  0  0  # atno 6909 bound_to 6896
  144.8281  139.6558  143.6071 H   0  0  0  0  0  0  0  0  0  0  0  0  # atno 7974 bound_to 7965
  155.0877  140.3217  155.4583 H   0  0  0  0  0  0  0  0  0  0  0  0  # atno 8008 bound_to 7997
  156.2751  140.2083  156.5951 H   0  0  0  0  0  0  0  0  0  0  0  0  # atno 8009 bound_to 7997
  154.6928  140.0515  157.0368 H   0  0  0  0  0  0  0  0  0  0  0  0  # atno 8010 bound_to 7997
  139.6918  143.9407  152.2388 H   0  0  0  0  0  0  0  0  0  0  0  0  # atno 10167 bound_to 10162
  157.2011  131.0676  151.2024 H   0  0  0  0  0  0  0  0  0  0  0  0  # atno 10718 bound_to 10713
  153.6339  135.3391  155.3050 H   0  0  0  0  0  0  0  0  0  0  0  0  # atno 10763 bound_to 10752
  154.8574  135.4302  154.2076 H   0  0  0  0  0  0  0  0  0  0  0  0  # atno 10764 bound_to 10752
  153.2979  135.7022  153.7305 H   0  0  0  0  0  0  0  0  0  0  0  0  # atno 10765 bound_to 10752
  140.0197  134.9402  157.0449 H   0  0  0  0  0  0  0  0  0  0  0  0  # atno 11005 bound_to 11000
  146.2586  139.6358  142.9378 LP  0  0  0  0  0  0  0  0  0  0  0  0  # atno 17320 bound_to 7965
  145.4955  141.0438  143.2569 LP  0  0  0  0  0  0  0  0  0  0  0  0  # atno 17321 bound_to 7965
  139.9226  144.6790  150.8446 LP  0  0  0  0  0  0  0  0  0  0  0  0  # atno 17342 bound_to 10162
  140.7685  143.3364  151.2299 LP  0  0  0  0  0  0  0  0  0  0  0  0  # atno 17343 bound_to 10162
  157.3766  130.7209  149.6601 LP  0  0  0  0  0  0  0  0  0  0  0  0  # atno 17370 bound_to 10713
  155.9700  130.4184  150.4325 LP  0  0  0  0  0  0  0  0  0  0  0  0  # atno 17371 bound_to 10713
  140.4409  134.1682  155.7174 LP  0  0  0  0  0  0  0  0  0  0  0  0  # atno 17394 bound_to 11000
  141.1766  133.8502  157.1401 LP  0  0  0  0  0  0  0  0  0  0  0  0  # atno 17395 bound_to 11000

$$$$
