AV-unprocessed.smi:54|AV-procd|sdf|545|dock7
  -GOLD-   2262016433D 1   1.00000     0.00000
 Structure written by MMmdl.
 43 45  0  0  0  0  0  0  0  0  2 V2000
  145.9942  136.6309  161.8927 C   0  0  0  0  0  0  0  0  0  0  0  0
  146.9545  135.5721  161.3260 C   0  0  0  0  0  0  0  0  0  0  0  0
  147.6087  134.7534  162.4516 C   0  0  0  0  0  0  0  0  0  0  0  0
  148.0223  136.2274  160.4382 C   0  0  0  0  0  0  0  0  0  0  0  0
  148.8494  136.9816  160.9550 O   0  0  0  0  0  0  0  0  0  0  0  0
  147.9640  135.8985  159.1280 N   0  0  0  0  0  0  0  0  0  0  0  0
  148.7872  136.3076  158.0714 C   0  0  0  0  0  0  0  0  0  0  0  0
  148.1726  137.0876  157.2149 N   0  0  0  0  0  0  0  0  0  0  0  0
  148.9954  137.4937  156.1819 C   0  0  0  0  0  0  0  0  0  0  0  0
  150.3134  137.1843  155.9881 C   0  0  0  0  0  0  0  0  0  0  0  0
  150.8133  137.7841  154.8386 N   0  0  0  0  0  0  0  0  0  0  0  0
  149.7483  138.4410  154.3827 C   0  0  0  0  0  0  0  0  0  0  0  0
  148.6287  138.3188  155.1257 N   0  0  0  0  0  0  0  0  0  0  0  0
  147.2883  138.9392  154.8880 C   0  0  2  0  0  0  0  0  0  0  0  0
  146.3525  137.9067  154.7628 O   0  0  0  0  0  0  0  0  0  0  0  0
  145.7530  137.9092  153.4671 C   0  0  2  0  0  0  0  0  0  0  0  0
  145.4995  136.4664  153.0039 C   0  0  0  0  0  0  0  0  0  0  0  0
  146.6853  135.7090  153.1110 O   0  0  0  0  0  0  0  0  0  0  0  0
  146.7629  138.6622  152.5992 C   0  0  1  0  0  0  0  0  0  0  0  0
  146.1877  139.2319  151.4387 O   0  0  0  0  0  0  0  0  0  0  0  0
  147.3122  139.7057  153.5616 C   0  0  1  0  0  0  0  0  0  0  0  0
  146.5122  140.8710  153.6379 O   0  0  0  0  0  0  0  0  0  0  0  0
  150.9499  136.3077  156.9981 C   0  0  0  0  0  0  0  0  0  0  0  0
  152.1338  136.0042  156.8663 O   0  0  0  0  0  0  0  0  0  0  0  0
  150.1370  135.9045  158.0200 N   0  5  0  0  0  0  0  0  0  0  0  0
  147.1074  139.5551  155.7700 H   0  0  0  0  0  0  0  0  0  0  0  0
  144.8224  138.4779  153.5144 H   0  0  0  0  0  0  0  0  0  0  0  0
  147.5693  137.9898  152.3019 H   0  0  0  0  0  0  0  0  0  0  0  0
  148.3275  140.0103  153.3025 H   0  0  0  0  0  0  0  0  0  0  0  0
  145.5261  137.2084  161.0945 H   0  0  0  0  0  0  0  0  0  0  0  0
  146.5104  137.3305  162.5516 H   0  0  0  0  0  0  0  0  0  0  0  0
  145.1955  136.1634  162.4688 H   0  0  0  0  0  0  0  0  0  0  0  0
  146.3690  134.8853  160.7124 H   0  0  0  0  0  0  0  0  0  0  0  0
  148.3000  134.0110  162.0507 H   0  0  0  0  0  0  0  0  0  0  0  0
  146.8559  134.2192  163.0318 H   0  0  0  0  0  0  0  0  0  0  0  0
  148.1656  135.3896  163.1408 H   0  0  0  0  0  0  0  0  0  0  0  0
  147.2505  135.2239  158.8951 H   0  0  0  0  0  0  0  0  0  0  0  0
  149.7889  139.0329  153.4811 H   0  0  0  0  0  0  0  0  0  0  0  0
  144.7510  135.9942  153.6408 H   0  0  0  0  0  0  0  0  0  0  0  0
  145.1209  136.4349  151.9822 H   0  0  0  0  0  0  0  0  0  0  0  0
  147.3991  136.2154  152.7545 H   0  0  0  0  0  0  0  0  0  0  0  0
  145.4318  139.7367  151.6977 H   0  0  0  0  0  0  0  0  0  0  0  0
  145.6615  140.6722  153.2771 H   0  0  0  0  0  0  0  0  0  0  0  0
  1  2  1  0  0  0  0
  1 30  1  0  0  0  0
  1 31  1  0  0  0  0
  1 32  1  0  0  0  0
  2  3  1  0  0  0  0
  2  4  1  0  0  0  0
  2 33  1  0  0  0  0
  3 34  1  0  0  0  0
  3 35  1  0  0  0  0
  3 36  1  0  0  0  0
  4  5  2  0  0  0  0
  4  6  1  0  0  0  0
  6 37  1  0  0  0  0
  6  7  1  0  0  0  0
  7 25  1  0  0  0  0
  7  8  2  0  0  0  0
  8  9  1  0  0  0  0
  9 13  1  0  0  0  0
  9 10  2  0  0  0  0
 10 11  1  0  0  0  0
 10 23  1  0  0  0  0
 11 12  2  0  0  0  0
 12 13  1  0  0  0  0
 12 38  1  0  0  0  0
 13 14  1  0  0  0  0
 14 26  1  0  0  0  0
 14 21  1  0  0  0  0
 14 15  1  0  0  0  0
 15 16  1  0  0  0  0
 16 27  1  0  0  0  0
 16 17  1  0  0  0  0
 16 19  1  0  0  0  0
 17 18  1  0  0  0  0
 17 39  1  0  0  0  0
 17 40  1  0  0  0  0
 18 41  1  0  0  0  0
 19 28  1  0  0  0  0
 19 20  1  0  0  0  0
 19 21  1  0  0  0  0
 20 42  1  0  0  0  0
 21 29  1  0  0  0  0
 21 22  1  0  0  0  0
 22 43  1  0  0  0  0
 23 24  2  0  0  0  0
 23 25  1  0  0  0  0
M  CHG  1  25  -1
M  END
> <s_m_source_file>
AV-unprocessed.smi

> <i_m_source_file_index>
54

> <i_lp_mmshare_version>
43012

> <i_f3d_flags>
0

> <s_epik_input>
W0NIM11bQ0hdKFtDSDNdKUMoPU8pW05IXWMobjEpW25IXWMoPU8pYyhjMTIpbltjSF1uMltDQEBIXTNPW0NASF0oW0NIMl1bT0hdKVtDQEBIXShbT0hdKVtDQEhdM1tPSF0=

> <s_epik_cmdline>
J2VwaWtfcHl0aG9uJywgJy1waCcsICc3LjAnLCAnLXRuJywgJzgnLCAnLW1hJywgJzIwMCcsICctbWV0YWxfYmluZGluZycsICctaW1hZScsICc8aW5maWxlLm1hZT4nLCAnLW9tYWUnLCAnPG91dGZpbGUubWFlPic=

> <r_lp_tautomer_probability>
0.85571

> <r_epik_Ionization_Penalty>
1.75936

> <r_epik_Ionization_Penalty_Charging>
4.55893e-11

> <r_epik_Ionization_Penalty_Neutral>
1.75936

> <r_epik_State_Penalty>
1.72072

> <r_epik_Charging_Adjusted_Penalty>
1.72072

> <i_epik_Tot_Q>
-1

> <i_epik_Tot_abs_Q>
1

> <r_epik_Metal_State_Penalty>
0.400338

> <b_epik_Metal_Only>
1

> <s_epik_Chemistry_Notes>
This compound contains an acetal/aminal-like group ( X-CH(R)-Y where X, Y are N, S, or O) that may be acid/base labile, releasing an aldehyde.

> <s_lp_Force_Field>
OPLS_2005

> <r_lp_Energy>
58.3918

> <b_lp_Chiralities_Consistent>
1

> <s_lp_Variant>
AV-unprocessed.smi:54-17

> <Gold.Version>
5.8.1

> <Gold.Id.Protein>
6NUR|6NUR_protein|mol2

> <Gold.PLP.Fitness>
49.5282

> <Gold.PLP.PLP>
-29.7794

> <Gold.PLP.part.hbond>
-6.6187

> <Gold.PLP.part.metal>
0.0000

> <Gold.PLP.part.buried>
-7.7201

> <Gold.PLP.part.nonpolar>
-17.9416

> <Gold.PLP.part.repulsive>
0.3139

> <Gold.PLP.ligand.clash>
0.0000

> <Gold.PLP.ligand.torsion>
0.7166

> <Gold.PLP.Chemscore.Hbond>
6.0483

> <Gold.PLP.Chemscore.CHOScore>
1.0000

> <Gold.PLP.Chemscore.Metal>
0.0000

> <Gold.Chemscore.Hbonds>
donor molecule, donor type, donor heavy atom, donor atom, acceptor molecule, acceptor atom, score
      L1  H    18    41       P1  7948  0.94
      L1  H    20    42       P1 10175  1.00
      L1  H    22    43       P1 10175  0.73
      P1  H  6896  6907       L1    25  1.57
      P1  H  6931  6943       L1     5  0.94
      P1  H 10752 10765       L1    24  0.80
      L1  C    12    38       P1  7957  1.00

> <Gold.PLP.Chemscore.Internal.Correction>
0.0371

> <Gold.Rescore>
     Score         DG    S(hbond)    S(metal)    S(lipo)     H(rot)  DE(clash)    DE(int)     intcor
     17.58     -18.46       5.39        0.00      45.01       4.02       0.17       0.71       ----

> <Gold.Chemscore.Fitness>
17.5788

> <Gold.Chemscore.DG>
-18.4599

> <Gold.Chemscore.ZeroCoef>
-5.4800

> <Gold.Chemscore.Hbond>
5.3903

> <Gold.Chemscore.Metal>
0.0000

> <Gold.Chemscore.Lipo>
45.0054

> <Gold.Chemscore.Internal_Hbond>
0.0000

> <Gold.Chemscore.DEClash>
0.1662

> <Gold.Chemscore.DEInternal>
0.7149

> <Gold.Chemscore.Rot>
4.0192

> <Gold.Chemscore.Internal.Correction>
   9.000000E+99

> <Gold.Chemscore.Hbonds>
donor molecule, donor type, donor heavy atom, donor atom, acceptor molecule, acceptor atom, score
      L1  H    18    41       P1  7948  0.91
      L1  H    20    42       P1 10175  0.56
      L1  H    22    43       P1 10175  0.60
      P1  H  6896  6907       L1    25  0.68
      P1  H  6931  6943       L1     5  0.89
      P1  H 10752 10765       L1    24  0.79

> <Gold.Chemscore.Hbond.Weighted>
-18.0036

> <Gold.Chemscore.Metal.Weighted>
-0.0000

> <Gold.Chemscore.Lipo.Weighted>
-5.2656

> <Gold.Chemscore.Internal_Hbond.Weighted>
0.0000

> <Gold.Chemscore.DEClash.Weighted>
0.1662

> <Gold.Chemscore.DEInternal.Weighted>
0.7149

> <Gold.Chemscore.Rot.Weighted>
10.2893

> <Gold.Chemscore.Internal.Correction.Weighted>
   9.000000E+99

> <Gold.Protein.RotatedTorsions>
[ 6907 6896 6895 6894 ] final  -58.37 input  -60.11 | X-H torsion
[ 7974 7965 7964 7962 ] final -179.27 input  175.53 | X-H torsion
[ 8008 7997 7996 7995 ] final    0.64 input   59.86 | X-H torsion
[ 10167 10162 10161 10158 ] final   42.75 input  -65.29 | X-H torsion
[ 10718 10713 10712 10709 ] final   54.98 input   66.30 | X-H torsion
[ 10763 10752 10751 10750 ] final -136.56 input  -60.55 | X-H torsion
[ 11005 11000 10999 10996 ] final  -92.31 input  -57.11 | X-H torsion

> <Gold.Protein.ActiveResidues>
 VAL166  LYS551  ARG553  GLY616  TRP617  ASP618  TYR619  PRO620  LYS621  CYS622 
 ASP623  PHE694  ASN695  SER759  ASP760  ASP761  ALA762  ILE779  LEU786  VAL792 
 PHE793  MET794  SER795  GLU796  ALA797  LYS798  CYS799  TRP800  GLU811  SER814 

> <Gold.Protein.RotatedAtoms>
  150.8012  134.7107  159.6601 H   0  0  0  0  0  0  0  0  0  0  0  0  # atno 6907 bound_to 6896
  152.4129  134.6089  160.0030 H   0  0  0  0  0  0  0  0  0  0  0  0  # atno 6908 bound_to 6896
  151.6327  133.3294  159.3148 H   0  0  0  0  0  0  0  0  0  0  0  0  # atno 6909 bound_to 6896
  144.7135  140.0743  143.6428 H   0  0  0  0  0  0  0  0  0  0  0  0  # atno 7974 bound_to 7965
  154.6705  140.2610  155.7013 H   0  0  0  0  0  0  0  0  0  0  0  0  # atno 8008 bound_to 7997
  156.2656  140.2830  156.1134 H   0  0  0  0  0  0  0  0  0  0  0  0  # atno 8009 bound_to 7997
  155.1176  140.0376  157.2731 H   0  0  0  0  0  0  0  0  0  0  0  0  # atno 8010 bound_to 7997
  140.3512  144.2347  150.6145 H   0  0  0  0  0  0  0  0  0  0  0  0  # atno 10167 bound_to 10162
  157.5304  130.8627  149.8680 H   0  0  0  0  0  0  0  0  0  0  0  0  # atno 10718 bound_to 10713
  154.8681  135.3669  154.5081 H   0  0  0  0  0  0  0  0  0  0  0  0  # atno 10763 bound_to 10752
  153.5718  135.7020  153.5506 H   0  0  0  0  0  0  0  0  0  0  0  0  # atno 10764 bound_to 10752
  153.3535  135.4065  155.1627 H   0  0  0  0  0  0  0  0  0  0  0  0  # atno 10765 bound_to 10752
  141.1525  133.7812  157.0002 H   0  0  0  0  0  0  0  0  0  0  0  0  # atno 11005 bound_to 11000
  145.9756  139.2902  143.1072 LP  0  0  0  0  0  0  0  0  0  0  0  0  # atno 17320 bound_to 7965
  145.9067  140.9207  143.0475 LP  0  0  0  0  0  0  0  0  0  0  0  0  # atno 17321 bound_to 7965
  140.5217  143.2264  151.8378 LP  0  0  0  0  0  0  0  0  0  0  0  0  # atno 17342 bound_to 10162
  139.4826  144.4829  151.9284 LP  0  0  0  0  0  0  0  0  0  0  0  0  # atno 17343 bound_to 10162
  156.0418  130.3737  150.1415 LP  0  0  0  0  0  0  0  0  0  0  0  0  # atno 17370 bound_to 10713
  156.9600  130.9802  151.3481 LP  0  0  0  0  0  0  0  0  0  0  0  0  # atno 17371 bound_to 10713
  140.0945  134.9572  157.1828 LP  0  0  0  0  0  0  0  0  0  0  0  0  # atno 17394 bound_to 11000
  140.3401  134.2714  155.7213 LP  0  0  0  0  0  0  0  0  0  0  0  0  # atno 17395 bound_to 11000

$$$$
