#       Name:                AV-unprocessed.smi:3140
#       Creating user name   scv26
#       Creation time:       Fri Mar 27 17:35:48 2020


#       File generated by GOLD software.
#

@<TRIPOS>MOLECULE
AV-unprocessed.smi:3140
    41    42     1
SMALL
NO_CHARGES


@<TRIPOS>ATOM
      1 ****        -2.4698  -2.0173   0.9588 C.3            1 S1                 0.0000
      2 ****        -1.9371  -1.2523  -0.2644 C.3            1 S1                 0.0000
      3 ****        -2.3880  -1.9323  -1.5724 C.3            1 S1                 0.0000
      4 ****        -2.0625  -1.1433  -2.7478 N.pl3          1 S1                 0.0000
      5 ****        -2.8434  -0.2092  -3.3955 C.2            1 S1                 0.0000
      6 ****        -2.1125   0.2754  -4.4422 C.2            1 S1                 0.0000
      7 ****        -0.8822  -0.4338  -4.3534 C.2            1 S1                 0.0000
      8 ****        -0.8544  -1.2805  -3.3367 N.2            1 S1                 0.0000
      9 ****        -0.4600  -1.1491  -0.2250 N.4            1 S1                 1.0000
     10 ****         0.0850  -0.1871   0.7540 C.3            1 S1                 0.0000
     11 ****         1.6066  -0.0512   0.5929 C.3            1 S1                 0.0000
     12 ****         2.1667   0.8887   1.5599 N.am           1 S1                 0.0000
     13 ****         2.5951   2.2154   1.1495 C.3            1 S1                 0.0000
     14 ****         2.9243   2.9481   2.4583 C.3            1 S1                 0.0000
     15 ****         3.0112   1.8600   3.5342 C.3            1 S1                 0.0000
     16 ****         2.3929   0.6488   2.8567 C.2            1 S1                 0.0000
     17 ****         2.1468  -0.3989   3.4524 O.2            1 S1                 0.0000
     18 ****        -3.5542  -2.1208   0.9123 H              1 S1                 0.0000
     19 ****        -2.2392  -1.5023   1.8912 H              1 S1                 0.0000
     20 ****        -2.0444  -3.0198   1.0161 H              1 S1                 0.0000
     21 ****        -2.3546  -0.2442  -0.2505 H              1 S1                 0.0000
     22 ****        -1.9378  -2.9217  -1.6715 H              1 S1                 0.0000
     23 ****        -3.4683  -2.0842  -1.5628 H              1 S1                 0.0000
     24 ****        -3.8422   0.0313  -3.0615 H              1 S1                 0.0000
     25 ****        -2.4119   1.0215  -5.1635 H              1 S1                 0.0000
     26 ****        -0.0141  -0.3582  -4.9917 H              1 S1                 0.0000
     27 ****        -0.0705  -2.0641  -0.0479 H              1 S1                 0.0000
     28 ****        -0.3876   0.7853   0.6087 H              1 S1                 0.0000
     29 ****        -0.1580  -0.5180   1.7637 H              1 S1                 0.0000
     30 ****         2.0881  -1.0229   0.7159 H              1 S1                 0.0000
     31 ****         1.8464   0.2849  -0.4169 H              1 S1                 0.0000
     32 ****         3.4793   2.1293   0.5165 H              1 S1                 0.0000
     33 ****         1.8171   2.7290   0.5832 H              1 S1                 0.0000
     34 ****         3.8492   3.5208   2.3797 H              1 S1                 0.0000
     35 ****         2.1254   3.6484   2.7062 H              1 S1                 0.0000
     36 ****         4.0467   1.6395   3.7955 H              1 S1                 0.0000
     37 ****         2.4702   2.1317   4.4411 H              1 S1                 0.0000
     38 ****        -0.1580  -0.8487  -1.1415 H              1 S1                 0.0000
     39 ****        -0.1065  -1.8862  -3.0652 LP             1 S1                 0.0000
     40 ****         1.7397  -1.1693   2.9617 LP             1 S1                 0.0000
     41 ****         2.3538  -0.4802   4.4273 LP             1 S1                 0.0000
@<TRIPOS>BOND
    1    1    2 1     
    2    1   18 1     
    3    1   19 1     
    4    1   20 1     
    5    2    3 1     
    6    2    9 1     
    7    2   21 1     
    8    3    4 1     
    9    3   22 1     
   10    3   23 1     
   11    4    8 1     
   12    4    5 1     
   13    5    6 2     
   14    5   24 1     
   15    6    7 1     
   16    6   25 1     
   17    7    8 2     
   18    7   26 1     
   19    9   10 1     
   20    9   27 1     
   21    9   38 1     
   22   10   11 1     
   23   10   28 1     
   24   10   29 1     
   25   11   12 1     
   26   11   30 1     
   27   11   31 1     
   28   12   16 am    
   29   12   13 1     
   30   13   14 1     
   31   13   32 1     
   32   13   33 1     
   33   14   15 1     
   34   14   34 1     
   35   14   35 1     
   36   15   16 1     
   37   15   36 1     
   38   15   37 1     
   39   16   17 2     
   40    8   39 1     
   41   17   40 1     
   42   17   41 1     
@<TRIPOS>SUBSTRUCTURE
      1 S1             1
@<TRIPOS>SET
LONE_PAIRS      STATIC     ATOMS    <user>   **** ""
3 39 40 41
DONOR_HYDROGENS      STATIC     ATOMS    <user>   **** ""
2 27 38
ATOM$BLUE        STATIC     ATOMS    COLORGROUP SYSTEM
3 39 40 41
ATOM$RED        STATIC     ATOMS    COLORGROUP SYSTEM
2 27 38
