AV-unprocessed.smi:215|AV-procd|sdf|1654|dock5
  -GOLD-   2262020 43D 1   1.00000     0.00000
 Structure written by MMmdl.
 59 62  0  0  0  0  0  0  0  0  2 V2000
  155.1754  135.2009  159.7080 C   0  0  0  0  0  0  0  0  0  0  0  0
  155.2346  136.1157  160.9480 C   0  0  2  0  0  0  0  0  0  0  0  0
  155.8834  135.5038  162.2045 C   0  0  2  0  0  0  0  0  0  0  0  0
  155.7146  134.0226  162.3512 N   0  3  1  0  0  0  0  0  0  0  0  0
  156.6513  133.2763  161.4749 C   0  0  0  0  0  0  0  0  0  0  0  0
  155.6988  133.5123  163.7526 C   0  0  0  0  0  0  0  0  0  0  0  0
  154.3446  133.7104  164.4570 C   0  0  0  0  0  0  0  0  0  0  0  0
  154.5252  133.7984  165.8544 O   0  0  0  0  0  0  0  0  0  0  0  0
  155.2868  136.3357  163.3507 C   0  0  0  0  0  0  0  0  0  0  0  0
  153.9450  136.8599  162.8225 C   0  0  0  0  0  0  0  0  0  0  0  0
  153.9361  136.6286  161.3820 N   0  0  0  0  0  0  0  0  0  0  0  0
  153.2274  137.5130  160.6323 C   0  0  0  0  0  0  0  0  0  0  0  0
  152.1594  137.0865  159.9077 N   0  0  0  0  0  0  0  0  0  0  0  0
  151.4607  137.9455  159.1602 C   0  0  0  0  0  0  0  0  0  0  0  0
  151.6504  139.2557  158.9992 N   0  0  0  0  0  0  0  0  0  0  0  0
  152.7161  139.6942  159.7281 C   0  0  0  0  0  0  0  0  0  0  0  0
  153.5562  138.8968  160.5566 C   0  0  0  0  0  0  0  0  0  0  0  0
  154.5426  139.6910  161.1301 N   0  0  0  0  0  0  0  0  0  0  0  0
  154.3042  140.8856  160.6609 C   0  0  0  0  0  0  0  0  0  0  0  0
  153.2065  140.9836  159.8358 N   0  0  0  0  0  0  0  0  0  0  0  0
  152.7352  142.1589  159.1637 C   0  0  0  0  0  0  0  0  0  0  0  0
  153.4358  143.5094  159.3326 C   0  0  0  0  0  0  0  0  0  0  0  0
  152.0755  144.2266  159.1849 C   0  0  0  0  0  0  0  0  0  0  0  0
  151.8496  145.4056  160.1459 C   0  0  0  0  0  0  0  0  0  0  0  0
  150.4719  145.6587  160.3323 O   0  0  0  0  0  0  0  0  0  0  0  0
  151.7160  144.6653  157.7509 C   0  0  0  0  0  0  0  0  0  0  0  0
  151.1771  143.5943  157.0021 O   0  0  0  0  0  0  0  0  0  0  0  0
  151.4682  142.8780  159.6323 C   0  0  0  0  0  0  0  0  0  0  0  0
  155.8414  136.9835  160.6842 H   0  0  0  0  0  0  0  0  0  0  0  0
  156.9552  135.6970  162.1373 H   0  0  0  0  0  0  0  0  0  0  0  0
  156.1597  134.7911  159.4804 H   0  0  0  0  0  0  0  0  0  0  0  0
  154.8413  135.7420  158.8235 H   0  0  0  0  0  0  0  0  0  0  0  0
  154.4897  134.3670  159.8510 H   0  0  0  0  0  0  0  0  0  0  0  0
  157.6811  133.3861  161.8161 H   0  0  0  0  0  0  0  0  0  0  0  0
  156.5953  133.6360  160.4471 H   0  0  0  0  0  0  0  0  0  0  0  0
  156.4152  132.2140  161.4434 H   0  0  0  0  0  0  0  0  0  0  0  0
  155.9645  132.4546  163.7607 H   0  0  0  0  0  0  0  0  0  0  0  0
  156.4521  134.0214  164.3511 H   0  0  0  0  0  0  0  0  0  0  0  0
  153.8111  134.5886  164.0960 H   0  0  0  0  0  0  0  0  0  0  0  0
  153.7013  132.8539  164.2533 H   0  0  0  0  0  0  0  0  0  0  0  0
  155.2453  134.3858  166.0295 H   0  0  0  0  0  0  0  0  0  0  0  0
  155.1907  135.7952  164.2924 H   0  0  0  0  0  0  0  0  0  0  0  0
  155.9400  137.1878  163.5422 H   0  0  0  0  0  0  0  0  0  0  0  0
  153.1205  136.3071  163.2733 H   0  0  0  0  0  0  0  0  0  0  0  0
  153.8127  137.9149  163.0677 H   0  0  0  0  0  0  0  0  0  0  0  0
  150.6295  137.5229  158.6150 H   0  0  0  0  0  0  0  0  0  0  0  0
  154.9225  141.7346  160.9146 H   0  0  0  0  0  0  0  0  0  0  0  0
  152.6589  141.8922  158.1085 H   0  0  0  0  0  0  0  0  0  0  0  0
  153.8730  143.6335  160.3254 H   0  0  0  0  0  0  0  0  0  0  0  0
  154.1635  143.7413  158.5543 H   0  0  0  0  0  0  0  0  0  0  0  0
  152.3130  145.2283  161.1166 H   0  0  0  0  0  0  0  0  0  0  0  0
  152.3033  146.3161  159.7538 H   0  0  0  0  0  0  0  0  0  0  0  0
  150.0351  145.5670  159.4992 H   0  0  0  0  0  0  0  0  0  0  0  0
  150.9997  145.4870  157.7522 H   0  0  0  0  0  0  0  0  0  0  0  0
  152.5938  145.0326  157.2190 H   0  0  0  0  0  0  0  0  0  0  0  0
  150.3045  143.8304  156.7267 H   0  0  0  0  0  0  0  0  0  0  0  0
  150.5620  142.5794  159.1046 H   0  0  0  0  0  0  0  0  0  0  0  0
  151.3279  142.8093  160.7127 H   0  0  0  0  0  0  0  0  0  0  0  0
  154.7924  133.8302  161.9860 H   0  0  0  0  0  0  0  0  0  0  0  0
  1  2  1  0  0  0  0
  1 31  1  0  0  0  0
  1 32  1  0  0  0  0
  1 33  1  0  0  0  0
  2 29  1  0  0  0  0
  2 11  1  0  0  0  0
  2  3  1  0  0  0  0
  3 30  1  0  0  0  0
  3  4  1  0  0  0  0
  3  9  1  0  0  0  0
  4  5  1  0  0  0  0
  4  6  1  0  0  0  0
  4 59  1  0  0  0  0
  5 34  1  0  0  0  0
  5 35  1  0  0  0  0
  5 36  1  0  0  0  0
  6  7  1  0  0  0  0
  6 37  1  0  0  0  0
  6 38  1  0  0  0  0
  7  8  1  0  0  0  0
  7 39  1  0  0  0  0
  7 40  1  0  0  0  0
  8 41  1  0  0  0  0
  9 10  1  0  0  0  0
  9 42  1  0  0  0  0
  9 43  1  0  0  0  0
 10 11  1  0  0  0  0
 10 44  1  0  0  0  0
 10 45  1  0  0  0  0
 11 12  1  0  0  0  0
 12 17  1  0  0  0  0
 12 13  2  0  0  0  0
 13 14  1  0  0  0  0
 14 15  2  0  0  0  0
 14 46  1  0  0  0  0
 15 16  1  0  0  0  0
 16 20  1  0  0  0  0
 16 17  2  0  0  0  0
 17 18  1  0  0  0  0
 18 19  2  0  0  0  0
 19 20  1  0  0  0  0
 19 47  1  0  0  0  0
 20 21  1  0  0  0  0
 21 28  1  0  0  0  0
 21 22  1  0  0  0  0
 21 48  1  0  0  0  0
 22 23  1  0  0  0  0
 22 49  1  0  0  0  0
 22 50  1  0  0  0  0
 23 24  1  0  0  0  0
 23 26  1  0  0  0  0
 23 28  1  0  0  0  0
 24 25  1  0  0  0  0
 24 51  1  0  0  0  0
 24 52  1  0  0  0  0
 25 53  1  0  0  0  0
 26 27  1  0  0  0  0
 26 54  1  0  0  0  0
 26 55  1  0  0  0  0
 27 56  1  0  0  0  0
 28 57  1  0  0  0  0
 28 58  1  0  0  0  0
M  CHG  1   4   1
M  END
> <s_m_source_file>
AV-unprocessed.smi

> <i_m_source_file_index>
215

> <i_lp_mmshare_version>
43012

> <i_f3d_flags>
0

> <s_epik_input>
W09IXVtDSDJdW0NIMl1OKFtDSDNdKVtDQEBIXShbQ0BIXTFbQ0gzXSlbQ0gyXVtDSDJdTjFjKG5bY0hdbjIpYyhjMjMpbltjSF1uM1tDSF0oW0NIMl00KVtDSDJdQzQoW0NIMl1bT0hdKVtDSDJdW09IXQ==

> <s_epik_cmdline>
J2VwaWtfcHl0aG9uJywgJy1waCcsICc3LjAnLCAnLXRuJywgJzgnLCAnLW1hJywgJzIwMCcsICctbWV0YWxfYmluZGluZycsICctaW1hZScsICc8aW5maWxlLm1hZT4nLCAnLW9tYWUnLCAnPG91dGZpbGUubWFlPic=

> <r_lp_tautomer_probability>
1

> <r_epik_Ionization_Penalty>
0.0036237

> <r_epik_Ionization_Penalty_Charging>
0.0032725

> <r_epik_Ionization_Penalty_Neutral>
0.000351196

> <r_epik_State_Penalty>
-0

> <r_epik_Charging_Adjusted_Penalty>
0.0032725

> <i_epik_Tot_Q>
1

> <i_epik_Tot_abs_Q>
1

> <r_epik_Metal_State_Penalty>
-0

> <b_epik_Metal_Only>
0

> <s_lp_Force_Field>
OPLS_2005

> <r_lp_Energy>
70.2974

> <b_lp_Chiralities_Consistent>
1

> <s_lp_Variant>
AV-unprocessed.smi:215-5

> <Gold.Version>
5.8.1

> <Gold.Id.Protein>
6NUR|6NUR_protein|mol2

> <Gold.PLP.Fitness>
53.1714

> <Gold.PLP.PLP>
-50.8264

> <Gold.PLP.part.hbond>
-4.4788

> <Gold.PLP.part.metal>
0.0000

> <Gold.PLP.part.buried>
-8.2673

> <Gold.PLP.part.nonpolar>
-38.5170

> <Gold.PLP.part.repulsive>
0.0042

> <Gold.PLP.ligand.clash>
0.3089

> <Gold.PLP.ligand.torsion>
2.1629

> <Gold.PLP.Chemscore.Hbond>
2.0000

> <Gold.PLP.Chemscore.CHOScore>
0.0000

> <Gold.PLP.Chemscore.Metal>
0.0000

> <Gold.Chemscore.Hbonds>
donor molecule, donor type, donor heavy atom, donor atom, acceptor molecule, acceptor atom, score
      L1  H    27    56       P1  8028  1.00
      P1  H  6896  6908       L1    13  1.00

> <Gold.PLP.Chemscore.Internal.Correction>
0.9797

> <Gold.Rescore>
     Score         DG    S(hbond)    S(metal)    S(lipo)     H(rot)  DE(clash)    DE(int)     intcor
     11.47     -14.01       2.48        0.00     107.23       4.81       0.06       2.48       ----

> <Gold.Chemscore.Fitness>
11.4670

> <Gold.Chemscore.DG>
-14.0089

> <Gold.Chemscore.ZeroCoef>
-5.4800

> <Gold.Chemscore.Hbond>
2.4840

> <Gold.Chemscore.Metal>
0.0000

> <Gold.Chemscore.Lipo>
107.2251

> <Gold.Chemscore.Internal_Hbond>
0.0000

> <Gold.Chemscore.DEClash>
0.0607

> <Gold.Chemscore.DEInternal>
2.4812

> <Gold.Chemscore.Rot>
4.8098

> <Gold.Chemscore.Internal.Correction>
   9.000000E+99

> <Gold.Chemscore.Hbonds>
donor molecule, donor type, donor heavy atom, donor atom, acceptor molecule, acceptor atom, score
      L1  H    27    56       P1  8028  0.97
      P1  H  6896  6908       L1    13  0.74

> <Gold.Chemscore.Hbond.Weighted>
-8.2966

> <Gold.Chemscore.Metal.Weighted>
-0.0000

> <Gold.Chemscore.Lipo.Weighted>
-12.5453

> <Gold.Chemscore.Internal_Hbond.Weighted>
0.0000

> <Gold.Chemscore.DEClash.Weighted>
0.0607

> <Gold.Chemscore.DEInternal.Weighted>
2.4812

> <Gold.Chemscore.Rot.Weighted>
12.3130

> <Gold.Chemscore.Internal.Correction.Weighted>
   9.000000E+99

> <Gold.Protein.RotatedTorsions>
[ 6907 6896 6895 6894 ] final  -96.05 input  -60.11 | X-H torsion
[ 7974 7965 7964 7962 ] final  168.75 input  175.53 | X-H torsion
[ 8008 7997 7996 7995 ] final   70.08 input   59.86 | X-H torsion
[ 10167 10162 10161 10158 ] final -110.92 input  -65.29 | X-H torsion
[ 10718 10713 10712 10709 ] final   47.29 input   66.30 | X-H torsion
[ 10763 10752 10751 10750 ] final    6.21 input  -60.55 | X-H torsion
[ 11005 11000 10999 10996 ] final   -1.59 input  -57.11 | X-H torsion

> <Gold.Protein.ActiveResidues>
 VAL166  LYS551  ARG553  GLY616  TRP617  ASP618  TYR619  PRO620  LYS621  CYS622 
 ASP623  PHE694  ASN695  SER759  ASP760  ASP761  ALA762  ILE779  LEU786  VAL792 
 PHE793  MET794  SER795  GLU796  ALA797  LYS798  CYS799  TRP800  GLU811  SER814 

> <Gold.Protein.RotatedAtoms>
  150.6979  134.1562  159.4158 H   0  0  0  0  0  0  0  0  0  0  0  0  # atno 6907 bound_to 6896
  151.9544  135.0151  160.0553 H   0  0  0  0  0  0  0  0  0  0  0  0  # atno 6908 bound_to 6896
  152.1982  133.4787  159.5081 H   0  0  0  0  0  0  0  0  0  0  0  0  # atno 6909 bound_to 6896
  144.7378  139.8954  143.6406 H   0  0  0  0  0  0  0  0  0  0  0  0  # atno 7974 bound_to 7965
  155.7334  140.3491  155.5070 H   0  0  0  0  0  0  0  0  0  0  0  0  # atno 8008 bound_to 7997
  155.9161  140.1059  157.1264 H   0  0  0  0  0  0  0  0  0  0  0  0  # atno 8009 bound_to 7997
  154.4063  140.1258  156.4606 H   0  0  0  0  0  0  0  0  0  0  0  0  # atno 8010 bound_to 7997
  140.1392  143.4293  152.1573 H   0  0  0  0  0  0  0  0  0  0  0  0  # atno 10167 bound_to 10162
  157.4569  130.8173  149.7846 H   0  0  0  0  0  0  0  0  0  0  0  0  # atno 10718 bound_to 10713
  153.2504  135.6913  153.7685 H   0  0  0  0  0  0  0  0  0  0  0  0  # atno 10763 bound_to 10752
  153.6782  135.3333  155.3172 H   0  0  0  0  0  0  0  0  0  0  0  0  # atno 10764 bound_to 10752
  154.8392  135.4516  154.1459 H   0  0  0  0  0  0  0  0  0  0  0  0  # atno 10765 bound_to 10752
  140.6490  133.9422  155.8369 H   0  0  0  0  0  0  0  0  0  0  0  0  # atno 11005 bound_to 11000
  146.1111  139.4116  143.0287 LP  0  0  0  0  0  0  0  0  0  0  0  0  # atno 17320 bound_to 7965
  145.7441  140.9997  143.1285 LP  0  0  0  0  0  0  0  0  0  0  0  0  # atno 17321 bound_to 7965
  139.5480  144.7315  151.4522 LP  0  0  0  0  0  0  0  0  0  0  0  0  # atno 17342 bound_to 10162
  140.6770  143.8167  150.7072 LP  0  0  0  0  0  0  0  0  0  0  0  0  # atno 17343 bound_to 10162
  156.0011  130.3879  150.2602 LP  0  0  0  0  0  0  0  0  0  0  0  0  # atno 17370 bound_to 10713
  157.0777  131.0134  151.3168 LP  0  0  0  0  0  0  0  0  0  0  0  0  # atno 17371 bound_to 10713
  141.0551  134.0428  157.3733 LP  0  0  0  0  0  0  0  0  0  0  0  0  # atno 17394 bound_to 11000
  139.9053  135.0177  156.7456 LP  0  0  0  0  0  0  0  0  0  0  0  0  # atno 17395 bound_to 11000

$$$$
