AV-unprocessed.smi:208|AV-procd|sdf|1606|dock5
  -GOLD-   2262019523D 1   1.00000     0.00000
 Structure written by MMmdl.
 50 53  0  0  0  0  0  0  0  0  1 V2000
  156.1487  140.0559  160.4409 C   0  0  0  0  0  0  0  0  0  0  0  0
  155.0892  140.7350  159.5592 C   0  0  0  0  0  0  0  0  0  0  0  0
  153.6390  140.6724  160.1138 C   0  0  1  0  0  0  0  0  0  0  0  0
  153.5840  141.3261  161.5127 C   0  0  0  0  0  0  0  0  0  0  0  0
  154.1412  140.7471  162.4469 O   0  0  0  0  0  0  0  0  0  0  0  0
  152.9282  142.4988  161.6838 N   0  0  0  0  0  0  0  0  0  0  0  0
  152.8586  143.1285  163.0033 C   0  0  0  0  0  0  0  0  0  0  0  0
  152.2234  143.2210  160.6171 C   0  0  0  0  0  0  0  0  0  0  0  0
  152.5544  142.7325  159.2000 C   0  0  0  0  0  0  0  0  0  0  0  0
  152.6743  141.2782  159.1840 N   0  0  0  0  0  0  0  0  0  0  0  0
  152.3492  140.6084  158.0463 C   0  0  0  0  0  0  0  0  0  0  0  0
  153.0681  139.5077  157.6977 N   0  0  0  0  0  0  0  0  0  0  0  0
  152.7493  138.8074  156.6062 C   0  0  0  0  0  0  0  0  0  0  0  0
  151.7672  139.0287  155.7319 N   0  0  0  0  0  0  0  0  0  0  0  0
  151.0518  140.1410  156.0612 C   0  0  0  0  0  0  0  0  0  0  0  0
  151.2725  140.9816  157.1903 C   0  0  0  0  0  0  0  0  0  0  0  0
  150.3492  142.0207  157.1869 N   0  0  0  0  0  0  0  0  0  0  0  0
  149.6157  141.7972  156.1321 C   0  0  0  0  0  0  0  0  0  0  0  0
  149.9735  140.6936  155.3914 N   0  0  0  0  0  0  0  0  0  0  0  0
  149.3282  140.2208  154.1752 C   0  0  0  0  0  0  0  0  0  0  0  0
  147.7921  140.1219  154.2629 C   0  0  0  0  0  0  0  0  0  0  0  0
  147.2927  139.0825  153.2374 C   0  0  0  0  0  0  0  0  0  0  0  0
  147.2288  139.6037  151.9246 O   0  0  0  0  0  0  0  0  0  0  0  0
  147.1969  140.0111  155.6746 C   0  0  0  0  0  0  0  0  0  0  0  0
  146.3231  141.1406  155.4569 O   0  0  0  0  0  0  0  0  0  0  0  0
  147.0653  141.4750  154.2640 C   0  0  0  0  0  0  0  0  0  0  0  0
  157.1503  140.2730  160.0697 H   0  0  0  0  0  0  0  0  0  0  0  0
  156.0418  138.9727  160.4514 H   0  0  0  0  0  0  0  0  0  0  0  0
  156.0939  140.4113  161.4701 H   0  0  0  0  0  0  0  0  0  0  0  0
  155.3945  141.7776  159.4592 H   0  0  0  0  0  0  0  0  0  0  0  0
  155.1347  140.3239  158.5505 H   0  0  0  0  0  0  0  0  0  0  0  0
  153.3853  139.6285  160.2871 H   0  0  0  0  0  0  0  0  0  0  0  0
  153.8488  143.4587  163.3204 H   0  0  0  0  0  0  0  0  0  0  0  0
  152.4757  142.4298  163.7488 H   0  0  0  0  0  0  0  0  0  0  0  0
  152.2009  143.9985  163.0076 H   0  0  0  0  0  0  0  0  0  0  0  0
  151.1547  143.0928  160.7944 H   0  0  0  0  0  0  0  0  0  0  0  0
  152.4235  144.2911  160.6870 H   0  0  0  0  0  0  0  0  0  0  0  0
  151.7778  143.0845  158.5193 H   0  0  0  0  0  0  0  0  0  0  0  0
  153.4938  143.1714  158.8624 H   0  0  0  0  0  0  0  0  0  0  0  0
  153.3676  137.9446  156.4068 H   0  0  0  0  0  0  0  0  0  0  0  0
  148.7929  142.4417  155.8586 H   0  0  0  0  0  0  0  0  0  0  0  0
  149.6247  140.8842  153.3617 H   0  0  0  0  0  0  0  0  0  0  0  0
  149.7514  139.2466  153.9270 H   0  0  0  0  0  0  0  0  0  0  0  0
  147.9434  138.2077  153.2231 H   0  0  0  0  0  0  0  0  0  0  0  0
  146.2920  138.7308  153.4886 H   0  0  0  0  0  0  0  0  0  0  0  0
  148.1032  139.6283  151.5667 H   0  0  0  0  0  0  0  0  0  0  0  0
  146.6516  139.0850  155.8592 H   0  0  0  0  0  0  0  0  0  0  0  0
  147.9072  140.2099  156.4777 H   0  0  0  0  0  0  0  0  0  0  0  0
  147.7232  142.3303  154.4269 H   0  0  0  0  0  0  0  0  0  0  0  0
  146.4221  141.6446  153.4000 H   0  0  0  0  0  0  0  0  0  0  0  0
  1  2  1  0  0  0  0
  1 27  1  0  0  0  0
  1 28  1  0  0  0  0
  1 29  1  0  0  0  0
  2  3  1  0  0  0  0
  2 30  1  0  0  0  0
  2 31  1  0  0  0  0
  3 10  1  0  0  0  0
  3  4  1  0  0  0  0
  3 32  1  0  0  0  0
  4  5  2  0  0  0  0
  4  6  1  0  0  0  0
  6  7  1  0  0  0  0
  6  8  1  0  0  0  0
  7 33  1  0  0  0  0
  7 34  1  0  0  0  0
  7 35  1  0  0  0  0
  8  9  1  0  0  0  0
  8 36  1  0  0  0  0
  8 37  1  0  0  0  0
  9 10  1  0  0  0  0
  9 38  1  0  0  0  0
  9 39  1  0  0  0  0
 10 11  1  0  0  0  0
 11 16  1  0  0  0  0
 11 12  2  0  0  0  0
 12 13  1  0  0  0  0
 13 14  2  0  0  0  0
 13 40  1  0  0  0  0
 14 15  1  0  0  0  0
 15 19  1  0  0  0  0
 15 16  2  0  0  0  0
 16 17  1  0  0  0  0
 17 18  2  0  0  0  0
 18 19  1  0  0  0  0
 18 41  1  0  0  0  0
 19 20  1  0  0  0  0
 20 21  1  0  0  0  0
 20 42  1  0  0  0  0
 20 43  1  0  0  0  0
 21 26  1  0  0  0  0
 21 22  1  0  0  0  0
 21 24  1  0  0  0  0
 22 23  1  0  0  0  0
 22 44  1  0  0  0  0
 22 45  1  0  0  0  0
 23 46  1  0  0  0  0
 24 25  1  0  0  0  0
 24 47  1  0  0  0  0
 24 48  1  0  0  0  0
 25 26  1  0  0  0  0
 26 49  1  0  0  0  0
 26 50  1  0  0  0  0
M  END
> <s_m_source_file>
AV-unprocessed.smi

> <i_m_source_file_index>
208

> <i_lp_mmshare_version>
43012

> <i_f3d_flags>
0

> <s_epik_input>
W0NIM11bQ0gyXVtDQEBIXTFDKD1PKU4oW0NIM10pW0NIMl1bQ0gyXU4xYyhuW2NIXW4yKWMoYzIzKW5bY0hdbjNbQ0gyXUM0KFtDSDJdW09IXSlbQ0gyXU9bQ0gyXTQ=

> <s_epik_cmdline>
J2VwaWtfcHl0aG9uJywgJy1waCcsICc3LjAnLCAnLXRuJywgJzgnLCAnLW1hJywgJzIwMCcsICctbWV0YWxfYmluZGluZycsICctaW1hZScsICc8aW5maWxlLm1hZT4nLCAnLW9tYWUnLCAnPG91dGZpbGUubWFlPic=

> <r_lp_tautomer_probability>
1

> <r_epik_Ionization_Penalty>
0.000581289

> <r_epik_Ionization_Penalty_Charging>
0

> <r_epik_Ionization_Penalty_Neutral>
0.000581289

> <r_epik_State_Penalty>
0.000280365

> <r_epik_Charging_Adjusted_Penalty>
0.000280365

> <i_epik_Tot_Q>
0

> <i_epik_Tot_abs_Q>
0

> <r_epik_Metal_State_Penalty>
-0

> <b_epik_Metal_Only>
0

> <s_lp_Force_Field>
OPLS_2005

> <r_lp_Energy>
42.9171

> <b_lp_Chiralities_Consistent>
1

> <s_lp_Variant>
AV-unprocessed.smi:208-2

> <Gold.Version>
5.8.1

> <Gold.Id.Protein>
6NUR|6NUR_protein|mol2

> <Gold.PLP.Fitness>
53.8880

> <Gold.PLP.PLP>
-46.7232

> <Gold.PLP.part.hbond>
-1.9697

> <Gold.PLP.part.metal>
0.0000

> <Gold.PLP.part.buried>
-0.5199

> <Gold.PLP.part.nonpolar>
-43.8417

> <Gold.PLP.part.repulsive>
0.2145

> <Gold.PLP.ligand.clash>
0.0000

> <Gold.PLP.ligand.torsion>
1.1713

> <Gold.PLP.Chemscore.Hbond>
2.0000

> <Gold.PLP.Chemscore.CHOScore>
0.9968

> <Gold.PLP.Chemscore.Metal>
0.0000

> <Gold.Chemscore.Hbonds>
donor molecule, donor type, donor heavy atom, donor atom, acceptor molecule, acceptor atom, score
      L1  H    23    46       P1  7957  1.00
      P1  H  7997  8010       L1    12  0.75
      L1  C    18    41       P1  8028  0.93

> <Gold.PLP.Chemscore.Internal.Correction>
0.5169

> <Gold.Rescore>
     Score         DG    S(hbond)    S(metal)    S(lipo)     H(rot)  DE(clash)    DE(int)     intcor
      8.48     -13.14       1.02        0.00      90.08       2.46       1.13       3.53       ----

> <Gold.Chemscore.Fitness>
8.4795

> <Gold.Chemscore.DG>
-13.1405

> <Gold.Chemscore.ZeroCoef>
-5.4800

> <Gold.Chemscore.Hbond>
1.0233

> <Gold.Chemscore.Metal>
0.0000

> <Gold.Chemscore.Lipo>
90.0841

> <Gold.Chemscore.Internal_Hbond>
0.0000

> <Gold.Chemscore.DEClash>
1.1299

> <Gold.Chemscore.DEInternal>
3.5312

> <Gold.Chemscore.Rot>
2.4598

> <Gold.Chemscore.Internal.Correction>
   9.000000E+99

> <Gold.Chemscore.Hbonds>
donor molecule, donor type, donor heavy atom, donor atom, acceptor molecule, acceptor atom, score
      L1  H    23    46       P1  7957  0.97
      P1  H  7997  8010       L1    12  0.06

> <Gold.Chemscore.Hbond.Weighted>
-3.4179

> <Gold.Chemscore.Metal.Weighted>
-0.0000

> <Gold.Chemscore.Lipo.Weighted>
-10.5398

> <Gold.Chemscore.Internal_Hbond.Weighted>
0.0000

> <Gold.Chemscore.DEClash.Weighted>
1.1299

> <Gold.Chemscore.DEInternal.Weighted>
3.5312

> <Gold.Chemscore.Rot.Weighted>
6.2972

> <Gold.Chemscore.Internal.Correction.Weighted>
   9.000000E+99

> <Gold.Protein.RotatedTorsions>
[ 6907 6896 6895 6894 ] final  169.04 input  -60.11 | X-H torsion
[ 7974 7965 7964 7962 ] final  170.02 input  175.53 | X-H torsion
[ 8008 7997 7996 7995 ] final   27.33 input   59.86 | X-H torsion
[ 10167 10162 10161 10158 ] final   45.59 input  -65.29 | X-H torsion
[ 10718 10713 10712 10709 ] final   22.21 input   66.30 | X-H torsion
[ 10763 10752 10751 10750 ] final  -11.83 input  -60.55 | X-H torsion
[ 11005 11000 10999 10996 ] final   69.63 input  -57.11 | X-H torsion

> <Gold.Protein.ActiveResidues>
 VAL166  LYS551  ARG553  GLY616  TRP617  ASP618  TYR619  PRO620  LYS621  CYS622 
 ASP623  PHE694  ASN695  SER759  ASP760  ASP761  ALA762  ILE779  LEU786  VAL792 
 PHE793  MET794  SER795  GLU796  ALA797  LYS798  CYS799  TRP800  GLU811  SER814 

> <Gold.Protein.RotatedAtoms>
  151.8381  133.3419  159.3634 H   0  0  0  0  0  0  0  0  0  0  0  0  # atno 6907 bound_to 6896
  150.7243  134.5418  159.5760 H   0  0  0  0  0  0  0  0  0  0  0  0  # atno 6908 bound_to 6896
  152.2885  134.7749  160.0433 H   0  0  0  0  0  0  0  0  0  0  0  0  # atno 6909 bound_to 6896
  144.7336  139.9141  143.6416 H   0  0  0  0  0  0  0  0  0  0  0  0  # atno 7974 bound_to 7965
  155.0413  140.3169  155.4723 H   0  0  0  0  0  0  0  0  0  0  0  0  # atno 8008 bound_to 7997
  156.2854  140.2162  156.5480 H   0  0  0  0  0  0  0  0  0  0  0  0  # atno 8009 bound_to 7997
  154.7287  140.0483  157.0694 H   0  0  0  0  0  0  0  0  0  0  0  0  # atno 8010 bound_to 7997
  140.3226  144.2687  150.6180 H   0  0  0  0  0  0  0  0  0  0  0  0  # atno 10167 bound_to 10162
  157.1491  130.6666  149.6006 H   0  0  0  0  0  0  0  0  0  0  0  0  # atno 10718 bound_to 10713
  153.4895  135.7017  153.5892 H   0  0  0  0  0  0  0  0  0  0  0  0  # atno 10763 bound_to 10752
  153.4070  135.3858  155.2026 H   0  0  0  0  0  0  0  0  0  0  0  0  # atno 10764 bound_to 10752
  154.8717  135.3895  154.4354 H   0  0  0  0  0  0  0  0  0  0  0  0  # atno 10765 bound_to 10752
  139.9643  134.7008  156.0579 H   0  0  0  0  0  0  0  0  0  0  0  0  # atno 11005 bound_to 11000
  146.0979  139.3972  143.0365 LP  0  0  0  0  0  0  0  0  0  0  0  0  # atno 17320 bound_to 7965
  145.7620  140.9931  143.1195 LP  0  0  0  0  0  0  0  0  0  0  0  0  # atno 17321 bound_to 7965
  140.5470  143.2213  151.7991 LP  0  0  0  0  0  0  0  0  0  0  0  0  # atno 17342 bound_to 10162
  139.4871  144.4527  151.9635 LP  0  0  0  0  0  0  0  0  0  0  0  0  # atno 17343 bound_to 10162
  155.9774  130.4751  150.6589 LP  0  0  0  0  0  0  0  0  0  0  0  0  # atno 17370 bound_to 10713
  157.4237  131.0840  151.1106 LP  0  0  0  0  0  0  0  0  0  0  0  0  # atno 17371 bound_to 10713
  141.1322  133.6584  156.3495 LP  0  0  0  0  0  0  0  0  0  0  0  0  # atno 17394 bound_to 11000
  140.5431  134.6100  157.5386 LP  0  0  0  0  0  0  0  0  0  0  0  0  # atno 17395 bound_to 11000

$$$$
