AV-unprocessed.smi:1047|AV-procd|sdf|4561|dock5
  -GOLD-   22720 3 03D 1   1.00000     0.00000
 Structure written by MMmdl.
 57 59  0  0  0  0  0  0  0  0  3 V2000
  146.5044  143.7744  160.4022 C   0  0  0  0  0  0  0  0  0  0  0  0
  145.3795  144.1309  159.4198 C   0  0  0  0  0  0  0  0  0  0  0  0
  145.8853  144.3790  158.0433 N   0  3  2  0  0  0  0  0  0  0  0  0
  144.8411  144.8589  157.1056 C   0  0  0  0  0  0  0  0  0  0  0  0
  143.9532  143.6991  156.6210 C   0  0  0  0  0  0  0  0  0  0  0  0
  144.7679  142.6987  156.0211 O   0  0  0  0  0  0  0  0  0  0  0  0
  145.7015  142.1323  156.9356 C   0  0  1  0  0  0  0  0  0  0  0  0
  146.4753  141.0261  156.2013 C   0  0  0  0  0  0  0  0  0  0  0  0
  147.7333  140.6947  156.9007 N   0  3  0  0  0  0  0  0  0  0  0  0
  148.7028  139.9434  156.0781 C   0  0  0  0  0  0  0  0  0  0  0  0
  149.3295  140.8390  154.9969 C   0  0  2  0  0  0  0  0  0  0  0  0
  149.9145  140.0127  154.0084 O   0  0  0  0  0  0  0  0  0  0  0  0
  150.4041  141.7778  155.5782 C   0  0  0  0  0  0  0  0  0  0  0  0
  151.3156  141.0889  156.4744 N   0  0  0  0  0  0  0  0  0  0  0  0
  151.9036  139.8928  156.2775 C   0  0  0  0  0  0  0  0  0  0  0  0
  152.7137  139.4483  157.2334 N   0  0  0  0  0  0  0  0  0  0  0  0
  152.6364  140.4709  158.1632 C   0  0  0  0  0  0  0  0  0  0  0  0
  153.2637  140.6173  159.4197 C   0  0  0  0  0  0  0  0  0  0  0  0
  153.0335  141.7621  160.2156 C   0  0  0  0  0  0  0  0  0  0  0  0
  153.7270  141.8766  161.5618 C   0  0  0  0  0  0  0  0  0  0  0  0
  152.1650  142.7846  159.7558 C   0  0  0  0  0  0  0  0  0  0  0  0
  151.9012  144.0215  160.5961 C   0  0  0  0  0  0  0  0  0  0  0  0
  151.5330  142.6562  158.5009 C   0  0  0  0  0  0  0  0  0  0  0  0
  151.7687  141.5114  157.7192 C   0  0  0  0  0  0  0  0  0  0  0  0
  146.6419  143.2501  157.4416 C   0  0  0  0  0  0  0  0  0  0  0  0
  146.1150  143.6955  161.4175 H   0  0  0  0  0  0  0  0  0  0  0  0
  147.2814  144.5397  160.4068 H   0  0  0  0  0  0  0  0  0  0  0  0
  146.9726  142.8202  160.1629 H   0  0  0  0  0  0  0  0  0  0  0  0
  144.6128  143.3561  159.4220 H   0  0  0  0  0  0  0  0  0  0  0  0
  144.8966  145.0368  159.7880 H   0  0  0  0  0  0  0  0  0  0  0  0
  144.2392  145.6440  157.5644 H   0  0  0  0  0  0  0  0  0  0  0  0
  145.3352  145.3162  156.2470 H   0  0  0  0  0  0  0  0  0  0  0  0
  143.3721  143.2737  157.4407 H   0  0  0  0  0  0  0  0  0  0  0  0
  143.2385  144.0594  155.8809 H   0  0  0  0  0  0  0  0  0  0  0  0
  145.1669  141.6856  157.7755 H   0  0  0  0  0  0  0  0  0  0  0  0
  145.8601  140.1301  156.1056 H   0  0  0  0  0  0  0  0  0  0  0  0
  146.7188  141.3582  155.1913 H   0  0  0  0  0  0  0  0  0  0  0  0
  148.1772  141.5527  157.1973 H   0  0  0  0  0  0  0  0  0  0  0  0
  149.4839  139.5553  156.7331 H   0  0  0  0  0  0  0  0  0  0  0  0
  148.2115  139.0826  155.6215 H   0  0  0  0  0  0  0  0  0  0  0  0
  148.5492  141.4384  154.5253 H   0  0  0  0  0  0  0  0  0  0  0  0
  149.3952  140.0737  153.2201 H   0  0  0  0  0  0  0  0  0  0  0  0
  150.9916  142.2230  154.7742 H   0  0  0  0  0  0  0  0  0  0  0  0
  149.9402  142.6043  156.1188 H   0  0  0  0  0  0  0  0  0  0  0  0
  151.7318  139.3187  155.3785 H   0  0  0  0  0  0  0  0  0  0  0  0
  153.9252  139.8384  159.7699 H   0  0  0  0  0  0  0  0  0  0  0  0
  152.9945  141.9810  162.3625 H   0  0  0  0  0  0  0  0  0  0  0  0
  154.3854  142.7452  161.5786 H   0  0  0  0  0  0  0  0  0  0  0  0
  154.3308  140.9943  161.7755 H   0  0  0  0  0  0  0  0  0  0  0  0
  151.2327  144.7153  160.0855 H   0  0  0  0  0  0  0  0  0  0  0  0
  152.8327  144.5478  160.8054 H   0  0  0  0  0  0  0  0  0  0  0  0
  151.4377  143.7471  161.5440 H   0  0  0  0  0  0  0  0  0  0  0  0
  150.8694  143.4274  158.1392 H   0  0  0  0  0  0  0  0  0  0  0  0
  147.2164  143.6439  156.6018 H   0  0  0  0  0  0  0  0  0  0  0  0
  147.3731  142.8514  158.1440 H   0  0  0  0  0  0  0  0  0  0  0  0
  147.5143  140.1457  157.7199 H   0  0  0  0  0  0  0  0  0  0  0  0
  146.5379  145.1445  158.1407 H   0  0  0  0  0  0  0  0  0  0  0  0
  1  2  1  0  0  0  0
  1 26  1  0  0  0  0
  1 27  1  0  0  0  0
  1 28  1  0  0  0  0
  2  3  1  0  0  0  0
  2 29  1  0  0  0  0
  2 30  1  0  0  0  0
  3 25  1  0  0  0  0
  3  4  1  0  0  0  0
  3 57  1  0  0  0  0
  4  5  1  0  0  0  0
  4 31  1  0  0  0  0
  4 32  1  0  0  0  0
  5  6  1  0  0  0  0
  5 33  1  0  0  0  0
  5 34  1  0  0  0  0
  6  7  1  0  0  0  0
  7  8  1  0  0  0  0
  7 25  1  0  0  0  0
  7 35  1  0  0  0  0
  8  9  1  0  0  0  0
  8 36  1  0  0  0  0
  8 37  1  0  0  0  0
  9 10  1  0  0  0  0
  9 38  1  0  0  0  0
  9 56  1  0  0  0  0
 10 11  1  0  0  0  0
 10 39  1  0  0  0  0
 10 40  1  0  0  0  0
 11 12  1  0  0  0  0
 11 13  1  0  0  0  0
 11 41  1  0  0  0  0
 12 42  1  0  0  0  0
 13 14  1  0  0  0  0
 13 43  1  0  0  0  0
 13 44  1  0  0  0  0
 14 24  1  0  0  0  0
 14 15  1  0  0  0  0
 15 16  2  0  0  0  0
 15 45  1  0  0  0  0
 16 17  1  0  0  0  0
 17 24  2  0  0  0  0
 17 18  1  0  0  0  0
 18 19  2  0  0  0  0
 18 46  1  0  0  0  0
 19 20  1  0  0  0  0
 19 21  1  0  0  0  0
 20 47  1  0  0  0  0
 20 48  1  0  0  0  0
 20 49  1  0  0  0  0
 21 22  1  0  0  0  0
 21 23  2  0  0  0  0
 22 50  1  0  0  0  0
 22 51  1  0  0  0  0
 22 52  1  0  0  0  0
 23 24  1  0  0  0  0
 23 53  1  0  0  0  0
 25 54  1  0  0  0  0
 25 55  1  0  0  0  0
M  CHG  1   3   1
M  CHG  1   9   1
M  END
> <s_m_source_file>
AV-unprocessed.smi

> <i_m_source_file_index>
1047

> <i_lp_mmshare_version>
43012

> <i_f3d_flags>
0

> <s_epik_input>
W0NIM11bQ0gyXU4xW0NIMl1bQ0gyXU9bQ0BIXShbQ0gyXTEpW0NIMl1bTkhdW0NIMl1bQ0BIXShbT0hdKVtDSDJdbihbY0hdbjIpYyhjMjMpW2NIXWMoW0NIM10pYyhbY0hdMylbQ0gzXQ==

> <s_epik_cmdline>
J2VwaWtfcHl0aG9uJywgJy1waCcsICc3LjAnLCAnLXRuJywgJzgnLCAnLW1hJywgJzIwMCcsICctbWV0YWxfYmluZGluZycsICctaW1hZScsICc8aW5maWxlLm1hZT4nLCAnLW9tYWUnLCAnPG91dGZpbGUubWFlPic=

> <r_epik_Ionization_Penalty>
0.528991

> <r_epik_Ionization_Penalty_Charging>
0.438567

> <r_epik_Ionization_Penalty_Neutral>
0.0904237

> <r_epik_State_Penalty>
0.533036

> <r_epik_Charging_Adjusted_Penalty>
0.971603

> <i_epik_Tot_Q>
2

> <i_epik_Tot_abs_Q>
2

> <r_epik_Metal_State_Penalty>
0.448985

> <b_epik_Metal_Only>
0

> <s_lp_Force_Field>
OPLS_2005

> <r_lp_Energy>
30.8403

> <b_lp_Chiralities_Consistent>
1

> <s_lp_Variant>
AV-unprocessed.smi:1047-2

> <Gold.Version>
5.8.1

> <Gold.Id.Protein>
6NUR|6NUR_protein|mol2

> <Gold.PLP.Fitness>
53.3145

> <Gold.PLP.PLP>
-40.6176

> <Gold.PLP.part.hbond>
-4.0000

> <Gold.PLP.part.metal>
0.0000

> <Gold.PLP.part.buried>
-3.7611

> <Gold.PLP.part.nonpolar>
-30.1144

> <Gold.PLP.part.repulsive>
0.1501

> <Gold.PLP.ligand.clash>
0.0000

> <Gold.PLP.ligand.torsion>
0.7087

> <Gold.PLP.Chemscore.Hbond>
4.5375

> <Gold.PLP.Chemscore.CHOScore>
0.0000

> <Gold.PLP.Chemscore.Metal>
0.0000

> <Gold.Chemscore.Hbonds>
donor molecule, donor type, donor heavy atom, donor atom, acceptor molecule, acceptor atom, score
      L1  H     3    57       P1  8029  1.63
      L1  H    12    42       P1  7957  0.72
      P1  H  7989  7998       L1    12  0.88
      P1  H  7997  8009       L1    16  0.40

> <Gold.PLP.Chemscore.Internal.Correction>
0.5019

> <Gold.Rescore>
     Score         DG    S(hbond)    S(metal)    S(lipo)     H(rot)  DE(clash)    DE(int)     intcor
     14.97     -17.04       1.69        0.00     109.68       2.70       0.56       1.51       ----

> <Gold.Chemscore.Fitness>
14.9749

> <Gold.Chemscore.DG>
-17.0423

> <Gold.Chemscore.ZeroCoef>
-5.4800

> <Gold.Chemscore.Hbond>
1.6878

> <Gold.Chemscore.Metal>
0.0000

> <Gold.Chemscore.Lipo>
109.6839

> <Gold.Chemscore.Internal_Hbond>
0.0000

> <Gold.Chemscore.DEClash>
0.5604

> <Gold.Chemscore.DEInternal>
1.5070

> <Gold.Chemscore.Rot>
2.6985

> <Gold.Chemscore.Internal.Correction>
   9.000000E+99

> <Gold.Chemscore.Hbonds>
donor molecule, donor type, donor heavy atom, donor atom, acceptor molecule, acceptor atom, score
      L1  H     3    57       P1  8029  0.78
      L1  H    12    42       P1  7957  0.69
      P1  H  7989  7998       L1    12  0.18
      P1  H  7997  8009       L1    16  0.01

> <Gold.Chemscore.Hbond.Weighted>
-5.6374

> <Gold.Chemscore.Metal.Weighted>
-0.0000

> <Gold.Chemscore.Lipo.Weighted>
-12.8330

> <Gold.Chemscore.Internal_Hbond.Weighted>
0.0000

> <Gold.Chemscore.DEClash.Weighted>
0.5604

> <Gold.Chemscore.DEInternal.Weighted>
1.5070

> <Gold.Chemscore.Rot.Weighted>
6.9081

> <Gold.Chemscore.Internal.Correction.Weighted>
   9.000000E+99

> <Gold.Protein.RotatedTorsions>
[ 6907 6896 6895 6894 ] final   59.76 input  -60.11 | X-H torsion
[ 7974 7965 7964 7962 ] final  170.35 input  175.53 | X-H torsion
[ 8008 7997 7996 7995 ] final  171.46 input   59.86 | X-H torsion
[ 10167 10162 10161 10158 ] final   14.10 input  -65.29 | X-H torsion
[ 10718 10713 10712 10709 ] final  121.40 input   66.30 | X-H torsion
[ 10763 10752 10751 10750 ] final  100.27 input  -60.55 | X-H torsion
[ 11005 11000 10999 10996 ] final -169.97 input  -57.11 | X-H torsion

> <Gold.Protein.ActiveResidues>
 VAL166  LYS551  ARG553  GLY616  TRP617  ASP618  TYR619  PRO620  LYS621  CYS622 
 ASP623  PHE694  ASN695  SER759  ASP760  ASP761  ALA762  ILE779  LEU786  VAL792 
 PHE793  MET794  SER795  GLU796  ALA797  LYS798  CYS799  TRP800  GLU811  SER814 

> <Gold.Protein.RotatedAtoms>
  152.3943  134.6390  160.0094 H   0  0  0  0  0  0  0  0  0  0  0  0  # atno 6907 bound_to 6896
  151.6614  133.3311  159.3183 H   0  0  0  0  0  0  0  0  0  0  0  0  # atno 6908 bound_to 6896
  150.7854  134.6877  159.6524 H   0  0  0  0  0  0  0  0  0  0  0  0  # atno 6909 bound_to 6896
  144.7326  139.9190  143.6419 H   0  0  0  0  0  0  0  0  0  0  0  0  # atno 7974 bound_to 7965
  156.1269  140.1511  156.9123 H   0  0  0  0  0  0  0  0  0  0  0  0  # atno 8008 bound_to 7997
  154.4878  140.0860  156.7568 H   0  0  0  0  0  0  0  0  0  0  0  0  # atno 8009 bound_to 7997
  155.4327  140.3428  155.4284 H   0  0  0  0  0  0  0  0  0  0  0  0  # atno 8010 bound_to 7997
  140.5958  143.8704  150.6917 H   0  0  0  0  0  0  0  0  0  0  0  0  # atno 10167 bound_to 10162
  157.5820  131.1074  150.8168 H   0  0  0  0  0  0  0  0  0  0  0  0  # atno 10718 bound_to 10713
  153.3118  135.4085  155.1342 H   0  0  0  0  0  0  0  0  0  0  0  0  # atno 10763 bound_to 10752
  154.8578  135.3566  154.5713 H   0  0  0  0  0  0  0  0  0  0  0  0  # atno 10764 bound_to 10752
  153.6142  135.7067  153.5393 H   0  0  0  0  0  0  0  0  0  0  0  0  # atno 10765 bound_to 10752
  140.5247  134.5674  157.5058 H   0  0  0  0  0  0  0  0  0  0  0  0  # atno 11005 bound_to 11000
  146.0944  139.3935  143.0386 LP  0  0  0  0  0  0  0  0  0  0  0  0  # atno 17320 bound_to 7965
  145.7666  140.9914  143.1172 LP  0  0  0  0  0  0  0  0  0  0  0  0  # atno 17321 bound_to 7965
  140.2238  143.3788  152.1621 LP  0  0  0  0  0  0  0  0  0  0  0  0  # atno 17342 bound_to 10162
  139.5257  144.7099  151.5238 LP  0  0  0  0  0  0  0  0  0  0  0  0  # atno 17343 bound_to 10162
  156.8612  130.5113  149.5303 LP  0  0  0  0  0  0  0  0  0  0  0  0  # atno 17370 bound_to 10713
  156.0867  130.5863  150.9660 LP  0  0  0  0  0  0  0  0  0  0  0  0  # atno 17371 bound_to 10713
  139.9586  134.7491  156.0286 LP  0  0  0  0  0  0  0  0  0  0  0  0  # atno 17394 bound_to 11000
  141.1314  133.6585  156.3476 LP  0  0  0  0  0  0  0  0  0  0  0  0  # atno 17395 bound_to 11000

$$$$
