#       Name:                AV-unprocessed.smi:2059
#       Creating user name   scv26
#       Creation time:       Fri Mar 27 11:01:56 2020


#       File generated by GOLD software.
#

@<TRIPOS>MOLECULE
AV-unprocessed.smi:2059
    35    36     1
SMALL
NO_CHARGES


@<TRIPOS>ATOM
      1 ****        -0.2815  -7.0294   0.6108 C.3            1 S1                 0.0000
      2 ****         0.2390  -5.6466   0.4165 C.2            1 S1                 0.0000
      3 ****        -0.3355  -4.4118   0.5287 C.2            1 S1                 0.0000
      4 ****         0.7284  -3.5281   0.2041 C.2            1 S1                 0.0000
      5 ****         0.5195  -2.1196   0.2117 N.am           1 S1                 0.0000
      6 ****         1.3585  -1.0983  -0.0625 C.2            1 S1                 0.0000
      7 ****         2.5268  -1.3059  -0.3859 O.2            1 S1                 0.0000
      8 ****         0.8423   0.1377   0.0382 N.am           1 S1                 0.0000
      9 ****         1.5662   1.3782  -0.2162 C.3            1 S1                 0.0000
     10 ****         1.7084   1.6682  -1.7243 C.3            1 S1                 0.0000
     11 ****         2.1247   3.1329  -1.9075 C.3            1 S1                 0.0000
     12 ****         1.4054   4.0494  -0.4922 S.o2           1 S1                 0.0000
     13 ****         2.4923   4.7019   0.2536 O.2            1 S1                 0.0000
     14 ****         0.2318   4.8130  -0.9424 O.2            1 S1                 0.0000
     15 ****         0.8407   2.5682   0.4261 C.3            1 S1                 0.0000
     16 ****         1.8524  -4.1709  -0.0793 N.2            1 S1                 0.0000
     17 ****         1.5449  -5.5296   0.0552 O.3            1 S1                 0.0000
     18 ****        -1.3690  -7.0290   0.6878 H              1 S1                 0.0000
     19 ****         0.1220  -7.4691   1.5229 H              1 S1                 0.0000
     20 ****        -0.0029  -7.6697  -0.2263 H              1 S1                 0.0000
     21 ****        -1.3553  -4.1812   0.7996 H              1 S1                 0.0000
     22 ****        -0.4136  -1.8370   0.4739 H              1 S1                 0.0000
     23 ****        -0.1274   0.2216   0.3092 H              1 S1                 0.0000
     24 ****         2.5645   1.3163   0.2217 H              1 S1                 0.0000
     25 ****         2.4149   0.9911  -2.2054 H              1 S1                 0.0000
     26 ****         0.7431   1.5173  -2.2096 H              1 S1                 0.0000
     27 ****         3.2088   3.2349  -1.8568 H              1 S1                 0.0000
     28 ****         1.7776   3.5585  -2.8490 H              1 S1                 0.0000
     29 ****        -0.2395   2.4909   0.2964 H              1 S1                 0.0000
     30 ****         1.0569   2.6785   1.4889 H              1 S1                 0.0000
     31 ****         2.8690  -2.2434  -0.4492 LP             1 S1                 0.0000
     32 ****         3.1345  -0.5372  -0.5855 LP             1 S1                 0.0000
     33 ****         2.7324  -3.7704  -0.3348 LP             1 S1                 0.0000
     34 ****         1.6964  -5.9969  -0.8158 LP             1 S1                 0.0000
     35 ****         2.1266  -5.9384   0.7584 LP             1 S1                 0.0000
@<TRIPOS>BOND
    1    1    2 1     
    2    1   18 1     
    3    1   19 1     
    4    1   20 1     
    5    2   17 1     
    6    2    3 2     
    7    3    4 1     
    8    3   21 1     
    9    4    5 1     
   10    4   16 2     
   11    5    6 am    
   12    5   22 1     
   13    6    7 2     
   14    6    8 am    
   15    8    9 1     
   16    8   23 1     
   17    9   15 1     
   18    9   10 1     
   19    9   24 1     
   20   10   11 1     
   21   10   25 1     
   22   10   26 1     
   23   11   12 1     
   24   11   27 1     
   25   11   28 1     
   26   12   13 2     
   27   12   14 2     
   28   12   15 1     
   29   15   29 1     
   30   15   30 1     
   31   16   17 1     
   32    7   31 1     
   33    7   32 1     
   34   16   33 1     
   35   17   34 1     
   36   17   35 1     
@<TRIPOS>SUBSTRUCTURE
      1 S1             1
@<TRIPOS>SET
LONE_PAIRS      STATIC     ATOMS    <user>   **** ""
7 31 32 13 14 33 34 35
DONOR_HYDROGENS      STATIC     ATOMS    <user>   **** ""
2 22 23
ATOM$BLUE        STATIC     ATOMS    COLORGROUP SYSTEM
7 31 32 13 14 33 34 35
ATOM$RED        STATIC     ATOMS    COLORGROUP SYSTEM
2 22 23
