AV-unprocessed.smi:1433|AV-procd|sdf|5845|dock9
  -GOLD-   22720 5513D 1   1.00000     0.00000
 Structure written by MMmdl.
 45 46  0  0  0  0  0  0  0  0  2 V2000
  148.9433  140.9241  154.1305 C   0  0  0  0  0  0  0  0  0  0  0  0
  149.5686  139.5300  154.0083 C   0  0  2  0  0  0  0  0  0  0  0  0
  148.6910  138.4411  154.6559 C   0  0  0  0  0  0  0  0  0  0  0  0
  149.3563  137.1106  154.5943 N   0  3  2  0  0  0  0  0  0  0  0  0
  148.5733  135.9565  155.1471 C   0  0  2  0  0  0  0  0  0  0  0  0
  149.2114  134.6248  154.6894 C   0  0  0  0  0  0  0  0  0  0  0  0
  147.0611  135.9959  154.7913 C   0  0  0  0  0  0  0  0  0  0  0  0
  146.8088  135.6857  153.3868 N   0  0  0  0  0  0  0  0  0  0  0  0
  145.6003  135.6355  152.8031 C   0  0  0  0  0  0  0  0  0  0  0  0
  144.5443  135.7994  153.4133 O   0  0  0  0  0  0  0  0  0  0  0  0
  145.5793  135.3758  151.2954 C   0  0  0  0  0  0  0  0  0  0  0  0
  145.4244  133.9606  151.0038 N   0  0  0  0  0  0  0  0  0  0  0  0
  144.2765  133.2760  150.6624 C   0  0  0  0  0  0  0  0  0  0  0  0
  144.6193  131.9651  150.4940 C   0  0  0  0  0  0  0  0  0  0  0  0
  146.0178  131.9450  150.7550 C   0  0  0  0  0  0  0  0  0  0  0  0
  146.4965  133.1399  151.0601 N   0  0  0  0  0  0  0  0  0  0  0  0
  150.7171  137.2120  155.1879 C   0  0  0  0  0  0  0  0  0  0  0  0
  151.5354  138.3272  154.5119 C   0  0  2  0  0  0  0  0  0  0  0  0
  152.9205  138.4942  155.1466 C   0  0  0  0  0  0  0  0  0  0  0  0
  150.8363  139.5568  154.6500 O   0  0  0  0  0  0  0  0  0  0  0  0
  147.9697  140.9625  153.6413 H   0  0  0  0  0  0  0  0  0  0  0  0
  149.5782  141.6784  153.6649 H   0  0  0  0  0  0  0  0  0  0  0  0
  148.8046  141.2049  155.1748 H   0  0  0  0  0  0  0  0  0  0  0  0
  149.7077  139.3066  152.9490 H   0  0  0  0  0  0  0  0  0  0  0  0
  148.4768  138.6943  155.6957 H   0  0  0  0  0  0  0  0  0  0  0  0
  147.7433  138.4243  154.1188 H   0  0  0  0  0  0  0  0  0  0  0  0
  148.6389  136.0070  156.2353 H   0  0  0  0  0  0  0  0  0  0  0  0
  148.7328  133.7648  155.1577 H   0  0  0  0  0  0  0  0  0  0  0  0
  150.2667  134.5525  154.9451 H   0  0  0  0  0  0  0  0  0  0  0  0
  149.1261  134.5012  153.6093 H   0  0  0  0  0  0  0  0  0  0  0  0
  146.5143  135.2427  155.3583 H   0  0  0  0  0  0  0  0  0  0  0  0
  146.6320  136.9625  155.0611 H   0  0  0  0  0  0  0  0  0  0  0  0
  147.6183  135.5323  152.8029 H   0  0  0  0  0  0  0  0  0  0  0  0
  144.7564  135.9267  150.8379 H   0  0  0  0  0  0  0  0  0  0  0  0
  146.5019  135.7347  150.8368 H   0  0  0  0  0  0  0  0  0  0  0  0
  143.3220  133.7730  150.5702 H   0  0  0  0  0  0  0  0  0  0  0  0
  143.9709  131.1451  150.2236 H   0  0  0  0  0  0  0  0  0  0  0  0
  146.6944  131.1035  150.7323 H   0  0  0  0  0  0  0  0  0  0  0  0
  150.6309  137.4115  156.2574 H   0  0  0  0  0  0  0  0  0  0  0  0
  151.2576  136.2726  155.0875 H   0  0  0  0  0  0  0  0  0  0  0  0
  151.6651  138.1002  153.4522 H   0  0  0  0  0  0  0  0  0  0  0  0
  153.5059  137.5784  155.0592 H   0  0  0  0  0  0  0  0  0  0  0  0
  152.8433  138.7424  156.2056 H   0  0  0  0  0  0  0  0  0  0  0  0
  153.4794  139.2928  154.6580 H   0  0  0  0  0  0  0  0  0  0  0  0
  149.4795  136.9156  153.6108 H   0  0  0  0  0  0  0  0  0  0  0  0
  1  2  1  0  0  0  0
  1 21  1  0  0  0  0
  1 22  1  0  0  0  0
  1 23  1  0  0  0  0
  2 20  1  0  0  0  0
  2  3  1  0  0  0  0
  2 24  1  0  0  0  0
  3  4  1  0  0  0  0
  3 25  1  0  0  0  0
  3 26  1  0  0  0  0
  4  5  1  0  0  0  0
  4 17  1  0  0  0  0
  4 45  1  0  0  0  0
  5  6  1  0  0  0  0
  5  7  1  0  0  0  0
  5 27  1  0  0  0  0
  6 28  1  0  0  0  0
  6 29  1  0  0  0  0
  6 30  1  0  0  0  0
  7  8  1  0  0  0  0
  7 31  1  0  0  0  0
  7 32  1  0  0  0  0
  8  9  1  0  0  0  0
  8 33  1  0  0  0  0
  9 10  2  0  0  0  0
  9 11  1  0  0  0  0
 11 12  1  0  0  0  0
 11 34  1  0  0  0  0
 11 35  1  0  0  0  0
 12 16  1  0  0  0  0
 12 13  1  0  0  0  0
 13 14  2  0  0  0  0
 13 36  1  0  0  0  0
 14 15  1  0  0  0  0
 14 37  1  0  0  0  0
 15 16  2  0  0  0  0
 15 38  1  0  0  0  0
 17 18  1  0  0  0  0
 17 39  1  0  0  0  0
 17 40  1  0  0  0  0
 18 19  1  0  0  0  0
 18 20  1  0  0  0  0
 18 41  1  0  0  0  0
 19 42  1  0  0  0  0
 19 43  1  0  0  0  0
 19 44  1  0  0  0  0
M  CHG  1   4   1
M  END
> <s_m_source_file>
AV-unprocessed.smi

> <i_m_source_file_index>
1433

> <i_lp_mmshare_version>
43012

> <i_f3d_flags>
0

> <s_epik_input>
W0NIM11bQ0BASF0xW0NIMl1OKFtDSDJdW0NASF0oTzEpW0NIM10pW0NASF0oW0NIM10pW0NIMl1bTkhdQyg9TylbQ0gyXW4yW2NIXVtjSF1bY0hdbjI=

> <s_epik_cmdline>
J2VwaWtfcHl0aG9uJywgJy1waCcsICc3LjAnLCAnLXRuJywgJzgnLCAnLW1hJywgJzIwMCcsICctbWV0YWxfYmluZGluZycsICctaW1hZScsICc8aW5maWxlLm1hZT4nLCAnLW9tYWUnLCAnPG91dGZpbGUubWFlPic=

> <r_lp_tautomer_probability>
1

> <r_epik_Ionization_Penalty>
0.748405

> <r_epik_Ionization_Penalty_Charging>
0.748396

> <r_epik_Ionization_Penalty_Neutral>
8.54426e-06

> <r_epik_State_Penalty>
0.775162

> <r_epik_Charging_Adjusted_Penalty>
1.52356

> <i_epik_Tot_Q>
1

> <i_epik_Tot_abs_Q>
1

> <r_epik_Metal_State_Penalty>
0.775167

> <b_epik_Metal_Only>
0

> <s_lp_Force_Field>
OPLS_2005

> <r_lp_Energy>
19.9081

> <b_lp_Chiralities_Consistent>
1

> <s_lp_Variant>
AV-unprocessed.smi:1433-11

> <Gold.Version>
5.8.1

> <Gold.Id.Protein>
6NUR|6NUR_protein|mol2

> <Gold.PLP.Fitness>
51.0228

> <Gold.PLP.PLP>
-35.0765

> <Gold.PLP.part.hbond>
-3.0000

> <Gold.PLP.part.metal>
0.0000

> <Gold.PLP.part.buried>
-3.1908

> <Gold.PLP.part.nonpolar>
-29.6233

> <Gold.PLP.part.repulsive>
0.3435

> <Gold.PLP.ligand.clash>
0.0000

> <Gold.PLP.ligand.torsion>
0.9083

> <Gold.PLP.Chemscore.Hbond>
3.9000

> <Gold.PLP.Chemscore.CHOScore>
2.0000

> <Gold.PLP.Chemscore.Metal>
0.0000

> <Gold.Chemscore.Hbonds>
donor molecule, donor type, donor heavy atom, donor atom, acceptor molecule, acceptor atom, score
      L1  H     4    45       P1  7948  2.00
      L1  H     8    33       P1  7948  0.99
      P1  H  7989  7998       L1    20  0.80
      L1  C    13    36       P1 10186  0.80
      L1  C    15    38       P1 10747  1.00

> <Gold.PLP.Chemscore.Internal.Correction>
0.0630

> <Gold.Rescore>
     Score         DG    S(hbond)    S(metal)    S(lipo)     H(rot)  DE(clash)    DE(int)     intcor
     16.10     -17.16       1.95        0.00      84.92       1.87       0.24       0.82       ----

> <Gold.Chemscore.Fitness>
16.1048

> <Gold.Chemscore.DG>
-17.1627

> <Gold.Chemscore.ZeroCoef>
-5.4800

> <Gold.Chemscore.Hbond>
1.9530

> <Gold.Chemscore.Metal>
0.0000

> <Gold.Chemscore.Lipo>
84.9205

> <Gold.Chemscore.Internal_Hbond>
0.0000

> <Gold.Chemscore.DEClash>
0.2386

> <Gold.Chemscore.DEInternal>
0.8193

> <Gold.Chemscore.Rot>
1.8657

> <Gold.Chemscore.Internal.Correction>
   9.000000E+99

> <Gold.Chemscore.Hbonds>
donor molecule, donor type, donor heavy atom, donor atom, acceptor molecule, acceptor atom, score
      L1  H     4    45       P1  7948  0.87
      L1  H     8    33       P1  7948  0.93
      P1  H  7989  7998       L1    20  0.08

> <Gold.Chemscore.Hbond.Weighted>
-6.5232

> <Gold.Chemscore.Metal.Weighted>
-0.0000

> <Gold.Chemscore.Lipo.Weighted>
-9.9357

> <Gold.Chemscore.Internal_Hbond.Weighted>
0.0000

> <Gold.Chemscore.DEClash.Weighted>
0.2386

> <Gold.Chemscore.DEInternal.Weighted>
0.8193

> <Gold.Chemscore.Rot.Weighted>
4.7761

> <Gold.Chemscore.Internal.Correction.Weighted>
   9.000000E+99

> <Gold.Protein.RotatedTorsions>
[ 6907 6896 6895 6894 ] final  -34.77 input  -60.11 | X-H torsion
[ 7974 7965 7964 7962 ] final   44.80 input  175.53 | X-H torsion
[ 8008 7997 7996 7995 ] final  -29.60 input   59.86 | X-H torsion
[ 10167 10162 10161 10158 ] final   59.02 input  -65.29 | X-H torsion
[ 10718 10713 10712 10709 ] final  -11.00 input   66.30 | X-H torsion
[ 10763 10752 10751 10750 ] final   62.76 input  -60.55 | X-H torsion
[ 11005 11000 10999 10996 ] final  119.52 input  -57.11 | X-H torsion

> <Gold.Protein.ActiveResidues>
 VAL166  LYS551  ARG553  GLY616  TRP617  ASP618  TYR619  PRO620  LYS621  CYS622 
 ASP623  PHE694  ASN695  SER759  ASP760  ASP761  ALA762  ILE779  LEU786  VAL792 
 PHE793  MET794  SER795  GLU796  ALA797  LYS798  CYS799  TRP800  GLU811  SER814 

> <Gold.Protein.RotatedAtoms>
  151.0483  134.9655  159.8197 H   0  0  0  0  0  0  0  0  0  0  0  0  # atno 6907 bound_to 6896
  152.5376  134.2570  159.8930 H   0  0  0  0  0  0  0  0  0  0  0  0  # atno 6908 bound_to 6896
  151.2584  133.4271  159.2648 H   0  0  0  0  0  0  0  0  0  0  0  0  # atno 6909 bound_to 6896
  146.0536  139.5034  142.9702 H   0  0  0  0  0  0  0  0  0  0  0  0  # atno 7974 bound_to 7965
  154.4283  140.1814  156.1273 H   0  0  0  0  0  0  0  0  0  0  0  0  # atno 8008 bound_to 7997
  156.0095  140.3352  155.6901 H   0  0  0  0  0  0  0  0  0  0  0  0  # atno 8009 bound_to 7997
  155.6130  140.0652  157.2691 H   0  0  0  0  0  0  0  0  0  0  0  0  # atno 8010 bound_to 7997
  140.1809  144.4182  150.6615 H   0  0  0  0  0  0  0  0  0  0  0  0  # atno 10167 bound_to 10162
  156.6653  130.4993  149.6017 H   0  0  0  0  0  0  0  0  0  0  0  0  # atno 10718 bound_to 10713
  152.9994  135.5453  154.6244 H   0  0  0  0  0  0  0  0  0  0  0  0  # atno 10763 bound_to 10752
  154.5536  135.2828  155.0988 H   0  0  0  0  0  0  0  0  0  0  0  0  # atno 10764 bound_to 10752
  154.2218  135.6449  153.5200 H   0  0  0  0  0  0  0  0  0  0  0  0  # atno 10765 bound_to 10752
  139.9149  134.9629  156.7667 H   0  0  0  0  0  0  0  0  0  0  0  0  # atno 11005 bound_to 11000
  145.6682  141.0223  143.1672 LP  0  0  0  0  0  0  0  0  0  0  0  0  # atno 17320 bound_to 7965
  144.7136  139.8279  143.7406 LP  0  0  0  0  0  0  0  0  0  0  0  0  # atno 17321 bound_to 7965
  140.6520  143.2227  151.6055 LP  0  0  0  0  0  0  0  0  0  0  0  0  # atno 17342 bound_to 10162
  139.5296  144.2954  152.1117 LP  0  0  0  0  0  0  0  0  0  0  0  0  # atno 17343 bound_to 10162
  156.1980  130.6602  151.1135 LP  0  0  0  0  0  0  0  0  0  0  0  0  # atno 17370 bound_to 10713
  157.7096  131.0740  150.6548 LP  0  0  0  0  0  0  0  0  0  0  0  0  # atno 17371 bound_to 10713
  140.6654  133.9608  155.7827 LP  0  0  0  0  0  0  0  0  0  0  0  0  # atno 17394 bound_to 11000
  141.0615  134.0340  157.3652 LP  0  0  0  0  0  0  0  0  0  0  0  0  # atno 17395 bound_to 11000

$$$$
