AV-unprocessed.smi:2331|AV-procd|sdf|9317|dock6
  -GOLD-   2272012533D 1   1.00000     0.00000
 Structure written by MMmdl.
 50 51  0  0  0  0  0  0  0  0  2 V2000
  151.4710  144.8187  157.9768 C   0  0  0  0  0  0  0  0  0  0  0  0
  151.1594  143.3643  158.3879 C   0  0  0  0  0  0  0  0  0  0  0  0
  149.6469  143.2953  158.7109 C   0  0  0  0  0  0  0  0  0  0  0  0
  151.4405  142.4281  157.1838 C   0  0  0  0  0  0  0  0  0  0  0  0
  150.2314  142.1623  156.4096 N   0  0  0  0  0  0  0  0  0  0  0  0
  150.0736  141.1771  155.5115 C   0  0  0  0  0  0  0  0  0  0  0  0
  150.9534  140.3506  155.2700 O   0  0  0  0  0  0  0  0  0  0  0  0
  148.8368  141.1381  154.9599 N   0  0  0  0  0  0  0  0  0  0  0  0
  147.9153  142.2838  154.9579 C   0  0  0  0  0  0  0  0  0  0  0  0
  146.8238  141.9741  153.9358 C   0  0  0  0  0  0  0  0  0  0  0  0
  147.4283  140.8916  153.0534 C   0  0  0  0  0  0  0  0  0  0  0  0
  148.4079  140.1347  153.9689 C   0  0  2  0  0  0  0  0  0  0  0  0
  147.8382  138.8131  154.5929 C   0  0  0  0  0  0  0  0  0  0  0  0
  148.9426  138.0611  155.3621 C   0  0  0  0  0  0  0  0  0  0  0  0
  146.6308  139.0121  155.5307 C   0  0  0  0  0  0  0  0  0  0  0  0
  147.4083  137.9397  153.5657 O   0  0  0  0  0  0  0  0  0  0  0  0
  152.0411  142.9685  159.5898 C   0  0  0  0  0  0  0  0  0  0  0  0
  151.9159  143.5786  160.8652 C   0  0  0  0  0  0  0  0  0  0  0  0
  152.7413  143.1573  161.9274 C   0  0  0  0  0  0  0  0  0  0  0  0
  153.6467  142.1766  161.7302 N   0  3  0  0  0  0  0  0  0  0  0  0
  153.8072  141.5637  160.5392 C   0  0  0  0  0  0  0  0  0  0  0  0
  153.0092  141.9439  159.4418 C   0  0  0  0  0  0  0  0  0  0  0  0
  150.8453  145.1377  157.1423 H   0  0  0  0  0  0  0  0  0  0  0  0
  152.5074  144.9449  157.6636 H   0  0  0  0  0  0  0  0  0  0  0  0
  151.2919  145.5093  158.8017 H   0  0  0  0  0  0  0  0  0  0  0  0
  149.0468  143.5865  157.8478 H   0  0  0  0  0  0  0  0  0  0  0  0
  149.3776  143.9694  159.5250 H   0  0  0  0  0  0  0  0  0  0  0  0
  149.3311  142.2891  158.9893 H   0  0  0  0  0  0  0  0  0  0  0  0
  152.2171  142.8605  156.5500 H   0  0  0  0  0  0  0  0  0  0  0  0
  151.8293  141.4683  157.5250 H   0  0  0  0  0  0  0  0  0  0  0  0
  149.4477  142.7791  156.5651 H   0  0  0  0  0  0  0  0  0  0  0  0
  147.4890  142.4534  155.9478 H   0  0  0  0  0  0  0  0  0  0  0  0
  148.4500  143.1877  154.6606 H   0  0  0  0  0  0  0  0  0  0  0  0
  145.9400  141.5890  154.4450 H   0  0  0  0  0  0  0  0  0  0  0  0
  146.5174  142.8535  153.3687 H   0  0  0  0  0  0  0  0  0  0  0  0
  146.6679  140.2642  152.5898 H   0  0  0  0  0  0  0  0  0  0  0  0
  147.9878  141.3653  152.2455 H   0  0  0  0  0  0  0  0  0  0  0  0
  149.2716  139.8595  153.3605 H   0  0  0  0  0  0  0  0  0  0  0  0
  149.3233  138.6629  156.1878 H   0  0  0  0  0  0  0  0  0  0  0  0
  149.7902  137.8059  154.7267 H   0  0  0  0  0  0  0  0  0  0  0  0
  148.5690  137.1280  155.7858 H   0  0  0  0  0  0  0  0  0  0  0  0
  146.8798  139.6749  156.3594 H   0  0  0  0  0  0  0  0  0  0  0  0
  146.3050  138.0651  155.9631 H   0  0  0  0  0  0  0  0  0  0  0  0
  145.7707  139.4314  155.0087 H   0  0  0  0  0  0  0  0  0  0  0  0
  148.1701  137.5462  153.1684 H   0  0  0  0  0  0  0  0  0  0  0  0
  151.1994  144.3623  161.0573 H   0  0  0  0  0  0  0  0  0  0  0  0
  152.7025  143.5728  162.9240 H   0  0  0  0  0  0  0  0  0  0  0  0
  154.5622  140.7918  160.5001 H   0  0  0  0  0  0  0  0  0  0  0  0
  153.1419  141.4426  158.4945 H   0  0  0  0  0  0  0  0  0  0  0  0
  154.2329  141.8866  162.5134 H   0  0  0  0  0  0  0  0  0  0  0  0
  1  2  1  0  0  0  0
  1 23  1  0  0  0  0
  1 24  1  0  0  0  0
  1 25  1  0  0  0  0
  2  3  1  0  0  0  0
  2  4  1  0  0  0  0
  2 17  1  0  0  0  0
  3 26  1  0  0  0  0
  3 27  1  0  0  0  0
  3 28  1  0  0  0  0
  4  5  1  0  0  0  0
  4 29  1  0  0  0  0
  4 30  1  0  0  0  0
  5  6  1  0  0  0  0
  5 31  1  0  0  0  0
  6  7  2  0  0  0  0
  6  8  1  0  0  0  0
  8 12  1  0  0  0  0
  8  9  1  0  0  0  0
  9 10  1  0  0  0  0
  9 32  1  0  0  0  0
  9 33  1  0  0  0  0
 10 11  1  0  0  0  0
 10 34  1  0  0  0  0
 10 35  1  0  0  0  0
 11 12  1  0  0  0  0
 11 36  1  0  0  0  0
 11 37  1  0  0  0  0
 12 13  1  0  0  0  0
 12 38  1  0  0  0  0
 13 14  1  0  0  0  0
 13 15  1  0  0  0  0
 13 16  1  0  0  0  0
 14 39  1  0  0  0  0
 14 40  1  0  0  0  0
 14 41  1  0  0  0  0
 15 42  1  0  0  0  0
 15 43  1  0  0  0  0
 15 44  1  0  0  0  0
 16 45  1  0  0  0  0
 17 22  1  0  0  0  0
 17 18  2  0  0  0  0
 18 19  1  0  0  0  0
 18 46  1  0  0  0  0
 19 20  2  0  0  0  0
 19 47  1  0  0  0  0
 20 21  1  0  0  0  0
 20 50  1  0  0  0  0
 21 22  2  0  0  0  0
 21 48  1  0  0  0  0
 22 49  1  0  0  0  0
M  CHG  1  20   1
M  END
> <s_m_source_file>
AV-unprocessed.smi

> <i_m_source_file_index>
2331

> <i_lp_mmshare_version>
43012

> <i_f3d_flags>
0

> <s_epik_input>
W2NIXTFbY0hdbltjSF1bY0hdYzFDKFtDSDNdKShbQ0gzXSlbQ0gyXVtOSF1DKD1PKU4yW0NIMl1bQ0gyXVtDSDJdW0NASF0yQyhbQ0gzXSkoW0NIM10pW09IXQ==

> <s_epik_cmdline>
J2VwaWtfcHl0aG9uJywgJy1waCcsICc3LjAnLCAnLXRuJywgJzgnLCAnLW1hJywgJzIwMCcsICctbWV0YWxfYmluZGluZycsICctaW1hZScsICc8aW5maWxlLm1hZT4nLCAnLW9tYWUnLCAnPG91dGZpbGUubWFlPic=

> <r_epik_Ionization_Penalty>
1.40501

> <r_epik_Ionization_Penalty_Charging>
1.40494

> <r_epik_Ionization_Penalty_Neutral>
7.00889e-05

> <r_epik_State_Penalty>
1.48741

> <r_epik_Charging_Adjusted_Penalty>
2.89235

> <i_epik_Tot_Q>
1

> <i_epik_Tot_abs_Q>
1

> <r_epik_Metal_State_Penalty>
1.54092

> <b_epik_Metal_Only>
0

> <s_lp_Force_Field>
OPLS_2005

> <r_lp_Energy>
57.0606

> <b_lp_Chiralities_Consistent>
1

> <s_lp_Variant>
AV-unprocessed.smi:2331-4

> <Gold.Version>
5.8.1

> <Gold.Id.Protein>
6NUR|6NUR_protein|mol2

> <Gold.PLP.Fitness>
44.2927

> <Gold.PLP.PLP>
-43.7552

> <Gold.PLP.part.hbond>
-3.3179

> <Gold.PLP.part.metal>
0.0000

> <Gold.PLP.part.buried>
-0.9785

> <Gold.PLP.part.nonpolar>
-37.7334

> <Gold.PLP.part.repulsive>
0.1345

> <Gold.PLP.ligand.clash>
4.7435

> <Gold.PLP.ligand.torsion>
1.0344

> <Gold.PLP.Chemscore.Hbond>
2.3624

> <Gold.PLP.Chemscore.CHOScore>
0.0000

> <Gold.PLP.Chemscore.Metal>
0.0000

> <Gold.Chemscore.Hbonds>
donor molecule, donor type, donor heavy atom, donor atom, acceptor molecule, acceptor atom, score
      L1  H     5    31       P1  8028  0.34
      L1  H    16    45       P1  7948  0.99
      P1  H  7989  7998       L1     7  1.00

> <Gold.PLP.Chemscore.Internal.Correction>
0.2624

> <Gold.Rescore>
     Score         DG    S(hbond)    S(metal)    S(lipo)     H(rot)  DE(clash)    DE(int)     intcor
     17.63     -19.85       1.68        0.00     119.07       2.02       0.20       2.02       ----

> <Gold.Chemscore.Fitness>
17.6296

> <Gold.Chemscore.DG>
-19.8476

> <Gold.Chemscore.ZeroCoef>
-5.4800

> <Gold.Chemscore.Hbond>
1.6783

> <Gold.Chemscore.Metal>
0.0000

> <Gold.Chemscore.Lipo>
119.0699

> <Gold.Chemscore.Internal_Hbond>
0.0000

> <Gold.Chemscore.DEClash>
0.1961

> <Gold.Chemscore.DEInternal>
2.0219

> <Gold.Chemscore.Rot>
2.0192

> <Gold.Chemscore.Internal.Correction>
   9.000000E+99

> <Gold.Chemscore.Hbonds>
donor molecule, donor type, donor heavy atom, donor atom, acceptor molecule, acceptor atom, score
      L1  H     5    31       P1  8028  0.35
      L1  H    16    45       P1  7948  0.91
      P1  H  7989  7998       L1     7  0.43

> <Gold.Chemscore.Hbond.Weighted>
-5.6056

> <Gold.Chemscore.Metal.Weighted>
-0.0000

> <Gold.Chemscore.Lipo.Weighted>
-13.9312

> <Gold.Chemscore.Internal_Hbond.Weighted>
0.0000

> <Gold.Chemscore.DEClash.Weighted>
0.1961

> <Gold.Chemscore.DEInternal.Weighted>
2.0219

> <Gold.Chemscore.Rot.Weighted>
5.1691

> <Gold.Chemscore.Internal.Correction.Weighted>
   9.000000E+99

> <Gold.Protein.RotatedTorsions>
[ 6907 6896 6895 6894 ] final   48.39 input  -60.11 | X-H torsion
[ 7974 7965 7964 7962 ] final   68.02 input  175.53 | X-H torsion
[ 8008 7997 7996 7995 ] final  167.36 input   59.86 | X-H torsion
[ 10167 10162 10161 10158 ] final  106.85 input  -65.29 | X-H torsion
[ 10718 10713 10712 10709 ] final  -42.42 input   66.30 | X-H torsion
[ 10763 10752 10751 10750 ] final -109.77 input  -60.55 | X-H torsion
[ 11005 11000 10999 10996 ] final   56.14 input  -57.11 | X-H torsion

> <Gold.Protein.ActiveResidues>
 VAL166  LYS551  ARG553  GLY616  TRP617  ASP618  TYR619  PRO620  LYS621  CYS622 
 ASP623  PHE694  ASN695  SER759  ASP760  ASP761  ALA762  ILE779  LEU786  VAL792 
 PHE793  MET794  SER795  GLU796  ALA797  LYS798  CYS799  TRP800  GLU811  SER814 

> <Gold.Protein.RotatedAtoms>
  152.2790  134.7849  160.0399 H   0  0  0  0  0  0  0  0  0  0  0  0  # atno 6907 bound_to 6896
  151.8435  133.3422  159.3659 H   0  0  0  0  0  0  0  0  0  0  0  0  # atno 6908 bound_to 6896
  150.7182  134.5296  159.5738 H   0  0  0  0  0  0  0  0  0  0  0  0  # atno 6909 bound_to 6896
  145.8077  139.3015  143.1118 H   0  0  0  0  0  0  0  0  0  0  0  0  # atno 7974 bound_to 7965
  156.1640  140.1619  156.8563 H   0  0  0  0  0  0  0  0  0  0  0  0  # atno 8008 bound_to 7997
  154.5189  140.0783  156.8169 H   0  0  0  0  0  0  0  0  0  0  0  0  # atno 8009 bound_to 7997
  155.3649  140.3397  155.4244 H   0  0  0  0  0  0  0  0  0  0  0  0  # atno 8010 bound_to 7997
  139.6975  144.7099  151.1241 H   0  0  0  0  0  0  0  0  0  0  0  0  # atno 10167 bound_to 10162
  156.2598  130.4196  149.8555 H   0  0  0  0  0  0  0  0  0  0  0  0  # atno 10718 bound_to 10713
  154.8211  135.4589  154.0783 H   0  0  0  0  0  0  0  0  0  0  0  0  # atno 10763 bound_to 10752
  153.2135  135.6885  153.8091 H   0  0  0  0  0  0  0  0  0  0  0  0  # atno 10764 bound_to 10752
  153.7534  135.3295  155.3302 H   0  0  0  0  0  0  0  0  0  0  0  0  # atno 10765 bound_to 10752
  140.0552  134.5680  155.9216 H   0  0  0  0  0  0  0  0  0  0  0  0  # atno 11005 bound_to 11000
  145.9811  140.8682  143.0114 LP  0  0  0  0  0  0  0  0  0  0  0  0  # atno 17320 bound_to 7965
  144.6761  140.2081  143.7380 LP  0  0  0  0  0  0  0  0  0  0  0  0  # atno 17321 bound_to 7965
  140.7700  143.5470  150.9247 LP  0  0  0  0  0  0  0  0  0  0  0  0  # atno 17342 bound_to 10162
  139.9151  143.6674  152.3108 LP  0  0  0  0  0  0  0  0  0  0  0  0  # atno 17343 bound_to 10162
  156.6075  130.8572  151.3446 LP  0  0  0  0  0  0  0  0  0  0  0  0  # atno 17370 bound_to 10713
  157.7246  130.9605  150.1580 LP  0  0  0  0  0  0  0  0  0  0  0  0  # atno 17371 bound_to 10713
  141.1949  133.6585  156.5616 LP  0  0  0  0  0  0  0  0  0  0  0  0  # atno 17394 bound_to 11000
  140.3855  134.7486  157.4688 LP  0  0  0  0  0  0  0  0  0  0  0  0  # atno 17395 bound_to 11000

$$$$
