AV-unprocessed.smi:2243|AV-procd|sdf|9066|dock9
  -GOLD-   2272012273D 1   1.00000     0.00000
 Structure written by MMmdl.
 34 35  0  0  0  0  0  0  0  0  1 V2000
  147.6120  133.1486  155.3653 C   0  0  0  0  0  0  0  0  0  0  0  0
  148.7156  133.4967  154.3520 C   0  0  2  0  0  0  0  0  0  0  0  0
  148.0951  133.6043  153.0305 N   0  0  0  0  0  0  0  0  0  0  0  0
  147.2677  132.7140  152.4601 C   0  0  0  0  0  0  0  0  0  0  0  0
  146.9383  131.6719  153.0351 O   0  0  0  0  0  0  0  0  0  0  0  0
  146.8860  133.1655  151.2050 N   0  0  0  0  0  0  0  0  0  0  0  0
  145.7708  132.7555  150.6845 C   0  0  0  0  0  0  0  0  0  0  0  0
  145.2355  133.1007  149.4538 N   0  0  0  0  0  0  0  0  0  0  0  0
  144.0475  132.4397  149.3056 C   0  0  0  0  0  0  0  0  0  0  0  0
  143.8423  131.7077  150.3967 C   0  0  0  0  0  0  0  0  0  0  0  0
  144.8806  131.8792  151.2616 O   0  0  0  0  0  0  0  0  0  0  0  0
  149.8736  132.4635  154.3255 C   0  0  0  0  0  0  0  0  0  0  0  0
  149.3724  131.0169  154.1389 C   0  0  0  0  0  0  0  0  0  0  0  0
  150.5355  130.0128  154.1872 C   0  0  0  0  0  0  0  0  0  0  0  0
  151.2388  130.1406  155.4164 O   0  0  0  0  0  0  0  0  0  0  0  0
  151.8300  131.4239  155.5774 C   0  0  0  0  0  0  0  0  0  0  0  0
  150.7401  132.5076  155.6029 C   0  0  0  0  0  0  0  0  0  0  0  0
  147.9756  133.1934  156.3914 H   0  0  0  0  0  0  0  0  0  0  0  0
  147.2147  132.1479  155.1925 H   0  0  0  0  0  0  0  0  0  0  0  0
  146.7815  133.8519  155.2942 H   0  0  0  0  0  0  0  0  0  0  0  0
  149.1326  134.4613  154.6460 H   0  0  0  0  0  0  0  0  0  0  0  0
  148.3185  134.4330  152.4985 H   0  0  0  0  0  0  0  0  0  0  0  0
  145.6178  133.7243  148.7577 H   0  0  0  0  0  0  0  0  0  0  0  0
  143.4592  132.5678  148.4091 H   0  0  0  0  0  0  0  0  0  0  0  0
  143.0454  131.0435  150.6960 H   0  0  0  0  0  0  0  0  0  0  0  0
  150.5202  132.7036  153.4799 H   0  0  0  0  0  0  0  0  0  0  0  0
  148.6504  130.7719  154.9190 H   0  0  0  0  0  0  0  0  0  0  0  0
  148.8543  130.9058  153.1870 H   0  0  0  0  0  0  0  0  0  0  0  0
  150.1538  128.9951  154.1060 H   0  0  0  0  0  0  0  0  0  0  0  0
  151.2160  130.1645  153.3478 H   0  0  0  0  0  0  0  0  0  0  0  0
  152.3901  131.4369  156.5124 H   0  0  0  0  0  0  0  0  0  0  0  0
  152.5462  131.6105  154.7758 H   0  0  0  0  0  0  0  0  0  0  0  0
  151.2154  133.4821  155.7163 H   0  0  0  0  0  0  0  0  0  0  0  0
  150.1097  132.3655  156.4816 H   0  0  0  0  0  0  0  0  0  0  0  0
  1  2  1  0  0  0  0
  1 18  1  0  0  0  0
  1 19  1  0  0  0  0
  1 20  1  0  0  0  0
  2  3  1  0  0  0  0
  2 12  1  0  0  0  0
  2 21  1  0  0  0  0
  3 22  1  0  0  0  0
  3  4  1  0  0  0  0
  4  6  1  0  0  0  0
  4  5  2  0  0  0  0
  6  7  2  0  0  0  0
  7 11  1  0  0  0  0
  7  8  1  0  0  0  0
  8 23  1  0  0  0  0
  8  9  1  0  0  0  0
  9 24  1  0  0  0  0
  9 10  2  0  0  0  0
 10 25  1  0  0  0  0
 10 11  1  0  0  0  0
 12 17  1  0  0  0  0
 12 13  1  0  0  0  0
 12 26  1  0  0  0  0
 13 14  1  0  0  0  0
 13 27  1  0  0  0  0
 13 28  1  0  0  0  0
 14 15  1  0  0  0  0
 14 29  1  0  0  0  0
 14 30  1  0  0  0  0
 15 16  1  0  0  0  0
 16 17  1  0  0  0  0
 16 31  1  0  0  0  0
 16 32  1  0  0  0  0
 17 33  1  0  0  0  0
 17 34  1  0  0  0  0
M  END
> <s_m_source_file>
AV-unprocessed.smi

> <i_m_source_file_index>
2243

> <i_lp_mmshare_version>
43012

> <i_f3d_flags>
0

> <s_epik_input>
W0NIMl0xW0NIMl1PW0NIMl1bQ0gyXVtDSF0xW0NASF0oW0NIM10pW05IXUMoPU8pW05IXWMybltjSF1bY0hdbzI=

> <s_epik_cmdline>
J2VwaWtfcHl0aG9uJywgJy1waCcsICc3LjAnLCAnLXRuJywgJzgnLCAnLW1hJywgJzIwMCcsICctbWV0YWxfYmluZGluZycsICctaW1hZScsICc8aW5maWxlLm1hZT4nLCAnLW9tYWUnLCAnPG91dGZpbGUubWFlPic=

> <r_lp_tautomer_probability>
0.107061

> <r_epik_Ionization_Penalty>
1.44639

> <r_epik_Ionization_Penalty_Charging>
1.44602

> <r_epik_Ionization_Penalty_Neutral>
0.000368208

> <r_epik_State_Penalty>
2.61815

> <r_epik_Charging_Adjusted_Penalty>
4.06418

> <i_epik_Tot_Q>
0

> <i_epik_Tot_abs_Q>
0

> <r_epik_Metal_State_Penalty>
3.54171

> <b_epik_Metal_Only>
0

> <s_lp_Force_Field>
OPLS_2005

> <r_lp_Energy>
34.6671

> <b_lp_Chiralities_Consistent>
1

> <s_lp_Variant>
AV-unprocessed.smi:2243-5

> <Gold.Version>
5.8.1

> <Gold.Id.Protein>
6NUR|6NUR_protein|mol2

> <Gold.PLP.Fitness>
36.2645

> <Gold.PLP.PLP>
-28.1075

> <Gold.PLP.part.hbond>
-2.0000

> <Gold.PLP.part.metal>
0.0000

> <Gold.PLP.part.buried>
-5.3578

> <Gold.PLP.part.nonpolar>
-22.3213

> <Gold.PLP.part.repulsive>
0.6359

> <Gold.PLP.ligand.clash>
0.0000

> <Gold.PLP.ligand.torsion>
0.3638

> <Gold.PLP.Chemscore.Hbond>
2.0000

> <Gold.PLP.Chemscore.CHOScore>
0.9563

> <Gold.PLP.Chemscore.Metal>
0.0000

> <Gold.Chemscore.Hbonds>
donor molecule, donor type, donor heavy atom, donor atom, acceptor molecule, acceptor atom, score
      L1  H     3    22       P1  7948  0.85
      L1  H     8    23       P1  7921  1.00
      L1  C    10    25       P1 10952  0.86

> <Gold.PLP.Chemscore.Internal.Correction>
0.0156

> <Gold.Rescore>
     Score         DG    S(hbond)    S(metal)    S(lipo)     H(rot)  DE(clash)    DE(int)     intcor
     10.09     -14.72       1.81        0.00      56.18       1.32       0.00       4.63       ----

> <Gold.Chemscore.Fitness>
10.0917

> <Gold.Chemscore.DG>
-14.7188

> <Gold.Chemscore.ZeroCoef>
-5.4800

> <Gold.Chemscore.Hbond>
1.8100

> <Gold.Chemscore.Metal>
0.0000

> <Gold.Chemscore.Lipo>
56.1782

> <Gold.Chemscore.Internal_Hbond>
0.0000

> <Gold.Chemscore.DEClash>
0.0004

> <Gold.Chemscore.DEInternal>
4.6267

> <Gold.Chemscore.Rot>
1.3201

> <Gold.Chemscore.Internal.Correction>
   9.000000E+99

> <Gold.Chemscore.Hbonds>
donor molecule, donor type, donor heavy atom, donor atom, acceptor molecule, acceptor atom, score
      L1  H     3    22       P1  7948  0.14
      L1  H     8    23       P1  7921  0.30

> <Gold.Chemscore.Hbond.Weighted>
-6.0453

> <Gold.Chemscore.Metal.Weighted>
-0.0000

> <Gold.Chemscore.Lipo.Weighted>
-6.5728

> <Gold.Chemscore.Internal_Hbond.Weighted>
0.0000

> <Gold.Chemscore.DEClash.Weighted>
0.0004

> <Gold.Chemscore.DEInternal.Weighted>
4.6267

> <Gold.Chemscore.Rot.Weighted>
3.3794

> <Gold.Chemscore.Internal.Correction.Weighted>
   9.000000E+99

> <Gold.Protein.RotatedTorsions>
[ 6907 6896 6895 6894 ] final   26.26 input  -60.11 | X-H torsion
[ 7974 7965 7964 7962 ] final   22.35 input  175.53 | X-H torsion
[ 8008 7997 7996 7995 ] final  102.96 input   59.86 | X-H torsion
[ 10167 10162 10161 10158 ] final  -81.42 input  -65.29 | X-H torsion
[ 10718 10713 10712 10709 ] final -134.21 input   66.30 | X-H torsion
[ 10763 10752 10751 10750 ] final -121.08 input  -60.55 | X-H torsion
[ 11005 11000 10999 10996 ] final -107.31 input  -57.11 | X-H torsion

> <Gold.Protein.ActiveResidues>
 VAL166  LYS551  ARG553  GLY616  TRP617  ASP618  TYR619  PRO620  LYS621  CYS622 
 ASP623  PHE694  ASN695  SER759  ASP760  ASP761  ALA762  ILE779  LEU786  VAL792 
 PHE793  MET794  SER795  GLU796  ALA797  LYS798  CYS799  TRP800  GLU811  SER814 

> <Gold.Protein.RotatedAtoms>
  151.9849  135.0009  160.0558 H   0  0  0  0  0  0  0  0  0  0  0  0  # atno 6907 bound_to 6896
  152.1662  133.4609  159.4894 H   0  0  0  0  0  0  0  0  0  0  0  0  # atno 6908 bound_to 6896
  150.6895  134.1927  159.4334 H   0  0  0  0  0  0  0  0  0  0  0  0  # atno 6909 bound_to 6896
  146.2033  139.7898  142.8745 H   0  0  0  0  0  0  0  0  0  0  0  0  # atno 7974 bound_to 7965
  156.1441  140.3172  155.8542 H   0  0  0  0  0  0  0  0  0  0  0  0  # atno 8008 bound_to 7997
  155.4098  140.0505  157.3049 H   0  0  0  0  0  0  0  0  0  0  0  0  # atno 8009 bound_to 7997
  154.5001  140.2126  155.9376 H   0  0  0  0  0  0  0  0  0  0  0  0  # atno 8010 bound_to 7997
  140.4414  143.2513  151.8620 H   0  0  0  0  0  0  0  0  0  0  0  0  # atno 10167 bound_to 10162
  156.2530  130.7165  151.1071 H   0  0  0  0  0  0  0  0  0  0  0  0  # atno 10718 bound_to 10713
  154.8660  135.4180  154.2562 H   0  0  0  0  0  0  0  0  0  0  0  0  # atno 10763 bound_to 10752
  153.3499  135.6998  153.6803 H   0  0  0  0  0  0  0  0  0  0  0  0  # atno 10764 bound_to 10752
  153.5747  135.3584  155.2824 H   0  0  0  0  0  0  0  0  0  0  0  0  # atno 10765 bound_to 10752
  141.0960  133.8970  157.1961 H   0  0  0  0  0  0  0  0  0  0  0  0  # atno 11005 bound_to 11000
  145.3410  141.0287  143.3393 LP  0  0  0  0  0  0  0  0  0  0  0  0  # atno 17320 bound_to 7965
  144.8732  139.5008  143.6758 LP  0  0  0  0  0  0  0  0  0  0  0  0  # atno 17321 bound_to 7965
  139.4790  144.5225  151.8782 LP  0  0  0  0  0  0  0  0  0  0  0  0  # atno 17342 bound_to 10162
  140.4314  144.2110  150.5888 LP  0  0  0  0  0  0  0  0  0  0  0  0  # atno 17343 bound_to 10162
  157.7222  131.0674  150.6088 LP  0  0  0  0  0  0  0  0  0  0  0  0  # atno 17370 bound_to 10713
  156.6169  130.4395  149.5837 LP  0  0  0  0  0  0  0  0  0  0  0  0  # atno 17371 bound_to 10713
  139.9797  135.0102  156.9720 LP  0  0  0  0  0  0  0  0  0  0  0  0  # atno 17394 bound_to 11000
  140.5138  134.0975  155.7276 LP  0  0  0  0  0  0  0  0  0  0  0  0  # atno 17395 bound_to 11000

$$$$
