AV-unprocessed.smi:281|AV-procd|sdf|2105|dock3
  -GOLD-   2262021393D 1   1.00000     0.00000
 Structure written by MMmdl.
 55 59  0  0  0  0  0  0  0  0  1 V2000
  152.0153  139.2958  154.8582 C   0  0  0  0  0  0  0  0  0  0  0  0
  150.4983  139.2827  155.0702 C   0  0  2  0  0  0  0  0  0  0  0  0
  149.8635  137.9605  154.6125 C   0  0  0  0  0  0  0  0  0  0  0  0
  148.4104  138.0187  154.7508 N   0  0  0  0  0  0  0  0  0  0  0  0
  147.7189  136.8568  154.6043 C   0  0  0  0  0  0  0  0  0  0  0  0
  148.0435  135.7753  155.3642 N   0  0  0  0  0  0  0  0  0  0  0  0
  147.3806  134.6238  155.2268 C   0  0  0  0  0  0  0  0  0  0  0  0
  146.3696  134.3368  154.4059 N   0  0  0  0  0  0  0  0  0  0  0  0
  146.0289  135.4166  153.6461 C   0  0  0  0  0  0  0  0  0  0  0  0
  146.6466  136.6999  153.6786 C   0  0  0  0  0  0  0  0  0  0  0  0
  146.0230  137.5413  152.7653 N   0  0  0  0  0  0  0  0  0  0  0  0
  145.1004  136.7988  152.2188 C   0  0  0  0  0  0  0  0  0  0  0  0
  145.0257  135.5104  152.6967 N   0  0  0  0  0  0  0  0  0  0  0  0
  144.0941  134.4762  152.2710 C   0  0  0  0  0  0  0  0  0  0  0  0
  144.4238  133.8752  150.8831 C   0  0  1  0  0  0  0  0  0  0  0  0
  144.2352  134.8737  149.8966 O   0  0  0  0  0  0  0  0  0  0  0  0
  145.8612  133.3565  150.7986 C   0  0  0  0  0  0  0  0  0  0  0  0
  145.6945  131.8418  150.7718 C   0  0  0  0  0  0  0  0  0  0  0  0
  144.4957  131.6762  150.0368 O   0  0  0  0  0  0  0  0  0  0  0  0
  143.5731  132.6401  150.5235 C   0  0  0  0  0  0  0  0  0  0  0  0
  147.8126  139.1745  154.0861 C   0  0  0  0  0  0  0  0  0  0  0  0
  148.5232  140.5009  154.4725 C   0  0  1  0  0  0  0  0  0  0  0  0
  148.0966  141.6195  153.5294 C   0  0  0  0  0  0  0  0  0  0  0  0
  146.9024  142.2305  154.2431 C   0  0  0  0  0  0  0  0  0  0  0  0
  147.3110  142.2420  155.5990 O   0  0  0  0  0  0  0  0  0  0  0  0
  148.1565  141.1219  155.8529 C   0  0  1  0  0  0  0  0  0  0  0  0
  147.4780  140.2132  156.8897 C   0  0  0  0  0  0  0  0  0  0  0  0
  149.9354  140.3495  154.3119 O   0  0  0  0  0  0  0  0  0  0  0  0
  152.4983  138.5019  155.4281 H   0  0  0  0  0  0  0  0  0  0  0  0
  152.4447  140.2444  155.1811 H   0  0  0  0  0  0  0  0  0  0  0  0
  152.2689  139.1561  153.8068 H   0  0  0  0  0  0  0  0  0  0  0  0
  150.3010  139.4380  156.1312 H   0  0  0  0  0  0  0  0  0  0  0  0
  150.1225  137.7622  153.5712 H   0  0  0  0  0  0  0  0  0  0  0  0
  150.2620  137.1398  155.2106 H   0  0  0  0  0  0  0  0  0  0  0  0
  147.7076  133.8169  155.8662 H   0  0  0  0  0  0  0  0  0  0  0  0
  144.4399  137.1761  151.4516 H   0  0  0  0  0  0  0  0  0  0  0  0
  144.0847  133.6929  153.0304 H   0  0  0  0  0  0  0  0  0  0  0  0
  143.0900  134.9021  152.2623 H   0  0  0  0  0  0  0  0  0  0  0  0
  144.9046  134.7711  149.2370 H   0  0  0  0  0  0  0  0  0  0  0  0
  146.3402  133.6761  149.8713 H   0  0  0  0  0  0  0  0  0  0  0  0
  146.4935  133.6884  151.6229 H   0  0  0  0  0  0  0  0  0  0  0  0
  146.5339  131.3328  150.2978 H   0  0  0  0  0  0  0  0  0  0  0  0
  145.5689  131.4416  151.7792 H   0  0  0  0  0  0  0  0  0  0  0  0
  143.0962  132.2180  151.4083 H   0  0  0  0  0  0  0  0  0  0  0  0
  142.7886  132.8456  149.7939 H   0  0  0  0  0  0  0  0  0  0  0  0
  147.9078  139.0108  153.0117 H   0  0  0  0  0  0  0  0  0  0  0  0
  146.7453  139.2518  154.2860 H   0  0  0  0  0  0  0  0  0  0  0  0
  148.8851  142.3698  153.4513 H   0  0  0  0  0  0  0  0  0  0  0  0
  147.8626  141.2813  152.5195 H   0  0  0  0  0  0  0  0  0  0  0  0
  146.6628  143.2328  153.8876 H   0  0  0  0  0  0  0  0  0  0  0  0
  146.0166  141.6034  154.1335 H   0  0  0  0  0  0  0  0  0  0  0  0
  149.0602  141.5336  156.3041 H   0  0  0  0  0  0  0  0  0  0  0  0
  148.0864  139.3406  157.1250 H   0  0  0  0  0  0  0  0  0  0  0  0
  146.5048  139.8710  156.5418 H   0  0  0  0  0  0  0  0  0  0  0  0
  147.3138  140.7544  157.8214 H   0  0  0  0  0  0  0  0  0  0  0  0
  1  2  1  0  0  0  0
  1 29  1  0  0  0  0
  1 30  1  0  0  0  0
  1 31  1  0  0  0  0
  2 28  1  0  0  0  0
  2  3  1  0  0  0  0
  2 32  1  0  0  0  0
  3  4  1  0  0  0  0
  3 33  1  0  0  0  0
  3 34  1  0  0  0  0
  4  5  1  0  0  0  0
  4 21  1  0  0  0  0
  5 10  1  0  0  0  0
  5  6  2  0  0  0  0
  6  7  1  0  0  0  0
  7  8  2  0  0  0  0
  7 35  1  0  0  0  0
  8  9  1  0  0  0  0
  9 13  1  0  0  0  0
  9 10  2  0  0  0  0
 10 11  1  0  0  0  0
 11 12  2  0  0  0  0
 12 13  1  0  0  0  0
 12 36  1  0  0  0  0
 13 14  1  0  0  0  0
 14 15  1  0  0  0  0
 14 37  1  0  0  0  0
 14 38  1  0  0  0  0
 15 20  1  0  0  0  0
 15 16  1  0  0  0  0
 15 17  1  0  0  0  0
 16 39  1  0  0  0  0
 17 18  1  0  0  0  0
 17 40  1  0  0  0  0
 17 41  1  0  0  0  0
 18 19  1  0  0  0  0
 18 42  1  0  0  0  0
 18 43  1  0  0  0  0
 19 20  1  0  0  0  0
 20 44  1  0  0  0  0
 20 45  1  0  0  0  0
 21 22  1  0  0  0  0
 21 46  1  0  0  0  0
 21 47  1  0  0  0  0
 22 26  1  0  0  0  0
 22 23  1  0  0  0  0
 22 28  1  0  0  0  0
 23 24  1  0  0  0  0
 23 48  1  0  0  0  0
 23 49  1  0  0  0  0
 24 25  1  0  0  0  0
 24 50  1  0  0  0  0
 24 51  1  0  0  0  0
 25 26  1  0  0  0  0
 26 27  1  0  0  0  0
 26 52  1  0  0  0  0
 27 53  1  0  0  0  0
 27 54  1  0  0  0  0
 27 55  1  0  0  0  0
M  END
> <s_m_source_file>
AV-unprocessed.smi

> <i_m_source_file_index>
281

> <i_lp_mmshare_version>
43012

> <i_f3d_flags>
0

> <s_epik_input>
W0NIM11bQ0BASF0xT1tDSDJdW0NIMl1bQ0BAXTEyW0NIMl1OKFtDSDJdW0NASF0oTzIpW0NIM10pYyhuW2NIXW4zKWMoYzM0KW5bY0hdbjRbQ0gyXVtDQEBdNShbT0hdKVtDSDJdW0NIMl1PW0NIMl01

> <s_epik_cmdline>
J2VwaWtfcHl0aG9uJywgJy1waCcsICc3LjAnLCAnLXRuJywgJzgnLCAnLW1hJywgJzIwMCcsICctbWV0YWxfYmluZGluZycsICctaW1hZScsICc8aW5maWxlLm1hZT4nLCAnLW9tYWUnLCAnPG91dGZpbGUubWFlPic=

> <r_lp_tautomer_probability>
1

> <r_epik_Ionization_Penalty>
0.00571331

> <r_epik_Ionization_Penalty_Charging>
0

> <r_epik_Ionization_Penalty_Neutral>
0.00571331

> <r_epik_State_Penalty>
0.00399586

> <r_epik_Charging_Adjusted_Penalty>
0.00399586

> <i_epik_Tot_Q>
0

> <i_epik_Tot_abs_Q>
0

> <r_epik_Metal_State_Penalty>
-0

> <b_epik_Metal_Only>
0

> <s_lp_Force_Field>
OPLS_2005

> <r_lp_Energy>
53.3416

> <b_lp_Chiralities_Consistent>
1

> <s_lp_Variant>
AV-unprocessed.smi:281-5

> <Gold.Version>
5.8.1

> <Gold.Id.Protein>
6NUR|6NUR_protein|mol2

> <Gold.PLP.Fitness>
44.1738

> <Gold.PLP.PLP>
-35.1223

> <Gold.PLP.part.hbond>
-3.1744

> <Gold.PLP.part.metal>
0.0000

> <Gold.PLP.part.buried>
-3.2480

> <Gold.PLP.part.nonpolar>
-30.3285

> <Gold.PLP.part.repulsive>
1.4825

> <Gold.PLP.ligand.clash>
0.0000

> <Gold.PLP.ligand.torsion>
0.3697

> <Gold.PLP.Chemscore.Hbond>
2.1685

> <Gold.PLP.Chemscore.CHOScore>
1.0000

> <Gold.PLP.Chemscore.Metal>
0.0000

> <Gold.Chemscore.Hbonds>
donor molecule, donor type, donor heavy atom, donor atom, acceptor molecule, acceptor atom, score
      L1  H    16    39       P1  7921  1.00
      P1  H  7989  7998       L1    28  0.65
      P1  H 10785 10796       L1    19  0.07
      L1  C    12    36       P1 10171  1.00

> <Gold.PLP.Chemscore.Internal.Correction>
0.2854

> <Gold.Rescore>
     Score         DG    S(hbond)    S(metal)    S(lipo)     H(rot)  DE(clash)    DE(int)     intcor
     12.80     -15.16       1.65        0.00      81.35       2.09       0.48       1.88       ----

> <Gold.Chemscore.Fitness>
12.8012

> <Gold.Chemscore.DG>
-15.1646

> <Gold.Chemscore.ZeroCoef>
-5.4800

> <Gold.Chemscore.Hbond>
1.6538

> <Gold.Chemscore.Metal>
0.0000

> <Gold.Chemscore.Lipo>
81.3528

> <Gold.Chemscore.Internal_Hbond>
0.0000

> <Gold.Chemscore.DEClash>
0.4814

> <Gold.Chemscore.DEInternal>
1.8820

> <Gold.Chemscore.Rot>
2.0927

> <Gold.Chemscore.Internal.Correction>
   9.000000E+99

> <Gold.Chemscore.Hbonds>
donor molecule, donor type, donor heavy atom, donor atom, acceptor molecule, acceptor atom, score
      L1  H    16    39       P1  7921  0.94
      P1  H  7989  7998       L1    28  0.08
      P1  H 10785 10796       L1    19  0.05

> <Gold.Chemscore.Hbond.Weighted>
-5.5237

> <Gold.Chemscore.Metal.Weighted>
-0.0000

> <Gold.Chemscore.Lipo.Weighted>
-9.5183

> <Gold.Chemscore.Internal_Hbond.Weighted>
0.0000

> <Gold.Chemscore.DEClash.Weighted>
0.4814

> <Gold.Chemscore.DEInternal.Weighted>
1.8820

> <Gold.Chemscore.Rot.Weighted>
5.3573

> <Gold.Chemscore.Internal.Correction.Weighted>
   9.000000E+99

> <Gold.Protein.RotatedTorsions>
[ 6907 6896 6895 6894 ] final   58.44 input  -60.11 | X-H torsion
[ 7974 7965 7964 7962 ] final  -93.50 input  175.53 | X-H torsion
[ 8008 7997 7996 7995 ] final  -47.81 input   59.86 | X-H torsion
[ 10167 10162 10161 10158 ] final  157.42 input  -65.29 | X-H torsion
[ 10718 10713 10712 10709 ] final   90.44 input   66.30 | X-H torsion
[ 10763 10752 10751 10750 ] final  -12.65 input  -60.55 | X-H torsion
[ 11005 11000 10999 10996 ] final   -6.59 input  -57.11 | X-H torsion

> <Gold.Protein.ActiveResidues>
 VAL166  LYS551  ARG553  GLY616  TRP617  ASP618  TYR619  PRO620  LYS621  CYS622 
 ASP623  PHE694  ASN695  SER759  ASP760  ASP761  ALA762  ILE779  LEU786  VAL792 
 PHE793  MET794  SER795  GLU796  ALA797  LYS798  CYS799  TRP800  GLU811  SER814 

> <Gold.Protein.RotatedAtoms>
  152.3825  134.6569  160.0137 H   0  0  0  0  0  0  0  0  0  0  0  0  # atno 6907 bound_to 6896
  151.6828  133.3306  159.3231 H   0  0  0  0  0  0  0  0  0  0  0  0  # atno 6908 bound_to 6896
  150.7758  134.6702  159.6432 H   0  0  0  0  0  0  0  0  0  0  0  0  # atno 6909 bound_to 6896
  145.3857  140.9522  143.2369 H   0  0  0  0  0  0  0  0  0  0  0  0  # atno 7974 bound_to 7965
  154.4021  140.1337  156.4237 H   0  0  0  0  0  0  0  0  0  0  0  0  # atno 8008 bound_to 7997
  155.7618  140.3486  155.5182 H   0  0  0  0  0  0  0  0  0  0  0  0  # atno 8009 bound_to 7997
  155.8851  140.0994  157.1448 H   0  0  0  0  0  0  0  0  0  0  0  0  # atno 8010 bound_to 7997
  139.4823  144.4919  151.8296 H   0  0  0  0  0  0  0  0  0  0  0  0  # atno 10167 bound_to 10162
  157.6959  131.0371  150.3578 H   0  0  0  0  0  0  0  0  0  0  0  0  # atno 10718 bound_to 10713
  153.5016  135.7017  153.5829 H   0  0  0  0  0  0  0  0  0  0  0  0  # atno 10763 bound_to 10752
  153.3958  135.3884  155.1954 H   0  0  0  0  0  0  0  0  0  0  0  0  # atno 10764 bound_to 10752
  154.8710  135.3869  154.4487 H   0  0  0  0  0  0  0  0  0  0  0  0  # atno 10765 bound_to 10752
  140.7037  133.8968  155.8701 H   0  0  0  0  0  0  0  0  0  0  0  0  # atno 11005 bound_to 11000
  144.8476  139.5372  143.6871 LP  0  0  0  0  0  0  0  0  0  0  0  0  # atno 17320 bound_to 7965
  146.2821  139.6906  142.9221 LP  0  0  0  0  0  0  0  0  0  0  0  0  # atno 17321 bound_to 7965
  140.4404  144.1995  150.5891 LP  0  0  0  0  0  0  0  0  0  0  0  0  # atno 17342 bound_to 10162
  140.4689  143.2420  151.9116 LP  0  0  0  0  0  0  0  0  0  0  0  0  # atno 17343 bound_to 10162
  156.4018  130.3917  149.6954 LP  0  0  0  0  0  0  0  0  0  0  0  0  # atno 17370 bound_to 10713
  156.4268  130.7796  151.2814 LP  0  0  0  0  0  0  0  0  0  0  0  0  # atno 17371 bound_to 10713
  141.0143  134.0978  157.4189 LP  0  0  0  0  0  0  0  0  0  0  0  0  # atno 17394 bound_to 11000
  139.8890  135.0102  156.6653 LP  0  0  0  0  0  0  0  0  0  0  0  0  # atno 17395 bound_to 11000

$$$$
