AV-unprocessed.smi:738|AV-procd|sdf|3541|dock8
  -GOLD-   22720 0533D 1   1.00000     0.00000
 Structure written by MMmdl.
 35 37  0  0  0  0  0  0  0  0  1 V2000
  146.1822  140.7494  154.0964 N   0  0  0  0  0  0  0  0  0  0  0  0
  146.1951  141.5118  155.1940 C   0  0  0  0  0  0  0  0  0  0  0  0
  145.2176  142.1646  155.5544 O   0  0  0  0  0  0  0  0  0  0  0  0
  147.4980  141.5845  155.9366 C   0  0  0  0  0  0  0  0  0  0  0  0
  147.5915  142.2908  157.1552 C   0  0  0  0  0  0  0  0  0  0  0  0
  148.7259  142.3777  157.8814 N   0  0  0  0  0  0  0  0  0  0  0  0
  149.8383  141.7509  157.4284 C   0  0  0  0  0  0  0  0  0  0  0  0
  151.0077  141.8390  158.2061 N   0  0  0  0  0  0  0  0  0  0  0  0
  151.3955  140.5438  158.7450 C   0  0  0  0  0  0  0  0  0  0  0  0
  152.8232  140.6260  159.2996 C   0  0  0  0  0  0  0  0  0  0  0  0
  152.8933  141.6289  160.3088 O   0  0  0  0  0  0  0  0  0  0  0  0
  152.4465  142.9235  159.9000 C   0  0  1  0  0  0  0  0  0  0  0  0
  153.3990  143.6903  158.9685 C   0  0  0  0  0  0  0  0  0  0  0  0
  152.4997  144.6070  158.1232 C   0  0  0  0  0  0  0  0  0  0  0  0
  151.0520  144.3141  158.5454 C   0  0  0  0  0  0  0  0  0  0  0  0
  151.0802  142.9205  159.1930 C   0  0  1  0  0  0  0  0  0  0  0  0
  149.8444  141.0048  156.2250 C   0  0  0  0  0  0  0  0  0  0  0  0
  151.2724  140.2144  155.6521 Cl  0  0  0  0  0  0  0  0  0  0  0  0
  148.6558  140.9206  155.4740 C   0  0  0  0  0  0  0  0  0  0  0  0
  145.3335  140.6675  153.5552 H   0  0  0  0  0  0  0  0  0  0  0  0
  147.0181  140.2620  153.8082 H   0  0  0  0  0  0  0  0  0  0  0  0
  146.7358  142.8082  157.5641 H   0  0  0  0  0  0  0  0  0  0  0  0
  150.6998  140.2550  159.5343 H   0  0  0  0  0  0  0  0  0  0  0  0
  151.3429  139.7752  157.9729 H   0  0  0  0  0  0  0  0  0  0  0  0
  153.1092  139.6702  159.7386 H   0  0  0  0  0  0  0  0  0  0  0  0
  153.5373  140.8280  158.5013 H   0  0  0  0  0  0  0  0  0  0  0  0
  152.3446  143.5161  160.8102 H   0  0  0  0  0  0  0  0  0  0  0  0
  154.1411  144.2531  159.5356 H   0  0  0  0  0  0  0  0  0  0  0  0
  153.9443  143.0171  158.3080 H   0  0  0  0  0  0  0  0  0  0  0  0
  152.7469  145.6599  158.2621 H   0  0  0  0  0  0  0  0  0  0  0  0
  152.6344  144.3782  157.0652 H   0  0  0  0  0  0  0  0  0  0  0  0
  150.7514  145.0427  159.2994 H   0  0  0  0  0  0  0  0  0  0  0  0
  150.3471  144.4082  157.7189 H   0  0  0  0  0  0  0  0  0  0  0  0
  150.2755  142.8026  159.9200 H   0  0  0  0  0  0  0  0  0  0  0  0
  148.6436  140.3503  154.5564 H   0  0  0  0  0  0  0  0  0  0  0  0
  1  2  1  0  0  0  0
  1 20  1  0  0  0  0
  1 21  1  0  0  0  0
  2  3  2  0  0  0  0
  2  4  1  0  0  0  0
  4 19  1  0  0  0  0
  4  5  2  0  0  0  0
  5  6  1  0  0  0  0
  5 22  1  0  0  0  0
  6  7  2  0  0  0  0
  7  8  1  0  0  0  0
  7 17  1  0  0  0  0
  8 16  1  0  0  0  0
  8  9  1  0  0  0  0
  9 10  1  0  0  0  0
  9 23  1  0  0  0  0
  9 24  1  0  0  0  0
 10 11  1  0  0  0  0
 10 25  1  0  0  0  0
 10 26  1  0  0  0  0
 11 12  1  0  0  0  0
 12 16  1  0  0  0  0
 12 13  1  0  0  0  0
 12 27  1  0  0  0  0
 13 14  1  0  0  0  0
 13 28  1  0  0  0  0
 13 29  1  0  0  0  0
 14 15  1  0  0  0  0
 14 30  1  0  0  0  0
 14 31  1  0  0  0  0
 15 16  1  0  0  0  0
 15 32  1  0  0  0  0
 15 33  1  0  0  0  0
 16 34  1  0  0  0  0
 17 18  1  0  0  0  0
 17 19  2  0  0  0  0
 19 35  1  0  0  0  0
M  END
> <s_m_source_file>
AV-unprocessed.smi

> <i_m_source_file_index>
738

> <i_lp_mmshare_version>
43012

> <i_f3d_flags>
0

> <s_epik_input>
W05IMl1DKD1PKWMxW2NIXW5jKGMoQ2wpW2NIXTEpTihbQ0gyXVtDSDJdTzIpW0NASF0oW0NASF0yMylbQ0gyXVtDSDJdW0NIMl0z

> <s_epik_cmdline>
J2VwaWtfcHl0aG9uJywgJy1waCcsICc3LjAnLCAnLXRuJywgJzgnLCAnLW1hJywgJzIwMCcsICctbWV0YWxfYmluZGluZycsICctaW1hZScsICc8aW5maWxlLm1hZT4nLCAnLW9tYWUnLCAnPG91dGZpbGUubWFlPic=

> <r_lp_tautomer_probability>
1

> <r_epik_Ionization_Penalty>
6.75978e-06

> <r_epik_Ionization_Penalty_Charging>
0

> <r_epik_Ionization_Penalty_Neutral>
6.75978e-06

> <r_epik_State_Penalty>
-0

> <r_epik_Charging_Adjusted_Penalty>
0

> <i_epik_Tot_Q>
0

> <i_epik_Tot_abs_Q>
0

> <r_epik_Metal_State_Penalty>
-0

> <b_epik_Metal_Only>
0

> <s_lp_Force_Field>
OPLS_2005

> <r_lp_Energy>
43.0455

> <b_lp_Chiralities_Consistent>
1

> <s_lp_Variant>
AV-unprocessed.smi:738-4

> <Gold.Version>
5.8.1

> <Gold.Id.Protein>
6NUR|6NUR_protein|mol2

> <Gold.PLP.Fitness>
35.5878

> <Gold.PLP.PLP>
-33.0097

> <Gold.PLP.part.hbond>
-1.0000

> <Gold.PLP.part.metal>
0.0000

> <Gold.PLP.part.buried>
-4.0411

> <Gold.PLP.part.nonpolar>
-27.5477

> <Gold.PLP.part.repulsive>
0.3301

> <Gold.PLP.ligand.clash>
0.0000

> <Gold.PLP.ligand.torsion>
0.2982

> <Gold.PLP.Chemscore.Hbond>
1.0000

> <Gold.PLP.Chemscore.CHOScore>
0.0000

> <Gold.PLP.Chemscore.Metal>
0.0000

> <Gold.Chemscore.Hbonds>
donor molecule, donor type, donor heavy atom, donor atom, acceptor molecule, acceptor atom, score
      L1  H     1    20       P1 10175  1.00

> <Gold.PLP.Chemscore.Internal.Correction>
0.1746

> <Gold.Rescore>
     Score         DG    S(hbond)    S(metal)    S(lipo)     H(rot)  DE(clash)    DE(int)     intcor
     16.82     -17.39       0.97        0.00      95.97       1.00       0.26       0.30       ----

> <Gold.Chemscore.Fitness>
16.8235

> <Gold.Chemscore.DG>
-17.3862

> <Gold.Chemscore.ZeroCoef>
-5.4800

> <Gold.Chemscore.Hbond>
0.9694

> <Gold.Chemscore.Metal>
0.0000

> <Gold.Chemscore.Lipo>
95.9695

> <Gold.Chemscore.Internal_Hbond>
0.0000

> <Gold.Chemscore.DEClash>
0.2602

> <Gold.Chemscore.DEInternal>
0.3025

> <Gold.Chemscore.Rot>
1.0000

> <Gold.Chemscore.Internal.Correction>
   9.000000E+99

> <Gold.Chemscore.Hbonds>
donor molecule, donor type, donor heavy atom, donor atom, acceptor molecule, acceptor atom, score
      L1  H     1    20       P1 10175  0.92

> <Gold.Chemscore.Hbond.Weighted>
-3.2378

> <Gold.Chemscore.Metal.Weighted>
-0.0000

> <Gold.Chemscore.Lipo.Weighted>
-11.2284

> <Gold.Chemscore.Internal_Hbond.Weighted>
0.0000

> <Gold.Chemscore.DEClash.Weighted>
0.2602

> <Gold.Chemscore.DEInternal.Weighted>
0.3025

> <Gold.Chemscore.Rot.Weighted>
2.5600

> <Gold.Chemscore.Internal.Correction.Weighted>
   9.000000E+99

> <Gold.Protein.RotatedTorsions>
[ 6907 6896 6895 6894 ] final -139.66 input  -60.11 | X-H torsion
[ 7974 7965 7964 7962 ] final   22.09 input  175.53 | X-H torsion
[ 8008 7997 7996 7995 ] final  -45.57 input   59.86 | X-H torsion
[ 10167 10162 10161 10158 ] final  164.59 input  -65.29 | X-H torsion
[ 10718 10713 10712 10709 ] final -176.19 input   66.30 | X-H torsion
[ 10763 10752 10751 10750 ] final   61.98 input  -60.55 | X-H torsion
[ 11005 11000 10999 10996 ] final  -38.93 input  -57.11 | X-H torsion

> <Gold.Protein.ActiveResidues>
 VAL166  LYS551  ARG553  GLY616  TRP617  ASP618  TYR619  PRO620  LYS621  CYS622 
 ASP623  PHE694  ASN695  SER759  ASP760  ASP761  ALA762  ILE779  LEU786  VAL792 
 PHE793  MET794  SER795  GLU796  ALA797  LYS798  CYS799  TRP800  GLU811  SER814 

> <Gold.Protein.RotatedAtoms>
  151.0506  133.5627  159.2642 H   0  0  0  0  0  0  0  0  0  0  0  0  # atno 6907 bound_to 6896
  151.2640  135.0662  159.9119 H   0  0  0  0  0  0  0  0  0  0  0  0  # atno 6908 bound_to 6896
  152.5381  134.0247  159.8051 H   0  0  0  0  0  0  0  0  0  0  0  0  # atno 6909 bound_to 6896
  146.2044  139.7934  142.8737 H   0  0  0  0  0  0  0  0  0  0  0  0  # atno 7974 bound_to 7965
  154.4002  140.1393  156.3870 H   0  0  0  0  0  0  0  0  0  0  0  0  # atno 8008 bound_to 7997
  155.7950  140.3477  155.5350 H   0  0  0  0  0  0  0  0  0  0  0  0  # atno 8009 bound_to 7997
  155.8541  140.0946  157.1646 H   0  0  0  0  0  0  0  0  0  0  0  0  # atno 8010 bound_to 7997
  139.4891  144.4220  151.9175 H   0  0  0  0  0  0  0  0  0  0  0  0  # atno 10167 bound_to 10162
  156.8110  130.9586  151.3116 H   0  0  0  0  0  0  0  0  0  0  0  0  # atno 10718 bound_to 10713
  152.9967  135.5481  154.6120 H   0  0  0  0  0  0  0  0  0  0  0  0  # atno 10763 bound_to 10752
  154.5438  135.2821  155.1073 H   0  0  0  0  0  0  0  0  0  0  0  0  # atno 10764 bound_to 10752
  154.2340  135.6428  153.5237 H   0  0  0  0  0  0  0  0  0  0  0  0  # atno 10765 bound_to 10752
  141.0064  133.6929  156.2119 H   0  0  0  0  0  0  0  0  0  0  0  0  # atno 11005 bound_to 11000
  145.3373  141.0280  143.3412 LP  0  0  0  0  0  0  0  0  0  0  0  0  # atno 17320 bound_to 7965
  144.8757  139.4975  143.6747 LP  0  0  0  0  0  0  0  0  0  0  0  0  # atno 17321 bound_to 7965
  140.3664  144.2909  150.5926 LP  0  0  0  0  0  0  0  0  0  0  0  0  # atno 17342 bound_to 10162
  140.5358  143.2233  151.8166 LP  0  0  0  0  0  0  0  0  0  0  0  0  # atno 17343 bound_to 10162
  157.6506  130.8881  149.9625 LP  0  0  0  0  0  0  0  0  0  0  0  0  # atno 17370 bound_to 10713
  156.1044  130.3653  150.0159 LP  0  0  0  0  0  0  0  0  0  0  0  0  # atno 17371 bound_to 10713
  140.6805  134.4772  157.5589 LP  0  0  0  0  0  0  0  0  0  0  0  0  # atno 17394 bound_to 11000
  139.9066  134.8436  156.1684 LP  0  0  0  0  0  0  0  0  0  0  0  0  # atno 17395 bound_to 11000

$$$$
