AV-unprocessed.smi:437|AV-procd|sdf|2559|dock4
  -GOLD-   2262022523D 1   1.00000     0.00000
 Structure written by MMmdl.
 48 49  0  0  0  0  0  0  0  0  1 V2000
  145.9066  143.6535  153.4349 C   0  0  0  0  0  0  0  0  0  0  0  0
  146.3856  142.6135  154.4117 C   0  0  0  0  0  0  0  0  0  0  0  0
  147.2291  141.7425  153.9642 N   0  0  0  0  0  0  0  0  0  0  0  0
  147.7275  140.7410  154.7747 N   0  0  0  0  0  0  0  0  0  0  0  0
  148.6615  139.8308  154.0957 C   0  0  0  0  0  0  0  0  0  0  0  0
  149.9202  139.5285  154.9238 C   0  0  0  0  0  0  0  0  0  0  0  0
  150.4341  138.4074  154.8836 O   0  0  0  0  0  0  0  0  0  0  0  0
  150.3845  140.5649  155.6509 N   0  0  0  0  0  0  0  0  0  0  0  0
  151.4618  140.5843  156.4592 C   0  0  0  0  0  0  0  0  0  0  0  0
  152.4024  139.7879  156.4236 O   0  0  0  0  0  0  0  0  0  0  0  0
  151.3901  141.6023  157.3293 N   0  0  0  0  0  0  0  0  0  0  0  0
  152.3884  141.9190  158.3490 C   0  0  2  0  0  0  0  0  0  0  0  0
  152.5168  140.7377  159.3335 C   0  0  0  0  0  0  0  0  0  0  0  0
  153.5076  141.0470  160.4649 C   0  0  0  0  0  0  0  0  0  0  0  0
  153.1151  142.3339  161.2028 C   0  0  0  0  0  0  0  0  0  0  0  0
  153.0054  143.5161  160.2282 C   0  0  0  0  0  0  0  0  0  0  0  0
  152.0105  143.2289  159.0853 C   0  0  1  0  0  0  0  0  0  0  0  0
  151.9190  144.4347  158.1325 C   0  0  0  0  0  0  0  0  0  0  0  0
  147.4069  140.5746  156.0902 C   0  0  0  0  0  0  0  0  0  0  0  0
  147.8829  139.6703  156.7784 O   0  0  0  0  0  0  0  0  0  0  0  0
  146.4505  141.5645  156.5905 C   0  0  0  0  0  0  0  0  0  0  0  0
  146.0793  141.4200  157.9610 C   0  0  0  0  0  0  0  0  0  0  0  0
  145.7860  141.2843  159.0726 N   0  0  0  0  0  0  0  0  0  0  0  0
  145.9504  142.5498  155.8033 C   0  0  0  0  0  0  0  0  0  0  0  0
  144.9554  143.6013  156.2748 C   0  0  0  0  0  0  0  0  0  0  0  0
  146.2165  144.6502  153.7493 H   0  0  0  0  0  0  0  0  0  0  0  0
  144.8189  143.6437  153.3600 H   0  0  0  0  0  0  0  0  0  0  0  0
  146.3054  143.4853  152.4332 H   0  0  0  0  0  0  0  0  0  0  0  0
  148.1682  138.8830  153.8728 H   0  0  0  0  0  0  0  0  0  0  0  0
  148.9505  140.2433  153.1271 H   0  0  0  0  0  0  0  0  0  0  0  0
  149.8652  141.4270  155.5773 H   0  0  0  0  0  0  0  0  0  0  0  0
  150.5906  142.2162  157.2769 H   0  0  0  0  0  0  0  0  0  0  0  0
  153.3565  142.0740  157.8682 H   0  0  0  0  0  0  0  0  0  0  0  0
  151.5409  140.5070  159.7633 H   0  0  0  0  0  0  0  0  0  0  0  0
  152.8393  139.8405  158.8034 H   0  0  0  0  0  0  0  0  0  0  0  0
  153.5448  140.2125  161.1657 H   0  0  0  0  0  0  0  0  0  0  0  0
  154.5123  141.1515  160.0534 H   0  0  0  0  0  0  0  0  0  0  0  0
  152.1619  142.1886  161.7125 H   0  0  0  0  0  0  0  0  0  0  0  0
  153.8499  142.5573  161.9770 H   0  0  0  0  0  0  0  0  0  0  0  0
  152.6974  144.4080  160.7747 H   0  0  0  0  0  0  0  0  0  0  0  0
  153.9902  143.7352  159.8129 H   0  0  0  0  0  0  0  0  0  0  0  0
  151.0254  143.0927  159.5347 H   0  0  0  0  0  0  0  0  0  0  0  0
  152.8674  144.6079  157.6229 H   0  0  0  0  0  0  0  0  0  0  0  0
  151.6637  145.3446  158.6764 H   0  0  0  0  0  0  0  0  0  0  0  0
  151.1535  144.2902  157.3701 H   0  0  0  0  0  0  0  0  0  0  0  0
  144.7610  143.5350  157.3448 H   0  0  0  0  0  0  0  0  0  0  0  0
  144.0028  143.4817  155.7579 H   0  0  0  0  0  0  0  0  0  0  0  0
  145.3311  144.6053  156.0760 H   0  0  0  0  0  0  0  0  0  0  0  0
  1  2  1  0  0  0  0
  1 26  1  0  0  0  0
  1 27  1  0  0  0  0
  1 28  1  0  0  0  0
  2 24  1  0  0  0  0
  2  3  2  0  0  0  0
  3  4  1  0  0  0  0
  4  5  1  0  0  0  0
  4 19  1  0  0  0  0
  5  6  1  0  0  0  0
  5 29  1  0  0  0  0
  5 30  1  0  0  0  0
  6  7  2  0  0  0  0
  6  8  1  0  0  0  0
  8  9  1  0  0  0  0
  8 31  1  0  0  0  0
  9 10  2  0  0  0  0
  9 11  1  0  0  0  0
 11 12  1  0  0  0  0
 11 32  1  0  0  0  0
 12 17  1  0  0  0  0
 12 13  1  0  0  0  0
 12 33  1  0  0  0  0
 13 14  1  0  0  0  0
 13 34  1  0  0  0  0
 13 35  1  0  0  0  0
 14 15  1  0  0  0  0
 14 36  1  0  0  0  0
 14 37  1  0  0  0  0
 15 16  1  0  0  0  0
 15 38  1  0  0  0  0
 15 39  1  0  0  0  0
 16 17  1  0  0  0  0
 16 40  1  0  0  0  0
 16 41  1  0  0  0  0
 17 18  1  0  0  0  0
 17 42  1  0  0  0  0
 18 43  1  0  0  0  0
 18 44  1  0  0  0  0
 18 45  1  0  0  0  0
 19 20  2  0  0  0  0
 19 21  1  0  0  0  0
 21 22  1  0  0  0  0
 21 24  2  0  0  0  0
 22 23  3  0  0  0  0
 24 25  1  0  0  0  0
 25 46  1  0  0  0  0
 25 47  1  0  0  0  0
 25 48  1  0  0  0  0
M  END
> <s_m_source_file>
AV-unprocessed.smi

> <i_m_source_file_index>
437

> <i_lp_mmshare_version>
43012

> <i_f3d_flags>
0

> <s_epik_input>
TiNDYyhjMVtDSDNdKWMoPU8pbihuYzFbQ0gzXSlbQ0gyXUMoPU8pW05IXUMoPU8pW05IXVtDQEBIXTJbQ0gyXVtDSDJdW0NIMl1bQ0gyXVtDQEhdMltDSDNd

> <s_epik_cmdline>
J2VwaWtfcHl0aG9uJywgJy1waCcsICc3LjAnLCAnLXRuJywgJzgnLCAnLW1hJywgJzIwMCcsICctbWV0YWxfYmluZGluZycsICctaW1hZScsICc8aW5maWxlLm1hZT4nLCAnLW9tYWUnLCAnPG91dGZpbGUubWFlPic=

> <r_lp_tautomer_probability>
1

> <r_epik_Ionization_Penalty>
3.27035e-05

> <r_epik_Ionization_Penalty_Charging>
1.6965e-11

> <r_epik_Ionization_Penalty_Neutral>
3.27035e-05

> <r_epik_State_Penalty>
-0

> <r_epik_Charging_Adjusted_Penalty>
1.6965e-11

> <i_epik_Tot_Q>
0

> <i_epik_Tot_abs_Q>
0

> <r_epik_Metal_State_Penalty>
-0

> <b_epik_Metal_Only>
0

> <s_lp_Force_Field>
OPLS_2005

> <r_lp_Energy>
27.1353

> <b_lp_Chiralities_Consistent>
1

> <s_lp_Variant>
AV-unprocessed.smi:437-1

> <Gold.Version>
5.8.1

> <Gold.Id.Protein>
6NUR|6NUR_protein|mol2

> <Gold.PLP.Fitness>
47.5598

> <Gold.PLP.PLP>
-43.5739

> <Gold.PLP.part.hbond>
-2.0000

> <Gold.PLP.part.metal>
0.0000

> <Gold.PLP.part.buried>
-6.8437

> <Gold.PLP.part.nonpolar>
-35.0797

> <Gold.PLP.part.repulsive>
0.4785

> <Gold.PLP.ligand.clash>
0.0000

> <Gold.PLP.ligand.torsion>
0.6239

> <Gold.PLP.Chemscore.Hbond>
1.7360

> <Gold.PLP.Chemscore.CHOScore>
0.0000

> <Gold.PLP.Chemscore.Metal>
0.0000

> <Gold.Chemscore.Hbonds>
donor molecule, donor type, donor heavy atom, donor atom, acceptor molecule, acceptor atom, score
      P1  H  6934  6946       L1    23  0.77
      P1  H  7997  8010       L1    10  1.00

> <Gold.PLP.Chemscore.Internal.Correction>
0.0257

> <Gold.Rescore>
     Score         DG    S(hbond)    S(metal)    S(lipo)     H(rot)  DE(clash)    DE(int)     intcor
     15.34     -18.58       1.50        0.00     103.39       1.57       0.06       3.18       ----

> <Gold.Chemscore.Fitness>
15.3356

> <Gold.Chemscore.DG>
-18.5771

> <Gold.Chemscore.ZeroCoef>
-5.4800

> <Gold.Chemscore.Hbond>
1.4995

> <Gold.Chemscore.Metal>
0.0000

> <Gold.Chemscore.Lipo>
103.3891

> <Gold.Chemscore.Internal_Hbond>
0.0000

> <Gold.Chemscore.DEClash>
0.0616

> <Gold.Chemscore.DEInternal>
3.1799

> <Gold.Chemscore.Rot>
1.5656

> <Gold.Chemscore.Internal.Correction>
   9.000000E+99

> <Gold.Chemscore.Hbonds>
donor molecule, donor type, donor heavy atom, donor atom, acceptor molecule, acceptor atom, score
      P1  H  6934  6946       L1    23  0.72
      P1  H  7997  8010       L1    10  0.99

> <Gold.Chemscore.Hbond.Weighted>
-5.0084

> <Gold.Chemscore.Metal.Weighted>
-0.0000

> <Gold.Chemscore.Lipo.Weighted>
-12.0965

> <Gold.Chemscore.Internal_Hbond.Weighted>
0.0000

> <Gold.Chemscore.DEClash.Weighted>
0.0616

> <Gold.Chemscore.DEInternal.Weighted>
3.1799

> <Gold.Chemscore.Rot.Weighted>
4.0079

> <Gold.Chemscore.Internal.Correction.Weighted>
   9.000000E+99

> <Gold.Protein.RotatedTorsions>
[ 6907 6896 6895 6894 ] final    3.24 input  -60.11 | X-H torsion
[ 7974 7965 7964 7962 ] final   43.23 input  175.53 | X-H torsion
[ 8008 7997 7996 7995 ] final   70.17 input   59.86 | X-H torsion
[ 10167 10162 10161 10158 ] final   58.10 input  -65.29 | X-H torsion
[ 10718 10713 10712 10709 ] final  133.89 input   66.30 | X-H torsion
[ 10763 10752 10751 10750 ] final   -9.21 input  -60.55 | X-H torsion
[ 11005 11000 10999 10996 ] final  164.87 input  -57.11 | X-H torsion

> <Gold.Protein.ActiveResidues>
 VAL166  LYS551  ARG553  GLY616  TRP617  ASP618  TYR619  PRO620  LYS621  CYS622 
 ASP623  PHE694  ASN695  SER759  ASP760  ASP761  ALA762  ILE779  LEU786  VAL792 
 PHE793  MET794  SER795  GLU796  ALA797  LYS798  CYS799  TRP800  GLU811  SER814 

> <Gold.Protein.RotatedAtoms>
  151.6218  135.1031  160.0102 H   0  0  0  0  0  0  0  0  0  0  0  0  # atno 6907 bound_to 6896
  152.4153  133.7025  159.6442 H   0  0  0  0  0  0  0  0  0  0  0  0  # atno 6908 bound_to 6896
  150.8042  133.8467  159.3235 H   0  0  0  0  0  0  0  0  0  0  0  0  # atno 6909 bound_to 6896
  146.0673  139.5210  142.9620 H   0  0  0  0  0  0  0  0  0  0  0  0  # atno 7974 bound_to 7965
  155.7348  140.3491  155.5076 H   0  0  0  0  0  0  0  0  0  0  0  0  # atno 8008 bound_to 7997
  155.9149  140.1057  157.1272 H   0  0  0  0  0  0  0  0  0  0  0  0  # atno 8009 bound_to 7997
  154.4061  140.1260  156.4592 H   0  0  0  0  0  0  0  0  0  0  0  0  # atno 8010 bound_to 7997
  140.1908  144.4087  150.6572 H   0  0  0  0  0  0  0  0  0  0  0  0  # atno 10167 bound_to 10162
  157.4727  131.1081  150.9782 H   0  0  0  0  0  0  0  0  0  0  0  0  # atno 10718 bound_to 10713
  153.4515  135.7015  153.6106 H   0  0  0  0  0  0  0  0  0  0  0  0  # atno 10763 bound_to 10752
  153.4438  135.3774  155.2244 H   0  0  0  0  0  0  0  0  0  0  0  0  # atno 10764 bound_to 10752
  154.8728  135.3980  154.3928 H   0  0  0  0  0  0  0  0  0  0  0  0  # atno 10765 bound_to 10752
  140.2503  134.7982  157.3495 H   0  0  0  0  0  0  0  0  0  0  0  0  # atno 11005 bound_to 11000
  145.6455  141.0275  143.1789 LP  0  0  0  0  0  0  0  0  0  0  0  0  # atno 17320 bound_to 7965
  144.7210  139.8031  143.7382 LP  0  0  0  0  0  0  0  0  0  0  0  0  # atno 17321 bound_to 7965
  140.6457  143.2213  151.6192 LP  0  0  0  0  0  0  0  0  0  0  0  0  # atno 17342 bound_to 10162
  139.5256  144.3068  152.1027 LP  0  0  0  0  0  0  0  0  0  0  0  0  # atno 17343 bound_to 10162
  157.0541  130.5799  149.5375 LP  0  0  0  0  0  0  0  0  0  0  0  0  # atno 17370 bound_to 10713
  156.0081  130.5170  150.7899 LP  0  0  0  0  0  0  0  0  0  0  0  0  # atno 17371 bound_to 10713
  140.1565  134.4783  155.7924 LP  0  0  0  0  0  0  0  0  0  0  0  0  # atno 17394 bound_to 11000
  141.2202  133.6883  156.7469 LP  0  0  0  0  0  0  0  0  0  0  0  0  # atno 17395 bound_to 11000

$$$$
