AV-unprocessed.smi:648|AV-procd|sdf|3171|dock3
  -GOLD-   22720 0 93D 1   1.00000     0.00000
 Structure written by MMmdl.
 46 47  0  0  0  0  0  0  0  0  2 V2000
  141.9943  134.2456  152.6870 C   0  0  0  0  0  0  0  0  0  0  0  0
  143.5050  134.0503  152.4906 C   0  0  1  0  0  0  0  0  0  0  0  0
  143.7919  133.1744  151.2560 C   0  0  0  0  0  0  0  0  0  0  0  0
  145.2973  132.9204  151.0040 C   0  0  0  0  0  0  0  0  0  0  0  0
  145.8498  131.8657  151.9900 C   0  0  0  0  0  0  0  0  0  0  0  0
  145.4570  132.3188  149.5906 C   0  0  0  0  0  0  0  0  0  0  0  0
  146.0883  134.2628  151.0428 C   0  0  0  0  0  0  0  0  0  0  0  0
  145.7674  135.2686  152.1913 C   0  0  1  0  0  0  0  0  0  0  0  0
  146.4272  134.8183  153.5237 C   0  0  0  0  0  0  0  0  0  0  0  0
  147.8276  134.6636  153.3911 O   0  0  0  0  0  0  0  0  0  0  0  0
  146.4087  136.5772  151.8675 N   0  3  0  0  0  0  0  0  0  0  0  0
  146.3700  137.6699  152.8675 C   0  0  0  0  0  0  0  0  0  0  0  0
  146.9661  138.9582  152.2823 C   0  0  0  0  0  0  0  0  0  0  0  0
  147.6863  139.7228  153.2818 N   0  0  0  0  0  0  0  0  0  0  0  0
  148.6918  139.3750  154.0865 C   0  0  0  0  0  0  0  0  0  0  0  0
  149.1075  140.3547  154.8771 N   0  0  0  0  0  0  0  0  0  0  0  0
  148.2590  141.3477  154.4764 C   0  0  0  0  0  0  0  0  0  0  0  0
  147.3884  141.0215  153.5207 N   0  0  0  0  0  0  0  0  0  0  0  0
  144.2260  135.4041  152.3490 C   0  0  0  0  0  0  0  0  0  0  0  0
  141.5433  134.7546  151.8344 H   0  0  0  0  0  0  0  0  0  0  0  0
  141.7871  134.8395  153.5776 H   0  0  0  0  0  0  0  0  0  0  0  0
  141.4880  133.2875  152.8079 H   0  0  0  0  0  0  0  0  0  0  0  0
  143.8682  133.5402  153.3814 H   0  0  0  0  0  0  0  0  0  0  0  0
  143.2690  132.2214  151.3490 H   0  0  0  0  0  0  0  0  0  0  0  0
  143.3586  133.6643  150.3824 H   0  0  0  0  0  0  0  0  0  0  0  0
  146.9359  131.7910  151.9273 H   0  0  0  0  0  0  0  0  0  0  0  0
  145.4473  130.8768  151.7669 H   0  0  0  0  0  0  0  0  0  0  0  0
  145.5861  132.0576  153.0253 H   0  0  0  0  0  0  0  0  0  0  0  0
  146.5032  132.1095  149.3637 H   0  0  0  0  0  0  0  0  0  0  0  0
  145.0843  132.9926  148.8181 H   0  0  0  0  0  0  0  0  0  0  0  0
  144.9069  131.3825  149.4901 H   0  0  0  0  0  0  0  0  0  0  0  0
  147.1599  134.0594  151.0182 H   0  0  0  0  0  0  0  0  0  0  0  0
  145.8853  134.7625  150.0968 H   0  0  0  0  0  0  0  0  0  0  0  0
  146.2754  135.5267  154.3298 H   0  0  0  0  0  0  0  0  0  0  0  0
  146.0090  133.8684  153.8600 H   0  0  0  0  0  0  0  0  0  0  0  0
  148.1509  135.3354  152.8092 H   0  0  0  0  0  0  0  0  0  0  0  0
  147.3830  136.3873  151.6784 H   0  0  0  0  0  0  0  0  0  0  0  0
  145.3487  137.8590  153.1941 H   0  0  0  0  0  0  0  0  0  0  0  0
  146.9441  137.3794  153.7479 H   0  0  0  0  0  0  0  0  0  0  0  0
  147.6494  138.7247  151.4645 H   0  0  0  0  0  0  0  0  0  0  0  0
  146.1789  139.5901  151.8683 H   0  0  0  0  0  0  0  0  0  0  0  0
  149.1289  138.3871  154.0955 H   0  0  0  0  0  0  0  0  0  0  0  0
  148.2836  142.3404  154.9009 H   0  0  0  0  0  0  0  0  0  0  0  0
  143.7964  135.8924  151.4748 H   0  0  0  0  0  0  0  0  0  0  0  0
  143.9859  136.0467  153.1968 H   0  0  0  0  0  0  0  0  0  0  0  0
  145.9888  136.9157  151.0137 H   0  0  0  0  0  0  0  0  0  0  0  0
  1  2  1  0  0  0  0
  1 20  1  0  0  0  0
  1 21  1  0  0  0  0
  1 22  1  0  0  0  0
  2 19  1  0  0  0  0
  2  3  1  0  0  0  0
  2 23  1  0  0  0  0
  3  4  1  0  0  0  0
  3 24  1  0  0  0  0
  3 25  1  0  0  0  0
  4  5  1  0  0  0  0
  4  6  1  0  0  0  0
  4  7  1  0  0  0  0
  5 26  1  0  0  0  0
  5 27  1  0  0  0  0
  5 28  1  0  0  0  0
  6 29  1  0  0  0  0
  6 30  1  0  0  0  0
  6 31  1  0  0  0  0
  7  8  1  0  0  0  0
  7 32  1  0  0  0  0
  7 33  1  0  0  0  0
  8  9  1  0  0  0  0
  8 11  1  0  0  0  0
  8 19  1  0  0  0  0
  9 10  1  0  0  0  0
  9 34  1  0  0  0  0
  9 35  1  0  0  0  0
 10 36  1  0  0  0  0
 11 12  1  0  0  0  0
 11 37  1  0  0  0  0
 11 46  1  0  0  0  0
 12 13  1  0  0  0  0
 12 38  1  0  0  0  0
 12 39  1  0  0  0  0
 13 14  1  0  0  0  0
 13 40  1  0  0  0  0
 13 41  1  0  0  0  0
 14 18  1  0  0  0  0
 14 15  1  0  0  0  0
 15 16  2  0  0  0  0
 15 42  1  0  0  0  0
 16 17  1  0  0  0  0
 17 18  2  0  0  0  0
 17 43  1  0  0  0  0
 19 44  1  0  0  0  0
 19 45  1  0  0  0  0
M  CHG  1  11   1
M  END
> <s_m_source_file>
AV-unprocessed.smi

> <i_m_source_file_index>
648

> <i_lp_mmshare_version>
43012

> <i_f3d_flags>
0

> <s_epik_input>
W0NIM11DMShbQ0gzXSlbQ0gyXVtDQEBIXShbQ0gzXSlbQ0gyXVtDQF0oW0NIMl0xKShbQ0gyXVtPSF0pW05IXVtDSDJdW0NIMl1uMltjSF1uW2NIXW4y

> <s_epik_cmdline>
J2VwaWtfcHl0aG9uJywgJy1waCcsICc3LjAnLCAnLXRuJywgJzgnLCAnLW1hJywgJzIwMCcsICctbWV0YWxfYmluZGluZycsICctaW1hZScsICc8aW5maWxlLm1hZT4nLCAnLW9tYWUnLCAnPG91dGZpbGUubWFlPic=

> <r_lp_tautomer_probability>
1

> <r_epik_Ionization_Penalty>
0.00942316

> <r_epik_Ionization_Penalty_Charging>
0.00942185

> <r_epik_Ionization_Penalty_Neutral>
1.31257e-06

> <r_epik_State_Penalty>
0.00715409

> <r_epik_Charging_Adjusted_Penalty>
0.0165759

> <i_epik_Tot_Q>
1

> <i_epik_Tot_abs_Q>
1

> <r_epik_Metal_State_Penalty>
0.00715563

> <b_epik_Metal_Only>
0

> <s_lp_Force_Field>
OPLS_2005

> <r_lp_Energy>
31.5534

> <b_lp_Chiralities_Consistent>
1

> <s_lp_Variant>
AV-unprocessed.smi:648-2

> <Gold.Version>
5.8.1

> <Gold.Id.Protein>
6NUR|6NUR_protein|mol2

> <Gold.PLP.Fitness>
44.9966

> <Gold.PLP.PLP>
-33.5581

> <Gold.PLP.part.hbond>
-1.7798

> <Gold.PLP.part.metal>
0.0000

> <Gold.PLP.part.buried>
-2.0872

> <Gold.PLP.part.nonpolar>
-29.3061

> <Gold.PLP.part.repulsive>
0.3306

> <Gold.PLP.ligand.clash>
0.0000

> <Gold.PLP.ligand.torsion>
0.2953

> <Gold.PLP.Chemscore.Hbond>
3.0000

> <Gold.PLP.Chemscore.CHOScore>
1.0000

> <Gold.PLP.Chemscore.Metal>
0.0000

> <Gold.Chemscore.Hbonds>
donor molecule, donor type, donor heavy atom, donor atom, acceptor molecule, acceptor atom, score
      L1  H    10    36       P1  7948  0.94
      L1  H    11    37       P1  7948  2.00
      L1  C    17    43       P1  8028  0.95

> <Gold.PLP.Chemscore.Internal.Correction>
0.0291

> <Gold.Rescore>
     Score         DG    S(hbond)    S(metal)    S(lipo)     H(rot)  DE(clash)    DE(int)     intcor
     12.44     -12.74       1.99        0.00      74.57       3.17       0.03       0.27       ----

> <Gold.Chemscore.Fitness>
12.4385

> <Gold.Chemscore.DG>
-12.7352

> <Gold.Chemscore.ZeroCoef>
-5.4800

> <Gold.Chemscore.Hbond>
1.9934

> <Gold.Chemscore.Metal>
0.0000

> <Gold.Chemscore.Lipo>
74.5743

> <Gold.Chemscore.Internal_Hbond>
0.0000

> <Gold.Chemscore.DEClash>
0.0280

> <Gold.Chemscore.DEInternal>
0.2687

> <Gold.Chemscore.Rot>
3.1750

> <Gold.Chemscore.Internal.Correction>
   9.000000E+99

> <Gold.Chemscore.Hbonds>
donor molecule, donor type, donor heavy atom, donor atom, acceptor molecule, acceptor atom, score
      L1  H    10    36       P1  7948  0.89
      L1  H    11    37       P1  7948  0.96

> <Gold.Chemscore.Hbond.Weighted>
-6.6579

> <Gold.Chemscore.Metal.Weighted>
-0.0000

> <Gold.Chemscore.Lipo.Weighted>
-8.7252

> <Gold.Chemscore.Internal_Hbond.Weighted>
0.0000

> <Gold.Chemscore.DEClash.Weighted>
0.0280

> <Gold.Chemscore.DEInternal.Weighted>
0.2687

> <Gold.Chemscore.Rot.Weighted>
8.1279

> <Gold.Chemscore.Internal.Correction.Weighted>
   9.000000E+99

> <Gold.Protein.RotatedTorsions>
[ 6907 6896 6895 6894 ] final -143.24 input  -60.11 | X-H torsion
[ 7974 7965 7964 7962 ] final  -56.89 input  175.53 | X-H torsion
[ 8008 7997 7996 7995 ] final  -57.08 input   59.86 | X-H torsion
[ 10167 10162 10161 10158 ] final  -47.37 input  -65.29 | X-H torsion
[ 10718 10713 10712 10709 ] final  117.01 input   66.30 | X-H torsion
[ 10763 10752 10751 10750 ] final  118.05 input  -60.55 | X-H torsion
[ 11005 11000 10999 10996 ] final -169.87 input  -57.11 | X-H torsion

> <Gold.Protein.ActiveResidues>
 VAL166  LYS551  ARG553  GLY616  TRP617  ASP618  TYR619  PRO620  LYS621  CYS622 
 ASP623  PHE694  ASN695  SER759  ASP760  ASP761  ALA762  ILE779  LEU786  VAL792 
 PHE793  MET794  SER795  GLU796  ALA797  LYS798  CYS799  TRP800  GLU811  SER814 

> <Gold.Protein.RotatedAtoms>
  151.0978  133.5266  159.2611 H   0  0  0  0  0  0  0  0  0  0  0  0  # atno 6907 bound_to 6896
  151.2108  135.0480  159.8920 H   0  0  0  0  0  0  0  0  0  0  0  0  # atno 6908 bound_to 6896
  152.5440  134.0794  159.8282 H   0  0  0  0  0  0  0  0  0  0  0  0  # atno 6909 bound_to 6896
  145.8574  140.8309  142.9954 H   0  0  0  0  0  0  0  0  0  0  0  0  # atno 7974 bound_to 7965
  154.4254  140.1115  156.5740 H   0  0  0  0  0  0  0  0  0  0  0  0  # atno 8008 bound_to 7997
  155.6183  140.3495  155.4625 H   0  0  0  0  0  0  0  0  0  0  0  0  # atno 8009 bound_to 7997
  156.0045  140.1206  157.0505 H   0  0  0  0  0  0  0  0  0  0  0  0  # atno 8010 bound_to 7997
  140.6778  143.2787  151.3917 H   0  0  0  0  0  0  0  0  0  0  0  0  # atno 10167 bound_to 10162
  157.6124  131.1032  150.7555 H   0  0  0  0  0  0  0  0  0  0  0  0  # atno 10718 bound_to 10713
  153.5617  135.3519  155.2802 H   0  0  0  0  0  0  0  0  0  0  0  0  # atno 10763 bound_to 10752
  154.8694  135.4138  154.2823 H   0  0  0  0  0  0  0  0  0  0  0  0  # atno 10764 bound_to 10752
  153.3570  135.7058  153.6811 H   0  0  0  0  0  0  0  0  0  0  0  0  # atno 10765 bound_to 10752
  140.5259  134.5664  157.5061 H   0  0  0  0  0  0  0  0  0  0  0  0  # atno 11005 bound_to 11000
  144.6727  140.1044  143.7459 LP  0  0  0  0  0  0  0  0  0  0  0  0  # atno 17320 bound_to 7965
  145.9288  139.2592  143.1338 LP  0  0  0  0  0  0  0  0  0  0  0  0  # atno 17321 bound_to 7965
  139.6080  144.1156  152.2270 LP  0  0  0  0  0  0  0  0  0  0  0  0  # atno 17342 bound_to 10162
  140.0561  144.5894  150.7298 LP  0  0  0  0  0  0  0  0  0  0  0  0  # atno 17343 bound_to 10162
  156.7929  130.4896  149.5382 LP  0  0  0  0  0  0  0  0  0  0  0  0  # atno 17370 bound_to 10713
  156.1232  130.6124  151.0224 LP  0  0  0  0  0  0  0  0  0  0  0  0  # atno 17371 bound_to 10713
  139.9580  134.7501  156.0298 LP  0  0  0  0  0  0  0  0  0  0  0  0  # atno 17394 bound_to 11000
  141.1308  133.6587  156.3461 LP  0  0  0  0  0  0  0  0  0  0  0  0  # atno 17395 bound_to 11000

$$$$
