AV-unprocessed.smi:1374|AV-procd|sdf|5588|dock7
  -GOLD-   22720 5193D 1   1.00000     0.00000
 Structure written by MMmdl.
 42 43  0  0  0  0  0  0  0  0  2 V2000
  145.9960  130.2474  152.0128 C   0  0  0  0  0  0  0  0  0  0  0  0
  146.2105  131.7347  152.3127 C   0  0  0  0  0  0  0  0  0  0  0  0
  147.0915  131.9657  153.5516 C   0  0  0  0  0  0  0  0  0  0  0  0
  148.6091  131.9842  153.2648 C   0  0  0  0  0  0  0  0  0  0  0  0
  149.4013  132.5359  154.3879 N   0  0  0  0  0  0  0  0  0  0  0  0
  149.3410  133.9318  154.6467 C   0  0  0  0  0  0  0  0  0  0  0  0
  148.5583  134.7355  153.8300 N   0  0  0  0  0  0  0  0  0  0  0  0
  150.0083  134.4574  155.7089 C   0  0  0  0  0  0  0  0  0  0  0  0
  149.9683  135.8363  156.0108 N   0  0  0  0  0  0  0  0  0  0  0  0
  148.6497  136.3973  156.3260 C   0  0  0  0  0  0  0  0  0  0  0  0
  151.0501  136.6692  155.9731 C   0  0  0  0  0  0  0  0  0  0  0  0
  152.1952  136.2172  155.8951 O   0  0  0  0  0  0  0  0  0  0  0  0
  150.7832  138.1112  155.9859 C   0  0  0  0  0  0  0  0  0  0  0  0
  151.2806  138.8741  154.9858 C   0  0  0  0  0  0  0  0  0  0  0  0
  151.0552  140.2231  154.8677 O   0  0  0  0  0  0  0  0  0  0  0  0
  150.0588  140.7416  155.7415 C   0  0  0  0  0  0  0  0  0  0  0  0
  150.1587  140.0852  157.1257 C   0  0  0  0  0  0  0  0  0  0  0  0
  150.0386  138.6743  156.9982 O   0  0  0  0  0  0  0  0  0  0  0  0
  150.8376  133.5682  156.5341 C   0  0  0  0  0  0  0  0  0  0  0  0
  151.4952  134.0239  157.4700 O   0  0  0  0  0  0  0  0  0  0  0  0
  150.8510  132.2462  156.2220 N   0  5  0  0  0  0  0  0  0  0  0  0
  150.1523  131.7102  155.1815 C   0  0  0  0  0  0  0  0  0  0  0  0
  150.1768  130.5015  154.9460 O   0  0  0  0  0  0  0  0  0  0  0  0
  145.3764  130.1169  151.1256 H   0  0  0  0  0  0  0  0  0  0  0  0
  145.4995  129.7453  152.8435 H   0  0  0  0  0  0  0  0  0  0  0  0
  146.9453  129.7421  151.8325 H   0  0  0  0  0  0  0  0  0  0  0  0
  146.6649  132.2046  151.4403 H   0  0  0  0  0  0  0  0  0  0  0  0
  145.2433  132.2173  152.4562 H   0  0  0  0  0  0  0  0  0  0  0  0
  146.8171  132.9174  154.0078 H   0  0  0  0  0  0  0  0  0  0  0  0
  146.8633  131.2034  154.2966 H   0  0  0  0  0  0  0  0  0  0  0  0
  148.9307  130.9785  152.9911 H   0  0  0  0  0  0  0  0  0  0  0  0
  148.8021  132.5624  152.3607 H   0  0  0  0  0  0  0  0  0  0  0  0
  148.0316  134.3534  153.0581 H   0  0  0  0  0  0  0  0  0  0  0  0
  148.5771  135.7423  153.9052 H   0  0  0  0  0  0  0  0  0  0  0  0
  148.6536  136.8635  157.3122 H   0  0  0  0  0  0  0  0  0  0  0  0
  147.8698  135.6346  156.3252 H   0  0  0  0  0  0  0  0  0  0  0  0
  148.3641  137.1502  155.5900 H   0  0  0  0  0  0  0  0  0  0  0  0
  151.8788  138.4987  154.1677 H   0  0  0  0  0  0  0  0  0  0  0  0
  150.1816  141.8217  155.8217 H   0  0  0  0  0  0  0  0  0  0  0  0
  149.0747  140.5615  155.3068 H   0  0  0  0  0  0  0  0  0  0  0  0
  151.1120  140.3246  157.5994 H   0  0  0  0  0  0  0  0  0  0  0  0
  149.3714  140.4526  157.7841 H   0  0  0  0  0  0  0  0  0  0  0  0
  1  2  1  0  0  0  0
  1 24  1  0  0  0  0
  1 25  1  0  0  0  0
  1 26  1  0  0  0  0
  2  3  1  0  0  0  0
  2 27  1  0  0  0  0
  2 28  1  0  0  0  0
  3  4  1  0  0  0  0
  3 29  1  0  0  0  0
  3 30  1  0  0  0  0
  4  5  1  0  0  0  0
  4 31  1  0  0  0  0
  4 32  1  0  0  0  0
  5 22  1  0  0  0  0
  5  6  1  0  0  0  0
  6  7  1  0  0  0  0
  6  8  2  0  0  0  0
  7 33  1  0  0  0  0
  7 34  1  0  0  0  0
  8  9  1  0  0  0  0
  8 19  1  0  0  0  0
  9 10  1  0  0  0  0
  9 11  1  0  0  0  0
 10 35  1  0  0  0  0
 10 36  1  0  0  0  0
 10 37  1  0  0  0  0
 11 12  2  0  0  0  0
 11 13  1  0  0  0  0
 13 18  1  0  0  0  0
 13 14  2  0  0  0  0
 14 15  1  0  0  0  0
 14 38  1  0  0  0  0
 15 16  1  0  0  0  0
 16 17  1  0  0  0  0
 16 39  1  0  0  0  0
 16 40  1  0  0  0  0
 17 18  1  0  0  0  0
 17 41  1  0  0  0  0
 17 42  1  0  0  0  0
 19 20  2  0  0  0  0
 19 21  1  0  0  0  0
 21 22  1  0  0  0  0
 22 23  2  0  0  0  0
M  CHG  1  21  -1
M  END
> <s_m_source_file>
AV-unprocessed.smi

> <i_m_source_file_index>
1374

> <i_lp_mmshare_version>
43012

> <i_f3d_flags>
0

> <s_epik_input>
W0NIM11bQ0gyXVtDSDJdW0NIMl1uMWMoW05IMl0pYyhjKD1PKVtuSF1jMT1PKU4oW0NIM10pQyg9TylDMj1bQ0hdT1tDSDJdW0NIMl1PMg==

> <s_epik_cmdline>
J2VwaWtfcHl0aG9uJywgJy1waCcsICc3LjAnLCAnLXRuJywgJzgnLCAnLW1hJywgJzIwMCcsICctbWV0YWxfYmluZGluZycsICctaW1hZScsICc8aW5maWxlLm1hZT4nLCAnLW9tYWUnLCAnPG91dGZpbGUubWFlPic=

> <r_lp_tautomer_probability>
1

> <r_epik_Ionization_Penalty>
6.1831

> <r_epik_Ionization_Penalty_Charging>
0.183564

> <r_epik_Ionization_Penalty_Neutral>
5.99954

> <r_epik_State_Penalty>
5.99952

> <r_epik_Charging_Adjusted_Penalty>
6.18308

> <i_epik_Tot_Q>
-1

> <i_epik_Tot_abs_Q>
1

> <r_epik_Metal_State_Penalty>
1.93002

> <b_epik_Metal_Only>
1

> <s_epik_Chemistry_Notes>
This compound has an imine and may undergo hydrolysis.

> <s_lp_Force_Field>
OPLS_2005

> <r_lp_Energy>
38.087

> <b_lp_Chiralities_Consistent>
1

> <s_lp_Variant>
AV-unprocessed.smi:1374-2

> <Gold.Version>
5.8.1

> <Gold.Id.Protein>
6NUR|6NUR_protein|mol2

> <Gold.PLP.Fitness>
37.3668

> <Gold.PLP.PLP>
-32.4826

> <Gold.PLP.part.hbond>
-3.1279

> <Gold.PLP.part.metal>
0.0000

> <Gold.PLP.part.buried>
-4.7125

> <Gold.PLP.part.nonpolar>
-25.2030

> <Gold.PLP.part.repulsive>
0.1173

> <Gold.PLP.ligand.clash>
0.0017

> <Gold.PLP.ligand.torsion>
2.5851

> <Gold.PLP.Chemscore.Hbond>
2.2066

> <Gold.PLP.Chemscore.CHOScore>
0.0000

> <Gold.PLP.Chemscore.Metal>
0.0000

> <Gold.Chemscore.Hbonds>
donor molecule, donor type, donor heavy atom, donor atom, acceptor molecule, acceptor atom, score
      P1  H  6896  6907       L1    20  0.27
      P1  H  7989  7998       L1    15  1.00
      P1  H 10752 10764       L1    12  0.99

> <Gold.PLP.Chemscore.Internal.Correction>
3.4363

> <Gold.Rescore>
     Score         DG    S(hbond)    S(metal)    S(lipo)     H(rot)  DE(clash)    DE(int)     intcor
     10.59     -15.91       2.41        0.00      52.45       1.47       0.02       5.30       ----

> <Gold.Chemscore.Fitness>
10.5881

> <Gold.Chemscore.DG>
-15.9059

> <Gold.Chemscore.ZeroCoef>
-5.4800

> <Gold.Chemscore.Hbond>
2.4120

> <Gold.Chemscore.Metal>
0.0000

> <Gold.Chemscore.Lipo>
52.4533

> <Gold.Chemscore.Internal_Hbond>
0.0000

> <Gold.Chemscore.DEClash>
0.0203

> <Gold.Chemscore.DEInternal>
5.2975

> <Gold.Chemscore.Rot>
1.4715

> <Gold.Chemscore.Internal.Correction>
   9.000000E+99

> <Gold.Chemscore.Hbonds>
donor molecule, donor type, donor heavy atom, donor atom, acceptor molecule, acceptor atom, score
      L1  H     7    34       P1  7948  0.04
      P1  H  6896  6907       L1    20  0.26
      P1  H  7989  7998       L1    15  0.87
      P1  H 10752 10764       L1    12  0.87

> <Gold.Chemscore.Hbond.Weighted>
-8.0560

> <Gold.Chemscore.Metal.Weighted>
-0.0000

> <Gold.Chemscore.Lipo.Weighted>
-6.1370

> <Gold.Chemscore.Internal_Hbond.Weighted>
0.0000

> <Gold.Chemscore.DEClash.Weighted>
0.0203

> <Gold.Chemscore.DEInternal.Weighted>
5.2975

> <Gold.Chemscore.Rot.Weighted>
3.7671

> <Gold.Chemscore.Internal.Correction.Weighted>
   9.000000E+99

> <Gold.Protein.RotatedTorsions>
[ 6907 6896 6895 6894 ] final -163.23 input  -60.11 | X-H torsion
[ 7974 7965 7964 7962 ] final  -45.99 input  175.53 | X-H torsion
[ 8008 7997 7996 7995 ] final -140.93 input   59.86 | X-H torsion
[ 10167 10162 10161 10158 ] final   25.72 input  -65.29 | X-H torsion
[ 10718 10713 10712 10709 ] final  -42.81 input   66.30 | X-H torsion
[ 10763 10752 10751 10750 ] final  -14.18 input  -60.55 | X-H torsion
[ 11005 11000 10999 10996 ] final  167.17 input  -57.11 | X-H torsion

> <Gold.Protein.ActiveResidues>
 VAL166  LYS551  ARG553  GLY616  TRP617  ASP618  TYR619  PRO620  LYS621  CYS622 
 ASP623  PHE694  ASN695  SER759  ASP760  ASP761  ALA762  ILE779  LEU786  VAL792 
 PHE793  MET794  SER795  GLU796  ALA797  LYS798  CYS799  TRP800  GLU811  SER814 

> <Gold.Protein.RotatedAtoms>
  151.3927  133.3783  159.2722 H   0  0  0  0  0  0  0  0  0  0  0  0  # atno 6907 bound_to 6896
  150.9492  134.8895  159.7672 H   0  0  0  0  0  0  0  0  0  0  0  0  # atno 6908 bound_to 6896
  152.5105  134.3882  159.9427 H   0  0  0  0  0  0  0  0  0  0  0  0  # atno 6909 bound_to 6896
  145.9764  140.7329  142.9385 H   0  0  0  0  0  0  0  0  0  0  0  0  # atno 7974 bound_to 7965
  155.4695  140.0552  157.2981 H   0  0  0  0  0  0  0  0  0  0  0  0  # atno 8008 bound_to 7997
  154.4704  140.2038  155.9963 H   0  0  0  0  0  0  0  0  0  0  0  0  # atno 8009 bound_to 7997
  156.1046  140.3213  155.7993 H   0  0  0  0  0  0  0  0  0  0  0  0  # atno 8010 bound_to 7997
  140.5083  144.0202  150.6361 H   0  0  0  0  0  0  0  0  0  0  0  0  # atno 10167 bound_to 10162
  156.2557  130.4192  149.8599 H   0  0  0  0  0  0  0  0  0  0  0  0  # atno 10718 bound_to 10713
  153.5244  135.7015  153.5715 H   0  0  0  0  0  0  0  0  0  0  0  0  # atno 10763 bound_to 10752
  153.3750  135.3935  155.1816 H   0  0  0  0  0  0  0  0  0  0  0  0  # atno 10764 bound_to 10752
  154.8691  135.3821  154.4736 H   0  0  0  0  0  0  0  0  0  0  0  0  # atno 10765 bound_to 10752
  140.2740  134.7803  157.3701 H   0  0  0  0  0  0  0  0  0  0  0  0  # atno 11005 bound_to 11000
  144.6850  140.2835  143.7288 LP  0  0  0  0  0  0  0  0  0  0  0  0  # atno 17320 bound_to 7965
  145.7832  139.1899  143.2145 LP  0  0  0  0  0  0  0  0  0  0  0  0  # atno 17321 bound_to 7965
  140.3518  143.2959  152.0479 LP  0  0  0  0  0  0  0  0  0  0  0  0  # atno 17342 bound_to 10162
  139.4889  144.6368  151.6958 LP  0  0  0  0  0  0  0  0  0  0  0  0  # atno 17343 bound_to 10162
  156.6132  130.8595  151.3459 LP  0  0  0  0  0  0  0  0  0  0  0  0  # atno 17370 bound_to 10713
  157.7231  130.9586  150.1522 LP  0  0  0  0  0  0  0  0  0  0  0  0  # atno 17371 bound_to 10713
  140.1346  134.5051  155.8079 LP  0  0  0  0  0  0  0  0  0  0  0  0  # atno 17394 bound_to 11000
  141.2173  133.6802  156.7100 LP  0  0  0  0  0  0  0  0  0  0  0  0  # atno 17395 bound_to 11000

$$$$
