AV-unprocessed.smi:1522|AV-procd|sdf|6137|dock9
  -GOLD-   22720 6283D 1   1.00000     0.00000
 Structure written by MMmdl.
 34 35  0  0  0  0  0  0  0  0  3 V2000
  146.7213  134.2503  153.0211 C   0  0  0  0  0  0  0  0  0  0  0  0
  147.8557  133.3677  152.4520 C   0  0  1  0  0  0  0  0  0  0  0  0
  148.9897  133.1957  153.4902 C   0  0  0  0  0  0  0  0  0  0  0  0
  149.5154  134.4808  153.9339 N   0  0  0  0  0  0  0  0  0  0  0  0
  149.8270  134.7926  155.1980 C   0  0  0  0  0  0  0  0  0  0  0  0
  149.6752  133.9562  156.0913 O   0  0  0  0  0  0  0  0  0  0  0  0
  150.2925  136.0530  155.3462 N   0  5  0  0  0  0  0  0  0  0  0  0
  150.4873  136.5570  156.5759 C   0  0  0  0  0  0  0  0  0  0  0  0
  150.2029  135.8629  157.6895 N   0  0  0  0  0  0  0  0  0  0  0  0
  150.4830  136.5630  158.8553 N   0  0  0  0  0  0  0  0  0  0  0  0
  150.9810  137.7703  158.5894 C   0  0  0  0  0  0  0  0  0  0  0  0
  151.1572  138.1602  156.8917 S   0  0  0  0  0  0  0  0  0  0  0  0
  147.3363  132.0402  152.0127 N   0  3  0  0  0  0  0  0  0  0  0  0
  146.9428  131.1143  153.0975 C   0  0  0  0  0  0  0  0  0  0  0  0
  146.0230  130.0956  152.4348 C   0  0  0  0  0  0  0  0  0  0  0  0
  145.2453  130.9386  151.4311 C   0  0  0  0  0  0  0  0  0  0  0  0
  146.1949  132.0873  151.0629 C   0  0  0  0  0  0  0  0  0  0  0  0
  147.0911  135.2209  153.3519 H   0  0  0  0  0  0  0  0  0  0  0  0
  146.2419  133.7733  153.8766 H   0  0  0  0  0  0  0  0  0  0  0  0
  145.9512  134.4578  152.2786 H   0  0  0  0  0  0  0  0  0  0  0  0
  148.2658  133.8705  151.5744 H   0  0  0  0  0  0  0  0  0  0  0  0
  148.6232  132.6413  154.3558 H   0  0  0  0  0  0  0  0  0  0  0  0
  149.8201  132.6235  153.0755 H   0  0  0  0  0  0  0  0  0  0  0  0
  149.6535  135.1923  153.2312 H   0  0  0  0  0  0  0  0  0  0  0  0
  151.2505  138.4334  159.3977 H   0  0  0  0  0  0  0  0  0  0  0  0
  147.8059  130.6389  153.5645 H   0  0  0  0  0  0  0  0  0  0  0  0
  146.3935  131.6599  153.8669 H   0  0  0  0  0  0  0  0  0  0  0  0
  146.6172  129.3459  151.9103 H   0  0  0  0  0  0  0  0  0  0  0  0
  145.3779  129.5788  153.1459 H   0  0  0  0  0  0  0  0  0  0  0  0
  144.9259  130.3623  150.5623 H   0  0  0  0  0  0  0  0  0  0  0  0
  144.3504  131.3420  151.9070 H   0  0  0  0  0  0  0  0  0  0  0  0
  145.6591  133.0358  151.1214 H   0  0  0  0  0  0  0  0  0  0  0  0
  146.5718  131.9802  150.0452 H   0  0  0  0  0  0  0  0  0  0  0  0
  148.0878  131.5803  151.5186 H   0  0  0  0  0  0  0  0  0  0  0  0
  1  2  1  0  0  0  0
  1 18  1  0  0  0  0
  1 19  1  0  0  0  0
  1 20  1  0  0  0  0
  2  3  1  0  0  0  0
  2 13  1  0  0  0  0
  2 21  1  0  0  0  0
  3  4  1  0  0  0  0
  3 22  1  0  0  0  0
  3 23  1  0  0  0  0
  4  5  1  0  0  0  0
  4 24  1  0  0  0  0
  5  6  2  0  0  0  0
  5  7  1  0  0  0  0
  7  8  1  0  0  0  0
  8 12  1  0  0  0  0
  8  9  2  0  0  0  0
  9 10  1  0  0  0  0
 10 11  2  0  0  0  0
 11 12  1  0  0  0  0
 11 25  1  0  0  0  0
 13 17  1  0  0  0  0
 13 14  1  0  0  0  0
 13 34  1  0  0  0  0
 14 15  1  0  0  0  0
 14 26  1  0  0  0  0
 14 27  1  0  0  0  0
 15 16  1  0  0  0  0
 15 28  1  0  0  0  0
 15 29  1  0  0  0  0
 16 17  1  0  0  0  0
 16 30  1  0  0  0  0
 16 31  1  0  0  0  0
 17 32  1  0  0  0  0
 17 33  1  0  0  0  0
M  CHG  1   7  -1
M  CHG  1  13   1
M  END
> <s_m_source_file>
AV-unprocessed.smi

> <i_m_source_file_index>
1522

> <i_lp_mmshare_version>
43012

> <i_f3d_flags>
0

> <s_epik_input>
W0NIMl0xW0NIMl1bQ0gyXVtDSDJdTjFbQ0BIXShbQ0gzXSlbQ0gyXVtOSF1DKD1PKVtOSF1jMm5uW2NIXXMy

> <s_epik_cmdline>
J2VwaWtfcHl0aG9uJywgJy1waCcsICc3LjAnLCAnLXRuJywgJzgnLCAnLW1hJywgJzIwMCcsICctbWV0YWxfYmluZGluZycsICctaW1hZScsICc8aW5maWxlLm1hZT4nLCAnLW9tYWUnLCAnPG91dGZpbGUubWFlPic=

> <r_lp_tautomer_probability>
1

> <r_epik_Ionization_Penalty>
3.04208

> <r_epik_Ionization_Penalty_Charging>
3.00964

> <r_epik_Ionization_Penalty_Neutral>
0.0324455

> <r_epik_State_Penalty>
3.0051

> <r_epik_Charging_Adjusted_Penalty>
6.01474

> <i_epik_Tot_Q>
0

> <i_epik_Tot_abs_Q>
2

> <r_epik_Metal_State_Penalty>
0.454155

> <b_epik_Metal_Only>
1

> <s_lp_Force_Field>
OPLS_2005

> <r_lp_Energy>
23.3187

> <b_lp_Chiralities_Consistent>
1

> <s_lp_Variant>
AV-unprocessed.smi:1522-4

> <Gold.Version>
5.8.1

> <Gold.Id.Protein>
6NUR|6NUR_protein|mol2

> <Gold.PLP.Fitness>
34.5214

> <Gold.PLP.PLP>
-25.8962

> <Gold.PLP.part.hbond>
-3.9949

> <Gold.PLP.part.metal>
0.0000

> <Gold.PLP.part.buried>
-4.1754

> <Gold.PLP.part.nonpolar>
-18.0300

> <Gold.PLP.part.repulsive>
0.1155

> <Gold.PLP.ligand.clash>
0.0000

> <Gold.PLP.ligand.torsion>
0.2077

> <Gold.PLP.Chemscore.Hbond>
3.0000

> <Gold.PLP.Chemscore.CHOScore>
0.0000

> <Gold.PLP.Chemscore.Metal>
0.0000

> <Gold.Chemscore.Hbonds>
donor molecule, donor type, donor heavy atom, donor atom, acceptor molecule, acceptor atom, score
      L1  H     4    24       P1  7948  0.30
      L1  H    13    34       P1 10747  1.00
      P1  H  6896  6907       L1    10  0.75

> <Gold.PLP.Chemscore.Internal.Correction>
0.0405

> <Gold.Rescore>
     Score         DG    S(hbond)    S(metal)    S(lipo)     H(rot)  DE(clash)    DE(int)     intcor
     14.50     -16.53       2.55        0.00      58.29       1.68       0.17       1.85       ----

> <Gold.Chemscore.Fitness>
14.5021

> <Gold.Chemscore.DG>
-16.5255

> <Gold.Chemscore.ZeroCoef>
-5.4800

> <Gold.Chemscore.Hbond>
2.5499

> <Gold.Chemscore.Metal>
0.0000

> <Gold.Chemscore.Lipo>
58.2902

> <Gold.Chemscore.Internal_Hbond>
0.0000

> <Gold.Chemscore.DEClash>
0.1712

> <Gold.Chemscore.DEInternal>
1.8522

> <Gold.Chemscore.Rot>
1.6762

> <Gold.Chemscore.Internal.Correction>
   9.000000E+99

> <Gold.Chemscore.Hbonds>
donor molecule, donor type, donor heavy atom, donor atom, acceptor molecule, acceptor atom, score
      L1  H    13    34       P1 10747  1.00
      P1  H  6896  6907       L1    10  0.09

> <Gold.Chemscore.Hbond.Weighted>
-8.5165

> <Gold.Chemscore.Metal.Weighted>
-0.0000

> <Gold.Chemscore.Lipo.Weighted>
-6.8200

> <Gold.Chemscore.Internal_Hbond.Weighted>
0.0000

> <Gold.Chemscore.DEClash.Weighted>
0.1712

> <Gold.Chemscore.DEInternal.Weighted>
1.8522

> <Gold.Chemscore.Rot.Weighted>
4.2910

> <Gold.Chemscore.Internal.Correction.Weighted>
   9.000000E+99

> <Gold.Protein.RotatedTorsions>
[ 6907 6896 6895 6894 ] final  -29.72 input  -60.11 | X-H torsion
[ 7974 7965 7964 7962 ] final    6.08 input  175.53 | X-H torsion
[ 8008 7997 7996 7995 ] final   83.65 input   59.86 | X-H torsion
[ 10167 10162 10161 10158 ] final  173.57 input  -65.29 | X-H torsion
[ 10718 10713 10712 10709 ] final  158.46 input   66.30 | X-H torsion
[ 10763 10752 10751 10750 ] final  174.74 input  -60.55 | X-H torsion
[ 11005 11000 10999 10996 ] final   60.87 input  -57.11 | X-H torsion

> <Gold.Protein.ActiveResidues>
 VAL166  LYS551  ARG553  GLY616  TRP617  ASP618  TYR619  PRO620  LYS621  CYS622 
 ASP623  PHE694  ASN695  SER759  ASP760  ASP761  ALA762  ILE779  LEU786  VAL792 
 PHE793  MET794  SER795  GLU796  ALA797  LYS798  CYS799  TRP800  GLU811  SER814 

> <Gold.Protein.RotatedAtoms>
  151.1154  135.0050  159.8513 H   0  0  0  0  0  0  0  0  0  0  0  0  # atno 6907 bound_to 6896
  152.5445  134.1786  159.8636 H   0  0  0  0  0  0  0  0  0  0  0  0  # atno 6908 bound_to 6896
  151.1840  133.4663  159.2627 H   0  0  0  0  0  0  0  0  0  0  0  0  # atno 6909 bound_to 6896
  146.2437  140.0287  142.8391 H   0  0  0  0  0  0  0  0  0  0  0  0  # atno 7974 bound_to 7965
  155.9267  140.3417  155.6216 H   0  0  0  0  0  0  0  0  0  0  0  0  # atno 8008 bound_to 7997
  155.7207  140.0783  157.2350 H   0  0  0  0  0  0  0  0  0  0  0  0  # atno 8009 bound_to 7997
  154.4078  140.1606  156.2386 H   0  0  0  0  0  0  0  0  0  0  0  0  # atno 8010 bound_to 7997
  139.5113  144.3245  152.0171 H   0  0  0  0  0  0  0  0  0  0  0  0  # atno 10167 bound_to 10162
  157.1776  131.0625  151.2149 H   0  0  0  0  0  0  0  0  0  0  0  0  # atno 10718 bound_to 10713
  154.4581  135.2767  155.1733 H   0  0  0  0  0  0  0  0  0  0  0  0  # atno 10763 bound_to 10752
  154.3532  135.6145  153.5657 H   0  0  0  0  0  0  0  0  0  0  0  0  # atno 10764 bound_to 10752
  152.9852  135.5816  154.4938 H   0  0  0  0  0  0  0  0  0  0  0  0  # atno 10765 bound_to 10752
  140.0201  134.6166  155.9652 H   0  0  0  0  0  0  0  0  0  0  0  0  # atno 11005 bound_to 11000
  145.1174  140.9442  143.4620 LP  0  0  0  0  0  0  0  0  0  0  0  0  # atno 17320 bound_to 7965
  145.0515  139.3178  143.5926 LP  0  0  0  0  0  0  0  0  0  0  0  0  # atno 17321 bound_to 7965
  140.2686  144.3989  150.6159 LP  0  0  0  0  0  0  0  0  0  0  0  0  # atno 17342 bound_to 10162
  140.6105  143.2169  151.6896 LP  0  0  0  0  0  0  0  0  0  0  0  0  # atno 17343 bound_to 10162
  157.3983  130.7319  149.6748 LP  0  0  0  0  0  0  0  0  0  0  0  0  # atno 17370 bound_to 10713
  155.9729  130.4127  150.4048 LP  0  0  0  0  0  0  0  0  0  0  0  0  # atno 17371 bound_to 10713
  141.1768  133.6541  156.4861 LP  0  0  0  0  0  0  0  0  0  0  0  0  # atno 17394 bound_to 11000
  140.4402  134.7022  157.4988 LP  0  0  0  0  0  0  0  0  0  0  0  0  # atno 17395 bound_to 11000

$$$$
