AV-unprocessed.smi:2538|AV-procd|sdf|9984|dock8
  -GOLD-   2272014 33D 1   1.00000     0.00000
 Structure written by MMmdl.
 49 50  0  0  0  0  0  0  0  0  2 V2000
  153.3035  142.5955  161.5996 C   0  0  0  0  0  0  0  0  0  0  0  0
  152.6941  142.2442  160.2532 C   0  0  0  0  0  0  0  0  0  0  0  0
  152.8254  140.9194  159.7786 C   0  0  0  0  0  0  0  0  0  0  0  0
  152.2579  140.6286  158.5439 C   0  0  0  0  0  0  0  0  0  0  0  0
  152.2153  139.4399  157.8114 N   0  3  0  0  0  0  0  0  0  0  0  0
  151.5429  139.6482  156.6454 C   0  0  0  0  0  0  0  0  0  0  0  0
  151.1560  140.9526  156.6235 N   0  0  0  0  0  0  0  0  0  0  0  0
  150.4142  141.7044  155.6029 C   0  0  0  0  0  0  0  0  0  0  0  0
  149.3937  140.8307  154.8462 C   0  0  1  0  0  0  0  0  0  0  0  0
  150.0991  140.0599  153.8934 O   0  0  0  0  0  0  0  0  0  0  0  0
  148.6325  139.8799  155.7955 C   0  0  0  0  0  0  0  0  0  0  0  0
  147.5835  140.5579  156.5810 N   0  0  0  0  0  0  0  0  0  0  0  0
  148.0499  141.3912  157.6977 C   0  0  0  0  0  0  0  0  0  0  0  0
  146.0423  140.9159  155.8628 S   0  0  0  0  0  0  0  0  0  0  0  0
  145.8974  140.0589  154.6754 O   0  0  0  0  0  0  0  0  0  0  0  0
  145.0427  140.8426  156.9401 O   0  0  0  0  0  0  0  0  0  0  0  0
  146.2069  142.6884  155.3245 C   0  0  0  0  0  0  0  0  0  0  0  0
  145.1402  143.5634  155.9985 C   0  0  0  0  0  0  0  0  0  0  0  0
  146.1385  142.7965  153.7943 C   0  0  0  0  0  0  0  0  0  0  0  0
  151.5781  141.6024  157.7876 C   0  0  0  0  0  0  0  0  0  0  0  0
  151.4382  142.9121  158.2399 C   0  0  0  0  0  0  0  0  0  0  0  0
  152.0094  143.2279  159.4933 C   0  0  0  0  0  0  0  0  0  0  0  0
  151.8754  144.6495  160.0124 C   0  0  0  0  0  0  0  0  0  0  0  0
  153.8042  141.7367  162.0476 H   0  0  0  0  0  0  0  0  0  0  0  0
  152.5320  142.9304  162.2932 H   0  0  0  0  0  0  0  0  0  0  0  0
  154.0411  143.3907  161.4907 H   0  0  0  0  0  0  0  0  0  0  0  0
  153.3456  140.1655  160.3515 H   0  0  0  0  0  0  0  0  0  0  0  0
  151.3557  138.9133  155.8755 H   0  0  0  0  0  0  0  0  0  0  0  0
  149.9126  142.5351  156.1018 H   0  0  0  0  0  0  0  0  0  0  0  0
  151.1369  142.1460  154.9152 H   0  0  0  0  0  0  0  0  0  0  0  0
  148.7044  141.4879  154.3185 H   0  0  0  0  0  0  0  0  0  0  0  0
  149.6381  140.1044  153.0697 H   0  0  0  0  0  0  0  0  0  0  0  0
  148.2136  139.0285  155.2579 H   0  0  0  0  0  0  0  0  0  0  0  0
  149.3334  139.4420  156.5073 H   0  0  0  0  0  0  0  0  0  0  0  0
  148.9244  140.9492  158.1758 H   0  0  0  0  0  0  0  0  0  0  0  0
  147.2673  141.4859  158.4505 H   0  0  0  0  0  0  0  0  0  0  0  0
  148.3101  142.3902  157.3483 H   0  0  0  0  0  0  0  0  0  0  0  0
  147.1850  143.0418  155.6422 H   0  0  0  0  0  0  0  0  0  0  0  0
  145.2600  144.6109  155.7207 H   0  0  0  0  0  0  0  0  0  0  0  0
  145.2114  143.5015  157.0848 H   0  0  0  0  0  0  0  0  0  0  0  0
  144.1344  143.2568  155.7098 H   0  0  0  0  0  0  0  0  0  0  0  0
  146.2390  143.8324  153.4695 H   0  0  0  0  0  0  0  0  0  0  0  0
  145.1888  142.4183  153.4145 H   0  0  0  0  0  0  0  0  0  0  0  0
  146.9380  142.2273  153.3199 H   0  0  0  0  0  0  0  0  0  0  0  0
  150.9178  143.6599  157.6597 H   0  0  0  0  0  0  0  0  0  0  0  0
  151.3103  145.2753  159.3210 H   0  0  0  0  0  0  0  0  0  0  0  0
  152.8582  145.1023  160.1443 H   0  0  0  0  0  0  0  0  0  0  0  0
  151.3564  144.6608  160.9709 H   0  0  0  0  0  0  0  0  0  0  0  0
  152.6162  138.5515  158.0837 H   0  0  0  0  0  0  0  0  0  0  0  0
  1  2  1  0  0  0  0
  1 24  1  0  0  0  0
  1 25  1  0  0  0  0
  1 26  1  0  0  0  0
  2 22  1  0  0  0  0
  2  3  2  0  0  0  0
  3  4  1  0  0  0  0
  3 27  1  0  0  0  0
  4 20  2  0  0  0  0
  4  5  1  0  0  0  0
  5  6  2  0  0  0  0
  5 49  1  0  0  0  0
  6  7  1  0  0  0  0
  6 28  1  0  0  0  0
  7  8  1  0  0  0  0
  7 20  1  0  0  0  0
  8  9  1  0  0  0  0
  8 29  1  0  0  0  0
  8 30  1  0  0  0  0
  9 10  1  0  0  0  0
  9 11  1  0  0  0  0
  9 31  1  0  0  0  0
 10 32  1  0  0  0  0
 11 12  1  0  0  0  0
 11 33  1  0  0  0  0
 11 34  1  0  0  0  0
 12 13  1  0  0  0  0
 12 14  1  0  0  0  0
 13 35  1  0  0  0  0
 13 36  1  0  0  0  0
 13 37  1  0  0  0  0
 14 15  2  0  0  0  0
 14 16  2  0  0  0  0
 14 17  1  0  0  0  0
 17 18  1  0  0  0  0
 17 19  1  0  0  0  0
 17 38  1  0  0  0  0
 18 39  1  0  0  0  0
 18 40  1  0  0  0  0
 18 41  1  0  0  0  0
 19 42  1  0  0  0  0
 19 43  1  0  0  0  0
 19 44  1  0  0  0  0
 20 21  1  0  0  0  0
 21 22  2  0  0  0  0
 21 45  1  0  0  0  0
 22 23  1  0  0  0  0
 23 46  1  0  0  0  0
 23 47  1  0  0  0  0
 23 48  1  0  0  0  0
M  CHG  1   5   1
M  END
> <s_m_source_file>
AV-unprocessed.smi

> <i_m_source_file_index>
2538

> <i_lp_mmshare_version>
43012

> <i_f3d_flags>
0

> <s_epik_input>
W0NIM11jKFtjSF0xKWMoW0NIM10pW2NIXWMoYzEyKW4oW2NIXW4yKVtDSDJdW0NASF0oW09IXSlbQ0gyXU4oW0NIM10pUyg9TykoPU8pW0NIXShbQ0gzXSlbQ0gzXQ==

> <s_epik_cmdline>
J2VwaWtfcHl0aG9uJywgJy1waCcsICc3LjAnLCAnLXRuJywgJzgnLCAnLW1hJywgJzIwMCcsICctbWV0YWxfYmluZGluZycsICctaW1hZScsICc8aW5maWxlLm1hZT4nLCAnLW9tYWUnLCAnPG91dGZpbGUubWFlPic=

> <r_epik_Ionization_Penalty>
1.07686

> <r_epik_Ionization_Penalty_Charging>
1.07685

> <r_epik_Ionization_Penalty_Neutral>
1.40866e-06

> <r_epik_State_Penalty>
1.13193

> <r_epik_Charging_Adjusted_Penalty>
2.20879

> <i_epik_Tot_Q>
1

> <i_epik_Tot_abs_Q>
1

> <r_epik_Metal_State_Penalty>
5.12988

> <b_epik_Metal_Only>
0

> <s_lp_Force_Field>
OPLS_2005

> <r_lp_Energy>
10.053

> <b_lp_Chiralities_Consistent>
1

> <s_lp_Variant>
AV-unprocessed.smi:2538-4

> <Gold.Version>
5.8.1

> <Gold.Id.Protein>
6NUR|6NUR_protein|mol2

> <Gold.PLP.Fitness>
49.0218

> <Gold.PLP.PLP>
-44.9126

> <Gold.PLP.part.hbond>
-2.0000

> <Gold.PLP.part.metal>
0.0000

> <Gold.PLP.part.buried>
-6.8413

> <Gold.PLP.part.nonpolar>
-36.0350

> <Gold.PLP.part.repulsive>
0.2026

> <Gold.PLP.ligand.clash>
0.0000

> <Gold.PLP.ligand.torsion>
2.0492

> <Gold.PLP.Chemscore.Hbond>
1.8800

> <Gold.PLP.Chemscore.CHOScore>
0.0000

> <Gold.PLP.Chemscore.Metal>
0.0000

> <Gold.Chemscore.Hbonds>
donor molecule, donor type, donor heavy atom, donor atom, acceptor molecule, acceptor atom, score
      L1  H    10    32       P1  7957  1.00
      P1  H  7989  7998       L1    10  0.88

> <Gold.PLP.Chemscore.Internal.Correction>
2.5674

> <Gold.Rescore>
     Score         DG    S(hbond)    S(metal)    S(lipo)     H(rot)  DE(clash)    DE(int)     intcor
     14.34     -17.54       1.45        0.00     113.26       2.36       0.37       2.82       ----

> <Gold.Chemscore.Fitness>
14.3438

> <Gold.Chemscore.DG>
-17.5393

> <Gold.Chemscore.ZeroCoef>
-5.4800

> <Gold.Chemscore.Hbond>
1.4516

> <Gold.Chemscore.Metal>
0.0000

> <Gold.Chemscore.Lipo>
113.2575

> <Gold.Chemscore.Internal_Hbond>
0.0000

> <Gold.Chemscore.DEClash>
0.3720

> <Gold.Chemscore.DEInternal>
2.8235

> <Gold.Chemscore.Rot>
2.3595

> <Gold.Chemscore.Internal.Correction>
   9.000000E+99

> <Gold.Chemscore.Hbonds>
donor molecule, donor type, donor heavy atom, donor atom, acceptor molecule, acceptor atom, score
      L1  H    10    32       P1  7957  0.95
      P1  H  7989  7998       L1    10  0.19

> <Gold.Chemscore.Hbond.Weighted>
-4.8485

> <Gold.Chemscore.Metal.Weighted>
-0.0000

> <Gold.Chemscore.Lipo.Weighted>
-13.2511

> <Gold.Chemscore.Internal_Hbond.Weighted>
0.0000

> <Gold.Chemscore.DEClash.Weighted>
0.3720

> <Gold.Chemscore.DEInternal.Weighted>
2.8235

> <Gold.Chemscore.Rot.Weighted>
6.0403

> <Gold.Chemscore.Internal.Correction.Weighted>
   9.000000E+99

> <Gold.Protein.RotatedTorsions>
[ 6907 6896 6895 6894 ] final -163.76 input  -60.11 | X-H torsion
[ 7974 7965 7964 7962 ] final -163.50 input  175.53 | X-H torsion
[ 8008 7997 7996 7995 ] final  173.83 input   59.86 | X-H torsion
[ 10167 10162 10161 10158 ] final   99.77 input  -65.29 | X-H torsion
[ 10718 10713 10712 10709 ] final -118.06 input   66.30 | X-H torsion
[ 10763 10752 10751 10750 ] final  168.45 input  -60.55 | X-H torsion
[ 11005 11000 10999 10996 ] final  -22.71 input  -57.11 | X-H torsion

> <Gold.Protein.ActiveResidues>
 VAL166  LYS551  ARG553  GLY616  TRP617  ASP618  TYR619  PRO620  LYS621  CYS622 
 ASP623  PHE694  ASN695  SER759  ASP760  ASP761  ALA762  ILE779  LEU786  VAL792 
 PHE793  MET794  SER795  GLU796  ALA797  LYS798  CYS799  TRP800  GLU811  SER814 

> <Gold.Protein.RotatedAtoms>
  151.4011  133.3757  159.2732 H   0  0  0  0  0  0  0  0  0  0  0  0  # atno 6907 bound_to 6896
  150.9432  134.8841  159.7636 H   0  0  0  0  0  0  0  0  0  0  0  0  # atno 6908 bound_to 6896
  152.5080  134.3963  159.9453 H   0  0  0  0  0  0  0  0  0  0  0  0  # atno 6909 bound_to 6896
  144.7324  140.3098  143.6190 H   0  0  0  0  0  0  0  0  0  0  0  0  # atno 7974 bound_to 7965
  156.1036  140.1450  156.9434 H   0  0  0  0  0  0  0  0  0  0  0  0  # atno 8008 bound_to 7997
  154.4719  140.0907  156.7210 H   0  0  0  0  0  0  0  0  0  0  0  0  # atno 8009 bound_to 7997
  155.4718  140.3442  155.4329 H   0  0  0  0  0  0  0  0  0  0  0  0  # atno 8010 bound_to 7997
  139.7587  144.6961  151.0324 H   0  0  0  0  0  0  0  0  0  0  0  0  # atno 10167 bound_to 10162
  156.1078  130.6225  150.9243 H   0  0  0  0  0  0  0  0  0  0  0  0  # atno 10718 bound_to 10713
  154.3688  135.2753  155.2278 H   0  0  0  0  0  0  0  0  0  0  0  0  # atno 10763 bound_to 10752
  154.4435  135.5948  153.6148 H   0  0  0  0  0  0  0  0  0  0  0  0  # atno 10764 bound_to 10752
  152.9839  135.6024  154.3917 H   0  0  0  0  0  0  0  0  0  0  0  0  # atno 10765 bound_to 10752
  140.8683  133.7739  156.0156 H   0  0  0  0  0  0  0  0  0  0  0  0  # atno 11005 bound_to 11000
  145.7676  139.1846  143.2231 LP  0  0  0  0  0  0  0  0  0  0  0  0  # atno 17320 bound_to 7965
  146.0936  140.7626  142.9583 LP  0  0  0  0  0  0  0  0  0  0  0  0  # atno 17321 bound_to 7965
  140.7805  143.4722  151.0130 LP  0  0  0  0  0  0  0  0  0  0  0  0  # atno 17342 bound_to 10162
  139.8409  143.7565  152.3180 LP  0  0  0  0  0  0  0  0  0  0  0  0  # atno 17343 bound_to 10162
  157.6257  131.0926  150.8538 LP  0  0  0  0  0  0  0  0  0  0  0  0  # atno 17370 bound_to 10713
  156.8654  130.5127  149.5300 LP  0  0  0  0  0  0  0  0  0  0  0  0  # atno 17371 bound_to 10713
  140.8603  134.2848  157.5237 LP  0  0  0  0  0  0  0  0  0  0  0  0  # atno 17394 bound_to 11000
  139.8710  134.9515  156.4086 LP  0  0  0  0  0  0  0  0  0  0  0  0  # atno 17395 bound_to 11000

$$$$
