AV-unprocessed.smi:720|AV-procd|sdf|3501|dock4
  -GOLD-   22720 0493D 1   1.00000     0.00000
 Structure written by MMmdl.
 46 48  0  0  0  0  0  0  0  0  1 V2000
  143.9477  136.8486  152.8418 C   0  0  0  0  0  0  0  0  0  0  0  0
  145.0580  137.5345  152.1914 N   0  0  0  0  0  0  0  0  0  0  0  0
  145.6909  136.6005  151.2695 C   0  0  0  0  0  0  0  0  0  0  0  0
  146.0562  138.0006  153.1553 C   0  0  0  0  0  0  0  0  0  0  0  0
  146.9602  139.1289  152.6137 C   0  0  0  0  0  0  0  0  0  0  0  0
  147.9574  139.5805  153.5693 N   0  0  0  0  0  0  0  0  0  0  0  0
  149.1260  138.9512  153.9519 C   0  0  0  0  0  0  0  0  0  0  0  0
  149.7569  139.7635  154.8508 C   0  0  0  0  0  0  0  0  0  0  0  0
  148.8878  140.8850  154.9431 C   0  0  0  0  0  0  0  0  0  0  0  0
  149.2024  141.9745  155.7940 N   0  0  0  0  0  0  0  0  0  0  0  0
  149.7325  141.9281  157.0320 C   0  0  0  0  0  0  0  0  0  0  0  0
  150.0572  140.8951  157.6148 O   0  0  0  0  0  0  0  0  0  0  0  0
  149.9046  143.1337  157.6034 N   0  0  0  0  0  0  0  0  0  0  0  0
  150.4514  143.4331  158.9287 C   0  0  2  0  0  0  0  0  0  0  0  0
  150.4620  144.9454  159.2542 C   0  0  0  0  0  0  0  0  0  0  0  0
  151.9493  145.2241  159.5393 C   0  0  1  0  0  0  0  0  0  0  0  0
  152.3596  144.5400  160.8581 C   0  0  0  0  0  0  0  0  0  0  0  0
  152.3848  143.0466  160.4762 C   0  0  0  0  0  0  0  0  0  0  0  0
  151.9511  143.0716  158.9988 C   0  0  2  0  0  0  0  0  0  0  0  0
  152.6318  144.3437  158.5017 C   0  0  0  0  0  0  0  0  0  0  0  0
  147.8178  140.7838  154.1673 N   0  0  0  0  0  0  0  0  0  0  0  0
  143.3688  137.5332  153.4586 H   0  0  0  0  0  0  0  0  0  0  0  0
  144.2978  136.0278  153.4695 H   0  0  0  0  0  0  0  0  0  0  0  0
  143.2630  136.4399  152.0979 H   0  0  0  0  0  0  0  0  0  0  0  0
  146.5069  137.0830  150.7301 H   0  0  0  0  0  0  0  0  0  0  0  0
  144.9736  136.2468  150.5280 H   0  0  0  0  0  0  0  0  0  0  0  0
  146.0941  135.7335  151.7953 H   0  0  0  0  0  0  0  0  0  0  0  0
  145.5867  138.2815  154.0994 H   0  0  0  0  0  0  0  0  0  0  0  0
  146.7085  137.1564  153.3828 H   0  0  0  0  0  0  0  0  0  0  0  0
  147.5027  138.7607  151.7422 H   0  0  0  0  0  0  0  0  0  0  0  0
  146.3642  139.9749  152.2663 H   0  0  0  0  0  0  0  0  0  0  0  0
  149.4075  137.9862  153.5571 H   0  0  0  0  0  0  0  0  0  0  0  0
  150.6928  139.5834  155.3588 H   0  0  0  0  0  0  0  0  0  0  0  0
  149.0049  142.8922  155.4230 H   0  0  0  0  0  0  0  0  0  0  0  0
  149.6506  143.9350  157.0437 H   0  0  0  0  0  0  0  0  0  0  0  0
  149.8966  142.8687  159.6804 H   0  0  0  0  0  0  0  0  0  0  0  0
  150.1216  145.5418  158.4061 H   0  0  0  0  0  0  0  0  0  0  0  0
  149.8254  145.1893  160.1054 H   0  0  0  0  0  0  0  0  0  0  0  0
  152.2131  146.2810  159.4924 H   0  0  0  0  0  0  0  0  0  0  0  0
  153.3488  144.8705  161.1772 H   0  0  0  0  0  0  0  0  0  0  0  0
  151.6589  144.7510  161.6667 H   0  0  0  0  0  0  0  0  0  0  0  0
  153.3931  142.6427  160.5767 H   0  0  0  0  0  0  0  0  0  0  0  0
  151.7214  142.4443  161.0980 H   0  0  0  0  0  0  0  0  0  0  0  0
  152.2165  142.1632  158.4567 H   0  0  0  0  0  0  0  0  0  0  0  0
  152.3708  144.6040  157.4745 H   0  0  0  0  0  0  0  0  0  0  0  0
  153.7188  144.3208  158.5996 H   0  0  0  0  0  0  0  0  0  0  0  0
  1  2  1  0  0  0  0
  1 22  1  0  0  0  0
  1 23  1  0  0  0  0
  1 24  1  0  0  0  0
  2  3  1  0  0  0  0
  2  4  1  0  0  0  0
  3 25  1  0  0  0  0
  3 26  1  0  0  0  0
  3 27  1  0  0  0  0
  4  5  1  0  0  0  0
  4 28  1  0  0  0  0
  4 29  1  0  0  0  0
  5  6  1  0  0  0  0
  5 30  1  0  0  0  0
  5 31  1  0  0  0  0
  6 21  1  0  0  0  0
  6  7  1  0  0  0  0
  7  8  2  0  0  0  0
  7 32  1  0  0  0  0
  8  9  1  0  0  0  0
  8 33  1  0  0  0  0
  9 10  1  0  0  0  0
  9 21  2  0  0  0  0
 10 11  1  0  0  0  0
 10 34  1  0  0  0  0
 11 12  2  0  0  0  0
 11 13  1  0  0  0  0
 13 14  1  0  0  0  0
 13 35  1  0  0  0  0
 14 19  1  0  0  0  0
 14 15  1  0  0  0  0
 14 36  1  0  0  0  0
 15 16  1  0  0  0  0
 15 37  1  0  0  0  0
 15 38  1  0  0  0  0
 16 20  1  0  0  0  0
 16 17  1  0  0  0  0
 16 39  1  0  0  0  0
 17 18  1  0  0  0  0
 17 40  1  0  0  0  0
 17 41  1  0  0  0  0
 18 19  1  0  0  0  0
 18 42  1  0  0  0  0
 18 43  1  0  0  0  0
 19 20  1  0  0  0  0
 19 44  1  0  0  0  0
 20 45  1  0  0  0  0
 20 46  1  0  0  0  0
M  END
> <s_m_source_file>
AV-unprocessed.smi

> <i_m_source_file_index>
720

> <i_lp_mmshare_version>
43012

> <i_f3d_flags>
0

> <s_epik_input>
W0NIM11OKFtDSDNdKVtDSDJdW0NIMl1uMVtjSF1bY0hdYyhuMSlbTkhdQyg9TylbTkhdW0NASF0oW0NIMl1bQ0BIXTIzKVtDQEhdKFtDSDJdMylbQ0gyXVtDSDJdMg==

> <s_epik_cmdline>
J2VwaWtfcHl0aG9uJywgJy1waCcsICc3LjAnLCAnLXRuJywgJzgnLCAnLW1hJywgJzIwMCcsICctbWV0YWxfYmluZGluZycsICctaW1hZScsICc8aW5maWxlLm1hZT4nLCAnLW9tYWUnLCAnPG91dGZpbGUubWFlPic=

> <r_lp_tautomer_probability>
1

> <r_epik_Ionization_Penalty>
1.83819

> <r_epik_Ionization_Penalty_Charging>
0

> <r_epik_Ionization_Penalty_Neutral>
1.83819

> <r_epik_State_Penalty>
1.95467

> <r_epik_Charging_Adjusted_Penalty>
1.95467

> <i_epik_Tot_Q>
0

> <i_epik_Tot_abs_Q>
0

> <r_epik_Metal_State_Penalty>
1.95467

> <b_epik_Metal_Only>
0

> <s_lp_Force_Field>
OPLS_2005

> <r_lp_Energy>
62.6494

> <b_lp_Chiralities_Consistent>
1

> <s_lp_Variant>
AV-unprocessed.smi:720-7

> <Gold.Version>
5.8.1

> <Gold.Id.Protein>
6NUR|6NUR_protein|mol2

> <Gold.PLP.Fitness>
49.1336

> <Gold.PLP.PLP>
-41.5024

> <Gold.PLP.part.hbond>
-2.0000

> <Gold.PLP.part.metal>
0.0000

> <Gold.PLP.part.buried>
-4.5771

> <Gold.PLP.part.nonpolar>
-36.3942

> <Gold.PLP.part.repulsive>
0.6142

> <Gold.PLP.ligand.clash>
0.0000

> <Gold.PLP.ligand.torsion>
0.7036

> <Gold.PLP.Chemscore.Hbond>
2.0000

> <Gold.PLP.Chemscore.CHOScore>
1.0000

> <Gold.PLP.Chemscore.Metal>
0.0000

> <Gold.Chemscore.Hbonds>
donor molecule, donor type, donor heavy atom, donor atom, acceptor molecule, acceptor atom, score
      L1  H    10    34       P1  8028  1.00
      L1  H    13    35       P1  8028  1.00
      L1  C     7    32       P1  7948  1.00

> <Gold.PLP.Chemscore.Internal.Correction>
0.0384

> <Gold.Rescore>
     Score         DG    S(hbond)    S(metal)    S(lipo)     H(rot)  DE(clash)    DE(int)     intcor
     19.27     -20.61       1.78        0.00     112.07       1.53       0.88       0.47       ----

> <Gold.Chemscore.Fitness>
19.2672

> <Gold.Chemscore.DG>
-20.6113

> <Gold.Chemscore.ZeroCoef>
-5.4800

> <Gold.Chemscore.Hbond>
1.7782

> <Gold.Chemscore.Metal>
0.0000

> <Gold.Chemscore.Lipo>
112.0668

> <Gold.Chemscore.Internal_Hbond>
0.0000

> <Gold.Chemscore.DEClash>
0.8754

> <Gold.Chemscore.DEInternal>
0.4687

> <Gold.Chemscore.Rot>
1.5312

> <Gold.Chemscore.Internal.Correction>
   9.000000E+99

> <Gold.Chemscore.Hbonds>
donor molecule, donor type, donor heavy atom, donor atom, acceptor molecule, acceptor atom, score
      L1  H    10    34       P1  8028  0.95
      L1  H    13    35       P1  8028  0.81

> <Gold.Chemscore.Hbond.Weighted>
-5.9393

> <Gold.Chemscore.Metal.Weighted>
-0.0000

> <Gold.Chemscore.Lipo.Weighted>
-13.1118

> <Gold.Chemscore.Internal_Hbond.Weighted>
0.0000

> <Gold.Chemscore.DEClash.Weighted>
0.8754

> <Gold.Chemscore.DEInternal.Weighted>
0.4687

> <Gold.Chemscore.Rot.Weighted>
3.9199

> <Gold.Chemscore.Internal.Correction.Weighted>
   9.000000E+99

> <Gold.Protein.RotatedTorsions>
[ 6907 6896 6895 6894 ] final   23.77 input  -60.11 | X-H torsion
[ 7974 7965 7964 7962 ] final  -50.60 input  175.53 | X-H torsion
[ 8008 7997 7996 7995 ] final  172.28 input   59.86 | X-H torsion
[ 10167 10162 10161 10158 ] final  110.07 input  -65.29 | X-H torsion
[ 10718 10713 10712 10709 ] final   40.61 input   66.30 | X-H torsion
[ 10763 10752 10751 10750 ] final  -20.15 input  -60.55 | X-H torsion
[ 11005 11000 10999 10996 ] final  146.10 input  -57.11 | X-H torsion

> <Gold.Protein.ActiveResidues>
 VAL166  LYS551  ARG553  GLY616  TRP617  ASP618  TYR619  PRO620  LYS621  CYS622 
 ASP623  PHE694  ASN695  SER759  ASP760  ASP761  ALA762  ILE779  LEU786  VAL792 
 PHE793  MET794  SER795  GLU796  ALA797  LYS798  CYS799  TRP800  GLU811  SER814 

> <Gold.Protein.RotatedAtoms>
  151.9474  135.0185  160.0539 H   0  0  0  0  0  0  0  0  0  0  0  0  # atno 6907 bound_to 6896
  152.1983  133.4818  159.5053 H   0  0  0  0  0  0  0  0  0  0  0  0  # atno 6908 bound_to 6896
  150.6949  134.1540  159.4194 H   0  0  0  0  0  0  0  0  0  0  0  0  # atno 6909 bound_to 6896
  145.9281  140.7774  142.9613 H   0  0  0  0  0  0  0  0  0  0  0  0  # atno 7974 bound_to 7965
  156.1190  140.1490  156.9232 H   0  0  0  0  0  0  0  0  0  0  0  0  # atno 8008 bound_to 7997
  154.4821  140.0876  156.7444 H   0  0  0  0  0  0  0  0  0  0  0  0  # atno 8009 bound_to 7997
  155.4463  140.3433  155.4298 H   0  0  0  0  0  0  0  0  0  0  0  0  # atno 8010 bound_to 7997
  139.6717  144.7125  151.1675 H   0  0  0  0  0  0  0  0  0  0  0  0  # atno 10167 bound_to 10162
  157.3841  130.7770  149.7216 H   0  0  0  0  0  0  0  0  0  0  0  0  # atno 10718 bound_to 10713
  153.6159  135.6994  153.5329 H   0  0  0  0  0  0  0  0  0  0  0  0  # atno 10763 bound_to 10752
  153.2978  135.4138  155.1224 H   0  0  0  0  0  0  0  0  0  0  0  0  # atno 10764 bound_to 10752
  154.8553  135.3641  154.5699 H   0  0  0  0  0  0  0  0  0  0  0  0  # atno 10765 bound_to 10752
  140.0766  134.9121  157.1432 H   0  0  0  0  0  0  0  0  0  0  0  0  # atno 11005 bound_to 11000
  144.6761  140.2083  143.7380 LP  0  0  0  0  0  0  0  0  0  0  0  0  # atno 17320 bound_to 7965
  145.8462  139.2153  143.1799 LP  0  0  0  0  0  0  0  0  0  0  0  0  # atno 17321 bound_to 7965
  140.7620  143.5834  150.8871 LP  0  0  0  0  0  0  0  0  0  0  0  0  # atno 17342 bound_to 10162
  139.9500  143.6284  152.3031 LP  0  0  0  0  0  0  0  0  0  0  0  0  # atno 17343 bound_to 10162
  155.9782  130.4053  150.3660 LP  0  0  0  0  0  0  0  0  0  0  0  0  # atno 17370 bound_to 10713
  157.1768  131.0382  151.2768 LP  0  0  0  0  0  0  0  0  0  0  0  0  # atno 17371 bound_to 10713
  140.3549  134.2558  155.7194 LP  0  0  0  0  0  0  0  0  0  0  0  0  # atno 17394 bound_to 11000
  141.2031  133.7919  157.0354 LP  0  0  0  0  0  0  0  0  0  0  0  0  # atno 17395 bound_to 11000

$$$$
