AV-unprocessed.smi:236|AV-procd|sdf|1816|dock10
  -GOLD-   2262020403D 1   1.00000     0.00000
 Structure written by MMmdl.
 58 62  0  0  0  0  0  0  0  0  1 V2000
  156.5838  130.1119  164.5715 C   0  0  0  0  0  0  0  0  0  0  0  0
  155.0870  130.4246  164.4300 C   0  0  1  0  0  0  0  0  0  0  0  0
  154.5359  130.8339  165.6790 O   0  0  0  0  0  0  0  0  0  0  0  0
  153.5026  131.7922  165.4694 C   0  0  0  0  0  0  0  0  0  0  0  0
  153.3134  131.8736  163.9573 C   0  0  0  0  0  0  0  0  0  0  0  0
  154.6999  131.5285  163.4277 C   0  0  2  0  0  0  0  0  0  0  0  0
  154.5700  130.9876  162.1265 O   0  0  0  0  0  0  0  0  0  0  0  0
  155.6802  132.7340  163.4003 C   0  0  0  0  0  0  0  0  0  0  0  0
  155.2073  133.8619  162.6129 N   0  0  0  0  0  0  0  0  0  0  0  0
  155.0544  133.9082  161.2456 C   0  0  0  0  0  0  0  0  0  0  0  0
  154.6203  135.0443  160.7726 N   0  0  0  0  0  0  0  0  0  0  0  0
  154.4381  135.8366  161.9006 C   0  0  0  0  0  0  0  0  0  0  0  0
  153.9952  137.1734  162.1143 C   0  0  0  0  0  0  0  0  0  0  0  0
  153.6159  137.9954  161.1019 N   0  0  0  0  0  0  0  0  0  0  0  0
  153.7624  137.5073  159.7326 C   0  0  0  0  0  0  0  0  0  0  0  0
  153.0392  138.4466  158.7554 C   0  0  0  0  0  0  0  0  0  0  0  0
  153.5253  139.7732  158.9288 O   0  0  0  0  0  0  0  0  0  0  0  0
  153.2649  140.2764  160.2371 C   0  0  2  0  0  0  0  0  0  0  0  0
  153.7375  141.7344  160.2942 C   0  0  0  0  0  0  0  0  0  0  0  0
  152.6662  142.5483  160.7423 O   0  0  0  0  0  0  0  0  0  0  0  0
  151.6784  142.7501  159.7470 C   0  0  0  0  0  0  0  0  0  0  0  0
  152.1711  143.7951  158.7688 C   0  0  0  0  0  0  0  0  0  0  0  0
  151.6744  145.2204  158.8549 C   0  0  0  0  0  0  0  0  0  0  0  0
  151.2532  144.3458  157.7013 C   0  0  0  0  0  0  0  0  0  0  0  0
  154.0083  139.3930  161.2582 C   0  0  0  0  0  0  0  0  0  0  0  0
  153.9649  137.6212  163.3988 N   0  0  0  0  0  0  0  0  0  0  0  0
  154.3282  136.8201  164.4044 C   0  0  0  0  0  0  0  0  0  0  0  0
  154.7546  135.5574  164.3525 N   0  0  0  0  0  0  0  0  0  0  0  0
  154.8011  135.1046  163.0671 C   0  0  0  0  0  0  0  0  0  0  0  0
  157.0180  129.8326  163.6113 H   0  0  0  0  0  0  0  0  0  0  0  0
  156.7391  129.2805  165.2593 H   0  0  0  0  0  0  0  0  0  0  0  0
  157.1402  130.9644  164.9613 H   0  0  0  0  0  0  0  0  0  0  0  0
  154.5659  129.5047  164.1573 H   0  0  0  0  0  0  0  0  0  0  0  0
  152.5854  131.5070  165.9850 H   0  0  0  0  0  0  0  0  0  0  0  0
  153.8306  132.7525  165.8687 H   0  0  0  0  0  0  0  0  0  0  0  0
  152.5939  131.1113  163.6529 H   0  0  0  0  0  0  0  0  0  0  0  0
  152.9214  132.8333  163.6236 H   0  0  0  0  0  0  0  0  0  0  0  0
  154.8166  131.6502  161.4994 H   0  0  0  0  0  0  0  0  0  0  0  0
  155.8763  133.0884  164.4130 H   0  0  0  0  0  0  0  0  0  0  0  0
  156.6457  132.4292  162.9949 H   0  0  0  0  0  0  0  0  0  0  0  0
  155.2891  133.0708  160.6044 H   0  0  0  0  0  0  0  0  0  0  0  0
  154.8215  137.4510  159.4765 H   0  0  0  0  0  0  0  0  0  0  0  0
  153.3503  136.5011  159.6450 H   0  0  0  0  0  0  0  0  0  0  0  0
  153.2210  138.1320  157.7278 H   0  0  0  0  0  0  0  0  0  0  0  0
  151.9597  138.4179  158.9116 H   0  0  0  0  0  0  0  0  0  0  0  0
  152.1927  140.2429  160.4402 H   0  0  0  0  0  0  0  0  0  0  0  0
  154.5718  141.8257  160.9917 H   0  0  0  0  0  0  0  0  0  0  0  0
  154.0907  142.0609  159.3146 H   0  0  0  0  0  0  0  0  0  0  0  0
  151.4708  141.8170  159.2206 H   0  0  0  0  0  0  0  0  0  0  0  0
  150.7472  143.0983  160.1963 H   0  0  0  0  0  0  0  0  0  0  0  0
  153.2146  143.6724  158.4847 H   0  0  0  0  0  0  0  0  0  0  0  0
  150.9228  145.4530  159.6067 H   0  0  0  0  0  0  0  0  0  0  0  0
  152.3898  146.0143  158.6497 H   0  0  0  0  0  0  0  0  0  0  0  0
  151.6873  144.5550  156.7257 H   0  0  0  0  0  0  0  0  0  0  0  0
  150.2237  143.9931  157.6871 H   0  0  0  0  0  0  0  0  0  0  0  0
  153.8012  139.7539  162.2648 H   0  0  0  0  0  0  0  0  0  0  0  0
  155.0861  139.4736  161.1098 H   0  0  0  0  0  0  0  0  0  0  0  0
  154.2701  137.2544  165.3916 H   0  0  0  0  0  0  0  0  0  0  0  0
  1  2  1  0  0  0  0
  1 30  1  0  0  0  0
  1 31  1  0  0  0  0
  1 32  1  0  0  0  0
  2  6  1  0  0  0  0
  2  3  1  0  0  0  0
  2 33  1  0  0  0  0
  3  4  1  0  0  0  0
  4  5  1  0  0  0  0
  4 34  1  0  0  0  0
  4 35  1  0  0  0  0
  5  6  1  0  0  0  0
  5 36  1  0  0  0  0
  5 37  1  0  0  0  0
  6  7  1  0  0  0  0
  6  8  1  0  0  0  0
  7 38  1  0  0  0  0
  8  9  1  0  0  0  0
  8 39  1  0  0  0  0
  8 40  1  0  0  0  0
  9 29  1  0  0  0  0
  9 10  1  0  0  0  0
 10 11  2  0  0  0  0
 10 41  1  0  0  0  0
 11 12  1  0  0  0  0
 12 29  2  0  0  0  0
 12 13  1  0  0  0  0
 13 14  1  0  0  0  0
 13 26  2  0  0  0  0
 14 25  1  0  0  0  0
 14 15  1  0  0  0  0
 15 16  1  0  0  0  0
 15 42  1  0  0  0  0
 15 43  1  0  0  0  0
 16 17  1  0  0  0  0
 16 44  1  0  0  0  0
 16 45  1  0  0  0  0
 17 18  1  0  0  0  0
 18 19  1  0  0  0  0
 18 25  1  0  0  0  0
 18 46  1  0  0  0  0
 19 20  1  0  0  0  0
 19 47  1  0  0  0  0
 19 48  1  0  0  0  0
 20 21  1  0  0  0  0
 21 22  1  0  0  0  0
 21 49  1  0  0  0  0
 21 50  1  0  0  0  0
 22 24  1  0  0  0  0
 22 23  1  0  0  0  0
 22 51  1  0  0  0  0
 23 24  1  0  0  0  0
 23 52  1  0  0  0  0
 23 53  1  0  0  0  0
 24 54  1  0  0  0  0
 24 55  1  0  0  0  0
 25 56  1  0  0  0  0
 25 57  1  0  0  0  0
 26 27  1  0  0  0  0
 27 28  2  0  0  0  0
 27 58  1  0  0  0  0
 28 29  1  0  0  0  0
M  END
> <s_m_source_file>
AV-unprocessed.smi

> <i_m_source_file_index>
236

> <i_lp_mmshare_version>
43012

> <i_f3d_flags>
0

> <s_epik_input>
W0NIMl0xW0NIMl1PW0NAQEhdKFtDSDNdKVtDQEBdMShbT0hdKVtDSDJdbihbY0hdbjIpYyhjMjMpbltjSF1uYzNONFtDSDJdW0NIMl1PW0NASF0oW0NIMl00KVtDSDJdT1tDSDJdW0NIXTVbQ0gyXVtDSDJdNQ==

> <s_epik_cmdline>
J2VwaWtfcHl0aG9uJywgJy1waCcsICc3LjAnLCAnLXRuJywgJzgnLCAnLW1hJywgJzIwMCcsICctbWV0YWxfYmluZGluZycsICctaW1hZScsICc8aW5maWxlLm1hZT4nLCAnLW9tYWUnLCAnPG91dGZpbGUubWFlPic=

> <r_lp_tautomer_probability>
1

> <r_epik_Ionization_Penalty>
7.21838e-05

> <r_epik_Ionization_Penalty_Charging>
0

> <r_epik_Ionization_Penalty_Neutral>
7.21838e-05

> <r_epik_State_Penalty>
-0

> <r_epik_Charging_Adjusted_Penalty>
0

> <i_epik_Tot_Q>
0

> <i_epik_Tot_abs_Q>
0

> <r_epik_Metal_State_Penalty>
-0

> <b_epik_Metal_Only>
0

> <s_lp_Force_Field>
OPLS_2005

> <r_lp_Energy>
48.2383

> <b_lp_Chiralities_Consistent>
1

> <s_lp_Variant>
AV-unprocessed.smi:236-8

> <Gold.Version>
5.8.1

> <Gold.Id.Protein>
6NUR|6NUR_protein|mol2

> <Gold.PLP.Fitness>
50.0550

> <Gold.PLP.PLP>
-49.1524

> <Gold.PLP.part.hbond>
-1.0000

> <Gold.PLP.part.metal>
0.0000

> <Gold.PLP.part.buried>
-6.3181

> <Gold.PLP.part.nonpolar>
-41.1114

> <Gold.PLP.part.repulsive>
0.1022

> <Gold.PLP.ligand.clash>
0.0000

> <Gold.PLP.ligand.torsion>
1.6134

> <Gold.PLP.Chemscore.Hbond>
1.0487

> <Gold.PLP.Chemscore.CHOScore>
0.0000

> <Gold.PLP.Chemscore.Metal>
0.0000

> <Gold.Chemscore.Hbonds>
donor molecule, donor type, donor heavy atom, donor atom, acceptor molecule, acceptor atom, score
      P1  H  6896  6909       L1    11  0.19
      P1  H  7997  8010       L1    17  0.46

> <Gold.PLP.Chemscore.Internal.Correction>
0.9831

> <Gold.Rescore>
     Score         DG    S(hbond)    S(metal)    S(lipo)     H(rot)  DE(clash)    DE(int)     intcor
      9.38     -12.61       0.05        0.00     122.17       2.87       0.18       3.05       ----

> <Gold.Chemscore.Fitness>
9.3790

> <Gold.Chemscore.DG>
-12.6058

> <Gold.Chemscore.ZeroCoef>
-5.4800

> <Gold.Chemscore.Hbond>
0.0503

> <Gold.Chemscore.Metal>
0.0000

> <Gold.Chemscore.Lipo>
122.1681

> <Gold.Chemscore.Internal_Hbond>
0.0000

> <Gold.Chemscore.DEClash>
0.1782

> <Gold.Chemscore.DEInternal>
3.0485

> <Gold.Chemscore.Rot>
2.8655

> <Gold.Chemscore.Internal.Correction>
   9.000000E+99

> <Gold.Chemscore.Hbonds>
donor molecule, donor type, donor heavy atom, donor atom, acceptor molecule, acceptor atom, score
      P1  H  6896  6909       L1    11  0.03
      P1  H  7997  8010       L1    17  0.22

> <Gold.Chemscore.Hbond.Weighted>
-0.1679

> <Gold.Chemscore.Metal.Weighted>
-0.0000

> <Gold.Chemscore.Lipo.Weighted>
-14.2937

> <Gold.Chemscore.Internal_Hbond.Weighted>
0.0000

> <Gold.Chemscore.DEClash.Weighted>
0.1782

> <Gold.Chemscore.DEInternal.Weighted>
3.0485

> <Gold.Chemscore.Rot.Weighted>
7.3358

> <Gold.Chemscore.Internal.Correction.Weighted>
   9.000000E+99

> <Gold.Protein.RotatedTorsions>
[ 6907 6896 6895 6894 ] final -151.91 input  -60.11 | X-H torsion
[ 7974 7965 7964 7962 ] final -118.40 input  175.53 | X-H torsion
[ 8008 7997 7996 7995 ] final    2.34 input   59.86 | X-H torsion
[ 10167 10162 10161 10158 ] final  174.95 input  -65.29 | X-H torsion
[ 10718 10713 10712 10709 ] final  145.47 input   66.30 | X-H torsion
[ 10763 10752 10751 10750 ] final  119.86 input  -60.55 | X-H torsion
[ 11005 11000 10999 10996 ] final  160.37 input  -57.11 | X-H torsion

> <Gold.Protein.ActiveResidues>
 VAL166  LYS551  ARG553  GLY616  TRP617  ASP618  TYR619  PRO620  LYS621  CYS622 
 ASP623  PHE694  ASN695  SER759  ASP760  ASP761  ALA762  ILE779  LEU786  VAL792 
 PHE793  MET794  SER795  GLU796  ALA797  LYS798  CYS799  TRP800  GLU811  SER814 

> <Gold.Protein.RotatedAtoms>
  151.2201  133.4507  159.2600 H   0  0  0  0  0  0  0  0  0  0  0  0  # atno 6907 bound_to 6896
  151.0893  134.9907  159.8405 H   0  0  0  0  0  0  0  0  0  0  0  0  # atno 6908 bound_to 6896
  152.5433  134.2135  159.8812 H   0  0  0  0  0  0  0  0  0  0  0  0  # atno 6909 bound_to 6896
  145.0743  140.8381  143.4077 H   0  0  0  0  0  0  0  0  0  0  0  0  # atno 7974 bound_to 7965
  154.6904  140.2652  155.6818 H   0  0  0  0  0  0  0  0  0  0  0  0  # atno 8008 bound_to 7997
  156.2730  140.2792  156.1404 H   0  0  0  0  0  0  0  0  0  0  0  0  # atno 8009 bound_to 7997
  155.0904  140.0373  157.2657 H   0  0  0  0  0  0  0  0  0  0  0  0  # atno 8010 bound_to 7997
  139.5160  144.3087  152.0312 H   0  0  0  0  0  0  0  0  0  0  0  0  # atno 10167 bound_to 10162
  157.3449  131.0941  151.1050 H   0  0  0  0  0  0  0  0  0  0  0  0  # atno 10718 bound_to 10713
  153.5895  135.3468  155.2905 H   0  0  0  0  0  0  0  0  0  0  0  0  # atno 10763 bound_to 10752
  154.8655  135.4201  154.2532 H   0  0  0  0  0  0  0  0  0  0  0  0  # atno 10764 bound_to 10752
  153.3336  135.7046  153.6998 H   0  0  0  0  0  0  0  0  0  0  0  0  # atno 10765 bound_to 10752
  140.2053  134.8308  157.3062 H   0  0  0  0  0  0  0  0  0  0  0  0  # atno 11005 bound_to 11000
  145.1255  139.2666  143.5566 LP  0  0  0  0  0  0  0  0  0  0  0  0  # atno 17320 bound_to 7965
  146.3529  140.0890  142.8613 LP  0  0  0  0  0  0  0  0  0  0  0  0  # atno 17321 bound_to 7965
  140.2532  144.4146  150.6214 LP  0  0  0  0  0  0  0  0  0  0  0  0  # atno 17342 bound_to 10162
  140.6210  143.2176  151.6695 LP  0  0  0  0  0  0  0  0  0  0  0  0  # atno 17343 bound_to 10162
  157.2248  130.6498  149.5826 LP  0  0  0  0  0  0  0  0  0  0  0  0  # atno 17370 bound_to 10713
  155.9713  130.4617  150.6121 LP  0  0  0  0  0  0  0  0  0  0  0  0  # atno 17371 bound_to 10713
  140.2010  134.4255  155.7663 LP  0  0  0  0  0  0  0  0  0  0  0  0  # atno 17394 bound_to 11000
  141.2227  133.7072  156.8183 LP  0  0  0  0  0  0  0  0  0  0  0  0  # atno 17395 bound_to 11000

$$$$
