AV-unprocessed.smi:319|AV-procd|sdf|2331|dock8
  -GOLD-   2262022233D 1   1.00000     0.00000
 Structure written by MMmdl.
 38 39  0  0  0  0  0  0  0  0  1 V2000
  151.0561  133.7687  156.7980 C   0  0  0  0  0  0  0  0  0  0  0  0
  149.8846  134.4020  155.5647 S   0  0  0  0  0  0  0  0  0  0  0  0
  150.3795  136.0952  155.4676 C   0  0  0  0  0  0  0  0  0  0  0  0
  151.6166  136.4727  155.1423 N   0  0  0  0  0  0  0  0  0  0  0  0
  151.7792  137.8609  155.1301 C   0  0  0  0  0  0  0  0  0  0  0  0
  153.1180  138.4401  154.7860 C   0  0  0  0  0  0  0  0  0  0  0  0
  150.6342  138.5501  155.4590 C   0  0  0  0  0  0  0  0  0  0  0  0
  150.4385  140.0308  155.5535 C   0  0  0  0  0  0  0  0  0  0  0  0
  151.3790  140.6359  156.5954 C   0  0  0  0  0  0  0  0  0  0  0  0
  152.3500  139.9940  156.9948 O   0  0  0  0  0  0  0  0  0  0  0  0
  151.0823  141.8740  157.0195 N   0  0  0  0  0  0  0  0  0  0  0  0
  151.8603  142.6493  157.9798 C   0  0  0  0  0  0  0  0  0  0  0  0
  151.7695  142.0233  159.3870 C   0  0  0  0  0  0  0  0  0  0  0  0
  152.5146  142.8728  160.4295 C   0  0  0  0  0  0  0  0  0  0  0  0
  152.0042  144.3223  160.4370 C   0  0  0  0  0  0  0  0  0  0  0  0
  152.1005  144.9505  159.0378 C   0  0  0  0  0  0  0  0  0  0  0  0
  151.3540  144.1042  157.9940 C   0  0  0  0  0  0  0  0  0  0  0  0
  149.3122  137.4598  155.7904 S   0  0  0  0  0  0  0  0  0  0  0  0
  150.8604  132.7127  156.9830 H   0  0  0  0  0  0  0  0  0  0  0  0
  150.9509  134.3025  157.7426 H   0  0  0  0  0  0  0  0  0  0  0  0
  152.0828  133.8649  156.4447 H   0  0  0  0  0  0  0  0  0  0  0  0
  153.0254  139.2496  154.0621 H   0  0  0  0  0  0  0  0  0  0  0  0
  153.7820  137.6910  154.3533 H   0  0  0  0  0  0  0  0  0  0  0  0
  153.6104  138.8416  155.6717 H   0  0  0  0  0  0  0  0  0  0  0  0
  150.6046  140.5003  154.5831 H   0  0  0  0  0  0  0  0  0  0  0  0
  149.4082  140.2570  155.8305 H   0  0  0  0  0  0  0  0  0  0  0  0
  150.2629  142.3203  156.6342 H   0  0  0  0  0  0  0  0  0  0  0  0
  152.9057  142.6588  157.6646 H   0  0  0  0  0  0  0  0  0  0  0  0
  150.7235  141.9265  159.6816 H   0  0  0  0  0  0  0  0  0  0  0  0
  152.1820  141.0137  159.3784 H   0  0  0  0  0  0  0  0  0  0  0  0
  152.3978  142.4322  161.4200 H   0  0  0  0  0  0  0  0  0  0  0  0
  153.5833  142.8628  160.2110 H   0  0  0  0  0  0  0  0  0  0  0  0
  150.9681  144.3435  160.7772 H   0  0  0  0  0  0  0  0  0  0  0  0
  152.5765  144.9149  161.1512 H   0  0  0  0  0  0  0  0  0  0  0  0
  151.6935  145.9619  159.0556 H   0  0  0  0  0  0  0  0  0  0  0  0
  153.1486  145.0439  158.7505 H   0  0  0  0  0  0  0  0  0  0  0  0
  151.4737  144.5511  157.0063 H   0  0  0  0  0  0  0  0  0  0  0  0
  150.2854  144.1224  158.2135 H   0  0  0  0  0  0  0  0  0  0  0  0
  1  2  1  0  0  0  0
  1 19  1  0  0  0  0
  1 20  1  0  0  0  0
  1 21  1  0  0  0  0
  2  3  1  0  0  0  0
  3 18  1  0  0  0  0
  3  4  2  0  0  0  0
  4  5  1  0  0  0  0
  5  6  1  0  0  0  0
  5  7  2  0  0  0  0
  6 22  1  0  0  0  0
  6 23  1  0  0  0  0
  6 24  1  0  0  0  0
  7  8  1  0  0  0  0
  7 18  1  0  0  0  0
  8  9  1  0  0  0  0
  8 25  1  0  0  0  0
  8 26  1  0  0  0  0
  9 10  2  0  0  0  0
  9 11  1  0  0  0  0
 11 12  1  0  0  0  0
 11 27  1  0  0  0  0
 12 17  1  0  0  0  0
 12 13  1  0  0  0  0
 12 28  1  0  0  0  0
 13 14  1  0  0  0  0
 13 29  1  0  0  0  0
 13 30  1  0  0  0  0
 14 15  1  0  0  0  0
 14 31  1  0  0  0  0
 14 32  1  0  0  0  0
 15 16  1  0  0  0  0
 15 33  1  0  0  0  0
 15 34  1  0  0  0  0
 16 17  1  0  0  0  0
 16 35  1  0  0  0  0
 16 36  1  0  0  0  0
 17 37  1  0  0  0  0
 17 38  1  0  0  0  0
M  END
> <s_m_source_file>
AV-unprocessed.smi

> <i_m_source_file_index>
319

> <i_lp_mmshare_version>
43012

> <i_f3d_flags>
0

> <s_epik_input>
W0NIM11TYzFuYyhbQ0gzXSljKHMxKVtDSDJdQyg9TylbTkhdW0NIXTJbQ0gyXVtDSDJdW0NIMl1bQ0gyXVtDSDJdMg==

> <s_epik_cmdline>
J2VwaWtfcHl0aG9uJywgJy1waCcsICc3LjAnLCAnLXRuJywgJzgnLCAnLW1hJywgJzIwMCcsICctbWV0YWxfYmluZGluZycsICctaW1hZScsICc8aW5maWxlLm1hZT4nLCAnLW9tYWUnLCAnPG91dGZpbGUubWFlPic=

> <r_lp_tautomer_probability>
1

> <r_epik_Ionization_Penalty>
2.85285e-06

> <r_epik_Ionization_Penalty_Charging>
0

> <r_epik_Ionization_Penalty_Neutral>
2.85285e-06

> <r_epik_State_Penalty>
-0

> <r_epik_Charging_Adjusted_Penalty>
0

> <i_epik_Tot_Q>
0

> <i_epik_Tot_abs_Q>
0

> <r_epik_Metal_State_Penalty>
-0

> <b_epik_Metal_Only>
0

> <s_lp_Force_Field>
OPLS_2005

> <r_lp_Energy>
6.2973

> <b_lp_Chiralities_Consistent>
1

> <s_lp_Variant>
AV-unprocessed.smi:319-1

> <Gold.Version>
5.8.1

> <Gold.Id.Protein>
6NUR|6NUR_protein|mol2

> <Gold.PLP.Fitness>
46.7238

> <Gold.PLP.PLP>
-41.3397

> <Gold.PLP.part.hbond>
-2.0000

> <Gold.PLP.part.metal>
0.0000

> <Gold.PLP.part.buried>
-5.0292

> <Gold.PLP.part.nonpolar>
-34.7086

> <Gold.PLP.part.repulsive>
0.2177

> <Gold.PLP.ligand.clash>
0.0000

> <Gold.PLP.ligand.torsion>
0.3132

> <Gold.PLP.Chemscore.Hbond>
2.0000

> <Gold.PLP.Chemscore.CHOScore>
0.0000

> <Gold.PLP.Chemscore.Metal>
0.0000

> <Gold.Chemscore.Hbonds>
donor molecule, donor type, donor heavy atom, donor atom, acceptor molecule, acceptor atom, score
      P1  H  7997  8010       L1    10  0.91
      P1  H 10752 10765       L1     4  1.00

> <Gold.PLP.Chemscore.Internal.Correction>
0.0104

> <Gold.Rescore>
     Score         DG    S(hbond)    S(metal)    S(lipo)     H(rot)  DE(clash)    DE(int)     intcor
     19.08     -21.93       1.96        0.00     113.76       1.33       0.02       2.82       ----

> <Gold.Chemscore.Fitness>
19.0825

> <Gold.Chemscore.DG>
-21.9269

> <Gold.Chemscore.ZeroCoef>
-5.4800

> <Gold.Chemscore.Hbond>
1.9578

> <Gold.Chemscore.Metal>
0.0000

> <Gold.Chemscore.Lipo>
113.7578

> <Gold.Chemscore.Internal_Hbond>
0.0000

> <Gold.Chemscore.DEClash>
0.0250

> <Gold.Chemscore.DEInternal>
2.8193

> <Gold.Chemscore.Rot>
1.3289

> <Gold.Chemscore.Internal.Correction>
   9.000000E+99

> <Gold.Chemscore.Hbonds>
donor molecule, donor type, donor heavy atom, donor atom, acceptor molecule, acceptor atom, score
      P1  H  7997  8010       L1    10  0.85
      P1  H 10752 10765       L1     4  0.93

> <Gold.Chemscore.Hbond.Weighted>
-6.5391

> <Gold.Chemscore.Metal.Weighted>
-0.0000

> <Gold.Chemscore.Lipo.Weighted>
-13.3097

> <Gold.Chemscore.Internal_Hbond.Weighted>
0.0000

> <Gold.Chemscore.DEClash.Weighted>
0.0250

> <Gold.Chemscore.DEInternal.Weighted>
2.8193

> <Gold.Chemscore.Rot.Weighted>
3.4019

> <Gold.Chemscore.Internal.Correction.Weighted>
   9.000000E+99

> <Gold.Protein.RotatedTorsions>
[ 6907 6896 6895 6894 ] final  109.80 input  -60.11 | X-H torsion
[ 7974 7965 7964 7962 ] final  -20.54 input  175.53 | X-H torsion
[ 8008 7997 7996 7995 ] final   72.78 input   59.86 | X-H torsion
[ 10167 10162 10161 10158 ] final  -28.34 input  -65.29 | X-H torsion
[ 10718 10713 10712 10709 ] final  -32.22 input   66.30 | X-H torsion
[ 10763 10752 10751 10750 ] final -172.30 input  -60.55 | X-H torsion
[ 11005 11000 10999 10996 ] final    5.10 input  -57.11 | X-H torsion

> <Gold.Protein.ActiveResidues>
 VAL166  LYS551  ARG553  GLY616  TRP617  ASP618  TYR619  PRO620  LYS621  CYS622 
 ASP623  PHE694  ASN695  SER759  ASP760  ASP761  ALA762  ILE779  LEU786  VAL792 
 PHE793  MET794  SER795  GLU796  ALA797  LYS798  CYS799  TRP800  GLU811  SER814 

> <Gold.Protein.RotatedAtoms>
  152.5050  133.8891  159.7384 H   0  0  0  0  0  0  0  0  0  0  0  0  # atno 6907 bound_to 6896
  150.9334  133.6731  159.2812 H   0  0  0  0  0  0  0  0  0  0  0  0  # atno 6908 bound_to 6896
  151.4067  135.0984  159.9625 H   0  0  0  0  0  0  0  0  0  0  0  0  # atno 6909 bound_to 6896
  146.1782  140.4216  142.8505 H   0  0  0  0  0  0  0  0  0  0  0  0  # atno 7974 bound_to 7965
  155.7739  140.3483  155.5261 H   0  0  0  0  0  0  0  0  0  0  0  0  # atno 8008 bound_to 7997
  155.8794  140.0999  157.1516 H   0  0  0  0  0  0  0  0  0  0  0  0  # atno 8009 bound_to 7997
  154.4023  140.1325  156.4165 H   0  0  0  0  0  0  0  0  0  0  0  0  # atno 8010 bound_to 7997
  140.7270  143.4018  151.1251 H   0  0  0  0  0  0  0  0  0  0  0  0  # atno 10167 bound_to 10162
  156.3775  130.4350  149.7495 H   0  0  0  0  0  0  0  0  0  0  0  0  # atno 10718 bound_to 10713
  154.6208  135.2875  155.0328 H   0  0  0  0  0  0  0  0  0  0  0  0  # atno 10763 bound_to 10752
  154.1523  135.6501  153.4970 H   0  0  0  0  0  0  0  0  0  0  0  0  # atno 10764 bound_to 10752
  153.0235  135.5358  154.6997 H   0  0  0  0  0  0  0  0  0  0  0  0  # atno 10765 bound_to 10752
  140.5745  134.0071  155.8022 H   0  0  0  0  0  0  0  0  0  0  0  0  # atno 11005 bound_to 11000
  144.8272  140.6647  143.6315 LP  0  0  0  0  0  0  0  0  0  0  0  0  # atno 17320 bound_to 7965
  145.4150  139.1573  143.4105 LP  0  0  0  0  0  0  0  0  0  0  0  0  # atno 17321 bound_to 7965
  139.7639  143.8594  152.3106 LP  0  0  0  0  0  0  0  0  0  0  0  0  # atno 17342 bound_to 10162
  139.8489  144.7174  150.9238 LP  0  0  0  0  0  0  0  0  0  0  0  0  # atno 17343 bound_to 10162
  156.4599  130.7946  151.2967 LP  0  0  0  0  0  0  0  0  0  0  0  0  # atno 17370 bound_to 10713
  157.7489  131.0069  150.3170 LP  0  0  0  0  0  0  0  0  0  0  0  0  # atno 17371 bound_to 10713
  141.1035  133.9730  157.3037 LP  0  0  0  0  0  0  0  0  0  0  0  0  # atno 17394 bound_to 11000
  139.9346  135.0197  156.8514 LP  0  0  0  0  0  0  0  0  0  0  0  0  # atno 17395 bound_to 11000

$$$$
