#       Name:                AV-unprocessed.smi:34
#       Creating user name   scv26
#       Creation time:       Thu Mar 26 15:59:55 2020


#       File generated by GOLD software.
#

@<TRIPOS>MOLECULE
AV-unprocessed.smi:34
    66    70     1
SMALL
NO_CHARGES


@<TRIPOS>ATOM
      1 ****        -4.9056   1.4574   2.5203 O.2            1 S1                 0.0000
      2 ****        -5.1825   1.2851   1.3313 C.2            1 S1                 0.0000
      3 ****        -4.4713   1.6834   0.2459 N.pl3          1 S1                -1.0000
      4 ****        -3.2986   2.3156   0.4070 C.ar           1 S1                 0.0000
      5 ****        -3.2257   3.6638   0.2645 N.ar           1 S1                 0.0000
      6 ****        -2.0581   4.2992   0.4202 C.ar           1 S1                 0.0000
      7 ****        -0.8568   3.7912   0.7132 N.ar           1 S1                 0.0000
      8 ****        -0.9174   2.4350   0.8525 C.ar           1 S1                 0.0000
      9 ****        -2.0867   1.6342   0.7094 C.ar           1 S1                 0.0000
     10 ****        -1.7892   0.2943   0.9121 N.2            1 S1                 0.0000
     11 ****        -0.4845   0.3436   1.1751 C.2            1 S1                 0.0000
     12 ****         0.1064   1.5569   1.1584 N.pl3          1 S1                 0.0000
     13 ****         1.5291   1.9307   1.4235 C.3            1 S1                 0.0000
     14 ****         2.1759   0.8284   1.9974 O.3            1 S1                 0.0000
     15 ****         3.2075   0.3402   1.1412 C.3            1 S1                 0.0000
     16 ****         2.6990  -0.8539   0.3180 C.3            1 S1                 0.0000
     17 ****         3.8007  -1.4746  -0.3246 O.3            1 S1                 0.0000
     18 ****         3.6087  -2.5531  -1.1082 C.2            1 S1                 0.0000
     19 ****         2.5021  -3.0511  -1.3243 O.2            1 S1                 0.0000
     20 ****         4.8777  -3.0813  -1.6873 C.ar           1 S1                 0.0000
     21 ****         4.8316  -4.1929  -2.5609 C.ar           1 S1                 0.0000
     22 ****         6.0139  -4.7149  -3.1208 C.ar           1 S1                 0.0000
     23 ****         7.2573  -4.1324  -2.8133 C.ar           1 S1                 0.0000
     24 ****         7.3167  -3.0267  -1.9453 C.ar           1 S1                 0.0000
     25 ****         6.1353  -2.5026  -1.3851 C.ar           1 S1                 0.0000
     26 ****         3.5849   1.5570   0.2991 C.3            1 S1                 0.0000
     27 ****         4.4125   2.3097   1.0293 F              1 S1                 0.0000
     28 ****         2.2445   2.2474   0.1026 C.3            1 S1                 0.0000
     29 ****         2.4215   3.6301  -0.1300 O.3            1 S1                 0.0000
     30 ****        -6.4837   0.6132   0.9800 C.ar           1 S1                 0.0000
     31 ****        -7.6127   0.7961   1.8113 C.ar           1 S1                 0.0000
     32 ****        -8.8316   0.1542   1.5176 C.ar           1 S1                 0.0000
     33 ****        -8.9334  -0.6842   0.3920 C.ar           1 S1                 0.0000
     34 ****        -7.8140  -0.8839  -0.4368 C.ar           1 S1                 0.0000
     35 ****        -6.5940  -0.2443  -0.1422 C.ar           1 S1                 0.0000
     36 ****        -2.0919   5.3709   0.2919 H              1 S1                 0.0000
     37 ****         0.0668  -0.5574   1.3976 H              1 S1                 0.0000
     38 ****         1.4853   2.7614   2.1295 H              1 S1                 0.0000
     39 ****         4.0462   0.0114   1.7567 H              1 S1                 0.0000
     40 ****         2.2235  -1.5794   0.9791 H              1 S1                 0.0000
     41 ****         1.9542  -0.5396  -0.4140 H              1 S1                 0.0000
     42 ****         3.8885  -4.6570  -2.8115 H              1 S1                 0.0000
     43 ****         5.9663  -5.5638  -3.7870 H              1 S1                 0.0000
     44 ****         8.1640  -4.5332  -3.2419 H              1 S1                 0.0000
     45 ****         8.2704  -2.5788  -1.7077 H              1 S1                 0.0000
     46 ****         6.2175  -1.6539  -0.7220 H              1 S1                 0.0000
     47 ****         4.0945   1.3122  -0.6336 H              1 S1                 0.0000
     48 ****         1.7069   1.7914  -0.7306 H              1 S1                 0.0000
     49 ****         1.5690   4.0370  -0.1725 H              1 S1                 0.0000
     50 ****        -7.5516   1.4346   2.6806 H              1 S1                 0.0000
     51 ****        -9.6879   0.3043   2.1581 H              1 S1                 0.0000
     52 ****        -9.8676  -1.1768   0.1670 H              1 S1                 0.0000
     53 ****        -7.8884  -1.5315  -1.2977 H              1 S1                 0.0000
     54 ****        -5.7442  -0.4225  -0.7851 H              1 S1                 0.0000
     55 ****        -4.0686   1.9425   2.7736 LP             1 S1                 0.0000
     56 ****        -5.5180   1.1120   3.2314 LP             1 S1                 0.0000
     57 ****        -4.8213   1.5057  -0.6739 LP             1 S1                 0.0000
     58 ****        -4.0494   4.1852   0.0418 LP             1 S1                 0.0000
     59 ****        -0.0232   4.3338   0.8167 LP             1 S1                 0.0000
     60 ****        -2.3953  -0.5000   0.8714 LP             1 S1                 0.0000
     61 ****         1.5075   0.1009   2.1524 LP             1 S1                 0.0000
     62 ****         2.5781   1.1031   2.8708 LP             1 S1                 0.0000
     63 ****         1.6847  -2.6530  -0.9079 LP             1 S1                 0.0000
     64 ****         2.4217  -3.8532  -1.9160 LP             1 S1                 0.0000
     65 ****         2.9051   3.7680  -0.9944 LP             1 S1                 0.0000
     66 ****         2.9513   4.0331   0.6163 LP             1 S1                 0.0000
@<TRIPOS>BOND
    1    1    2 2     
    2    2    3 1     
    3    2   30 1     
    4    3    4 1     
    5    4    9 ar    
    6    4    5 ar    
    7    5    6 ar    
    8    6    7 ar    
    9    6   36 1     
   10    7    8 ar    
   11    8   12 1     
   12    8    9 ar    
   13    9   10 1     
   14   10   11 2     
   15   11   12 1     
   16   11   37 1     
   17   12   13 1     
   18   13   28 1     
   19   13   14 1     
   20   13   38 1     
   21   14   15 1     
   22   15   16 1     
   23   15   26 1     
   24   15   39 1     
   25   16   17 1     
   26   16   40 1     
   27   16   41 1     
   28   17   18 1     
   29   18   19 2     
   30   18   20 1     
   31   20   25 ar    
   32   20   21 ar    
   33   21   22 ar    
   34   21   42 1     
   35   22   23 ar    
   36   22   43 1     
   37   23   24 ar    
   38   23   44 1     
   39   24   25 ar    
   40   24   45 1     
   41   25   46 1     
   42   26   27 1     
   43   26   28 1     
   44   26   47 1     
   45   28   29 1     
   46   28   48 1     
   47   29   49 1     
   48   30   35 ar    
   49   30   31 ar    
   50   31   32 ar    
   51   31   50 1     
   52   32   33 ar    
   53   32   51 1     
   54   33   34 ar    
   55   33   52 1     
   56   34   35 ar    
   57   34   53 1     
   58   35   54 1     
   59    1   55 1     
   60    1   56 1     
   61    3   57 1     
   62    5   58 1     
   63    7   59 1     
   64   10   60 1     
   65   14   61 1     
   66   14   62 1     
   67   19   63 1     
   68   19   64 1     
   69   29   65 1     
   70   29   66 1     
@<TRIPOS>SUBSTRUCTURE
      1 S1             1
@<TRIPOS>SET
LONE_PAIRS      STATIC     ATOMS    <user>   **** ""
12 55 56 57 58 59 60 61 62 63 64 65 66
DONOR_HYDROGENS      STATIC     ATOMS    <user>   **** ""
1 49
ATOM$BLUE        STATIC     ATOMS    COLORGROUP SYSTEM
12 55 56 57 58 59 60 61 62 63 64 65 66
ATOM$RED        STATIC     ATOMS    COLORGROUP SYSTEM
1 49
