AV-unprocessed.smi:1653|AV-procd|sdf|6641|dock8
  -GOLD-   22720 7343D 1   1.00000     0.00000
 Structure written by MMmdl.
 41 42  0  0  0  0  0  0  0  0  3 V2000
  152.2441  136.3857  156.3929 N   0  0  0  0  0  0  0  0  0  0  0  0
  151.7140  137.3575  156.7305 C   0  0  0  0  0  0  0  0  0  0  0  0
  151.0390  138.5977  157.1614 C   0  0  0  0  0  0  0  0  0  0  0  0
  149.7435  138.2770  157.7718 N   0  0  0  0  0  0  0  0  0  0  0  0
  149.4823  137.3051  158.6612 C   0  0  0  0  0  0  0  0  0  0  0  0
  150.3408  136.5440  159.1074 O   0  0  0  0  0  0  0  0  0  0  0  0
  148.0250  137.2010  159.1315 C   0  0  0  0  0  0  0  0  0  0  0  0
  147.7912  136.0641  160.0382 N   0  0  0  0  0  0  0  0  0  0  0  0
  147.5739  136.3644  161.3958 C   0  0  0  0  0  0  0  0  0  0  0  0
  147.3578  135.4057  162.3076 C   0  0  0  0  0  0  0  0  0  0  0  0
  147.3459  134.0328  161.8653 C   0  0  0  0  0  0  0  0  0  0  0  0
  147.5544  133.7194  160.5657 C   0  0  0  0  0  0  0  0  0  0  0  0
  147.5226  132.3250  160.1887 N   0  3  0  0  0  0  0  0  0  0  0  0
  147.6998  132.0250  159.0121 O   0  0  0  0  0  0  0  0  0  0  0  0
  147.3048  131.4877  161.0592 O   0  5  0  0  0  0  0  0  0  0  0  0
  147.8048  134.7785  159.5662 C   0  0  0  0  0  0  0  0  0  0  0  0
  148.0229  134.5384  158.3770 O   0  0  0  0  0  0  0  0  0  0  0  0
  151.9697  139.3465  158.1559 C   0  0  0  0  0  0  0  0  0  0  0  0
  151.3495  140.5684  158.8660 C   0  0  0  0  0  0  0  0  0  0  0  0
  151.4450  141.9022  158.1054 C   0  0  0  0  0  0  0  0  0  0  0  0
  151.2292  141.8477  156.5834 C   0  0  0  0  0  0  0  0  0  0  0  0
  150.1805  140.8345  156.0986 C   0  0  0  0  0  0  0  0  0  0  0  0
  150.7692  139.4264  155.8862 C   0  0  0  0  0  0  0  0  0  0  0  0
  148.9658  138.8491  157.4768 H   0  0  0  0  0  0  0  0  0  0  0  0
  147.7590  138.1413  159.6164 H   0  0  0  0  0  0  0  0  0  0  0  0
  147.3629  137.1306  158.2661 H   0  0  0  0  0  0  0  0  0  0  0  0
  147.6048  137.4148  161.6470 H   0  0  0  0  0  0  0  0  0  0  0  0
  147.1987  135.6544  163.3466 H   0  0  0  0  0  0  0  0  0  0  0  0
  147.1574  133.2546  162.5907 H   0  0  0  0  0  0  0  0  0  0  0  0
  152.2780  138.6410  158.9283 H   0  0  0  0  0  0  0  0  0  0  0  0
  152.8963  139.6375  157.6593 H   0  0  0  0  0  0  0  0  0  0  0  0
  150.3099  140.3756  159.1272 H   0  0  0  0  0  0  0  0  0  0  0  0
  151.8524  140.7028  159.8242 H   0  0  0  0  0  0  0  0  0  0  0  0
  150.7212  142.5910  158.5424 H   0  0  0  0  0  0  0  0  0  0  0  0
  152.4211  142.3513  158.2923 H   0  0  0  0  0  0  0  0  0  0  0  0
  150.9388  142.8450  156.2511 H   0  0  0  0  0  0  0  0  0  0  0  0
  152.1805  141.6492  156.0883 H   0  0  0  0  0  0  0  0  0  0  0  0
  149.3134  140.8164  156.7594 H   0  0  0  0  0  0  0  0  0  0  0  0
  149.8075  141.1808  155.1342 H   0  0  0  0  0  0  0  0  0  0  0  0
  151.6887  139.5095  155.3047 H   0  0  0  0  0  0  0  0  0  0  0  0
  150.0844  138.8632  155.2501 H   0  0  0  0  0  0  0  0  0  0  0  0
  1  2  3  0  0  0  0
  2  3  1  0  0  0  0
  3 23  1  0  0  0  0
  3  4  1  0  0  0  0
  3 18  1  0  0  0  0
  4  5  1  0  0  0  0
  4 24  1  0  0  0  0
  5  6  2  0  0  0  0
  5  7  1  0  0  0  0
  7  8  1  0  0  0  0
  7 25  1  0  0  0  0
  7 26  1  0  0  0  0
  8 16  1  0  0  0  0
  8  9  1  0  0  0  0
  9 10  2  0  0  0  0
  9 27  1  0  0  0  0
 10 11  1  0  0  0  0
 10 28  1  0  0  0  0
 11 12  2  0  0  0  0
 11 29  1  0  0  0  0
 12 13  1  0  0  0  0
 12 16  1  0  0  0  0
 13 14  2  0  0  0  0
 13 15  1  0  0  0  0
 16 17  2  0  0  0  0
 18 19  1  0  0  0  0
 18 30  1  0  0  0  0
 18 31  1  0  0  0  0
 19 20  1  0  0  0  0
 19 32  1  0  0  0  0
 19 33  1  0  0  0  0
 20 21  1  0  0  0  0
 20 34  1  0  0  0  0
 20 35  1  0  0  0  0
 21 22  1  0  0  0  0
 21 36  1  0  0  0  0
 21 37  1  0  0  0  0
 22 23  1  0  0  0  0
 22 38  1  0  0  0  0
 22 39  1  0  0  0  0
 23 40  1  0  0  0  0
 23 41  1  0  0  0  0
M  CHG  1  13   1
M  CHG  1  15  -1
M  END
> <s_m_source_file>
AV-unprocessed.smi

> <i_m_source_file_index>
1653

> <i_lp_mmshare_version>
43012

> <i_f3d_flags>
0

> <s_epik_input>
W0NIMl0xW0NIMl1bQ0gyXVtDSDJdW0NIMl1bQ0gyXUMxKEMjTilbTkhdQyg9TylbQ0gyXW4yW2NIXVtjSF1bY0hdYyhbTitdKD1PKVtPLV0pYzI9Tw==

> <s_epik_cmdline>
J2VwaWtfcHl0aG9uJywgJy1waCcsICc3LjAnLCAnLXRuJywgJzgnLCAnLW1hJywgJzIwMCcsICctbWV0YWxfYmluZGluZycsICctaW1hZScsICc8aW5maWxlLm1hZT4nLCAnLW9tYWUnLCAnPG91dGZpbGUubWFlPic=

> <r_lp_tautomer_probability>
1

> <r_epik_Ionization_Penalty>
4.51252e-07

> <r_epik_Ionization_Penalty_Charging>
1.09758e-10

> <r_epik_Ionization_Penalty_Neutral>
4.51142e-07

> <r_epik_State_Penalty>
-0

> <r_epik_Charging_Adjusted_Penalty>
1.09758e-10

> <i_epik_Tot_Q>
0

> <i_epik_Tot_abs_Q>
2

> <r_epik_Metal_State_Penalty>
-0

> <b_epik_Metal_Only>
0

> <s_lp_Force_Field>
OPLS_2005

> <r_lp_Energy>
31.6459

> <b_lp_Chiralities_Consistent>
1

> <s_lp_Variant>
AV-unprocessed.smi:1653-1

> <Gold.Version>
5.8.1

> <Gold.Id.Protein>
6NUR|6NUR_protein|mol2

> <Gold.PLP.Fitness>
40.5735

> <Gold.PLP.PLP>
-35.5101

> <Gold.PLP.part.hbond>
-2.0000

> <Gold.PLP.part.metal>
0.0000

> <Gold.PLP.part.buried>
-6.3055

> <Gold.PLP.part.nonpolar>
-27.1697

> <Gold.PLP.part.repulsive>
0.0612

> <Gold.PLP.ligand.clash>
0.0000

> <Gold.PLP.ligand.torsion>
0.4765

> <Gold.PLP.Chemscore.Hbond>
2.0000

> <Gold.PLP.Chemscore.CHOScore>
0.0000

> <Gold.PLP.Chemscore.Metal>
0.0000

> <Gold.Chemscore.Hbonds>
donor molecule, donor type, donor heavy atom, donor atom, acceptor molecule, acceptor atom, score
      P1  H  6896  6908       L1     6  1.00
      P1  H 10752 10763       L1     1  1.00

> <Gold.PLP.Chemscore.Internal.Correction>
0.0164

> <Gold.Rescore>
     Score         DG    S(hbond)    S(metal)    S(lipo)     H(rot)  DE(clash)    DE(int)     intcor
     15.17     -16.98       1.96        0.00      77.93       1.63       0.01       1.80       ----

> <Gold.Chemscore.Fitness>
15.1662

> <Gold.Chemscore.DG>
-16.9766

> <Gold.Chemscore.ZeroCoef>
-5.4800

> <Gold.Chemscore.Hbond>
1.9605

> <Gold.Chemscore.Metal>
0.0000

> <Gold.Chemscore.Lipo>
77.9320

> <Gold.Chemscore.Internal_Hbond>
0.0000

> <Gold.Chemscore.DEClash>
0.0149

> <Gold.Chemscore.DEInternal>
1.7955

> <Gold.Chemscore.Rot>
1.6287

> <Gold.Chemscore.Internal.Correction>
   9.000000E+99

> <Gold.Chemscore.Hbonds>
donor molecule, donor type, donor heavy atom, donor atom, acceptor molecule, acceptor atom, score
      P1  H  6896  6908       L1     6  0.99
      P1  H 10752 10763       L1     1  1.00

> <Gold.Chemscore.Hbond.Weighted>
-6.5479

> <Gold.Chemscore.Metal.Weighted>
-0.0000

> <Gold.Chemscore.Lipo.Weighted>
-9.1180

> <Gold.Chemscore.Internal_Hbond.Weighted>
0.0000

> <Gold.Chemscore.DEClash.Weighted>
0.0149

> <Gold.Chemscore.DEInternal.Weighted>
1.7955

> <Gold.Chemscore.Rot.Weighted>
4.1694

> <Gold.Chemscore.Internal.Correction.Weighted>
   9.000000E+99

> <Gold.Protein.RotatedTorsions>
[ 6907 6896 6895 6894 ] final -168.55 input  -60.11 | X-H torsion
[ 7974 7965 7964 7962 ] final  -23.85 input  175.53 | X-H torsion
[ 8008 7997 7996 7995 ] final -135.30 input   59.86 | X-H torsion
[ 10167 10162 10161 10158 ] final  163.85 input  -65.29 | X-H torsion
[ 10718 10713 10712 10709 ] final  158.25 input   66.30 | X-H torsion
[ 10763 10752 10751 10750 ] final   96.65 input  -60.55 | X-H torsion
[ 11005 11000 10999 10996 ] final -114.20 input  -57.11 | X-H torsion

> <Gold.Protein.ActiveResidues>
 VAL166  LYS551  ARG553  GLY616  TRP617  ASP618  TYR619  PRO620  LYS621  CYS622 
 ASP623  PHE694  ASN695  SER759  ASP760  ASP761  ALA762  ILE779  LEU786  VAL792 
 PHE793  MET794  SER795  GLU796  ALA797  LYS798  CYS799  TRP800  GLU811  SER814 

> <Gold.Protein.RotatedAtoms>
  151.4774  133.3554  159.2832 H   0  0  0  0  0  0  0  0  0  0  0  0  # atno 6907 bound_to 6896
  150.8920  134.8327  159.7311 H   0  0  0  0  0  0  0  0  0  0  0  0  # atno 6908 bound_to 6896
  152.4829  134.4684  159.9679 H   0  0  0  0  0  0  0  0  0  0  0  0  # atno 6909 bound_to 6896
  146.1591  140.4672  142.8579 H   0  0  0  0  0  0  0  0  0  0  0  0  # atno 7974 bound_to 7965
  155.3764  140.0491  157.3044 H   0  0  0  0  0  0  0  0  0  0  0  0  # atno 8008 bound_to 7997
  154.5104  140.2189  155.9130 H   0  0  0  0  0  0  0  0  0  0  0  0  # atno 8009 bound_to 7997
  156.1576  140.3123  155.8757 H   0  0  0  0  0  0  0  0  0  0  0  0  # atno 8010 bound_to 7997
  139.4880  144.4295  151.9088 H   0  0  0  0  0  0  0  0  0  0  0  0  # atno 10167 bound_to 10162
  157.1805  131.0631  151.2134 H   0  0  0  0  0  0  0  0  0  0  0  0  # atno 10718 bound_to 10713
  153.2674  135.4211  155.0954 H   0  0  0  0  0  0  0  0  0  0  0  0  # atno 10763 bound_to 10752
  154.8443  135.3464  154.6292 H   0  0  0  0  0  0  0  0  0  0  0  0  # atno 10764 bound_to 10752
  153.6712  135.7043  153.5204 H   0  0  0  0  0  0  0  0  0  0  0  0  # atno 10765 bound_to 10752
  141.0566  133.9602  157.2742 H   0  0  0  0  0  0  0  0  0  0  0  0  # atno 11005 bound_to 11000
  144.8003  140.6200  143.6483 LP  0  0  0  0  0  0  0  0  0  0  0  0  # atno 17320 bound_to 7965
  145.4634  139.1510  143.3854 LP  0  0  0  0  0  0  0  0  0  0  0  0  # atno 17321 bound_to 7965
  140.3742  144.2817  150.5916 LP  0  0  0  0  0  0  0  0  0  0  0  0  # atno 17342 bound_to 10162
  140.5292  143.2247  151.8266 LP  0  0  0  0  0  0  0  0  0  0  0  0  # atno 17343 bound_to 10162
  157.3957  130.7306  149.6730 LP  0  0  0  0  0  0  0  0  0  0  0  0  # atno 17370 bound_to 10713
  155.9725  130.4134  150.4081 LP  0  0  0  0  0  0  0  0  0  0  0  0  # atno 17371 bound_to 10713
  139.9396  135.0192  156.8665 LP  0  0  0  0  0  0  0  0  0  0  0  0  # atno 17394 bound_to 11000
  140.5951  134.0225  155.7515 LP  0  0  0  0  0  0  0  0  0  0  0  0  # atno 17395 bound_to 11000

$$$$
