AV-unprocessed.smi:2519|AV-procd|sdf|9905|dock1
  -GOLD-   2272013543D 1   1.00000     0.00000
 Structure written by MMmdl.
 43 44  0  0  0  0  0  0  0  0  1 V2000
  147.1178  134.8675  153.9824 C   0  0  0  0  0  0  0  0  0  0  0  0
  147.2326  136.3037  153.7842 N   0  0  0  0  0  0  0  0  0  0  0  0
  147.8134  137.1475  154.6527 C   0  0  0  0  0  0  0  0  0  0  0  0
  148.3048  136.7777  155.7202 O   0  0  0  0  0  0  0  0  0  0  0  0
  147.8144  138.6023  154.2601 C   0  0  0  0  0  0  0  0  0  0  0  0
  147.3085  138.9963  153.0014 C   0  0  0  0  0  0  0  0  0  0  0  0
  147.3166  140.3620  152.6667 C   0  0  0  0  0  0  0  0  0  0  0  0
  147.8264  141.2874  153.5958 C   0  0  0  0  0  0  0  0  0  0  0  0
  148.3147  140.8233  154.8359 C   0  0  0  0  0  0  0  0  0  0  0  0
  148.8080  141.8306  155.7055 N   0  0  0  0  0  0  0  0  0  0  0  0
  149.3304  141.6878  156.9403 C   0  0  0  0  0  0  0  0  0  0  0  0
  149.4727  140.6127  157.5206 O   0  0  0  0  0  0  0  0  0  0  0  0
  149.7036  142.8441  157.5195 N   0  0  0  0  0  0  0  0  0  0  0  0
  150.3002  143.0503  158.8411 C   0  0  2  0  0  0  0  0  0  0  0  0
  150.7794  144.5073  159.0008 C   0  0  0  0  0  0  0  0  0  0  0  0
  151.4791  144.7185  160.3513 C   0  0  0  0  0  0  0  0  0  0  0  0
  152.6424  143.7322  160.5381 C   0  0  0  0  0  0  0  0  0  0  0  0
  152.1761  142.2685  160.3913 C   0  0  2  0  0  0  0  0  0  0  0  0
  153.3328  141.2690  160.5960 C   0  0  0  0  0  0  0  0  0  0  0  0
  152.9590  140.0344  160.2580 F   0  0  0  0  0  0  0  0  0  0  0  0
  154.3788  141.6226  159.8491 F   0  0  0  0  0  0  0  0  0  0  0  0
  153.7152  141.2694  161.8730 F   0  0  0  0  0  0  0  0  0  0  0  0
  151.4732  142.0703  159.0308 C   0  0  0  0  0  0  0  0  0  0  0  0
  148.3005  139.5046  155.1470 N   0  0  0  0  0  0  0  0  0  0  0  0
  146.6171  134.4135  153.1274 H   0  0  0  0  0  0  0  0  0  0  0  0
  146.5356  134.6439  154.8771 H   0  0  0  0  0  0  0  0  0  0  0  0
  148.1027  134.4100  154.0833 H   0  0  0  0  0  0  0  0  0  0  0  0
  146.8524  136.6895  152.9311 H   0  0  0  0  0  0  0  0  0  0  0  0
  146.9205  138.2726  152.2995 H   0  0  0  0  0  0  0  0  0  0  0  0
  146.9374  140.6949  151.7119 H   0  0  0  0  0  0  0  0  0  0  0  0
  147.8404  142.3406  153.3548 H   0  0  0  0  0  0  0  0  0  0  0  0
  148.7556  142.7739  155.3508 H   0  0  0  0  0  0  0  0  0  0  0  0
  149.5538  143.6816  156.9754 H   0  0  0  0  0  0  0  0  0  0  0  0
  149.5621  142.8303  159.6145 H   0  0  0  0  0  0  0  0  0  0  0  0
  151.4685  144.7599  158.1934 H   0  0  0  0  0  0  0  0  0  0  0  0
  149.9392  145.1971  158.9154 H   0  0  0  0  0  0  0  0  0  0  0  0
  151.8457  145.7429  160.4217 H   0  0  0  0  0  0  0  0  0  0  0  0
  150.7584  144.5921  161.1600 H   0  0  0  0  0  0  0  0  0  0  0  0
  153.4213  143.9479  159.8058 H   0  0  0  0  0  0  0  0  0  0  0  0
  153.0918  143.8869  161.5194 H   0  0  0  0  0  0  0  0  0  0  0  0
  151.4403  142.0769  161.1740 H   0  0  0  0  0  0  0  0  0  0  0  0
  151.1057  141.0466  158.9504 H   0  0  0  0  0  0  0  0  0  0  0  0
  152.1954  142.2010  158.2235 H   0  0  0  0  0  0  0  0  0  0  0  0
  1  2  1  0  0  0  0
  1 25  1  0  0  0  0
  1 26  1  0  0  0  0
  1 27  1  0  0  0  0
  2  3  1  0  0  0  0
  2 28  1  0  0  0  0
  3  4  2  0  0  0  0
  3  5  1  0  0  0  0
  5 24  1  0  0  0  0
  5  6  2  0  0  0  0
  6  7  1  0  0  0  0
  6 29  1  0  0  0  0
  7  8  2  0  0  0  0
  7 30  1  0  0  0  0
  8  9  1  0  0  0  0
  8 31  1  0  0  0  0
  9 10  1  0  0  0  0
  9 24  2  0  0  0  0
 10 11  1  0  0  0  0
 10 32  1  0  0  0  0
 11 12  2  0  0  0  0
 11 13  1  0  0  0  0
 13 14  1  0  0  0  0
 13 33  1  0  0  0  0
 14 23  1  0  0  0  0
 14 15  1  0  0  0  0
 14 34  1  0  0  0  0
 15 16  1  0  0  0  0
 15 35  1  0  0  0  0
 15 36  1  0  0  0  0
 16 17  1  0  0  0  0
 16 37  1  0  0  0  0
 16 38  1  0  0  0  0
 17 18  1  0  0  0  0
 17 39  1  0  0  0  0
 17 40  1  0  0  0  0
 18 19  1  0  0  0  0
 18 23  1  0  0  0  0
 18 41  1  0  0  0  0
 19 20  1  0  0  0  0
 19 21  1  0  0  0  0
 19 22  1  0  0  0  0
 23 42  1  0  0  0  0
 23 43  1  0  0  0  0
M  END
> <s_m_source_file>
AV-unprocessed.smi

> <i_m_source_file_index>
2519

> <i_lp_mmshare_version>
43012

> <i_f3d_flags>
0

> <s_epik_input>
W0NIM11bTkhdQyg9TyljMVtjSF1bY0hdW2NIXWMobjEpW05IXUMoPU8pW05IXVtDQEBIXTJbQ0gyXVtDSDJdW0NIMl1bQ0BASF0oQyhGKShGKUYpW0NIMl0y

> <s_epik_cmdline>
J2VwaWtfcHl0aG9uJywgJy1waCcsICc3LjAnLCAnLXRuJywgJzgnLCAnLW1hJywgJzIwMCcsICctbWV0YWxfYmluZGluZycsICctaW1hZScsICc8aW5maWxlLm1hZT4nLCAnLW9tYWUnLCAnPG91dGZpbGUubWFlPic=

> <r_lp_tautomer_probability>
1

> <r_epik_Ionization_Penalty>
3.74915e-05

> <r_epik_Ionization_Penalty_Charging>
0

> <r_epik_Ionization_Penalty_Neutral>
3.74915e-05

> <r_epik_State_Penalty>
-0

> <r_epik_Charging_Adjusted_Penalty>
0

> <i_epik_Tot_Q>
0

> <i_epik_Tot_abs_Q>
0

> <r_epik_Metal_State_Penalty>
-0

> <b_epik_Metal_Only>
0

> <s_lp_Force_Field>
OPLS_2005

> <r_lp_Energy>
27.0484

> <b_lp_Chiralities_Consistent>
1

> <s_lp_Variant>
AV-unprocessed.smi:2519-3

> <Gold.Version>
5.8.1

> <Gold.Id.Protein>
6NUR|6NUR_protein|mol2

> <Gold.PLP.Fitness>
46.9617

> <Gold.PLP.PLP>
-41.5467

> <Gold.PLP.part.hbond>
-3.0000

> <Gold.PLP.part.metal>
0.0000

> <Gold.PLP.part.buried>
-4.1280

> <Gold.PLP.part.nonpolar>
-33.5667

> <Gold.PLP.part.repulsive>
0.2410

> <Gold.PLP.ligand.clash>
0.0000

> <Gold.PLP.ligand.torsion>
0.3294

> <Gold.PLP.Chemscore.Hbond>
2.0000

> <Gold.PLP.Chemscore.CHOScore>
0.0000

> <Gold.PLP.Chemscore.Metal>
0.0000

> <Gold.Chemscore.Hbonds>
donor molecule, donor type, donor heavy atom, donor atom, acceptor molecule, acceptor atom, score
      L1  H    10    32       P1  8028  1.00
      L1  H    13    33       P1  8028  1.00

> <Gold.PLP.Chemscore.Internal.Correction>
0.0738

> <Gold.Rescore>
     Score         DG    S(hbond)    S(metal)    S(lipo)     H(rot)  DE(clash)    DE(int)     intcor
     16.33     -20.36       1.87        0.00      95.72       1.00       0.14       3.88       ----

> <Gold.Chemscore.Fitness>
16.3312

> <Gold.Chemscore.DG>
-20.3566

> <Gold.Chemscore.ZeroCoef>
-5.4800

> <Gold.Chemscore.Hbond>
1.8675

> <Gold.Chemscore.Metal>
0.0000

> <Gold.Chemscore.Lipo>
95.7210

> <Gold.Chemscore.Internal_Hbond>
0.0000

> <Gold.Chemscore.DEClash>
0.1438

> <Gold.Chemscore.DEInternal>
3.8817

> <Gold.Chemscore.Rot>
1.0000

> <Gold.Chemscore.Internal.Correction>
   9.000000E+99

> <Gold.Chemscore.Hbonds>
donor molecule, donor type, donor heavy atom, donor atom, acceptor molecule, acceptor atom, score
      L1  H    10    32       P1  8028  0.94
      L1  H    13    33       P1  8028  0.92

> <Gold.Chemscore.Hbond.Weighted>
-6.2373

> <Gold.Chemscore.Metal.Weighted>
-0.0000

> <Gold.Chemscore.Lipo.Weighted>
-11.1994

> <Gold.Chemscore.Internal_Hbond.Weighted>
0.0000

> <Gold.Chemscore.DEClash.Weighted>
0.1438

> <Gold.Chemscore.DEInternal.Weighted>
3.8817

> <Gold.Chemscore.Rot.Weighted>
2.5600

> <Gold.Chemscore.Internal.Correction.Weighted>
   9.000000E+99

> <Gold.Protein.RotatedTorsions>
[ 6907 6896 6895 6894 ] final   98.46 input  -60.11 | X-H torsion
[ 7974 7965 7964 7962 ] final    7.77 input  175.53 | X-H torsion
[ 8008 7997 7996 7995 ] final    5.80 input   59.86 | X-H torsion
[ 10167 10162 10161 10158 ] final   19.06 input  -65.29 | X-H torsion
[ 10718 10713 10712 10709 ] final  127.73 input   66.30 | X-H torsion
[ 10763 10752 10751 10750 ] final  -59.89 input  -60.55 | X-H torsion
[ 11005 11000 10999 10996 ] final -111.86 input  -57.11 | X-H torsion

> <Gold.Protein.ActiveResidues>
 VAL166  LYS551  ARG553  GLY616  TRP617  ASP618  TYR619  PRO620  LYS621  CYS622 
 ASP623  PHE694  ASN695  SER759  ASP760  ASP761  ALA762  ILE779  LEU786  VAL792 
 PHE793  MET794  SER795  GLU796  ALA797  LYS798  CYS799  TRP800  GLU811  SER814 

> <Gold.Protein.RotatedAtoms>
  152.5408  134.0576  159.8137 H   0  0  0  0  0  0  0  0  0  0  0  0  # atno 6907 bound_to 6896
  151.0709  133.5459  159.2634 H   0  0  0  0  0  0  0  0  0  0  0  0  # atno 6908 bound_to 6896
  151.2323  135.0567  159.9046 H   0  0  0  0  0  0  0  0  0  0  0  0  # atno 6909 bound_to 6896
  146.2423  140.0034  142.8413 H   0  0  0  0  0  0  0  0  0  0  0  0  # atno 7974 bound_to 7965
  154.7330  140.2734  155.6439 H   0  0  0  0  0  0  0  0  0  0  0  0  # atno 8008 bound_to 7997
  156.2854  140.2712  156.1961 H   0  0  0  0  0  0  0  0  0  0  0  0  # atno 8009 bound_to 7997
  155.0357  140.0371  157.2480 H   0  0  0  0  0  0  0  0  0  0  0  0  # atno 8010 bound_to 7997
  140.5607  143.9342  150.6641 H   0  0  0  0  0  0  0  0  0  0  0  0  # atno 10167 bound_to 10162
  157.5307  131.1098  150.9014 H   0  0  0  0  0  0  0  0  0  0  0  0  # atno 10718 bound_to 10713
  154.2607  135.6309  153.5273 H   0  0  0  0  0  0  0  0  0  0  0  0  # atno 10763 bound_to 10752
  152.9896  135.5587  154.5707 H   0  0  0  0  0  0  0  0  0  0  0  0  # atno 10764 bound_to 10752
  154.5255  135.2885  155.1200 H   0  0  0  0  0  0  0  0  0  0  0  0  # atno 10765 bound_to 10752
  141.0709  133.9381  157.2486 H   0  0  0  0  0  0  0  0  0  0  0  0  # atno 11005 bound_to 11000
  145.1395  140.9563  143.4497 LP  0  0  0  0  0  0  0  0  0  0  0  0  # atno 17320 bound_to 7965
  145.0310  139.3341  143.6024 LP  0  0  0  0  0  0  0  0  0  0  0  0  # atno 17321 bound_to 7965
  140.2792  143.3401  152.1167 LP  0  0  0  0  0  0  0  0  0  0  0  0  # atno 17342 bound_to 10162
  139.5069  144.6822  151.5980 LP  0  0  0  0  0  0  0  0  0  0  0  0  # atno 17343 bound_to 10162
  156.9596  130.5450  149.5285 LP  0  0  0  0  0  0  0  0  0  0  0  0  # atno 17370 bound_to 10713
  156.0420  130.5501  150.8793 LP  0  0  0  0  0  0  0  0  0  0  0  0  # atno 17371 bound_to 10713
  139.9523  135.0173  156.9028 LP  0  0  0  0  0  0  0  0  0  0  0  0  # atno 17394 bound_to 11000
  140.5675  134.0475  155.7419 LP  0  0  0  0  0  0  0  0  0  0  0  0  # atno 17395 bound_to 11000

$$$$
