AV-unprocessed.smi:3349|AV-procd|sdf|12932|dock7
  -GOLD-   2272019363D 1   1.00000     0.00000
 Structure written by MMmdl.
 40 41  0  0  0  0  0  0  0  0  1 V2000
  151.2923  141.0252  156.6765 C   0  0  0  0  0  0  0  0  0  0  0  0
  151.6305  139.6430  157.2913 C   0  0  1  0  0  0  0  0  0  0  0  0
  151.2337  139.6557  158.7962 C   0  0  0  0  0  0  0  0  0  0  0  0
  151.8307  140.7611  159.5409 N   0  0  0  0  0  0  0  0  0  0  0  0
  153.1427  141.0452  159.5770 C   0  0  0  0  0  0  0  0  0  0  0  0
  153.9877  140.3831  158.9730 O   0  0  0  0  0  0  0  0  0  0  0  0
  153.5529  142.2655  160.4180 C   0  0  2  0  0  0  0  0  0  0  0  0
  153.4378  142.0143  161.9354 C   0  0  0  0  0  0  0  0  0  0  0  0
  152.8040  143.4451  160.0018 N   0  0  0  0  0  0  0  0  0  0  0  0
  152.0684  144.2936  160.7231 C   0  0  0  0  0  0  0  0  0  0  0  0
  151.5550  145.2937  160.0207 N   0  0  0  0  0  0  0  0  0  0  0  0
  152.0561  144.9864  158.7874 C   0  0  0  0  0  0  0  0  0  0  0  0
  152.8171  143.8943  158.7218 N   0  0  0  0  0  0  0  0  0  0  0  0
  151.0340  138.5180  156.5338 N   0  0  0  0  0  0  0  0  0  0  0  0
  151.4880  138.4809  155.1385 C   0  0  0  0  0  0  0  0  0  0  0  0
  150.9036  137.2974  154.3485 C   0  0  0  0  0  0  0  0  0  0  0  0
  151.2348  136.0788  154.9992 O   0  0  0  0  0  0  0  0  0  0  0  0
  150.7426  136.0367  156.3310 C   0  0  0  0  0  0  0  0  0  0  0  0
  151.3235  137.2115  157.1373 C   0  0  0  0  0  0  0  0  0  0  0  0
  151.6856  141.8517  157.2672 H   0  0  0  0  0  0  0  0  0  0  0  0
  150.2142  141.1662  156.5936 H   0  0  0  0  0  0  0  0  0  0  0  0
  151.7266  141.1540  155.6861 H   0  0  0  0  0  0  0  0  0  0  0  0
  152.7150  139.5331  157.2464 H   0  0  0  0  0  0  0  0  0  0  0  0
  150.1500  139.7261  158.8939 H   0  0  0  0  0  0  0  0  0  0  0  0
  151.5283  138.7405  159.3077 H   0  0  0  0  0  0  0  0  0  0  0  0
  151.2001  141.3519  160.0629 H   0  0  0  0  0  0  0  0  0  0  0  0
  154.6048  142.4619  160.2034 H   0  0  0  0  0  0  0  0  0  0  0  0
  154.0478  141.1635  162.2409 H   0  0  0  0  0  0  0  0  0  0  0  0
  152.4106  141.8105  162.2404 H   0  0  0  0  0  0  0  0  0  0  0  0
  153.7826  142.8814  162.4994 H   0  0  0  0  0  0  0  0  0  0  0  0
  151.9074  144.1792  161.7851 H   0  0  0  0  0  0  0  0  0  0  0  0
  151.8581  145.5883  157.9126 H   0  0  0  0  0  0  0  0  0  0  0  0
  151.1932  139.3884  154.6149 H   0  0  0  0  0  0  0  0  0  0  0  0
  152.5776  138.4343  155.1054 H   0  0  0  0  0  0  0  0  0  0  0  0
  149.8201  137.3895  154.2580 H   0  0  0  0  0  0  0  0  0  0  0  0
  151.3088  137.2815  153.3367 H   0  0  0  0  0  0  0  0  0  0  0  0
  149.6519  136.0735  156.3258 H   0  0  0  0  0  0  0  0  0  0  0  0
  151.0281  135.0879  156.7856 H   0  0  0  0  0  0  0  0  0  0  0  0
  152.4020  137.0821  157.2405 H   0  0  0  0  0  0  0  0  0  0  0  0
  150.8984  137.1449  158.1362 H   0  0  0  0  0  0  0  0  0  0  0  0
  1  2  1  0  0  0  0
  1 20  1  0  0  0  0
  1 21  1  0  0  0  0
  1 22  1  0  0  0  0
  2  3  1  0  0  0  0
  2 14  1  0  0  0  0
  2 23  1  0  0  0  0
  3  4  1  0  0  0  0
  3 24  1  0  0  0  0
  3 25  1  0  0  0  0
  4  5  1  0  0  0  0
  4 26  1  0  0  0  0
  5  6  2  0  0  0  0
  5  7  1  0  0  0  0
  7  8  1  0  0  0  0
  7  9  1  0  0  0  0
  7 27  1  0  0  0  0
  8 28  1  0  0  0  0
  8 29  1  0  0  0  0
  8 30  1  0  0  0  0
  9 13  1  0  0  0  0
  9 10  1  0  0  0  0
 10 11  2  0  0  0  0
 10 31  1  0  0  0  0
 11 12  1  0  0  0  0
 12 13  2  0  0  0  0
 12 32  1  0  0  0  0
 14 19  1  0  0  0  0
 14 15  1  0  0  0  0
 15 16  1  0  0  0  0
 15 33  1  0  0  0  0
 15 34  1  0  0  0  0
 16 17  1  0  0  0  0
 16 35  1  0  0  0  0
 16 36  1  0  0  0  0
 17 18  1  0  0  0  0
 18 19  1  0  0  0  0
 18 37  1  0  0  0  0
 18 38  1  0  0  0  0
 19 39  1  0  0  0  0
 19 40  1  0  0  0  0
M  END
> <s_m_source_file>
AV-unprocessed.smi

> <i_m_source_file_index>
3349

> <i_lp_mmshare_version>
43012

> <i_f3d_flags>
0

> <s_epik_input>
W0NIMl0xW0NIMl1PW0NIMl1bQ0gyXU4xW0NASF0oW0NIM10pW0NIMl1bTkhdQyg9TylbQ0BIXShbQ0gzXSluMltjSF1uW2NIXW4y

> <s_epik_cmdline>
J2VwaWtfcHl0aG9uJywgJy1waCcsICc3LjAnLCAnLXRuJywgJzgnLCAnLW1hJywgJzIwMCcsICctbWV0YWxfYmluZGluZycsICctaW1hZScsICc8aW5maWxlLm1hZT4nLCAnLW9tYWUnLCAnPG91dGZpbGUubWFlPic=

> <r_lp_tautomer_probability>
1

> <r_epik_Ionization_Penalty>
0.211373

> <r_epik_Ionization_Penalty_Charging>
0

> <r_epik_Ionization_Penalty_Neutral>
0.211373

> <r_epik_State_Penalty>
0.201459

> <r_epik_Charging_Adjusted_Penalty>
0.201459

> <i_epik_Tot_Q>
0

> <i_epik_Tot_abs_Q>
0

> <r_epik_Metal_State_Penalty>
0.201458

> <b_epik_Metal_Only>
0

> <s_lp_Force_Field>
OPLS_2005

> <r_lp_Energy>
34.2526

> <b_lp_Chiralities_Consistent>
1

> <s_lp_Variant>
AV-unprocessed.smi:3349-2

> <Gold.Version>
5.8.1

> <Gold.Id.Protein>
6NUR|6NUR_protein|mol2

> <Gold.PLP.Fitness>
42.7750

> <Gold.PLP.PLP>
-37.5110

> <Gold.PLP.part.hbond>
-2.0000

> <Gold.PLP.part.metal>
0.0000

> <Gold.PLP.part.buried>
-5.2941

> <Gold.PLP.part.nonpolar>
-30.8625

> <Gold.PLP.part.repulsive>
0.4537

> <Gold.PLP.ligand.clash>
0.0000

> <Gold.PLP.ligand.torsion>
0.2365

> <Gold.PLP.Chemscore.Hbond>
1.8640

> <Gold.PLP.Chemscore.CHOScore>
0.0000

> <Gold.PLP.Chemscore.Metal>
0.0000

> <Gold.Chemscore.Hbonds>
donor molecule, donor type, donor heavy atom, donor atom, acceptor molecule, acceptor atom, score
      P1  H  7997  8009       L1     6  0.83
      P1  H 10752 10764       L1    17  0.99

> <Gold.PLP.Chemscore.Internal.Correction>
0.1450

> <Gold.Rescore>
     Score         DG    S(hbond)    S(metal)    S(lipo)     H(rot)  DE(clash)    DE(int)     intcor
     10.29     -11.51       1.64        0.00      60.58       2.56       0.05       1.17       ----

> <Gold.Chemscore.Fitness>
10.2895

> <Gold.Chemscore.DG>
-11.5089

> <Gold.Chemscore.ZeroCoef>
-5.4800

> <Gold.Chemscore.Hbond>
1.6427

> <Gold.Chemscore.Metal>
0.0000

> <Gold.Chemscore.Lipo>
60.5840

> <Gold.Chemscore.Internal_Hbond>
0.0000

> <Gold.Chemscore.DEClash>
0.0506

> <Gold.Chemscore.DEInternal>
1.1688

> <Gold.Chemscore.Rot>
2.5570

> <Gold.Chemscore.Internal.Correction>
   9.000000E+99

> <Gold.Chemscore.Hbonds>
donor molecule, donor type, donor heavy atom, donor atom, acceptor molecule, acceptor atom, score
      P1  H  7997  8009       L1     6  0.82
      P1  H 10752 10764       L1    17  0.72

> <Gold.Chemscore.Hbond.Weighted>
-5.4865

> <Gold.Chemscore.Metal.Weighted>
-0.0000

> <Gold.Chemscore.Lipo.Weighted>
-7.0883

> <Gold.Chemscore.Internal_Hbond.Weighted>
0.0000

> <Gold.Chemscore.DEClash.Weighted>
0.0506

> <Gold.Chemscore.DEInternal.Weighted>
1.1688

> <Gold.Chemscore.Rot.Weighted>
6.5459

> <Gold.Chemscore.Internal.Correction.Weighted>
   9.000000E+99

> <Gold.Protein.RotatedTorsions>
[ 6907 6896 6895 6894 ] final -137.00 input  -60.11 | X-H torsion
[ 7974 7965 7964 7962 ] final  -25.71 input  175.53 | X-H torsion
[ 8008 7997 7996 7995 ] final  133.25 input   59.86 | X-H torsion
[ 10167 10162 10161 10158 ] final   93.22 input  -65.29 | X-H torsion
[ 10718 10713 10712 10709 ] final -100.32 input   66.30 | X-H torsion
[ 10763 10752 10751 10750 ] final  -38.20 input  -60.55 | X-H torsion
[ 11005 11000 10999 10996 ] final -130.15 input  -57.11 | X-H torsion

> <Gold.Protein.ActiveResidues>
 VAL166  LYS551  ARG553  GLY616  TRP617  ASP618  TYR619  PRO620  LYS621  CYS622 
 ASP623  PHE694  ASN695  SER759  ASP760  ASP761  ALA762  ILE779  LEU786  VAL792 
 PHE793  MET794  SER795  GLU796  ALA797  LYS798  CYS799  TRP800  GLU811  SER814 

> <Gold.Protein.RotatedAtoms>
  151.0171  133.5911  159.2675 H   0  0  0  0  0  0  0  0  0  0  0  0  # atno 6907 bound_to 6896
  151.3041  135.0776  159.9259 H   0  0  0  0  0  0  0  0  0  0  0  0  # atno 6908 bound_to 6896
  152.5314  133.9847  159.7877 H   0  0  0  0  0  0  0  0  0  0  0  0  # atno 6909 bound_to 6896
  146.1473  140.4922  142.8626 H   0  0  0  0  0  0  0  0  0  0  0  0  # atno 7974 bound_to 7965
  156.2990  140.2526  156.3223 H   0  0  0  0  0  0  0  0  0  0  0  0  # atno 8008 bound_to 7997
  154.9224  140.0400  157.2024 H   0  0  0  0  0  0  0  0  0  0  0  0  # atno 8009 bound_to 7997
  154.8298  140.2874  155.5734 H   0  0  0  0  0  0  0  0  0  0  0  0  # atno 8010 bound_to 7997
  139.8201  144.6735  150.9530 H   0  0  0  0  0  0  0  0  0  0  0  0  # atno 10167 bound_to 10162
  156.0160  130.5322  150.6800 H   0  0  0  0  0  0  0  0  0  0  0  0  # atno 10718 bound_to 10713
  153.9088  135.6794  153.4752 H   0  0  0  0  0  0  0  0  0  0  0  0  # atno 10763 bound_to 10752
  153.1089  135.4792  154.8998 H   0  0  0  0  0  0  0  0  0  0  0  0  # atno 10764 bound_to 10752
  154.7537  135.3192  154.8464 H   0  0  0  0  0  0  0  0  0  0  0  0  # atno 10765 bound_to 10752
  140.9370  134.1244  157.4184 H   0  0  0  0  0  0  0  0  0  0  0  0  # atno 11005 bound_to 11000
  144.7862  140.5941  143.6572 LP  0  0  0  0  0  0  0  0  0  0  0  0  # atno 17320 bound_to 7965
  145.4906  139.1489  143.3711 LP  0  0  0  0  0  0  0  0  0  0  0  0  # atno 17321 bound_to 7965
  140.7813  143.4100  151.1008 LP  0  0  0  0  0  0  0  0  0  0  0  0  # atno 17342 bound_to 10162
  139.7761  143.8423  152.3129 LP  0  0  0  0  0  0  0  0  0  0  0  0  # atno 17343 bound_to 10162
  157.4504  131.0872  151.0851 LP  0  0  0  0  0  0  0  0  0  0  0  0  # atno 17370 bound_to 10713
  157.1369  130.6126  149.5544 LP  0  0  0  0  0  0  0  0  0  0  0  0  # atno 17371 bound_to 10713
  139.8810  135.0024  156.6125 LP  0  0  0  0  0  0  0  0  0  0  0  0  # atno 17394 bound_to 11000
  140.7785  133.8679  155.8549 LP  0  0  0  0  0  0  0  0  0  0  0  0  # atno 17395 bound_to 11000

$$$$
