AV-unprocessed.smi:2448|AV-procd|sdf|9651|dock5
  -GOLD-   2272013283D 1   1.00000     0.00000
 Structure written by MMmdl.
 37 38  0  0  0  0  0  0  0  0  1 V2000
  146.4328  132.3281  149.7114 O   0  0  0  0  0  0  0  0  0  0  0  0
  145.7215  132.6169  150.9023 C   0  0  1  0  0  0  0  0  0  0  0  0
  145.8161  131.3871  151.8283 C   0  0  0  0  0  0  0  0  0  0  0  0
  147.1624  130.8120  151.8450 N   0  0  0  0  0  0  0  0  0  0  0  0
  147.5612  130.1111  153.0754 C   0  0  2  0  0  0  0  0  0  0  0  0
  149.0838  130.2009  153.3628 C   0  0  0  0  0  0  0  0  0  0  0  0
  149.5670  131.5368  153.9056 C   0  0  0  0  0  0  0  0  0  0  0  0
  149.2493  132.7399  153.2404 C   0  0  0  0  0  0  0  0  0  0  0  0
  149.7197  133.9534  153.7807 C   0  0  0  0  0  0  0  0  0  0  0  0
  150.4669  134.0252  154.9029 N   0  0  0  0  0  0  0  0  0  0  0  0
  150.7782  132.8700  155.5286 C   0  0  0  0  0  0  0  0  0  0  0  0
  150.3579  131.6047  155.0723 C   0  0  0  0  0  0  0  0  0  0  0  0
  147.0963  128.6412  153.0007 C   0  0  0  0  0  0  0  0  0  0  0  0
  147.4501  127.9963  154.1133 F   0  0  0  0  0  0  0  0  0  0  0  0
  145.7714  128.5711  152.8649 F   0  0  0  0  0  0  0  0  0  0  0  0
  147.6708  128.0258  151.9670 F   0  0  0  0  0  0  0  0  0  0  0  0
  146.3749  133.8546  151.5394 C   0  0  0  0  0  0  0  0  0  0  0  0
  145.9662  135.0784  150.7144 C   0  0  0  0  0  0  0  0  0  0  0  0
  144.2794  134.7963  150.1225 S   0  0  0  0  0  0  0  0  0  0  0  0
  144.2786  133.0378  150.5662 C   0  0  0  0  0  0  0  0  0  0  0  0
  147.2232  131.8629  149.9393 H   0  0  0  0  0  0  0  0  0  0  0  0
  145.5061  131.6743  152.8312 H   0  0  0  0  0  0  0  0  0  0  0  0
  145.1075  130.6320  151.4858 H   0  0  0  0  0  0  0  0  0  0  0  0
  147.2737  130.1872  151.0527 H   0  0  0  0  0  0  0  0  0  0  0  0
  147.0215  130.5482  153.9159 H   0  0  0  0  0  0  0  0  0  0  0  0
  149.3596  129.4575  154.1107 H   0  0  0  0  0  0  0  0  0  0  0  0
  149.6462  129.9375  152.4660 H   0  0  0  0  0  0  0  0  0  0  0  0
  148.6534  132.7383  152.3395 H   0  0  0  0  0  0  0  0  0  0  0  0
  149.4887  134.8917  153.2984 H   0  0  0  0  0  0  0  0  0  0  0  0
  151.3816  132.9562  156.4201 H   0  0  0  0  0  0  0  0  0  0  0  0
  150.6391  130.7109  155.6096 H   0  0  0  0  0  0  0  0  0  0  0  0
  145.9995  133.9788  152.5561 H   0  0  0  0  0  0  0  0  0  0  0  0
  147.4591  133.7612  151.6140 H   0  0  0  0  0  0  0  0  0  0  0  0
  146.0322  136.0025  151.2889 H   0  0  0  0  0  0  0  0  0  0  0  0
  146.6179  135.1804  149.8462 H   0  0  0  0  0  0  0  0  0  0  0  0
  143.8394  132.4347  149.7705 H   0  0  0  0  0  0  0  0  0  0  0  0
  143.6438  132.9278  151.4460 H   0  0  0  0  0  0  0  0  0  0  0  0
  1  2  1  0  0  0  0
  1 21  1  0  0  0  0
  2 20  1  0  0  0  0
  2  3  1  0  0  0  0
  2 17  1  0  0  0  0
  3  4  1  0  0  0  0
  3 22  1  0  0  0  0
  3 23  1  0  0  0  0
  4  5  1  0  0  0  0
  4 24  1  0  0  0  0
  5  6  1  0  0  0  0
  5 13  1  0  0  0  0
  5 25  1  0  0  0  0
  6  7  1  0  0  0  0
  6 26  1  0  0  0  0
  6 27  1  0  0  0  0
  7 12  1  0  0  0  0
  7  8  2  0  0  0  0
  8  9  1  0  0  0  0
  8 28  1  0  0  0  0
  9 10  2  0  0  0  0
  9 29  1  0  0  0  0
 10 11  1  0  0  0  0
 11 12  2  0  0  0  0
 11 30  1  0  0  0  0
 12 31  1  0  0  0  0
 13 14  1  0  0  0  0
 13 15  1  0  0  0  0
 13 16  1  0  0  0  0
 17 18  1  0  0  0  0
 17 32  1  0  0  0  0
 17 33  1  0  0  0  0
 18 19  1  0  0  0  0
 18 34  1  0  0  0  0
 18 35  1  0  0  0  0
 19 20  1  0  0  0  0
 20 36  1  0  0  0  0
 20 37  1  0  0  0  0
M  END
> <s_m_source_file>
AV-unprocessed.smi

> <i_m_source_file_index>
2448

> <i_lp_mmshare_version>
43012

> <i_f3d_flags>
0

> <s_epik_input>
W0NIMl0xU1tDSDJdW0NIMl1bQ0BAXTEoW09IXSlbQ0gyXVtOSF1bQ0BASF0oQyhGKShGKUYpW0NIMl1jMltjSF1bY0hdbltjSF1bY0hdMg==

> <s_epik_cmdline>
J2VwaWtfcHl0aG9uJywgJy1waCcsICc3LjAnLCAnLXRuJywgJzgnLCAnLW1hJywgJzIwMCcsICctbWV0YWxfYmluZGluZycsICctaW1hZScsICc8aW5maWxlLm1hZT4nLCAnLW9tYWUnLCAnPG91dGZpbGUubWFlPic=

> <r_epik_Ionization_Penalty>
0.187708

> <r_epik_Ionization_Penalty_Charging>
0

> <r_epik_Ionization_Penalty_Neutral>
0.187708

> <r_epik_State_Penalty>
0.22769

> <r_epik_Charging_Adjusted_Penalty>
0.22769

> <i_epik_Tot_Q>
0

> <i_epik_Tot_abs_Q>
0

> <r_epik_Metal_State_Penalty>
0.176206

> <b_epik_Metal_Only>
0

> <s_lp_Force_Field>
OPLS_2005

> <r_lp_Energy>
32.3304

> <b_lp_Chiralities_Consistent>
1

> <s_lp_Variant>
AV-unprocessed.smi:2448-1

> <Gold.Version>
5.8.1

> <Gold.Id.Protein>
6NUR|6NUR_protein|mol2

> <Gold.PLP.Fitness>
46.6308

> <Gold.PLP.PLP>
-40.9422

> <Gold.PLP.part.hbond>
-2.2717

> <Gold.PLP.part.metal>
0.0000

> <Gold.PLP.part.buried>
-4.6223

> <Gold.PLP.part.nonpolar>
-33.7422

> <Gold.PLP.part.repulsive>
0.0366

> <Gold.PLP.ligand.clash>
0.0000

> <Gold.PLP.ligand.torsion>
0.9375

> <Gold.PLP.Chemscore.Hbond>
1.2880

> <Gold.PLP.Chemscore.CHOScore>
1.0000

> <Gold.PLP.Chemscore.Metal>
0.0000

> <Gold.Chemscore.Hbonds>
donor molecule, donor type, donor heavy atom, donor atom, acceptor molecule, acceptor atom, score
      L1  H     1    21       P1 10747  0.99
      L1  H     4    24       P1 10747  0.05
      L1  C     9    29       P1  7948  0.33

> <Gold.PLP.Chemscore.Internal.Correction>
0.6996

> <Gold.Rescore>
     Score         DG    S(hbond)    S(metal)    S(lipo)     H(rot)  DE(clash)    DE(int)     intcor
     13.14     -14.10       1.37        0.00      84.98       2.31       0.04       0.92       ----

> <Gold.Chemscore.Fitness>
13.1435

> <Gold.Chemscore.DG>
-14.0985

> <Gold.Chemscore.ZeroCoef>
-5.4800

> <Gold.Chemscore.Hbond>
1.3748

> <Gold.Chemscore.Metal>
0.0000

> <Gold.Chemscore.Lipo>
84.9841

> <Gold.Chemscore.Internal_Hbond>
0.0000

> <Gold.Chemscore.DEClash>
0.0377

> <Gold.Chemscore.DEInternal>
0.9174

> <Gold.Chemscore.Rot>
2.3111

> <Gold.Chemscore.Internal.Correction>
   9.000000E+99

> <Gold.Chemscore.Hbonds>
donor molecule, donor type, donor heavy atom, donor atom, acceptor molecule, acceptor atom, score
      L1  H     1    21       P1 10747  0.92
      L1  H     4    24       P1 10747  0.08

> <Gold.Chemscore.Hbond.Weighted>
-4.5918

> <Gold.Chemscore.Metal.Weighted>
-0.0000

> <Gold.Chemscore.Lipo.Weighted>
-9.9431

> <Gold.Chemscore.Internal_Hbond.Weighted>
0.0000

> <Gold.Chemscore.DEClash.Weighted>
0.0377

> <Gold.Chemscore.DEInternal.Weighted>
0.9174

> <Gold.Chemscore.Rot.Weighted>
5.9164

> <Gold.Chemscore.Internal.Correction.Weighted>
   9.000000E+99

> <Gold.Protein.RotatedTorsions>
[ 6907 6896 6895 6894 ] final -144.45 input  -60.11 | X-H torsion
[ 7974 7965 7964 7962 ] final  163.36 input  175.53 | X-H torsion
[ 8008 7997 7996 7995 ] final   89.24 input   59.86 | X-H torsion
[ 10167 10162 10161 10158 ] final -129.35 input  -65.29 | X-H torsion
[ 10718 10713 10712 10709 ] final -128.78 input   66.30 | X-H torsion
[ 10763 10752 10751 10750 ] final   -4.69 input  -60.55 | X-H torsion
[ 11005 11000 10999 10996 ] final -148.35 input  -57.11 | X-H torsion

> <Gold.Protein.ActiveResidues>
 VAL166  LYS551  ARG553  GLY616  TRP617  ASP618  TYR619  PRO620  LYS621  CYS622 
 ASP623  PHE694  ASN695  SER759  ASP760  ASP761  ALA762  ILE779  LEU786  VAL792 
 PHE793  MET794  SER795  GLU796  ALA797  LYS798  CYS799  TRP800  GLU811  SER814 

> <Gold.Protein.RotatedAtoms>
  151.1143  133.5150  159.2604 H   0  0  0  0  0  0  0  0  0  0  0  0  # atno 6907 bound_to 6896
  151.1932  135.0411  159.8851 H   0  0  0  0  0  0  0  0  0  0  0  0  # atno 6908 bound_to 6896
  152.5452  134.0980  159.8359 H   0  0  0  0  0  0  0  0  0  0  0  0  # atno 6909 bound_to 6896
  144.7593  139.8171  143.6338 H   0  0  0  0  0  0  0  0  0  0  0  0  # atno 7974 bound_to 7965
  155.9975  140.3363  155.6813 H   0  0  0  0  0  0  0  0  0  0  0  0  # atno 8008 bound_to 7997
  155.6336  140.0687  157.2659 H   0  0  0  0  0  0  0  0  0  0  0  0  # atno 8009 bound_to 7997
  154.4238  140.1755  156.1486 H   0  0  0  0  0  0  0  0  0  0  0  0  # atno 8010 bound_to 7997
  139.9407  143.6166  152.2504 H   0  0  0  0  0  0  0  0  0  0  0  0  # atno 10167 bound_to 10162
  156.1984  130.6841  151.0509 H   0  0  0  0  0  0  0  0  0  0  0  0  # atno 10718 bound_to 10713
  153.3883  135.7001  153.6513 H   0  0  0  0  0  0  0  0  0  0  0  0  # atno 10763 bound_to 10752
  153.5096  135.3635  155.2580 H   0  0  0  0  0  0  0  0  0  0  0  0  # atno 10764 bound_to 10752
  154.8700  135.4131  154.3195 H   0  0  0  0  0  0  0  0  0  0  0  0  # atno 10765 bound_to 10752
  140.7621  134.3286  157.5099 H   0  0  0  0  0  0  0  0  0  0  0  0  # atno 11005 bound_to 11000
  146.1639  139.4764  142.9970 LP  0  0  0  0  0  0  0  0  0  0  0  0  # atno 17320 bound_to 7965
  145.6671  141.0226  143.1677 LP  0  0  0  0  0  0  0  0  0  0  0  0  # atno 17321 bound_to 7965
  139.6706  144.7661  151.1789 LP  0  0  0  0  0  0  0  0  0  0  0  0  # atno 17342 bound_to 10162
  140.7611  143.5870  150.8835 LP  0  0  0  0  0  0  0  0  0  0  0  0  # atno 17343 bound_to 10162
  157.6971  131.0790  150.6935 LP  0  0  0  0  0  0  0  0  0  0  0  0  # atno 17370 bound_to 10713
  156.6992  130.4618  149.5577 LP  0  0  0  0  0  0  0  0  0  0  0  0  # atno 17371 bound_to 10713
  139.8769  134.9208  156.3261 LP  0  0  0  0  0  0  0  0  0  0  0  0  # atno 17394 bound_to 11000
  140.9653  133.7362  156.0458 LP  0  0  0  0  0  0  0  0  0  0  0  0  # atno 17395 bound_to 11000

$$$$
