#       Name:                AV-unprocessed.smi:275
#       Creating user name   scv26
#       Creation time:       Thu Mar 26 21:31:49 2020


#       File generated by GOLD software.
#

@<TRIPOS>MOLECULE
AV-unprocessed.smi:275
    73    77     1
SMALL
NO_CHARGES


@<TRIPOS>ATOM
      1 ****        -1.6769  -0.9726  -2.1399 C.3            1 S1                 0.0000
      2 ****        -3.0169  -0.7173  -1.4277 C.3            1 S1                 0.0000
      3 ****        -4.1191  -0.5459  -2.4864 C.3            1 S1                 0.0000
      4 ****        -2.9552   0.4987  -0.4872 C.3            1 S1                 0.0000
      5 ****        -2.1431   0.2780   0.7069 N.3            1 S1                 0.0000
      6 ****        -0.7798   0.6694   0.6109 C.ar           1 S1                 0.0000
      7 ****        -0.4241   1.9126   0.1853 N.ar           1 S1                 0.0000
      8 ****         0.8621   2.2628   0.0919 C.ar           1 S1                 0.0000
      9 ****         1.9461   1.5353   0.3654 N.ar           1 S1                 0.0000
     10 ****         1.6011   0.2871   0.7902 C.ar           1 S1                 0.0000
     11 ****         0.2795  -0.2174   0.9420 C.ar           1 S1                 0.0000
     12 ****         0.3215  -1.5308   1.3932 N.2            1 S1                 0.0000
     13 ****         1.5964  -1.7897   1.5000 C.2            1 S1                 0.0000
     14 ****         2.4350  -0.7546   1.1528 N.pl3          1 S1                 0.0000
     15 ****         3.8865  -0.7634   1.1699 C.3            1 S1                 0.0000
     16 ****         4.5107  -0.8259  -0.2463 C.3            1 S1                 0.0000
     17 ****         3.9486  -1.9924  -1.0950 C.3            1 S1                 0.0000
     18 ****         4.2455  -3.2456  -0.5138 O.3            1 S1                 0.0000
     19 ****         6.0587  -0.8281  -0.1843 C.3            1 S1                 0.0000
     20 ****         6.7549  -0.7685  -1.5328 C.3            1 S1                 0.0000
     21 ****         8.1585  -0.3059  -1.1556 C.3            1 S1                 0.0000
     22 ****         8.0015   0.5074   0.0017 O.3            1 S1                 0.0000
     23 ****         6.6696   0.4031   0.4932 C.3            1 S1                 0.0000
     24 ****        -2.9786   1.1932   1.4702 C.3            1 S1                 0.0000
     25 ****        -4.1079   0.8571   0.4831 C.3            1 S1                 0.0000
     26 ****        -4.9930   2.0354   0.0459 C.3            1 S1                 0.0000
     27 ****        -5.9385   2.5167   1.1590 C.3            1 S1                 0.0000
     28 ****        -6.8370   1.3766   1.6549 C.3            1 S1                 0.0000
     29 ****        -6.0049   0.1561   2.0686 C.3            1 S1                 0.0000
     30 ****        -5.0544  -0.2773   0.9389 C.3            1 S1                 0.0000
     31 ****        -1.3513  -0.0949  -2.6993 H              1 S1                 0.0000
     32 ****        -1.7570  -1.8036  -2.8414 H              1 S1                 0.0000
     33 ****        -0.8885  -1.2303  -1.4346 H              1 S1                 0.0000
     34 ****        -3.2563  -1.6104  -0.8491 H              1 S1                 0.0000
     35 ****        -3.9267   0.3248  -3.1142 H              1 S1                 0.0000
     36 ****        -5.1024  -0.4139  -2.0394 H              1 S1                 0.0000
     37 ****        -4.1765  -1.4181  -3.1383 H              1 S1                 0.0000
     38 ****        -2.6354   1.3988  -1.0163 H              1 S1                 0.0000
     39 ****         1.0489   3.2690  -0.2531 H              1 S1                 0.0000
     40 ****         1.9631  -2.7513   1.8289 H              1 S1                 0.0000
     41 ****         4.2135   0.1336   1.6962 H              1 S1                 0.0000
     42 ****         4.2207  -1.6115   1.7690 H              1 S1                 0.0000
     43 ****         4.2159   0.0899  -0.7608 H              1 S1                 0.0000
     44 ****         2.8677  -1.9080  -1.2089 H              1 S1                 0.0000
     45 ****         4.3548  -1.9696  -2.1058 H              1 S1                 0.0000
     46 ****         5.1847  -3.3428  -0.4734 H              1 S1                 0.0000
     47 ****         6.4032  -1.7182   0.3443 H              1 S1                 0.0000
     48 ****         6.7608  -1.7238  -2.0583 H              1 S1                 0.0000
     49 ****         6.2786  -0.0272  -2.1763 H              1 S1                 0.0000
     50 ****         8.7844  -1.1603  -0.8958 H              1 S1                 0.0000
     51 ****         8.6477   0.2393  -1.9631 H              1 S1                 0.0000
     52 ****         6.1299   1.3084   0.2117 H              1 S1                 0.0000
     53 ****         6.6606   0.3299   1.5809 H              1 S1                 0.0000
     54 ****        -3.1534   0.8675   2.4956 H              1 S1                 0.0000
     55 ****        -2.6634   2.2370   1.4236 H              1 S1                 0.0000
     56 ****        -4.3739   2.8735  -0.2757 H              1 S1                 0.0000
     57 ****        -5.5822   1.7549  -0.8279 H              1 S1                 0.0000
     58 ****        -5.3532   2.9097   1.9914 H              1 S1                 0.0000
     59 ****        -6.5518   3.3422   0.7968 H              1 S1                 0.0000
     60 ****        -7.4479   1.7161   2.4919 H              1 S1                 0.0000
     61 ****        -7.5295   1.0906   0.8621 H              1 S1                 0.0000
     62 ****        -5.4305   0.3925   2.9647 H              1 S1                 0.0000
     63 ****        -6.6653  -0.6690   2.3366 H              1 S1                 0.0000
     64 ****        -5.6556  -0.6343   0.1040 H              1 S1                 0.0000
     65 ****        -4.4818  -1.1418   1.2769 H              1 S1                 0.0000
     66 ****        -1.9915  -0.6574   1.0265 LP             1 S1                 0.0000
     67 ****        -1.1344   2.5721  -0.0605 LP             1 S1                 0.0000
     68 ****         2.8865   1.8621   0.2713 LP             1 S1                 0.0000
     69 ****        -0.4480  -2.1382   1.5907 LP             1 S1                 0.0000
     70 ****         3.8544  -3.9774  -1.0720 LP             1 S1                 0.0000
     71 ****         3.8620  -3.2889   0.4088 LP             1 S1                 0.0000
     72 ****         8.1937   1.4599  -0.2344 LP             1 S1                 0.0000
     73 ****         8.6401   0.2039   0.7089 LP             1 S1                 0.0000
@<TRIPOS>BOND
    1    1    2 1     
    2    1   31 1     
    3    1   32 1     
    4    1   33 1     
    5    2    3 1     
    6    2    4 1     
    7    2   34 1     
    8    3   35 1     
    9    3   36 1     
   10    3   37 1     
   11    4   25 1     
   12    4    5 1     
   13    4   38 1     
   14    5    6 1     
   15    5   24 1     
   16    6   11 ar    
   17    6    7 ar    
   18    7    8 ar    
   19    8    9 ar    
   20    8   39 1     
   21    9   10 ar    
   22   10   14 1     
   23   10   11 ar    
   24   11   12 1     
   25   12   13 2     
   26   13   14 1     
   27   13   40 1     
   28   14   15 1     
   29   15   16 1     
   30   15   41 1     
   31   15   42 1     
   32   16   17 1     
   33   16   19 1     
   34   16   43 1     
   35   17   18 1     
   36   17   44 1     
   37   17   45 1     
   38   18   46 1     
   39   19   23 1     
   40   19   20 1     
   41   19   47 1     
   42   20   21 1     
   43   20   48 1     
   44   20   49 1     
   45   21   22 1     
   46   21   50 1     
   47   21   51 1     
   48   22   23 1     
   49   23   52 1     
   50   23   53 1     
   51   24   25 1     
   52   24   54 1     
   53   24   55 1     
   54   25   30 1     
   55   25   26 1     
   56   26   27 1     
   57   26   56 1     
   58   26   57 1     
   59   27   28 1     
   60   27   58 1     
   61   27   59 1     
   62   28   29 1     
   63   28   60 1     
   64   28   61 1     
   65   29   30 1     
   66   29   62 1     
   67   29   63 1     
   68   30   64 1     
   69   30   65 1     
   70    5   66 1     
   71    7   67 1     
   72    9   68 1     
   73   12   69 1     
   74   18   70 1     
   75   18   71 1     
   76   22   72 1     
   77   22   73 1     
@<TRIPOS>SUBSTRUCTURE
      1 S1             1
@<TRIPOS>SET
LONE_PAIRS      STATIC     ATOMS    <user>   **** ""
8 66 67 68 69 70 71 72 73
DONOR_HYDROGENS      STATIC     ATOMS    <user>   **** ""
1 46
ATOM$BLUE        STATIC     ATOMS    COLORGROUP SYSTEM
8 66 67 68 69 70 71 72 73
ATOM$RED        STATIC     ATOMS    COLORGROUP SYSTEM
1 46
