AV-unprocessed.smi:2980|AV-procd|sdf|11373|dock4
  -GOLD-   2272016293D 1   1.00000     0.00000
 Structure written by MMmdl.
 39 40  0  0  0  0  0  0  0  0  2 V2000
  152.4023  137.9113  159.6107 C   0  0  0  0  0  0  0  0  0  0  0  0
  153.7096  138.3118  158.9237 C   0  0  0  0  0  0  0  0  0  0  0  0
  153.4480  139.3934  158.0471 O   0  0  0  0  0  0  0  0  0  0  0  0
  152.5344  139.0604  157.0149 C   0  0  0  0  0  0  0  0  0  0  0  0
  151.1327  139.5703  157.3788 C   0  0  0  0  0  0  0  0  0  0  0  0
  150.9967  141.0240  157.1879 N   0  0  0  0  0  0  0  0  0  0  0  0
  150.3572  141.7333  156.2119 C   0  0  0  0  0  0  0  0  0  0  0  0
  149.6148  141.1899  155.0335 C   0  0  0  0  0  0  0  0  0  0  0  0
  148.1411  141.6272  155.0445 C   0  0  0  0  0  0  0  0  0  0  0  0
  147.4578  141.4794  153.6775 C   0  0  0  0  0  0  0  0  0  0  0  0
  147.6967  140.1941  153.1438 O   0  0  0  0  0  0  0  0  0  0  0  0
  150.5373  143.0553  156.4908 N   0  3  0  0  0  0  0  0  0  0  0  0
  151.2983  143.1956  157.6512 C   0  0  0  0  0  0  0  0  0  0  0  0
  151.7373  144.3344  158.3192 C   0  0  0  0  0  0  0  0  0  0  0  0
  152.5089  144.1285  159.4815 C   0  0  0  0  0  0  0  0  0  0  0  0
  152.8172  142.8303  159.9369 C   0  0  0  0  0  0  0  0  0  0  0  0
  152.3654  141.6836  159.2513 C   0  0  0  0  0  0  0  0  0  0  0  0
  151.6003  141.8951  158.1041 C   0  0  0  0  0  0  0  0  0  0  0  0
  152.5616  137.0795  160.2970 H   0  0  0  0  0  0  0  0  0  0  0  0
  151.6548  137.6036  158.8793 H   0  0  0  0  0  0  0  0  0  0  0  0
  151.9899  138.7433  160.1823 H   0  0  0  0  0  0  0  0  0  0  0  0
  154.4489  138.6018  159.6715 H   0  0  0  0  0  0  0  0  0  0  0  0
  154.1140  137.4651  158.3671 H   0  0  0  0  0  0  0  0  0  0  0  0
  152.8583  139.5041  156.0726 H   0  0  0  0  0  0  0  0  0  0  0  0
  152.5083  137.9791  156.8724 H   0  0  0  0  0  0  0  0  0  0  0  0
  150.3825  139.0758  156.7626 H   0  0  0  0  0  0  0  0  0  0  0  0
  150.8846  139.3194  158.4100 H   0  0  0  0  0  0  0  0  0  0  0  0
  150.1015  141.5149  154.1145 H   0  0  0  0  0  0  0  0  0  0  0  0
  149.6818  140.1016  155.0486 H   0  0  0  0  0  0  0  0  0  0  0  0
  147.5982  141.0242  155.7734 H   0  0  0  0  0  0  0  0  0  0  0  0
  148.0578  142.6605  155.3841 H   0  0  0  0  0  0  0  0  0  0  0  0
  146.3833  141.6471  153.7586 H   0  0  0  0  0  0  0  0  0  0  0  0
  147.8488  142.2211  152.9804 H   0  0  0  0  0  0  0  0  0  0  0  0
  148.4377  140.2435  152.5589 H   0  0  0  0  0  0  0  0  0  0  0  0
  151.5048  145.3297  157.9699 H   0  0  0  0  0  0  0  0  0  0  0  0
  152.8733  144.9828  160.0332 H   0  0  0  0  0  0  0  0  0  0  0  0
  153.4137  142.7107  160.8296 H   0  0  0  0  0  0  0  0  0  0  0  0
  152.6142  140.6946  159.6065 H   0  0  0  0  0  0  0  0  0  0  0  0
  150.1684  143.8066  155.9224 H   0  0  0  0  0  0  0  0  0  0  0  0
  1  2  1  0  0  0  0
  1 19  1  0  0  0  0
  1 20  1  0  0  0  0
  1 21  1  0  0  0  0
  2  3  1  0  0  0  0
  2 22  1  0  0  0  0
  2 23  1  0  0  0  0
  3  4  1  0  0  0  0
  4  5  1  0  0  0  0
  4 24  1  0  0  0  0
  4 25  1  0  0  0  0
  5  6  1  0  0  0  0
  5 26  1  0  0  0  0
  5 27  1  0  0  0  0
  6 18  1  0  0  0  0
  6  7  1  0  0  0  0
  7  8  1  0  0  0  0
  7 12  2  0  0  0  0
  8  9  1  0  0  0  0
  8 28  1  0  0  0  0
  8 29  1  0  0  0  0
  9 10  1  0  0  0  0
  9 30  1  0  0  0  0
  9 31  1  0  0  0  0
 10 11  1  0  0  0  0
 10 32  1  0  0  0  0
 10 33  1  0  0  0  0
 11 34  1  0  0  0  0
 12 13  1  0  0  0  0
 12 39  1  0  0  0  0
 13 18  2  0  0  0  0
 13 14  1  0  0  0  0
 14 15  2  0  0  0  0
 14 35  1  0  0  0  0
 15 16  1  0  0  0  0
 15 36  1  0  0  0  0
 16 17  2  0  0  0  0
 16 37  1  0  0  0  0
 17 18  1  0  0  0  0
 17 38  1  0  0  0  0
M  CHG  1  12   1
M  END
> <s_m_source_file>
AV-unprocessed.smi

> <i_m_source_file_index>
2980

> <i_lp_mmshare_version>
43012

> <i_f3d_flags>
0

> <s_epik_input>
W0NIM11bQ0gyXU9bQ0gyXVtDSDJdbihjKG4xKVtDSDJdW0NIMl1bQ0gyXVtPSF0pYyhjMTIpW2NIXVtjSF1bY0hdW2NIXTI=

> <s_epik_cmdline>
J2VwaWtfcHl0aG9uJywgJy1waCcsICc3LjAnLCAnLXRuJywgJzgnLCAnLW1hJywgJzIwMCcsICctbWV0YWxfYmluZGluZycsICctaW1hZScsICc8aW5maWxlLm1hZT4nLCAnLW9tYWUnLCAnPG91dGZpbGUubWFlPic=

> <r_epik_Ionization_Penalty>
0.813193

> <r_epik_Ionization_Penalty_Charging>
0.813193

> <r_epik_Ionization_Penalty_Neutral>
1.64912e-07

> <r_epik_State_Penalty>
0.845533

> <r_epik_Charging_Adjusted_Penalty>
1.65873

> <i_epik_Tot_Q>
1

> <i_epik_Tot_abs_Q>
1

> <r_epik_Metal_State_Penalty>
4.77586

> <b_epik_Metal_Only>
0

> <s_lp_Force_Field>
OPLS_2005

> <r_lp_Energy>
11.2721

> <b_lp_Chiralities_Consistent>
1

> <s_lp_Variant>
AV-unprocessed.smi:2980-2

> <Gold.Version>
5.8.1

> <Gold.Id.Protein>
6NUR|6NUR_protein|mol2

> <Gold.PLP.Fitness>
51.6354

> <Gold.PLP.PLP>
-41.2651

> <Gold.PLP.part.hbond>
-2.8385

> <Gold.PLP.part.metal>
0.0000

> <Gold.PLP.part.buried>
-4.6652

> <Gold.PLP.part.nonpolar>
-34.4064

> <Gold.PLP.part.repulsive>
0.0790

> <Gold.PLP.ligand.clash>
0.0000

> <Gold.PLP.ligand.torsion>
0.6278

> <Gold.PLP.Chemscore.Hbond>
3.8240

> <Gold.PLP.Chemscore.CHOScore>
0.0000

> <Gold.PLP.Chemscore.Metal>
0.0000

> <Gold.Chemscore.Hbonds>
donor molecule, donor type, donor heavy atom, donor atom, acceptor molecule, acceptor atom, score
      L1  H    11    34       P1  7957  1.00
      L1  H    12    39       P1  8028  1.82
      P1  H  7997  8008       L1     3  1.00

> <Gold.PLP.Chemscore.Internal.Correction>
0.1539

> <Gold.Rescore>
     Score         DG    S(hbond)    S(metal)    S(lipo)     H(rot)  DE(clash)    DE(int)     intcor
     17.81     -19.79       2.57        0.00     105.37       2.58       0.00       1.98       ----

> <Gold.Chemscore.Fitness>
17.8091

> <Gold.Chemscore.DG>
-19.7901

> <Gold.Chemscore.ZeroCoef>
-5.4800

> <Gold.Chemscore.Hbond>
2.5697

> <Gold.Chemscore.Metal>
0.0000

> <Gold.Chemscore.Lipo>
105.3679

> <Gold.Chemscore.Internal_Hbond>
0.0000

> <Gold.Chemscore.DEClash>
0.0000

> <Gold.Chemscore.DEInternal>
1.9810

> <Gold.Chemscore.Rot>
2.5784

> <Gold.Chemscore.Internal.Correction>
   9.000000E+99

> <Gold.Chemscore.Hbonds>
donor molecule, donor type, donor heavy atom, donor atom, acceptor molecule, acceptor atom, score
      L1  H    11    34       P1  7957  1.00
      L1  H    12    39       P1  8028  0.86
      P1  H  7997  8008       L1     3  0.39

> <Gold.Chemscore.Hbond.Weighted>
-8.5828

> <Gold.Chemscore.Metal.Weighted>
-0.0000

> <Gold.Chemscore.Lipo.Weighted>
-12.3280

> <Gold.Chemscore.Internal_Hbond.Weighted>
0.0000

> <Gold.Chemscore.DEClash.Weighted>
0.0000

> <Gold.Chemscore.DEInternal.Weighted>
1.9810

> <Gold.Chemscore.Rot.Weighted>
6.6007

> <Gold.Chemscore.Internal.Correction.Weighted>
   9.000000E+99

> <Gold.Protein.RotatedTorsions>
[ 6907 6896 6895 6894 ] final   78.78 input  -60.11 | X-H torsion
[ 7974 7965 7964 7962 ] final  -36.71 input  175.53 | X-H torsion
[ 8008 7997 7996 7995 ] final -104.40 input   59.86 | X-H torsion
[ 10167 10162 10161 10158 ] final  -41.77 input  -65.29 | X-H torsion
[ 10718 10713 10712 10709 ] final  165.21 input   66.30 | X-H torsion
[ 10763 10752 10751 10750 ] final   -6.92 input  -60.55 | X-H torsion
[ 11005 11000 10999 10996 ] final -175.89 input  -57.11 | X-H torsion

> <Gold.Protein.ActiveResidues>
 VAL166  LYS551  ARG553  GLY616  TRP617  ASP618  TYR619  PRO620  LYS621  CYS622 
 ASP623  PHE694  ASN695  SER759  ASP760  ASP761  ALA762  ILE779  LEU786  VAL792 
 PHE793  MET794  SER795  GLU796  ALA797  LYS798  CYS799  TRP800  GLU811  SER814 

> <Gold.Protein.RotatedAtoms>
  152.5173  134.3612  159.9285 H   0  0  0  0  0  0  0  0  0  0  0  0  # atno 6907 bound_to 6896
  151.3565  133.3899  159.2693 H   0  0  0  0  0  0  0  0  0  0  0  0  # atno 6908 bound_to 6896
  150.9686  134.9081  159.7832 H   0  0  0  0  0  0  0  0  0  0  0  0  # atno 6909 bound_to 6896
  146.0638  140.6311  142.8984 H   0  0  0  0  0  0  0  0  0  0  0  0  # atno 7974 bound_to 7965
  154.8847  140.0418  157.1803 H   0  0  0  0  0  0  0  0  0  0  0  0  # atno 8008 bound_to 7997
  154.8602  140.2943  155.5523 H   0  0  0  0  0  0  0  0  0  0  0  0  # atno 8009 bound_to 7997
  156.2998  140.2448  156.3575 H   0  0  0  0  0  0  0  0  0  0  0  0  # atno 8010 bound_to 7997
  140.6991  143.3075  151.3114 H   0  0  0  0  0  0  0  0  0  0  0  0  # atno 10167 bound_to 10162
  157.0833  131.0398  151.2566 H   0  0  0  0  0  0  0  0  0  0  0  0  # atno 10718 bound_to 10713
  153.4191  135.7009  153.6306 H   0  0  0  0  0  0  0  0  0  0  0  0  # atno 10763 bound_to 10752
  153.4768  135.3702  155.2421 H   0  0  0  0  0  0  0  0  0  0  0  0  # atno 10764 bound_to 10752
  154.8721  135.4056  154.3556 H   0  0  0  0  0  0  0  0  0  0  0  0  # atno 10765 bound_to 10752
  140.4582  134.6279  157.4831 H   0  0  0  0  0  0  0  0  0  0  0  0  # atno 11005 bound_to 11000
  144.7190  140.4309  143.7022 LP  0  0  0  0  0  0  0  0  0  0  0  0  # atno 17320 bound_to 7965
  145.6514  139.1565  143.2860 LP  0  0  0  0  0  0  0  0  0  0  0  0  # atno 17321 bound_to 7965
  139.6486  144.0404  152.2610 LP  0  0  0  0  0  0  0  0  0  0  0  0  # atno 17342 bound_to 10162
  139.9933  144.6346  150.7795 LP  0  0  0  0  0  0  0  0  0  0  0  0  # atno 17343 bound_to 10162
  157.4782  130.7749  149.7388 LP  0  0  0  0  0  0  0  0  0  0  0  0  # atno 17370 bound_to 10713
  155.9917  130.3935  150.2971 LP  0  0  0  0  0  0  0  0  0  0  0  0  # atno 17371 bound_to 10713
  139.9962  134.6907  155.9605 LP  0  0  0  0  0  0  0  0  0  0  0  0  # atno 17394 bound_to 11000
  141.1633  133.6538  156.4393 LP  0  0  0  0  0  0  0  0  0  0  0  0  # atno 17395 bound_to 11000

$$$$
