#       Name:                AV-unprocessed.smi:703
#       Creating user name   scv26
#       Creation time:       Fri Mar 27 00:41:06 2020


#       File generated by GOLD software.
#

@<TRIPOS>MOLECULE
AV-unprocessed.smi:703
    42    43     1
SMALL
NO_CHARGES


@<TRIPOS>ATOM
      1 ****        -2.9362  -3.4283  -1.1566 C.3            1 S1                 0.0000
      2 ****        -2.1584  -2.1132  -1.2999 C.3            1 S1                 0.0000
      3 ****        -2.3973  -1.1930  -0.1631 N.4            1 S1                 1.0000
      4 ****        -1.9010  -1.6766   1.1446 C.3            1 S1                 0.0000
      5 ****        -1.6056  -0.4156   1.9550 C.3            1 S1                 0.0000
      6 ****        -0.7185  -0.6273   3.1934 C.3            1 S1                 0.0000
      7 ****        -1.0788   0.5579   0.8940 C.3            1 S1                 0.0000
      8 ****         0.3611   0.3786   0.6719 N.3            1 S1                 0.0000
      9 ****         1.2643   1.7162   0.0645 S.o2           1 S1                 0.0000
     10 ****         0.5511   2.2412  -1.1101 O.2            1 S1                 0.0000
     11 ****         1.5540   2.6014   1.2026 O.2            1 S1                 0.0000
     12 ****         2.8278   0.9238  -0.5013 C.3            1 S1                 0.0000
     13 ****         3.7591   1.9763  -1.0304 C.2            1 S1                 0.0000
     14 ****         3.7260   2.6328  -2.2918 C.2            1 S1                 0.0000
     15 ****         4.7921   3.4837  -2.2359 C.2            1 S1                 0.0000
     16 ****         5.4347   3.3628  -1.0470 O.3            1 S1                 0.0000
     17 ****         4.7682   2.3969  -0.2845 N.2            1 S1                 0.0000
     18 ****        -1.8682   0.1775  -0.3707 C.3            1 S1                 0.0000
     19 ****        -2.7873  -4.0605  -2.0323 H              1 S1                 0.0000
     20 ****        -4.0065  -3.2443  -1.0594 H              1 S1                 0.0000
     21 ****        -2.6112  -3.9968  -0.2850 H              1 S1                 0.0000
     22 ****        -1.0901  -2.3110  -1.4009 H              1 S1                 0.0000
     23 ****        -2.4747  -1.6201  -2.2201 H              1 S1                 0.0000
     24 ****        -2.6292  -2.3240   1.6341 H              1 S1                 0.0000
     25 ****        -0.9828  -2.2495   1.0041 H              1 S1                 0.0000
     26 ****        -2.5619  -0.0214   2.3034 H              1 S1                 0.0000
     27 ****         0.2349  -1.0904   2.9387 H              1 S1                 0.0000
     28 ****        -1.2128  -1.2764   3.9166 H              1 S1                 0.0000
     29 ****        -0.5087   0.3207   3.6896 H              1 S1                 0.0000
     30 ****        -1.2636   1.5917   1.1898 H              1 S1                 0.0000
     31 ****         0.8096  -0.0122   1.5006 H              1 S1                 0.0000
     32 ****         3.2680   0.3878   0.3401 H              1 S1                 0.0000
     33 ****         2.5858   0.1931  -1.2727 H              1 S1                 0.0000
     34 ****         3.0281   2.5040  -3.1056 H              1 S1                 0.0000
     35 ****         5.2046   4.2034  -2.9275 H              1 S1                 0.0000
     36 ****        -1.2597   0.2525  -1.2733 H              1 S1                 0.0000
     37 ****        -2.7174   0.8485  -0.5029 H              1 S1                 0.0000
     38 ****        -3.3977  -1.0884  -0.0705 H              1 S1                 0.0000
     39 ****         0.3829  -0.2653  -0.0930 LP             1 S1                 0.0000
     40 ****         5.4244   4.2395  -0.5663 LP             1 S1                 0.0000
     41 ****         6.3808   3.0782  -1.2013 LP             1 S1                 0.0000
     42 ****         5.0059   2.0875   0.6362 LP             1 S1                 0.0000
@<TRIPOS>BOND
    1    1    2 1     
    2    1   19 1     
    3    1   20 1     
    4    1   21 1     
    5    2    3 1     
    6    2   22 1     
    7    2   23 1     
    8    3   18 1     
    9    3    4 1     
   10    3   38 1     
   11    4    5 1     
   12    4   24 1     
   13    4   25 1     
   14    5    6 1     
   15    5    7 1     
   16    5   26 1     
   17    6   27 1     
   18    6   28 1     
   19    6   29 1     
   20    7    8 1     
   21    7   18 1     
   22    7   30 1     
   23    8    9 1     
   24    8   31 1     
   25    9   10 2     
   26    9   11 2     
   27    9   12 1     
   28   12   13 1     
   29   12   32 1     
   30   12   33 1     
   31   13   17 2     
   32   13   14 1     
   33   14   15 2     
   34   14   34 1     
   35   15   16 1     
   36   15   35 1     
   37   16   17 1     
   38   18   36 1     
   39   18   37 1     
   40    8   39 1     
   41   16   40 1     
   42   16   41 1     
   43   17   42 1     
@<TRIPOS>SUBSTRUCTURE
      1 S1             1
@<TRIPOS>SET
LONE_PAIRS      STATIC     ATOMS    <user>   **** ""
6 39 10 11 40 41 42
DONOR_HYDROGENS      STATIC     ATOMS    <user>   **** ""
2 38 31
ATOM$BLUE        STATIC     ATOMS    COLORGROUP SYSTEM
6 39 10 11 40 41 42
ATOM$RED        STATIC     ATOMS    COLORGROUP SYSTEM
2 38 31
