AV-unprocessed.smi:3003|AV-procd|sdf|11438|dock5
  -GOLD-   2272016363D 1   1.00000     0.00000
 Structure written by MMmdl.
 41 42  0  0  0  0  0  0  0  0  1 V2000
  152.0471  145.1543  159.4549 C   0  0  0  0  0  0  0  0  0  0  0  0
  151.3694  143.6264  158.7512 S   0  0  0  0  0  0  0  0  0  0  0  0
  152.7507  142.4782  159.0300 C   0  0  1  0  0  0  0  0  0  0  0  0
  153.0090  142.3120  160.5358 C   0  0  0  0  0  0  0  0  0  0  0  0
  152.5092  141.1182  158.3647 C   0  0  0  0  0  0  0  0  0  0  0  0
  153.3969  140.2646  158.3554 O   0  0  0  0  0  0  0  0  0  0  0  0
  151.3017  140.9273  157.8104 N   0  0  0  0  0  0  0  0  0  0  0  0
  150.8910  139.7179  157.1045 C   0  0  0  0  0  0  0  0  0  0  0  0
  149.9936  138.8004  157.9223 C   0  0  0  0  0  0  0  0  0  0  0  0
  148.6331  139.0974  158.1459 C   0  0  0  0  0  0  0  0  0  0  0  0
  147.8545  138.2047  158.9067 C   0  0  0  0  0  0  0  0  0  0  0  0
  148.4563  137.0350  159.4290 C   0  0  0  0  0  0  0  0  0  0  0  0
  147.6915  136.1206  160.1859 N   0  0  0  0  0  0  0  0  0  0  0  0
  148.0823  135.9789  161.5866 C   0  0  0  0  0  0  0  0  0  0  0  0
  147.3900  134.7577  162.2164 C   0  0  0  0  0  0  0  0  0  0  0  0
  145.9805  134.8589  162.0436 O   0  0  0  0  0  0  0  0  0  0  0  0
  145.6174  134.8806  160.6674 C   0  0  0  0  0  0  0  0  0  0  0  0
  146.2435  136.1087  159.9857 C   0  0  0  0  0  0  0  0  0  0  0  0
  149.7694  136.7630  159.2263 N   0  0  0  0  0  0  0  0  0  0  0  0
  150.5110  137.6211  158.4946 C   0  0  0  0  0  0  0  0  0  0  0  0
  151.3072  145.9524  159.3951 H   0  0  0  0  0  0  0  0  0  0  0  0
  152.9360  145.4703  158.9094 H   0  0  0  0  0  0  0  0  0  0  0  0
  152.3121  145.0074  160.5019 H   0  0  0  0  0  0  0  0  0  0  0  0
  153.6410  142.9318  158.5911 H   0  0  0  0  0  0  0  0  0  0  0  0
  153.8286  141.6173  160.7235 H   0  0  0  0  0  0  0  0  0  0  0  0
  152.1270  141.9363  161.0563 H   0  0  0  0  0  0  0  0  0  0  0  0
  153.2788  143.2654  160.9908 H   0  0  0  0  0  0  0  0  0  0  0  0
  150.6267  141.6761  157.8683 H   0  0  0  0  0  0  0  0  0  0  0  0
  150.3965  139.9888  156.1700 H   0  0  0  0  0  0  0  0  0  0  0  0
  151.7878  139.1627  156.8294 H   0  0  0  0  0  0  0  0  0  0  0  0
  148.1868  139.9949  157.7439 H   0  0  0  0  0  0  0  0  0  0  0  0
  146.8152  138.4332  159.0899 H   0  0  0  0  0  0  0  0  0  0  0  0
  149.1601  135.8694  161.6969 H   0  0  0  0  0  0  0  0  0  0  0  0
  147.7992  136.8853  162.1236 H   0  0  0  0  0  0  0  0  0  0  0  0
  147.7564  133.8314  161.7710 H   0  0  0  0  0  0  0  0  0  0  0  0
  147.6141  134.7082  163.2820 H   0  0  0  0  0  0  0  0  0  0  0  0
  145.9393  133.9587  160.1803 H   0  0  0  0  0  0  0  0  0  0  0  0
  144.5311  134.9203  160.5871 H   0  0  0  0  0  0  0  0  0  0  0  0
  145.8137  137.0229  160.3973 H   0  0  0  0  0  0  0  0  0  0  0  0
  146.0099  136.0879  158.9207 H   0  0  0  0  0  0  0  0  0  0  0  0
  151.5482  137.3528  158.3586 H   0  0  0  0  0  0  0  0  0  0  0  0
  1  2  1  0  0  0  0
  1 21  1  0  0  0  0
  1 22  1  0  0  0  0
  1 23  1  0  0  0  0
  2  3  1  0  0  0  0
  3  4  1  0  0  0  0
  3  5  1  0  0  0  0
  3 24  1  0  0  0  0
  4 25  1  0  0  0  0
  4 26  1  0  0  0  0
  4 27  1  0  0  0  0
  5  6  2  0  0  0  0
  5  7  1  0  0  0  0
  7  8  1  0  0  0  0
  7 28  1  0  0  0  0
  8  9  1  0  0  0  0
  8 29  1  0  0  0  0
  8 30  1  0  0  0  0
  9 20  1  0  0  0  0
  9 10  2  0  0  0  0
 10 11  1  0  0  0  0
 10 31  1  0  0  0  0
 11 12  2  0  0  0  0
 11 32  1  0  0  0  0
 12 13  1  0  0  0  0
 12 19  1  0  0  0  0
 13 18  1  0  0  0  0
 13 14  1  0  0  0  0
 14 15  1  0  0  0  0
 14 33  1  0  0  0  0
 14 34  1  0  0  0  0
 15 16  1  0  0  0  0
 15 35  1  0  0  0  0
 15 36  1  0  0  0  0
 16 17  1  0  0  0  0
 17 18  1  0  0  0  0
 17 37  1  0  0  0  0
 17 38  1  0  0  0  0
 18 39  1  0  0  0  0
 18 40  1  0  0  0  0
 19 20  2  0  0  0  0
 20 41  1  0  0  0  0
M  END
> <s_m_source_file>
AV-unprocessed.smi

> <i_m_source_file_index>
3003

> <i_lp_mmshare_version>
43012

> <i_f3d_flags>
0

> <s_epik_input>
W0NIM11TW0NASF0oW0NIM10pQyg9TylbTkhdW0NIMl1jMVtjSF1bY0hdYyhuW2NIXTEpTjJbQ0gyXVtDSDJdT1tDSDJdW0NIMl0y

> <s_epik_cmdline>
J2VwaWtfcHl0aG9uJywgJy1waCcsICc3LjAnLCAnLXRuJywgJzgnLCAnLW1hJywgJzIwMCcsICctbWV0YWxfYmluZGluZycsICctaW1hZScsICc8aW5maWxlLm1hZT4nLCAnLW9tYWUnLCAnPG91dGZpbGUubWFlPic=

> <r_lp_tautomer_probability>
1

> <r_epik_Ionization_Penalty>
0.00417642

> <r_epik_Ionization_Penalty_Charging>
0

> <r_epik_Ionization_Penalty_Neutral>
0.00417642

> <r_epik_State_Penalty>
0.00299889

> <r_epik_Charging_Adjusted_Penalty>
0.00299889

> <i_epik_Tot_Q>
0

> <i_epik_Tot_abs_Q>
0

> <r_epik_Metal_State_Penalty>
-0

> <b_epik_Metal_Only>
0

> <s_lp_Force_Field>
OPLS_2005

> <r_lp_Energy>
16.8537

> <b_lp_Chiralities_Consistent>
1

> <s_lp_Variant>
AV-unprocessed.smi:3003-2

> <Gold.Version>
5.8.1

> <Gold.Id.Protein>
6NUR|6NUR_protein|mol2

> <Gold.PLP.Fitness>
38.9767

> <Gold.PLP.PLP>
-34.2531

> <Gold.PLP.part.hbond>
-2.0000

> <Gold.PLP.part.metal>
0.0000

> <Gold.PLP.part.buried>
-4.5232

> <Gold.PLP.part.nonpolar>
-27.3021

> <Gold.PLP.part.repulsive>
0.0773

> <Gold.PLP.ligand.clash>
0.0000

> <Gold.PLP.ligand.torsion>
0.7392

> <Gold.PLP.Chemscore.Hbond>
1.9440

> <Gold.PLP.Chemscore.CHOScore>
0.0000

> <Gold.PLP.Chemscore.Metal>
0.0000

> <Gold.Chemscore.Hbonds>
donor molecule, donor type, donor heavy atom, donor atom, acceptor molecule, acceptor atom, score
      P1  H  6896  6908       L1    19  0.47
      P1  H  7997  8010       L1     6  0.80

> <Gold.PLP.Chemscore.Internal.Correction>
0.3700

> <Gold.Rescore>
     Score         DG    S(hbond)    S(metal)    S(lipo)     H(rot)  DE(clash)    DE(int)     intcor
     15.89     -16.68       1.71        0.00      83.46       1.67       0.08       0.71       ----

> <Gold.Chemscore.Fitness>
15.8917

> <Gold.Chemscore.DG>
-16.6839

> <Gold.Chemscore.ZeroCoef>
-5.4800

> <Gold.Chemscore.Hbond>
1.7095

> <Gold.Chemscore.Metal>
0.0000

> <Gold.Chemscore.Lipo>
83.4609

> <Gold.Chemscore.Internal_Hbond>
0.0000

> <Gold.Chemscore.DEClash>
0.0777

> <Gold.Chemscore.DEInternal>
0.7145

> <Gold.Chemscore.Rot>
1.6682

> <Gold.Chemscore.Internal.Correction>
   9.000000E+99

> <Gold.Chemscore.Hbonds>
donor molecule, donor type, donor heavy atom, donor atom, acceptor molecule, acceptor atom, score
      P1  H  6896  6908       L1    19  0.42
      P1  H  7997  8010       L1     6  0.80

> <Gold.Chemscore.Hbond.Weighted>
-5.7097

> <Gold.Chemscore.Metal.Weighted>
-0.0000

> <Gold.Chemscore.Lipo.Weighted>
-9.7649

> <Gold.Chemscore.Internal_Hbond.Weighted>
0.0000

> <Gold.Chemscore.DEClash.Weighted>
0.0777

> <Gold.Chemscore.DEInternal.Weighted>
0.7145

> <Gold.Chemscore.Rot.Weighted>
4.2707

> <Gold.Chemscore.Internal.Correction.Weighted>
   9.000000E+99

> <Gold.Protein.RotatedTorsions>
[ 6907 6896 6895 6894 ] final -173.44 input  -60.11 | X-H torsion
[ 7974 7965 7964 7962 ] final -146.32 input  175.53 | X-H torsion
[ 8008 7997 7996 7995 ] final   17.50 input   59.86 | X-H torsion
[ 10167 10162 10161 10158 ] final    9.76 input  -65.29 | X-H torsion
[ 10718 10713 10712 10709 ] final  119.71 input   66.30 | X-H torsion
[ 10763 10752 10751 10750 ] final   92.37 input  -60.55 | X-H torsion
[ 11005 11000 10999 10996 ] final  -27.21 input  -57.11 | X-H torsion

> <Gold.Protein.ActiveResidues>
 VAL166  LYS551  ARG553  GLY616  TRP617  ASP618  TYR619  PRO620  LYS621  CYS622 
 ASP623  PHE694  ASN695  SER759  ASP760  ASP761  ALA762  ILE779  LEU786  VAL792 
 PHE793  MET794  SER795  GLU796  ALA797  LYS798  CYS799  TRP800  GLU811  SER814 

> <Gold.Protein.RotatedAtoms>
  151.5563  133.3410  159.2962 H   0  0  0  0  0  0  0  0  0  0  0  0  # atno 6907 bound_to 6896
  150.8449  134.7757  159.6973 H   0  0  0  0  0  0  0  0  0  0  0  0  # atno 6908 bound_to 6896
  152.4509  134.5404  159.9889 H   0  0  0  0  0  0  0  0  0  0  0  0  # atno 6909 bound_to 6896
  144.8168  140.5471  143.5605 H   0  0  0  0  0  0  0  0  0  0  0  0  # atno 7974 bound_to 7965
  154.8923  140.2989  155.5363 H   0  0  0  0  0  0  0  0  0  0  0  0  # atno 8008 bound_to 7997
  156.3020  140.2422  156.3875 H   0  0  0  0  0  0  0  0  0  0  0  0  # atno 8009 bound_to 7997
  154.8605  140.0405  157.1651 H   0  0  0  0  0  0  0  0  0  0  0  0  # atno 8010 bound_to 7997
  140.6235  143.8151  150.7205 H   0  0  0  0  0  0  0  0  0  0  0  0  # atno 10167 bound_to 10162
  157.5942  131.1060  150.7934 H   0  0  0  0  0  0  0  0  0  0  0  0  # atno 10718 bound_to 10713
  153.2184  135.4364  155.0461 H   0  0  0  0  0  0  0  0  0  0  0  0  # atno 10763 bound_to 10752
  154.8237  135.3350  154.6964 H   0  0  0  0  0  0  0  0  0  0  0  0  # atno 10764 bound_to 10752
  153.7397  135.7005  153.5026 H   0  0  0  0  0  0  0  0  0  0  0  0  # atno 10765 bound_to 10752
  140.9099  133.7468  156.0656 H   0  0  0  0  0  0  0  0  0  0  0  0  # atno 11005 bound_to 11000
  145.5197  139.1477  143.3559 LP  0  0  0  0  0  0  0  0  0  0  0  0  # atno 17320 bound_to 7965
  146.2471  140.5338  142.8909 LP  0  0  0  0  0  0  0  0  0  0  0  0  # atno 17321 bound_to 7965
  140.1747  143.4165  152.1976 LP  0  0  0  0  0  0  0  0  0  0  0  0  # atno 17342 bound_to 10162
  139.5460  144.7298  151.4583 LP  0  0  0  0  0  0  0  0  0  0  0  0  # atno 17343 bound_to 10162
  156.8349  130.5028  149.5327 LP  0  0  0  0  0  0  0  0  0  0  0  0  # atno 17370 bound_to 10713
  156.1002  130.5963  150.9881 LP  0  0  0  0  0  0  0  0  0  0  0  0  # atno 17371 bound_to 10713
  140.8123  134.3385  157.5408 LP  0  0  0  0  0  0  0  0  0  0  0  0  # atno 17394 bound_to 11000
  139.8756  134.9261  156.3392 LP  0  0  0  0  0  0  0  0  0  0  0  0  # atno 17395 bound_to 11000

$$$$
