#       Name:                AV-unprocessed.smi:81
#       Creating user name   scv26
#       Creation time:       Thu Mar 26 17:15:41 2020


#       File generated by GOLD software.
#

@<TRIPOS>MOLECULE
AV-unprocessed.smi:81
    72    75     1
SMALL
NO_CHARGES


@<TRIPOS>ATOM
      1 ****        -2.8106  -3.4369  -1.5490 C.3            1 S1                 0.0000
      2 ****        -2.5108  -3.5808  -0.0477 C.3            1 S1                 0.0000
      3 ****        -3.2031  -4.8265   0.5227 C.3            1 S1                 0.0000
      4 ****        -2.9302  -2.3214   0.7434 C.3            1 S1                 0.0000
      5 ****        -2.1938  -1.1107   0.3685 N.3            1 S1                 0.0000
      6 ****        -0.8539  -1.1794   0.5681 C.ar           1 S1                 0.0000
      7 ****        -0.3638  -1.5008   1.7944 N.ar           1 S1                 0.0000
      8 ****         0.9563  -1.5792   1.9875 C.ar           1 S1                 0.0000
      9 ****         1.9413  -1.3825   1.1087 N.ar           1 S1                 0.0000
     10 ****         1.4508  -1.0666  -0.1242 C.ar           1 S1                 0.0000
     11 ****         0.0783  -0.9473  -0.4780 C.ar           1 S1                 0.0000
     12 ****        -0.0418  -0.6219  -1.8228 N.2            1 S1                 0.0000
     13 ****         1.1924  -0.5509  -2.2416 C.2            1 S1                 0.0000
     14 ****         2.1526  -0.7956  -1.2854 N.pl3          1 S1                 0.0000
     15 ****         3.5945  -0.7801  -1.4731 C.3            1 S1                 0.0000
     16 ****         4.2269   0.6166  -1.2675 C.3            1 S1                 0.0000
     17 ****         3.9745   1.0399   0.0633 O.3            1 S1                 0.0000
     18 ****         3.7010   1.6815  -2.2187 C.3            1 S1                 0.0000
     19 ****         4.8390   2.6945  -2.2421 C.3            1 S1                 0.0000
     20 ****         6.0231   1.9119  -2.1628 O.3            1 S1                 0.0000
     21 ****         5.7406   0.6427  -1.5746 C.3            1 S1                 0.0000
     22 ****         6.6867   0.3605  -0.3963 C.3            1 S1                 0.0000
     23 ****        -2.8342   0.1725   0.6916 C.3            1 S1                 0.0000
     24 ****        -2.1801   1.3877  -0.0003 C.3            1 S1                 0.0000
     25 ****        -2.9481   2.6809   0.3166 C.3            1 S1                 0.0000
     26 ****        -3.0401   2.9000   1.7815 N.4            1 S1                 1.0000
     27 ****        -3.6633   4.1980   2.1177 C.3            1 S1                 0.0000
     28 ****        -3.6948   1.7621   2.4738 C.3            1 S1                 0.0000
     29 ****        -2.9443   0.4470   2.2072 C.3            1 S1                 0.0000
     30 ****        -3.8755  -3.2860  -1.7275 H              1 S1                 0.0000
     31 ****        -2.5045  -4.3285  -2.0967 H              1 S1                 0.0000
     32 ****        -2.2775  -2.5913  -1.9839 H              1 S1                 0.0000
     33 ****        -1.4377  -3.7368   0.0679 H              1 S1                 0.0000
     34 ****        -4.2879  -4.7496   0.4430 H              1 S1                 0.0000
     35 ****        -2.9553  -4.9654   1.5754 H              1 S1                 0.0000
     36 ****        -2.8930  -5.7271  -0.0080 H              1 S1                 0.0000
     37 ****        -3.9967  -2.1469   0.5967 H              1 S1                 0.0000
     38 ****        -2.8016  -2.5014   1.8115 H              1 S1                 0.0000
     39 ****         1.2684  -1.8368   2.9888 H              1 S1                 0.0000
     40 ****         1.4383  -0.3125  -3.2662 H              1 S1                 0.0000
     41 ****         4.0411  -1.5012  -0.7873 H              1 S1                 0.0000
     42 ****         3.8051  -1.1459  -2.4788 H              1 S1                 0.0000
     43 ****         4.4136   1.8650   0.2029 H              1 S1                 0.0000
     44 ****         3.5737   1.2629  -3.2182 H              1 S1                 0.0000
     45 ****         2.7476   2.1143  -1.9129 H              1 S1                 0.0000
     46 ****         4.8299   3.3175  -3.1366 H              1 S1                 0.0000
     47 ****         4.7885   3.3487  -1.3709 H              1 S1                 0.0000
     48 ****         5.9481  -0.0883  -2.3572 H              1 S1                 0.0000
     49 ****         6.4643  -0.6031   0.0625 H              1 S1                 0.0000
     50 ****         6.6111   1.1275   0.3747 H              1 S1                 0.0000
     51 ****         7.7236   0.3365  -0.7320 H              1 S1                 0.0000
     52 ****        -3.8502   0.0993   0.3009 H              1 S1                 0.0000
     53 ****        -1.1454   1.5059   0.3241 H              1 S1                 0.0000
     54 ****        -2.1554   1.2347  -1.0797 H              1 S1                 0.0000
     55 ****        -2.4404   3.5271  -0.1482 H              1 S1                 0.0000
     56 ****        -3.9509   2.6382  -0.1115 H              1 S1                 0.0000
     57 ****        -4.6986   4.2354   1.7761 H              1 S1                 0.0000
     58 ****        -3.1185   5.0191   1.6506 H              1 S1                 0.0000
     59 ****        -3.6517   4.3632   3.1955 H              1 S1                 0.0000
     60 ****        -3.7205   1.9533   3.5474 H              1 S1                 0.0000
     61 ****        -4.7309   1.6774   2.1415 H              1 S1                 0.0000
     62 ****        -3.4638  -0.3705   2.7078 H              1 S1                 0.0000
     63 ****        -1.9532   0.5079   2.6575 H              1 S1                 0.0000
     64 ****        -2.0918   2.9399   2.1276 H              1 S1                 0.0000
     65 ****        -2.2735  -1.1047  -0.6283 LP             1 S1                 0.0000
     66 ****        -0.9912  -1.6786   2.5525 LP             1 S1                 0.0000
     67 ****         2.9145  -1.4571   1.3263 LP             1 S1                 0.0000
     68 ****        -0.8798  -0.4758  -2.3485 LP             1 S1                 0.0000
     69 ****         4.3241   0.3585   0.7064 LP             1 S1                 0.0000
     70 ****         2.9906   1.1538   0.2005 LP             1 S1                 0.0000
     71 ****         6.6986   2.3918  -1.6029 LP             1 S1                 0.0000
     72 ****         6.3899   1.7746  -3.0829 LP             1 S1                 0.0000
@<TRIPOS>BOND
    1    1    2 1     
    2    1   30 1     
    3    1   31 1     
    4    1   32 1     
    5    2    3 1     
    6    2    4 1     
    7    2   33 1     
    8    3   34 1     
    9    3   35 1     
   10    3   36 1     
   11    4    5 1     
   12    4   37 1     
   13    4   38 1     
   14    5    6 1     
   15    5   23 1     
   16    6   11 ar    
   17    6    7 ar    
   18    7    8 ar    
   19    8    9 ar    
   20    8   39 1     
   21    9   10 ar    
   22   10   14 1     
   23   10   11 ar    
   24   11   12 1     
   25   12   13 2     
   26   13   14 1     
   27   13   40 1     
   28   14   15 1     
   29   15   16 1     
   30   15   41 1     
   31   15   42 1     
   32   16   21 1     
   33   16   17 1     
   34   16   18 1     
   35   17   43 1     
   36   18   19 1     
   37   18   44 1     
   38   18   45 1     
   39   19   20 1     
   40   19   46 1     
   41   19   47 1     
   42   20   21 1     
   43   21   22 1     
   44   21   48 1     
   45   22   49 1     
   46   22   50 1     
   47   22   51 1     
   48   23   29 1     
   49   23   24 1     
   50   23   52 1     
   51   24   25 1     
   52   24   53 1     
   53   24   54 1     
   54   25   26 1     
   55   25   55 1     
   56   25   56 1     
   57   26   27 1     
   58   26   28 1     
   59   26   64 1     
   60   27   57 1     
   61   27   58 1     
   62   27   59 1     
   63   28   29 1     
   64   28   60 1     
   65   28   61 1     
   66   29   62 1     
   67   29   63 1     
   68    5   65 1     
   69    7   66 1     
   70    9   67 1     
   71   12   68 1     
   72   17   69 1     
   73   17   70 1     
   74   20   71 1     
   75   20   72 1     
@<TRIPOS>SUBSTRUCTURE
      1 S1             1
@<TRIPOS>SET
LONE_PAIRS      STATIC     ATOMS    <user>   **** ""
8 65 66 67 68 69 70 71 72
DONOR_HYDROGENS      STATIC     ATOMS    <user>   **** ""
2 43 64
ATOM$BLUE        STATIC     ATOMS    COLORGROUP SYSTEM
8 65 66 67 68 69 70 71 72
ATOM$RED        STATIC     ATOMS    COLORGROUP SYSTEM
2 43 64
