AV-unprocessed.smi:2442|AV-procd|sdf|9630|dock8
  -GOLD-   2272013263D 1   1.00000     0.00000
 Structure written by MMmdl.
 47 48  0  0  0  0  0  0  0  0  2 V2000
  154.7650  138.6948  159.5515 C   0  0  0  0  0  0  0  0  0  0  0  0
  153.9943  139.6403  158.8269 O   0  0  0  0  0  0  0  0  0  0  0  0
  153.2294  140.5210  159.6423 C   0  0  1  0  0  0  0  0  0  0  0  0
  154.1549  141.2204  160.6607 C   0  0  0  0  0  0  0  0  0  0  0  0
  153.4043  142.2872  161.4713 C   0  0  0  0  0  0  0  0  0  0  0  0
  152.7417  143.3170  160.5461 C   0  0  0  0  0  0  0  0  0  0  0  0
  151.8061  142.6315  159.5398 C   0  0  0  0  0  0  0  0  0  0  0  0
  152.5400  141.5529  158.7197 C   0  0  2  0  0  0  0  0  0  0  0  0
  151.5735  140.8848  157.8507 N   0  0  0  0  0  0  0  0  0  0  0  0
  150.8998  141.4625  156.8464 C   0  0  0  0  0  0  0  0  0  0  0  0
  150.9958  142.6506  156.5381 O   0  0  0  0  0  0  0  0  0  0  0  0
  150.1117  140.5860  156.2084 N   0  0  0  0  0  0  0  0  0  0  0  0
  149.2613  140.9084  155.0689 C   0  0  0  0  0  0  0  0  0  0  0  0
  147.8025  140.4825  155.3093 C   0  0  0  0  0  0  0  0  0  0  0  0
  146.8283  141.6310  155.0974 C   0  0  0  0  0  0  0  0  0  0  0  0
  146.7651  142.2477  153.8276 C   0  0  0  0  0  0  0  0  0  0  0  0
  145.8702  143.3150  153.6167 C   0  0  0  0  0  0  0  0  0  0  0  0
  145.0819  143.7384  154.6270 N   0  3  0  0  0  0  0  0  0  0  0  0
  145.1083  143.1818  155.8571 C   0  0  0  0  0  0  0  0  0  0  0  0
  145.9851  142.1099  156.1345 C   0  0  0  0  0  0  0  0  0  0  0  0
  145.9997  141.5024  157.5257 C   0  0  0  0  0  0  0  0  0  0  0  0
  155.3014  138.0537  158.8525 H   0  0  0  0  0  0  0  0  0  0  0  0
  154.1281  138.0576  160.1660 H   0  0  0  0  0  0  0  0  0  0  0  0
  155.5027  139.1763  160.1931 H   0  0  0  0  0  0  0  0  0  0  0  0
  152.4559  139.9640  160.1758 H   0  0  0  0  0  0  0  0  0  0  0  0
  154.5919  140.4935  161.3448 H   0  0  0  0  0  0  0  0  0  0  0  0
  154.9885  141.6870  160.1343 H   0  0  0  0  0  0  0  0  0  0  0  0
  152.6459  141.8096  162.0927 H   0  0  0  0  0  0  0  0  0  0  0  0
  154.0926  142.7888  162.1524 H   0  0  0  0  0  0  0  0  0  0  0  0
  152.1837  144.0433  161.1377 H   0  0  0  0  0  0  0  0  0  0  0  0
  153.5090  143.8777  160.0108 H   0  0  0  0  0  0  0  0  0  0  0  0
  150.9700  142.1819  160.0775 H   0  0  0  0  0  0  0  0  0  0  0  0
  151.3765  143.3794  158.8721 H   0  0  0  0  0  0  0  0  0  0  0  0
  153.3023  142.0523  158.1181 H   0  0  0  0  0  0  0  0  0  0  0  0
  151.4213  139.9012  158.0184 H   0  0  0  0  0  0  0  0  0  0  0  0
  150.0995  139.6304  156.5339 H   0  0  0  0  0  0  0  0  0  0  0  0
  149.3156  141.9840  154.9001 H   0  0  0  0  0  0  0  0  0  0  0  0
  149.6556  140.4334  154.1687 H   0  0  0  0  0  0  0  0  0  0  0  0
  147.5325  139.6760  154.6260 H   0  0  0  0  0  0  0  0  0  0  0  0
  147.6890  140.0671  156.3106 H   0  0  0  0  0  0  0  0  0  0  0  0
  147.3985  141.9069  153.0211 H   0  0  0  0  0  0  0  0  0  0  0  0
  145.7620  143.8379  152.6777 H   0  0  0  0  0  0  0  0  0  0  0  0
  144.4294  143.6114  156.5797 H   0  0  0  0  0  0  0  0  0  0  0  0
  145.3987  142.0917  158.2192 H   0  0  0  0  0  0  0  0  0  0  0  0
  147.0150  141.4603  157.9202 H   0  0  0  0  0  0  0  0  0  0  0  0
  145.5926  140.4914  157.5035 H   0  0  0  0  0  0  0  0  0  0  0  0
  144.4392  144.5120  154.4542 H   0  0  0  0  0  0  0  0  0  0  0  0
  1  2  1  0  0  0  0
  1 22  1  0  0  0  0
  1 23  1  0  0  0  0
  1 24  1  0  0  0  0
  2  3  1  0  0  0  0
  3  8  1  0  0  0  0
  3  4  1  0  0  0  0
  3 25  1  0  0  0  0
  4  5  1  0  0  0  0
  4 26  1  0  0  0  0
  4 27  1  0  0  0  0
  5  6  1  0  0  0  0
  5 28  1  0  0  0  0
  5 29  1  0  0  0  0
  6  7  1  0  0  0  0
  6 30  1  0  0  0  0
  6 31  1  0  0  0  0
  7  8  1  0  0  0  0
  7 32  1  0  0  0  0
  7 33  1  0  0  0  0
  8  9  1  0  0  0  0
  8 34  1  0  0  0  0
  9 10  1  0  0  0  0
  9 35  1  0  0  0  0
 10 11  2  0  0  0  0
 10 12  1  0  0  0  0
 12 13  1  0  0  0  0
 12 36  1  0  0  0  0
 13 14  1  0  0  0  0
 13 37  1  0  0  0  0
 13 38  1  0  0  0  0
 14 15  1  0  0  0  0
 14 39  1  0  0  0  0
 14 40  1  0  0  0  0
 15 20  1  0  0  0  0
 15 16  2  0  0  0  0
 16 17  1  0  0  0  0
 16 41  1  0  0  0  0
 17 18  2  0  0  0  0
 17 42  1  0  0  0  0
 18 19  1  0  0  0  0
 18 47  1  0  0  0  0
 19 20  2  0  0  0  0
 19 43  1  0  0  0  0
 20 21  1  0  0  0  0
 21 44  1  0  0  0  0
 21 45  1  0  0  0  0
 21 46  1  0  0  0  0
M  CHG  1  18   1
M  END
> <s_m_source_file>
AV-unprocessed.smi

> <i_m_source_file_index>
2442

> <i_lp_mmshare_version>
43012

> <i_f3d_flags>
0

> <s_epik_input>
W0NIM11PW0NAQEhdMVtDSDJdW0NIMl1bQ0gyXVtDSDJdW0NASF0xW05IXUMoPU8pW05IXVtDSDJdW0NIMl1jMltjSF1bY0hdbltjSF1jMltDSDNd

> <s_epik_cmdline>
J2VwaWtfcHl0aG9uJywgJy1waCcsICc3LjAnLCAnLXRuJywgJzgnLCAnLW1hJywgJzIwMCcsICctbWV0YWxfYmluZGluZycsICctaW1hZScsICc8aW5maWxlLm1hZT4nLCAnLW9tYWUnLCAnPG91dGZpbGUubWFlPic=

> <r_epik_Ionization_Penalty>
1.07145

> <r_epik_Ionization_Penalty_Charging>
1.0714

> <r_epik_Ionization_Penalty_Neutral>
4.9109e-05

> <r_epik_State_Penalty>
1.12601

> <r_epik_Charging_Adjusted_Penalty>
2.19741

> <i_epik_Tot_Q>
1

> <i_epik_Tot_abs_Q>
1

> <r_epik_Metal_State_Penalty>
1.2173

> <b_epik_Metal_Only>
0

> <s_lp_Force_Field>
OPLS_2005

> <r_lp_Energy>
14.6153

> <b_lp_Chiralities_Consistent>
1

> <s_lp_Variant>
AV-unprocessed.smi:2442-8

> <Gold.Version>
5.8.1

> <Gold.Id.Protein>
6NUR|6NUR_protein|mol2

> <Gold.PLP.Fitness>
40.3863

> <Gold.PLP.PLP>
-38.2077

> <Gold.PLP.part.hbond>
-1.0000

> <Gold.PLP.part.metal>
0.0000

> <Gold.PLP.part.buried>
-6.9045

> <Gold.PLP.part.nonpolar>
-30.0479

> <Gold.PLP.part.repulsive>
0.6514

> <Gold.PLP.ligand.clash>
0.0000

> <Gold.PLP.ligand.torsion>
0.4342

> <Gold.PLP.Chemscore.Hbond>
1.0000

> <Gold.PLP.Chemscore.CHOScore>
0.0000

> <Gold.PLP.Chemscore.Metal>
0.0000

> <Gold.Chemscore.Hbonds>
donor molecule, donor type, donor heavy atom, donor atom, acceptor molecule, acceptor atom, score
      P1  H  7997  8008       L1     2  1.00

> <Gold.PLP.Chemscore.Internal.Correction>
0.0470

> <Gold.Rescore>
     Score         DG    S(hbond)    S(metal)    S(lipo)     H(rot)  DE(clash)    DE(int)     intcor
     15.00     -15.51       0.81        0.00     100.21       1.72       0.07       0.43       ----

> <Gold.Chemscore.Fitness>
15.0031

> <Gold.Chemscore.DG>
-15.5076

> <Gold.Chemscore.ZeroCoef>
-5.4800

> <Gold.Chemscore.Hbond>
0.8136

> <Gold.Chemscore.Metal>
0.0000

> <Gold.Chemscore.Lipo>
100.2109

> <Gold.Chemscore.Internal_Hbond>
0.0000

> <Gold.Chemscore.DEClash>
0.0731

> <Gold.Chemscore.DEInternal>
0.4313

> <Gold.Chemscore.Rot>
1.7244

> <Gold.Chemscore.Internal.Correction>
   9.000000E+99

> <Gold.Chemscore.Hbonds>
donor molecule, donor type, donor heavy atom, donor atom, acceptor molecule, acceptor atom, score
      P1  H  7997  8008       L1     2  0.65

> <Gold.Chemscore.Hbond.Weighted>
-2.7174

> <Gold.Chemscore.Metal.Weighted>
-0.0000

> <Gold.Chemscore.Lipo.Weighted>
-11.7247

> <Gold.Chemscore.Internal_Hbond.Weighted>
0.0000

> <Gold.Chemscore.DEClash.Weighted>
0.0731

> <Gold.Chemscore.DEInternal.Weighted>
0.4313

> <Gold.Chemscore.Rot.Weighted>
4.4145

> <Gold.Chemscore.Internal.Correction.Weighted>
   9.000000E+99

> <Gold.Protein.RotatedTorsions>
[ 6907 6896 6895 6894 ] final  -15.64 input  -60.11 | X-H torsion
[ 7974 7965 7964 7962 ] final   39.05 input  175.53 | X-H torsion
[ 8008 7997 7996 7995 ] final -107.60 input   59.86 | X-H torsion
[ 10167 10162 10161 10158 ] final -137.87 input  -65.29 | X-H torsion
[ 10718 10713 10712 10709 ] final  -35.99 input   66.30 | X-H torsion
[ 10763 10752 10751 10750 ] final  -34.08 input  -60.55 | X-H torsion
[ 11005 11000 10999 10996 ] final -163.49 input  -57.11 | X-H torsion

> <Gold.Protein.ActiveResidues>
 VAL166  LYS551  ARG553  GLY616  TRP617  ASP618  TYR619  PRO620  LYS621  CYS622 
 ASP623  PHE694  ASN695  SER759  ASP760  ASP761  ALA762  ILE779  LEU786  VAL792 
 PHE793  MET794  SER795  GLU796  ALA797  LYS798  CYS799  TRP800  GLU811  SER814 

> <Gold.Protein.RotatedAtoms>
  151.3209  135.0818  159.9304 H   0  0  0  0  0  0  0  0  0  0  0  0  # atno 6907 bound_to 6896
  152.5257  133.9640  159.7741 H   0  0  0  0  0  0  0  0  0  0  0  0  # atno 6908 bound_to 6896
  150.9961  133.6049  159.2731 H   0  0  0  0  0  0  0  0  0  0  0  0  # atno 6909 bound_to 6896
  146.1014  139.5698  142.9411 H   0  0  0  0  0  0  0  0  0  0  0  0  # atno 7974 bound_to 7965
  154.9317  140.0405  157.2051 H   0  0  0  0  0  0  0  0  0  0  0  0  # atno 8008 bound_to 7997
  154.8154  140.2875  155.5802 H   0  0  0  0  0  0  0  0  0  0  0  0  # atno 8009 bound_to 7997
  156.2975  140.2529  156.3050 H   0  0  0  0  0  0  0  0  0  0  0  0  # atno 8010 bound_to 7997
  139.8535  143.7168  152.2656 H   0  0  0  0  0  0  0  0  0  0  0  0  # atno 10167 bound_to 10162
  156.3321  130.4281  149.7863 H   0  0  0  0  0  0  0  0  0  0  0  0  # atno 10718 bound_to 10713
  153.8409  135.6857  153.4803 H   0  0  0  0  0  0  0  0  0  0  0  0  # atno 10763 bound_to 10752
  153.1454  135.4640  154.9557 H   0  0  0  0  0  0  0  0  0  0  0  0  # atno 10764 bound_to 10752
  154.7845  135.3280  154.7862 H   0  0  0  0  0  0  0  0  0  0  0  0  # atno 10765 bound_to 10752
  140.5975  134.4981  157.5201 H   0  0  0  0  0  0  0  0  0  0  0  0  # atno 11005 bound_to 11000
  145.5846  141.0378  143.2103 LP  0  0  0  0  0  0  0  0  0  0  0  0  # atno 17320 bound_to 7965
  144.7436  139.7381  143.7301 LP  0  0  0  0  0  0  0  0  0  0  0  0  # atno 17321 bound_to 7965
  139.7442  144.7551  151.0605 LP  0  0  0  0  0  0  0  0  0  0  0  0  # atno 17342 bound_to 10162
  140.7784  143.4936  150.9862 LP  0  0  0  0  0  0  0  0  0  0  0  0  # atno 17343 bound_to 10162
  156.5132  130.8181  151.3176 LP  0  0  0  0  0  0  0  0  0  0  0  0  # atno 17370 bound_to 10713
  157.7432  130.9907  150.2575 LP  0  0  0  0  0  0  0  0  0  0  0  0  # atno 17371 bound_to 10713
  139.9247  134.8080  156.1105 LP  0  0  0  0  0  0  0  0  0  0  0  0  # atno 17394 bound_to 11000
  141.0894  133.6720  156.2507 LP  0  0  0  0  0  0  0  0  0  0  0  0  # atno 17395 bound_to 11000

$$$$
