AV-unprocessed.smi:2007|AV-procd|sdf|8139|dock10
  -GOLD-   2272010373D 1   1.00000     0.00000
 Structure written by MMmdl.
 36 37  0  0  0  0  0  0  0  0  3 V2000
  150.3636  135.1091  154.9478 C   0  0  0  0  0  0  0  0  0  0  0  0
  149.1434  134.7777  155.8172 C   0  0  2  0  0  0  0  0  0  0  0  0
  147.8682  135.4794  155.2968 C   0  0  0  0  0  0  0  0  0  0  0  0
  147.4582  134.9957  153.9544 N   0  3  0  0  0  0  0  0  0  0  0  0
  147.7191  133.5548  153.7369 C   0  0  0  0  0  0  0  0  0  0  0  0
  147.3696  133.1718  152.2884 C   0  0  0  0  0  0  0  0  0  0  0  0
  146.0124  133.5041  152.0178 O   0  0  0  0  0  0  0  0  0  0  0  0
  145.7660  134.8990  152.1560 C   0  0  0  0  0  0  0  0  0  0  0  0
  146.0577  135.3292  153.6028 C   0  0  0  0  0  0  0  0  0  0  0  0
  149.4163  135.1647  157.2029 N   0  0  0  0  0  0  0  0  0  0  0  0
  148.5581  135.1142  158.2330 C   0  0  0  0  0  0  0  0  0  0  0  0
  147.4309  134.6399  158.0759 O   0  0  0  0  0  0  0  0  0  0  0  0
  149.0484  135.6463  159.3736 N   0  5  0  0  0  0  0  0  0  0  0  0
  148.3138  135.6116  160.4972 C   0  0  0  0  0  0  0  0  0  0  0  0
  148.4157  136.5308  161.4647 N   0  0  0  0  0  0  0  0  0  0  0  0
  147.5593  136.2985  162.5426 C   0  0  0  0  0  0  0  0  0  0  0  0
  146.7929  135.1729  162.3946 C   0  0  0  0  0  0  0  0  0  0  0  0
  147.1250  134.3669  160.8880 S   0  0  0  0  0  0  0  0  0  0  0  0
  150.2006  134.8078  153.9127 H   0  0  0  0  0  0  0  0  0  0  0  0
  151.2528  134.5888  155.3055 H   0  0  0  0  0  0  0  0  0  0  0  0
  150.5787  136.1781  154.9536 H   0  0  0  0  0  0  0  0  0  0  0  0
  149.0009  133.6977  155.7626 H   0  0  0  0  0  0  0  0  0  0  0  0
  147.0624  135.2803  156.0052 H   0  0  0  0  0  0  0  0  0  0  0  0
  147.9965  136.5626  155.2803 H   0  0  0  0  0  0  0  0  0  0  0  0
  148.7700  133.3345  153.9281 H   0  0  0  0  0  0  0  0  0  0  0  0
  147.1302  132.9631  154.4395 H   0  0  0  0  0  0  0  0  0  0  0  0
  148.0280  133.6808  151.5823 H   0  0  0  0  0  0  0  0  0  0  0  0
  147.5085  132.1010  152.1388 H   0  0  0  0  0  0  0  0  0  0  0  0
  146.3793  135.4629  151.4509 H   0  0  0  0  0  0  0  0  0  0  0  0
  144.7244  135.1010  151.9059 H   0  0  0  0  0  0  0  0  0  0  0  0
  145.3749  134.8264  154.2893 H   0  0  0  0  0  0  0  0  0  0  0  0
  145.8838  136.3997  153.7076 H   0  0  0  0  0  0  0  0  0  0  0  0
  150.3311  135.5489  157.3915 H   0  0  0  0  0  0  0  0  0  0  0  0
  147.5624  136.9862  163.3752 H   0  0  0  0  0  0  0  0  0  0  0  0
  146.0584  134.7698  163.0755 H   0  0  0  0  0  0  0  0  0  0  0  0
  148.0479  135.4862  153.2955 H   0  0  0  0  0  0  0  0  0  0  0  0
  1  2  1  0  0  0  0
  1 19  1  0  0  0  0
  1 20  1  0  0  0  0
  1 21  1  0  0  0  0
  2  3  1  0  0  0  0
  2 10  1  0  0  0  0
  2 22  1  0  0  0  0
  3  4  1  0  0  0  0
  3 23  1  0  0  0  0
  3 24  1  0  0  0  0
  4  9  1  0  0  0  0
  4  5  1  0  0  0  0
  4 36  1  0  0  0  0
  5  6  1  0  0  0  0
  5 25  1  0  0  0  0
  5 26  1  0  0  0  0
  6  7  1  0  0  0  0
  6 27  1  0  0  0  0
  6 28  1  0  0  0  0
  7  8  1  0  0  0  0
  8  9  1  0  0  0  0
  8 29  1  0  0  0  0
  8 30  1  0  0  0  0
  9 31  1  0  0  0  0
  9 32  1  0  0  0  0
 10 11  1  0  0  0  0
 10 33  1  0  0  0  0
 11 12  2  0  0  0  0
 11 13  1  0  0  0  0
 13 14  1  0  0  0  0
 14 18  1  0  0  0  0
 14 15  2  0  0  0  0
 15 16  1  0  0  0  0
 16 17  2  0  0  0  0
 16 34  1  0  0  0  0
 17 18  1  0  0  0  0
 17 35  1  0  0  0  0
M  CHG  1   4   1
M  CHG  1  13  -1
M  END
> <s_m_source_file>
AV-unprocessed.smi

> <i_m_source_file_index>
2007

> <i_lp_mmshare_version>
43012

> <i_f3d_flags>
0

> <s_epik_input>
W0NIMl0xW0NIMl1PW0NIMl1bQ0gyXU4xW0NIMl1bQ0BASF0oW0NIM10pW05IXUMoPU8pW05IXWMybltjSF1bY0hdczI=

> <s_epik_cmdline>
J2VwaWtfcHl0aG9uJywgJy1waCcsICc3LjAnLCAnLXRuJywgJzgnLCAnLW1hJywgJzIwMCcsICctbWV0YWxfYmluZGluZycsICctaW1hZScsICc8aW5maWxlLm1hZT4nLCAnLW9tYWUnLCAnPG91dGZpbGUubWFlPic=

> <r_lp_tautomer_probability>
0.999

> <r_epik_Ionization_Penalty>
6.49226

> <r_epik_Ionization_Penalty_Charging>
5.74393

> <r_epik_Ionization_Penalty_Neutral>
0.748321

> <r_epik_State_Penalty>
5.94164

> <r_epik_Charging_Adjusted_Penalty>
11.6856

> <i_epik_Tot_Q>
0

> <i_epik_Tot_abs_Q>
2

> <r_epik_Metal_State_Penalty>
1.97606

> <b_epik_Metal_Only>
1

> <s_lp_Force_Field>
OPLS_2005

> <r_lp_Energy>
10.1627

> <b_lp_Chiralities_Consistent>
1

> <s_lp_Variant>
AV-unprocessed.smi:2007-7

> <Gold.Version>
5.8.1

> <Gold.Id.Protein>
6NUR|6NUR_protein|mol2

> <Gold.PLP.Fitness>
41.3558

> <Gold.PLP.PLP>
-27.1192

> <Gold.PLP.part.hbond>
-3.0000

> <Gold.PLP.part.metal>
0.0000

> <Gold.PLP.part.buried>
-3.1906

> <Gold.PLP.part.nonpolar>
-21.5130

> <Gold.PLP.part.repulsive>
0.2176

> <Gold.PLP.ligand.clash>
0.0000

> <Gold.PLP.ligand.torsion>
0.4514

> <Gold.PLP.Chemscore.Hbond>
5.0000

> <Gold.PLP.Chemscore.CHOScore>
0.0000

> <Gold.PLP.Chemscore.Metal>
0.0000

> <Gold.Chemscore.Hbonds>
donor molecule, donor type, donor heavy atom, donor atom, acceptor molecule, acceptor atom, score
      L1  H     4    36       P1  7948  2.00
      P1  H  6896  6907       L1    13  2.00
      P1  H  6931  6943       L1    15  1.00

> <Gold.PLP.Chemscore.Internal.Correction>
0.1394

> <Gold.Rescore>
     Score         DG    S(hbond)    S(metal)    S(lipo)     H(rot)  DE(clash)    DE(int)     intcor
     13.16     -16.17       2.54        0.00      53.94       1.60       0.06       2.95       ----

> <Gold.Chemscore.Fitness>
13.1627

> <Gold.Chemscore.DG>
-16.1681

> <Gold.Chemscore.ZeroCoef>
-5.4800

> <Gold.Chemscore.Hbond>
2.5362

> <Gold.Chemscore.Metal>
0.0000

> <Gold.Chemscore.Lipo>
53.9394

> <Gold.Chemscore.Internal_Hbond>
0.0000

> <Gold.Chemscore.DEClash>
0.0578

> <Gold.Chemscore.DEInternal>
2.9476

> <Gold.Chemscore.Rot>
1.5991

> <Gold.Chemscore.Internal.Correction>
   9.000000E+99

> <Gold.Chemscore.Hbonds>
donor molecule, donor type, donor heavy atom, donor atom, acceptor molecule, acceptor atom, score
      L1  H     4    36       P1  7948  1.00
      P1  H  6896  6907       L1    13  0.49
      P1  H  6931  6943       L1    15  0.26

> <Gold.Chemscore.Hbond.Weighted>
-8.4708

> <Gold.Chemscore.Metal.Weighted>
-0.0000

> <Gold.Chemscore.Lipo.Weighted>
-6.3109

> <Gold.Chemscore.Internal_Hbond.Weighted>
0.0000

> <Gold.Chemscore.DEClash.Weighted>
0.0578

> <Gold.Chemscore.DEInternal.Weighted>
2.9476

> <Gold.Chemscore.Rot.Weighted>
4.0936

> <Gold.Chemscore.Internal.Correction.Weighted>
   9.000000E+99

> <Gold.Protein.RotatedTorsions>
[ 6907 6896 6895 6894 ] final  -46.07 input  -60.11 | X-H torsion
[ 7974 7965 7964 7962 ] final -108.63 input  175.53 | X-H torsion
[ 8008 7997 7996 7995 ] final  -21.39 input   59.86 | X-H torsion
[ 10167 10162 10161 10158 ] final  -34.67 input  -65.29 | X-H torsion
[ 10718 10713 10712 10709 ] final -102.08 input   66.30 | X-H torsion
[ 10763 10752 10751 10750 ] final -129.66 input  -60.55 | X-H torsion
[ 11005 11000 10999 10996 ] final   29.86 input  -57.11 | X-H torsion

> <Gold.Protein.ActiveResidues>
 VAL166  LYS551  ARG553  GLY616  TRP617  ASP618  TYR619  PRO620  LYS621  CYS622 
 ASP623  PHE694  ASN695  SER759  ASP760  ASP761  ALA762  ILE779  LEU786  VAL792 
 PHE793  MET794  SER795  GLU796  ALA797  LYS798  CYS799  TRP800  GLU811  SER814 

> <Gold.Protein.RotatedAtoms>
  150.9151  134.8569  159.7451 H   0  0  0  0  0  0  0  0  0  0  0  0  # atno 6907 bound_to 6896
  152.4964  134.4301  159.9519 H   0  0  0  0  0  0  0  0  0  0  0  0  # atno 6908 bound_to 6896
  151.4339  133.3623  159.2807 H   0  0  0  0  0  0  0  0  0  0  0  0  # atno 6909 bound_to 6896
  145.1906  140.9012  143.3427 H   0  0  0  0  0  0  0  0  0  0  0  0  # atno 7974 bound_to 7965
  154.4708  140.2036  155.9999 H   0  0  0  0  0  0  0  0  0  0  0  0  # atno 8008 bound_to 7997
  156.1008  140.3244  155.7909 H   0  0  0  0  0  0  0  0  0  0  0  0  # atno 8009 bound_to 7997
  155.4801  140.0538  157.2959 H   0  0  0  0  0  0  0  0  0  0  0  0  # atno 8010 bound_to 7997
  140.7181  143.3532  151.2114 H   0  0  0  0  0  0  0  0  0  0  0  0  # atno 10167 bound_to 10162
  156.0216  130.5403  150.7057 H   0  0  0  0  0  0  0  0  0  0  0  0  # atno 10718 bound_to 10713
  154.8757  135.3888  154.3957 H   0  0  0  0  0  0  0  0  0  0  0  0  # atno 10763 bound_to 10752
  153.4687  135.7030  153.6011 H   0  0  0  0  0  0  0  0  0  0  0  0  # atno 10764 bound_to 10752
  153.4478  135.3841  155.2234 H   0  0  0  0  0  0  0  0  0  0  0  0  # atno 10765 bound_to 10752
  140.3005  134.2762  155.7755 H   0  0  0  0  0  0  0  0  0  0  0  0  # atno 11005 bound_to 11000
  145.0045  139.3567  143.6151 LP  0  0  0  0  0  0  0  0  0  0  0  0  # atno 17320 bound_to 7965
  146.3437  139.9282  142.8757 LP  0  0  0  0  0  0  0  0  0  0  0  0  # atno 17321 bound_to 7965
  139.7067  143.9444  152.2930 LP  0  0  0  0  0  0  0  0  0  0  0  0  # atno 17342 bound_to 10162
  139.9155  144.6831  150.8517 LP  0  0  0  0  0  0  0  0  0  0  0  0  # atno 17343 bound_to 10162
  157.4707  131.0893  151.0646 LP  0  0  0  0  0  0  0  0  0  0  0  0  # atno 17370 bound_to 10713
  157.1107  130.6020  149.5481 LP  0  0  0  0  0  0  0  0  0  0  0  0  # atno 17371 bound_to 10713
  141.2129  133.7643  156.9760 LP  0  0  0  0  0  0  0  0  0  0  0  0  # atno 17394 bound_to 11000
  140.1113  134.9475  157.2070 LP  0  0  0  0  0  0  0  0  0  0  0  0  # atno 17395 bound_to 11000

$$$$
