AV-unprocessed.smi:1207|AV-procd|sdf|5060|dock8
  -GOLD-   22720 4103D 1   1.00000     0.00000
 Structure written by MMmdl.
 53 55  0  0  0  0  0  0  0  0  3 V2000
  152.6492  143.5157  160.3501 C   0  0  0  0  0  0  0  0  0  0  0  0
  152.2048  142.6049  159.2183 C   0  0  0  0  0  0  0  0  0  0  0  0
  151.3003  143.1132  158.2591 C   0  0  0  0  0  0  0  0  0  0  0  0
  150.9123  142.2563  157.2361 C   0  0  0  0  0  0  0  0  0  0  0  0
  150.0481  142.4548  156.1576 N   0  3  0  0  0  0  0  0  0  0  0  0
  149.9781  141.3157  155.4148 C   0  0  0  0  0  0  0  0  0  0  0  0
  150.7814  140.3898  156.0060 N   0  0  0  0  0  0  0  0  0  0  0  0
  151.0629  139.0036  155.6054 C   0  0  0  0  0  0  0  0  0  0  0  0
  149.9585  138.3875  154.7210 C   0  0  1  0  0  0  0  0  0  0  0  0
  150.4497  138.3756  153.3954 O   0  0  0  0  0  0  0  0  0  0  0  0
  149.5632  136.9517  155.1369 C   0  0  0  0  0  0  0  0  0  0  0  0
  148.3274  136.4466  154.4749 N   0  3  2  0  0  0  0  0  0  0  0  0
  147.2429  137.4560  154.4163 C   0  0  0  0  0  0  0  0  0  0  0  0
  147.8364  135.1662  155.0490 C   0  0  0  0  0  0  0  0  0  0  0  0
  148.5373  133.9687  154.4592 C   0  0  0  0  0  0  0  0  0  0  0  0
  148.1712  133.2238  153.3011 C   0  0  0  0  0  0  0  0  0  0  0  0
  147.0087  133.4478  152.3769 C   0  0  0  0  0  0  0  0  0  0  0  0
  149.0019  132.2207  153.0767 N   0  0  0  0  0  0  0  0  0  0  0  0
  149.9628  132.2846  154.0906 O   0  0  0  0  0  0  0  0  0  0  0  0
  149.6668  133.3338  154.8983 C   0  0  0  0  0  0  0  0  0  0  0  0
  150.5834  133.5645  156.0518 C   0  0  0  0  0  0  0  0  0  0  0  0
  151.3909  140.9346  157.1442 C   0  0  0  0  0  0  0  0  0  0  0  0
  152.2836  140.4189  158.0820 C   0  0  0  0  0  0  0  0  0  0  0  0
  152.6893  141.2743  159.1311 C   0  0  0  0  0  0  0  0  0  0  0  0
  153.6602  140.7367  160.1688 C   0  0  0  0  0  0  0  0  0  0  0  0
  152.2339  144.5182  160.2419 H   0  0  0  0  0  0  0  0  0  0  0  0
  153.7354  143.6065  160.3668 H   0  0  0  0  0  0  0  0  0  0  0  0
  152.3193  143.1195  161.3108 H   0  0  0  0  0  0  0  0  0  0  0  0
  150.9273  144.1254  158.3194 H   0  0  0  0  0  0  0  0  0  0  0  0
  149.3913  141.1735  154.5184 H   0  0  0  0  0  0  0  0  0  0  0  0
  152.0102  139.0118  155.0643 H   0  0  0  0  0  0  0  0  0  0  0  0
  151.2332  138.4012  156.4976 H   0  0  0  0  0  0  0  0  0  0  0  0
  149.0916  139.0464  154.7611 H   0  0  0  0  0  0  0  0  0  0  0  0
  150.0835  139.1075  152.9236 H   0  0  0  0  0  0  0  0  0  0  0  0
  150.4052  136.3028  154.8996 H   0  0  0  0  0  0  0  0  0  0  0  0
  149.4246  136.8893  156.2169 H   0  0  0  0  0  0  0  0  0  0  0  0
  146.9564  137.7802  155.4176 H   0  0  0  0  0  0  0  0  0  0  0  0
  146.3585  137.0464  153.9273 H   0  0  0  0  0  0  0  0  0  0  0  0
  147.5387  138.3327  153.8420 H   0  0  0  0  0  0  0  0  0  0  0  0
  147.9511  135.1985  156.1333 H   0  0  0  0  0  0  0  0  0  0  0  0
  146.7640  135.0844  154.8678 H   0  0  0  0  0  0  0  0  0  0  0  0
  146.0655  133.4215  152.9217 H   0  0  0  0  0  0  0  0  0  0  0  0
  146.9614  132.6897  151.5945 H   0  0  0  0  0  0  0  0  0  0  0  0
  147.0820  134.4196  151.8893 H   0  0  0  0  0  0  0  0  0  0  0  0
  150.2938  134.4530  156.6128 H   0  0  0  0  0  0  0  0  0  0  0  0
  151.6089  133.7025  155.7087 H   0  0  0  0  0  0  0  0  0  0  0  0
  150.5664  132.7143  156.7335 H   0  0  0  0  0  0  0  0  0  0  0  0
  152.6559  139.4070  158.0221 H   0  0  0  0  0  0  0  0  0  0  0  0
  153.8771  139.6807  160.0038 H   0  0  0  0  0  0  0  0  0  0  0  0
  153.2455  140.8364  161.1720 H   0  0  0  0  0  0  0  0  0  0  0  0
  154.6032  141.2823  160.1283 H   0  0  0  0  0  0  0  0  0  0  0  0
  148.5795  136.2403  153.5189 H   0  0  0  0  0  0  0  0  0  0  0  0
  149.5454  143.3059  155.9395 H   0  0  0  0  0  0  0  0  0  0  0  0
  1  2  1  0  0  0  0
  1 26  1  0  0  0  0
  1 27  1  0  0  0  0
  1 28  1  0  0  0  0
  2 24  1  0  0  0  0
  2  3  2  0  0  0  0
  3  4  1  0  0  0  0
  3 29  1  0  0  0  0
  4 22  2  0  0  0  0
  4  5  1  0  0  0  0
  5  6  2  0  0  0  0
  5 53  1  0  0  0  0
  6  7  1  0  0  0  0
  6 30  1  0  0  0  0
  7  8  1  0  0  0  0
  7 22  1  0  0  0  0
  8  9  1  0  0  0  0
  8 31  1  0  0  0  0
  8 32  1  0  0  0  0
  9 10  1  0  0  0  0
  9 11  1  0  0  0  0
  9 33  1  0  0  0  0
 10 34  1  0  0  0  0
 11 12  1  0  0  0  0
 11 35  1  0  0  0  0
 11 36  1  0  0  0  0
 12 13  1  0  0  0  0
 12 14  1  0  0  0  0
 12 52  1  0  0  0  0
 13 37  1  0  0  0  0
 13 38  1  0  0  0  0
 13 39  1  0  0  0  0
 14 15  1  0  0  0  0
 14 40  1  0  0  0  0
 14 41  1  0  0  0  0
 15 20  2  0  0  0  0
 15 16  1  0  0  0  0
 16 17  1  0  0  0  0
 16 18  2  0  0  0  0
 17 42  1  0  0  0  0
 17 43  1  0  0  0  0
 17 44  1  0  0  0  0
 18 19  1  0  0  0  0
 19 20  1  0  0  0  0
 20 21  1  0  0  0  0
 21 45  1  0  0  0  0
 21 46  1  0  0  0  0
 21 47  1  0  0  0  0
 22 23  1  0  0  0  0
 23 24  2  0  0  0  0
 23 48  1  0  0  0  0
 24 25  1  0  0  0  0
 25 49  1  0  0  0  0
 25 50  1  0  0  0  0
 25 51  1  0  0  0  0
M  CHG  1   5   1
M  CHG  1  12   1
M  END
> <s_m_source_file>
AV-unprocessed.smi

> <i_m_source_file_index>
1207

> <i_lp_mmshare_version>
43012

> <i_f3d_flags>
0

> <s_epik_input>
W0NIM11jKFtjSF0xKWMoW0NIM10pW2NIXWMoYzEyKW4oW2NIXW4yKVtDSDJdW0NASF0oW09IXSlbQ0gyXU4oW0NIM10pW0NIMl1jM2MoW0NIM10pbm9jM1tDSDNd

> <s_epik_cmdline>
J2VwaWtfcHl0aG9uJywgJy1waCcsICc3LjAnLCAnLXRuJywgJzgnLCAnLW1hJywgJzIwMCcsICctbWV0YWxfYmluZGluZycsICctaW1hZScsICc8aW5maWxlLm1hZT4nLCAnLW9tYWUnLCAnPG91dGZpbGUubWFlPic=

> <r_epik_Ionization_Penalty>
1.77463

> <r_epik_Ionization_Penalty_Charging>
1.77463

> <r_epik_Ionization_Penalty_Neutral>
3.70885e-06

> <r_epik_State_Penalty>
1.85225

> <r_epik_Charging_Adjusted_Penalty>
3.62688

> <i_epik_Tot_Q>
2

> <i_epik_Tot_abs_Q>
2

> <r_epik_Metal_State_Penalty>
1.92674

> <b_epik_Metal_Only>
0

> <s_lp_Force_Field>
OPLS_2005

> <r_lp_Energy>
19.6609

> <b_lp_Chiralities_Consistent>
1

> <s_lp_Variant>
AV-unprocessed.smi:1207-12

> <Gold.Version>
5.8.1

> <Gold.Id.Protein>
6NUR|6NUR_protein|mol2

> <Gold.PLP.Fitness>
57.0028

> <Gold.PLP.PLP>
-45.4853

> <Gold.PLP.part.hbond>
-4.7305

> <Gold.PLP.part.metal>
0.0000

> <Gold.PLP.part.buried>
-3.2643

> <Gold.PLP.part.nonpolar>
-37.2747

> <Gold.PLP.part.repulsive>
0.3607

> <Gold.PLP.ligand.clash>
0.0000

> <Gold.PLP.ligand.torsion>
1.8342

> <Gold.PLP.Chemscore.Hbond>
5.0000

> <Gold.PLP.Chemscore.CHOScore>
0.0000

> <Gold.PLP.Chemscore.Metal>
0.0000

> <Gold.Chemscore.Hbonds>
donor molecule, donor type, donor heavy atom, donor atom, acceptor molecule, acceptor atom, score
      L1  H     5    53       P1  8028  2.00
      L1  H    10    34       P1  7957  0.98
      L1  H    12    52       P1  7948  2.00

> <Gold.PLP.Chemscore.Internal.Correction>
0.1859

> <Gold.Rescore>
     Score         DG    S(hbond)    S(metal)    S(lipo)     H(rot)  DE(clash)    DE(int)     intcor
     19.73     -22.33       2.75        0.00     121.04       2.54       0.94       1.66       ----

> <Gold.Chemscore.Fitness>
19.7279

> <Gold.Chemscore.DG>
-22.3292

> <Gold.Chemscore.ZeroCoef>
-5.4800

> <Gold.Chemscore.Hbond>
2.7477

> <Gold.Chemscore.Metal>
0.0000

> <Gold.Chemscore.Lipo>
121.0414

> <Gold.Chemscore.Internal_Hbond>
0.0000

> <Gold.Chemscore.DEClash>
0.9449

> <Gold.Chemscore.DEInternal>
1.6564

> <Gold.Chemscore.Rot>
2.5351

> <Gold.Chemscore.Internal.Correction>
   9.000000E+99

> <Gold.Chemscore.Hbonds>
donor molecule, donor type, donor heavy atom, donor atom, acceptor molecule, acceptor atom, score
      L1  H     5    53       P1  8028  0.98
      L1  H    10    34       P1  7957  0.74
      L1  H    12    52       P1  7948  1.00

> <Gold.Chemscore.Hbond.Weighted>
-9.1773

> <Gold.Chemscore.Metal.Weighted>
-0.0000

> <Gold.Chemscore.Lipo.Weighted>
-14.1618

> <Gold.Chemscore.Internal_Hbond.Weighted>
0.0000

> <Gold.Chemscore.DEClash.Weighted>
0.9449

> <Gold.Chemscore.DEInternal.Weighted>
1.6564

> <Gold.Chemscore.Rot.Weighted>
6.4900

> <Gold.Chemscore.Internal.Correction.Weighted>
   9.000000E+99

> <Gold.Protein.RotatedTorsions>
[ 6907 6896 6895 6894 ] final  -26.55 input  -60.11 | X-H torsion
[ 7974 7965 7964 7962 ] final   -6.82 input  175.53 | X-H torsion
[ 8008 7997 7996 7995 ] final  129.33 input   59.86 | X-H torsion
[ 10167 10162 10161 10158 ] final   52.36 input  -65.29 | X-H torsion
[ 10718 10713 10712 10709 ] final   73.75 input   66.30 | X-H torsion
[ 10763 10752 10751 10750 ] final  140.66 input  -60.55 | X-H torsion
[ 11005 11000 10999 10996 ] final  -40.53 input  -57.11 | X-H torsion

> <Gold.Protein.ActiveResidues>
 VAL166  LYS551  ARG553  GLY616  TRP617  ASP618  TYR619  PRO620  LYS621  CYS622 
 ASP623  PHE694  ASN695  SER759  ASP760  ASP761  ALA762  ILE779  LEU786  VAL792 
 PHE793  MET794  SER795  GLU796  ALA797  LYS798  CYS799  TRP800  GLU811  SER814 

> <Gold.Protein.RotatedAtoms>
  151.1594  135.0266  159.8703 H   0  0  0  0  0  0  0  0  0  0  0  0  # atno 6907 bound_to 6896
  152.5452  134.1297  159.8444 H   0  0  0  0  0  0  0  0  0  0  0  0  # atno 6908 bound_to 6896
  151.1391  133.4938  159.2630 H   0  0  0  0  0  0  0  0  0  0  0  0  # atno 6909 bound_to 6896
  146.2322  140.2228  142.8338 H   0  0  0  0  0  0  0  0  0  0  0  0  # atno 7974 bound_to 7965
  156.2934  140.2623  156.2581 H   0  0  0  0  0  0  0  0  0  0  0  0  # atno 8008 bound_to 7997
  154.9816  140.0389  157.2298 H   0  0  0  0  0  0  0  0  0  0  0  0  # atno 8009 bound_to 7997
  154.7767  140.2788  155.6100 H   0  0  0  0  0  0  0  0  0  0  0  0  # atno 8010 bound_to 7997
  140.2522  144.3466  150.6344 H   0  0  0  0  0  0  0  0  0  0  0  0  # atno 10167 bound_to 10162
  157.6562  130.9644  150.1113 H   0  0  0  0  0  0  0  0  0  0  0  0  # atno 10718 bound_to 10713
  153.9264  135.2995  155.3446 H   0  0  0  0  0  0  0  0  0  0  0  0  # atno 10763 bound_to 10752
  154.7549  135.4962  153.9359 H   0  0  0  0  0  0  0  0  0  0  0  0  # atno 10764 bound_to 10752
  153.1114  135.6760  153.9597 H   0  0  0  0  0  0  0  0  0  0  0  0  # atno 10765 bound_to 10752
  141.0181  133.6875  156.2334 H   0  0  0  0  0  0  0  0  0  0  0  0  # atno 11005 bound_to 11000
  144.9619  140.8283  143.5508 LP  0  0  0  0  0  0  0  0  0  0  0  0  # atno 17320 bound_to 7965
  145.2199  139.2164  143.5098 LP  0  0  0  0  0  0  0  0  0  0  0  0  # atno 17321 bound_to 7965
  140.6032  143.2167  151.7032 LP  0  0  0  0  0  0  0  0  0  0  0  0  # atno 17342 bound_to 10162
  139.5043  144.3760  152.0423 LP  0  0  0  0  0  0  0  0  0  0  0  0  # atno 17343 bound_to 10162
  156.2009  130.3660  149.8790 LP  0  0  0  0  0  0  0  0  0  0  0  0  # atno 17370 bound_to 10713
  156.6694  130.8814  151.3560 LP  0  0  0  0  0  0  0  0  0  0  0  0  # atno 17371 bound_to 10713
  140.6620  134.4958  157.5584 LP  0  0  0  0  0  0  0  0  0  0  0  0  # atno 17394 bound_to 11000
  139.9129  134.8306  156.1465 LP  0  0  0  0  0  0  0  0  0  0  0  0  # atno 17395 bound_to 11000

$$$$
