AV-unprocessed.smi:2273|AV-procd|sdf|9166|dock7
  -GOLD-   2272012383D 1   1.00000     0.00000
 Structure written by MMmdl.
 53 54  0  0  0  0  0  0  0  0  1 V2000
  153.4032  141.5075  161.8075 C   0  0  0  0  0  0  0  0  0  0  0  0
  153.1645  140.6353  160.5675 C   0  0  0  0  0  0  0  0  0  0  0  0
  152.8392  141.3884  159.2481 C   0  0  0  0  0  0  0  0  0  0  0  0
  152.1148  142.7248  159.5631 C   0  0  0  0  0  0  0  0  0  0  0  0
  152.0181  143.7083  158.3864 C   0  0  0  0  0  0  0  0  0  0  0  0
  152.0224  140.5050  158.2562 C   0  0  2  0  0  0  0  0  0  0  0  0
  150.8132  139.8067  158.9205 C   0  0  0  0  0  0  0  0  0  0  0  0
  150.0149  138.9931  157.8858 C   0  0  2  0  0  0  0  0  0  0  0  0
  148.9098  138.2662  158.5145 N   0  0  0  0  0  0  0  0  0  0  0  0
  148.9587  137.1013  159.1864 C   0  0  0  0  0  0  0  0  0  0  0  0
  150.0147  136.4875  159.3319 O   0  0  0  0  0  0  0  0  0  0  0  0
  147.7653  136.6805  159.6525 N   0  0  0  0  0  0  0  0  0  0  0  0
  147.5100  135.5052  160.3746 C   0  0  0  0  0  0  0  0  0  0  0  0
  146.9652  135.6065  161.6154 C   0  0  0  0  0  0  0  0  0  0  0  0
  146.5926  136.9520  162.2182 C   0  0  0  0  0  0  0  0  0  0  0  0
  146.7158  134.3995  162.3756 C   0  0  0  0  0  0  0  0  0  0  0  0
  147.0380  133.2108  161.8487 C   0  0  0  0  0  0  0  0  0  0  0  0
  147.6287  133.1023  160.5816 N   0  0  0  0  0  0  0  0  0  0  0  0
  147.9626  131.7588  160.1014 C   0  0  0  0  0  0  0  0  0  0  0  0
  147.9241  134.1937  159.8187 C   0  0  0  0  0  0  0  0  0  0  0  0
  148.5194  134.0703  158.7458 O   0  0  0  0  0  0  0  0  0  0  0  0
  150.9633  138.0061  157.1934 C   0  0  0  0  0  0  0  0  0  0  0  0
  152.1988  138.7405  156.6515 C   0  0  0  0  0  0  0  0  0  0  0  0
  152.8312  139.4659  157.7016 O   0  0  0  0  0  0  0  0  0  0  0  0
  153.4810  140.8872  162.7009 H   0  0  0  0  0  0  0  0  0  0  0  0
  152.5825  142.2076  161.9652 H   0  0  0  0  0  0  0  0  0  0  0  0
  154.3330  142.0705  161.7301 H   0  0  0  0  0  0  0  0  0  0  0  0
  154.0319  139.9914  160.4168 H   0  0  0  0  0  0  0  0  0  0  0  0
  152.3394  139.9695  160.8159 H   0  0  0  0  0  0  0  0  0  0  0  0
  153.7811  141.6528  158.7654 H   0  0  0  0  0  0  0  0  0  0  0  0
  151.0890  142.5202  159.8700 H   0  0  0  0  0  0  0  0  0  0  0  0
  152.5930  143.2170  160.4110 H   0  0  0  0  0  0  0  0  0  0  0  0
  151.3672  144.5446  158.6419 H   0  0  0  0  0  0  0  0  0  0  0  0
  151.6029  143.2262  157.5007 H   0  0  0  0  0  0  0  0  0  0  0  0
  152.9879  144.1295  158.1235 H   0  0  0  0  0  0  0  0  0  0  0  0
  151.6831  141.1368  157.4331 H   0  0  0  0  0  0  0  0  0  0  0  0
  151.1688  139.1443  159.7113 H   0  0  0  0  0  0  0  0  0  0  0  0
  150.1606  140.5251  159.4085 H   0  0  0  0  0  0  0  0  0  0  0  0
  149.6163  139.6675  157.1252 H   0  0  0  0  0  0  0  0  0  0  0  0
  148.0008  138.6995  158.4360 H   0  0  0  0  0  0  0  0  0  0  0  0
  146.9514  137.2046  159.3670 H   0  0  0  0  0  0  0  0  0  0  0  0
  146.1354  136.8320  163.2006 H   0  0  0  0  0  0  0  0  0  0  0  0
  145.8806  137.4750  161.5788 H   0  0  0  0  0  0  0  0  0  0  0  0
  147.4788  137.5768  162.3339 H   0  0  0  0  0  0  0  0  0  0  0  0
  146.2658  134.4507  163.3563 H   0  0  0  0  0  0  0  0  0  0  0  0
  146.8731  132.2769  162.3662 H   0  0  0  0  0  0  0  0  0  0  0  0
  147.5073  131.5737  159.1272 H   0  0  0  0  0  0  0  0  0  0  0  0
  147.6157  130.9730  160.7731 H   0  0  0  0  0  0  0  0  0  0  0  0
  149.0429  131.6479  159.9985 H   0  0  0  0  0  0  0  0  0  0  0  0
  151.2842  137.2410  157.9021 H   0  0  0  0  0  0  0  0  0  0  0  0
  150.4499  137.4870  156.3833 H   0  0  0  0  0  0  0  0  0  0  0  0
  152.9098  138.0229  156.2422 H   0  0  0  0  0  0  0  0  0  0  0  0
  151.9266  139.4163  155.8394 H   0  0  0  0  0  0  0  0  0  0  0  0
  1  2  1  0  0  0  0
  1 25  1  0  0  0  0
  1 26  1  0  0  0  0
  1 27  1  0  0  0  0
  2  3  1  0  0  0  0
  2 28  1  0  0  0  0
  2 29  1  0  0  0  0
  3  4  1  0  0  0  0
  3  6  1  0  0  0  0
  3 30  1  0  0  0  0
  4  5  1  0  0  0  0
  4 31  1  0  0  0  0
  4 32  1  0  0  0  0
  5 33  1  0  0  0  0
  5 34  1  0  0  0  0
  5 35  1  0  0  0  0
  6 24  1  0  0  0  0
  6  7  1  0  0  0  0
  6 36  1  0  0  0  0
  7  8  1  0  0  0  0
  7 37  1  0  0  0  0
  7 38  1  0  0  0  0
  8  9  1  0  0  0  0
  8 22  1  0  0  0  0
  8 39  1  0  0  0  0
  9 10  1  0  0  0  0
  9 40  1  0  0  0  0
 10 11  2  0  0  0  0
 10 12  1  0  0  0  0
 12 13  1  0  0  0  0
 12 41  1  0  0  0  0
 13 20  1  0  0  0  0
 13 14  2  0  0  0  0
 14 15  1  0  0  0  0
 14 16  1  0  0  0  0
 15 42  1  0  0  0  0
 15 43  1  0  0  0  0
 15 44  1  0  0  0  0
 16 17  2  0  0  0  0
 16 45  1  0  0  0  0
 17 18  1  0  0  0  0
 17 46  1  0  0  0  0
 18 19  1  0  0  0  0
 18 20  1  0  0  0  0
 19 47  1  0  0  0  0
 19 48  1  0  0  0  0
 19 49  1  0  0  0  0
 20 21  2  0  0  0  0
 22 23  1  0  0  0  0
 22 50  1  0  0  0  0
 22 51  1  0  0  0  0
 23 24  1  0  0  0  0
 23 52  1  0  0  0  0
 23 53  1  0  0  0  0
M  END
> <s_m_source_file>
AV-unprocessed.smi

> <i_m_source_file_index>
2273

> <i_lp_mmshare_version>
43012

> <i_f3d_flags>
0

> <s_epik_input>
W0NIM11bQ0gyXVtDSF0oW0NIMl1bQ0gzXSlbQ0BASF0xW0NIMl1bQ0BIXShbQ0gyXVtDSDJdTzEpW05IXUMoPU8pW05IXWMyYyhbQ0gzXSlbY0hdW2NIXW4oW0NIM10pYzI9Tw==

> <s_epik_cmdline>
J2VwaWtfcHl0aG9uJywgJy1waCcsICc3LjAnLCAnLXRuJywgJzgnLCAnLW1hJywgJzIwMCcsICctbWV0YWxfYmluZGluZycsICctaW1hZScsICc8aW5maWxlLm1hZT4nLCAnLW9tYWUnLCAnPG91dGZpbGUubWFlPic=

> <r_lp_tautomer_probability>
1

> <r_epik_Ionization_Penalty>
2.66245e-05

> <r_epik_Ionization_Penalty_Charging>
6.91055e-06

> <r_epik_Ionization_Penalty_Neutral>
1.97139e-05

> <r_epik_State_Penalty>
-0

> <r_epik_Charging_Adjusted_Penalty>
6.91055e-06

> <i_epik_Tot_Q>
0

> <i_epik_Tot_abs_Q>
0

> <r_epik_Metal_State_Penalty>
-0

> <b_epik_Metal_Only>
0

> <s_lp_Force_Field>
OPLS_2005

> <r_lp_Energy>
42.9176

> <b_lp_Chiralities_Consistent>
1

> <s_lp_Variant>
AV-unprocessed.smi:2273-3

> <Gold.Version>
5.8.1

> <Gold.Id.Protein>
6NUR|6NUR_protein|mol2

> <Gold.PLP.Fitness>
50.1330

> <Gold.PLP.PLP>
-46.3716

> <Gold.PLP.part.hbond>
-3.0000

> <Gold.PLP.part.metal>
0.0000

> <Gold.PLP.part.buried>
-3.6824

> <Gold.PLP.part.nonpolar>
-40.5493

> <Gold.PLP.part.repulsive>
0.4015

> <Gold.PLP.ligand.clash>
0.0000

> <Gold.PLP.ligand.torsion>
1.3866

> <Gold.PLP.Chemscore.Hbond>
2.0000

> <Gold.PLP.Chemscore.CHOScore>
0.0000

> <Gold.PLP.Chemscore.Metal>
0.0000

> <Gold.Chemscore.Hbonds>
donor molecule, donor type, donor heavy atom, donor atom, acceptor molecule, acceptor atom, score
      P1  H  6896  6908       L1    11  1.00
      P1  H  7997  8008       L1    24  1.00

> <Gold.PLP.Chemscore.Internal.Correction>
0.5346

> <Gold.Rescore>
     Score         DG    S(hbond)    S(metal)    S(lipo)     H(rot)  DE(clash)    DE(int)     intcor
     19.28     -22.05       1.83        0.00     120.43       1.42       0.04       2.73       ----

> <Gold.Chemscore.Fitness>
19.2814

> <Gold.Chemscore.DG>
-22.0509

> <Gold.Chemscore.ZeroCoef>
-5.4800

> <Gold.Chemscore.Hbond>
1.8338

> <Gold.Chemscore.Metal>
0.0000

> <Gold.Chemscore.Lipo>
120.4329

> <Gold.Chemscore.Internal_Hbond>
0.0000

> <Gold.Chemscore.DEClash>
0.0354

> <Gold.Chemscore.DEInternal>
2.7341

> <Gold.Chemscore.Rot>
1.4236

> <Gold.Chemscore.Internal.Correction>
   9.000000E+99

> <Gold.Chemscore.Hbonds>
donor molecule, donor type, donor heavy atom, donor atom, acceptor molecule, acceptor atom, score
      P1  H  6896  6908       L1    11  1.00
      P1  H  7997  8008       L1    24  0.27

> <Gold.Chemscore.Hbond.Weighted>
-6.1247

> <Gold.Chemscore.Metal.Weighted>
-0.0000

> <Gold.Chemscore.Lipo.Weighted>
-14.0906

> <Gold.Chemscore.Internal_Hbond.Weighted>
0.0000

> <Gold.Chemscore.DEClash.Weighted>
0.0354

> <Gold.Chemscore.DEInternal.Weighted>
2.7341

> <Gold.Chemscore.Rot.Weighted>
3.6445

> <Gold.Chemscore.Internal.Correction.Weighted>
   9.000000E+99

> <Gold.Protein.RotatedTorsions>
[ 6907 6896 6895 6894 ] final -163.43 input  -60.11 | X-H torsion
[ 7974 7965 7964 7962 ] final  166.47 input  175.53 | X-H torsion
[ 8008 7997 7996 7995 ] final  -70.65 input   59.86 | X-H torsion
[ 10167 10162 10161 10158 ] final -164.43 input  -65.29 | X-H torsion
[ 10718 10713 10712 10709 ] final  149.19 input   66.30 | X-H torsion
[ 10763 10752 10751 10750 ] final  -50.02 input  -60.55 | X-H torsion
[ 11005 11000 10999 10996 ] final -178.33 input  -57.11 | X-H torsion

> <Gold.Protein.ActiveResidues>
 VAL166  LYS551  ARG553  GLY616  TRP617  ASP618  TYR619  PRO620  LYS621  CYS622 
 ASP623  PHE694  ASN695  SER759  ASP760  ASP761  ALA762  ILE779  LEU786  VAL792 
 PHE793  MET794  SER795  GLU796  ALA797  LYS798  CYS799  TRP800  GLU811  SER814 

> <Gold.Protein.RotatedAtoms>
  151.3959  133.3773  159.2726 H   0  0  0  0  0  0  0  0  0  0  0  0  # atno 6907 bound_to 6896
  150.9469  134.8875  159.7658 H   0  0  0  0  0  0  0  0  0  0  0  0  # atno 6908 bound_to 6896
  152.5095  134.3913  159.9437 H   0  0  0  0  0  0  0  0  0  0  0  0  # atno 6909 bound_to 6896
  144.7461  139.8620  143.6381 H   0  0  0  0  0  0  0  0  0  0  0  0  # atno 7974 bound_to 7965
  154.5028  140.0830  156.7832 H   0  0  0  0  0  0  0  0  0  0  0  0  # atno 8008 bound_to 7997
  155.3964  140.3435  155.4236 H   0  0  0  0  0  0  0  0  0  0  0  0  # atno 8009 bound_to 7997
  156.1477  140.1549  156.8807 H   0  0  0  0  0  0  0  0  0  0  0  0  # atno 8010 bound_to 7997
  139.6251  144.0548  152.1967 H   0  0  0  0  0  0  0  0  0  0  0  0  # atno 10167 bound_to 10162
  157.2992  131.0867  151.1403 H   0  0  0  0  0  0  0  0  0  0  0  0  # atno 10718 bound_to 10713
  154.1035  135.6560  153.4872 H   0  0  0  0  0  0  0  0  0  0  0  0  # atno 10763 bound_to 10752
  153.0280  135.5231  154.7262 H   0  0  0  0  0  0  0  0  0  0  0  0  # atno 10764 bound_to 10752
  154.6422  135.2990  155.0059 H   0  0  0  0  0  0  0  0  0  0  0  0  # atno 10765 bound_to 10752
  140.4310  134.6519  157.4711 H   0  0  0  0  0  0  0  0  0  0  0  0  # atno 11005 bound_to 11000
  146.1342  139.4383  143.0150 LP  0  0  0  0  0  0  0  0  0  0  0  0  # atno 17320 bound_to 7965
  145.7117  141.0104  143.1449 LP  0  0  0  0  0  0  0  0  0  0  0  0  # atno 17321 bound_to 7965
  140.0199  144.6161  150.7575 LP  0  0  0  0  0  0  0  0  0  0  0  0  # atno 17342 bound_to 10162
  140.7406  143.2807  151.3608 LP  0  0  0  0  0  0  0  0  0  0  0  0  # atno 17343 bound_to 10162
  157.2769  130.6731  149.6047 LP  0  0  0  0  0  0  0  0  0  0  0  0  # atno 17370 bound_to 10713
  155.9670  130.4462  150.5530 LP  0  0  0  0  0  0  0  0  0  0  0  0  # atno 17371 bound_to 10713
  140.0134  134.6655  155.9346 LP  0  0  0  0  0  0  0  0  0  0  0  0  # atno 17394 bound_to 11000
  141.1745  133.6539  156.4778 LP  0  0  0  0  0  0  0  0  0  0  0  0  # atno 17395 bound_to 11000

$$$$
