AV-unprocessed.smi:3253|AV-procd|sdf|12450|dock4
  -GOLD-   2272018343D 1   1.00000     0.00000
 Structure written by MMmdl.
 36 37  0  0  0  0  0  0  0  0  1 V2000
  148.6473  141.1706  157.6604 C   0  0  0  0  0  0  0  0  0  0  0  0
  149.9895  141.0764  156.9223 C   0  0  1  0  0  0  0  0  0  0  0  0
  149.9125  141.7362  155.5288 C   0  0  0  0  0  0  0  0  0  0  0  0
  148.8317  141.2069  154.7167 N   0  0  0  0  0  0  0  0  0  0  0  0
  147.7140  141.8917  154.2572 C   0  0  0  0  0  0  0  0  0  0  0  0
  146.9765  140.9918  153.5218 C   0  0  0  0  0  0  0  0  0  0  0  0
  147.6132  139.7530  153.5220 N   0  0  0  0  0  0  0  0  0  0  0  0
  148.7029  139.9572  154.2507 C   0  0  0  0  0  0  0  0  0  0  0  0
  151.0260  141.7081  157.7379 N   0  0  0  0  0  0  0  0  0  0  0  0
  152.2293  141.1832  158.0196 C   0  0  0  0  0  0  0  0  0  0  0  0
  152.5858  140.0657  157.6449 O   0  0  0  0  0  0  0  0  0  0  0  0
  153.1863  142.0667  158.8337 C   0  0  2  0  0  0  0  0  0  0  0  0
  153.1697  141.6771  160.3260 C   0  0  0  0  0  0  0  0  0  0  0  0
  152.5385  142.8765  161.0126 C   0  0  0  0  0  0  0  0  0  0  0  0
  152.2674  142.8935  162.2122 O   0  0  0  0  0  0  0  0  0  0  0  0
  152.3247  143.8674  160.1427 N   0  0  0  0  0  0  0  0  0  0  0  0
  151.7227  145.1574  160.4509 C   0  0  0  0  0  0  0  0  0  0  0  0
  152.7887  143.5589  158.8010 C   0  0  0  0  0  0  0  0  0  0  0  0
  147.8532  140.6838  157.0936 H   0  0  0  0  0  0  0  0  0  0  0  0
  148.3527  142.2084  157.8211 H   0  0  0  0  0  0  0  0  0  0  0  0
  148.7002  140.6839  158.6349 H   0  0  0  0  0  0  0  0  0  0  0  0
  150.2114  140.0151  156.7951 H   0  0  0  0  0  0  0  0  0  0  0  0
  149.7567  142.8109  155.6308 H   0  0  0  0  0  0  0  0  0  0  0  0
  150.8526  141.6073  154.9903 H   0  0  0  0  0  0  0  0  0  0  0  0
  147.5448  142.9351  154.4780 H   0  0  0  0  0  0  0  0  0  0  0  0
  146.0442  141.1390  152.9968 H   0  0  0  0  0  0  0  0  0  0  0  0
  149.4286  139.1808  154.4445 H   0  0  0  0  0  0  0  0  0  0  0  0
  150.8224  142.6317  158.0915 H   0  0  0  0  0  0  0  0  0  0  0  0
  154.1966  141.9553  158.4363 H   0  0  0  0  0  0  0  0  0  0  0  0
  152.5969  140.7725  160.5382 H   0  0  0  0  0  0  0  0  0  0  0  0
  154.1812  141.5307  160.7058 H   0  0  0  0  0  0  0  0  0  0  0  0
  152.2212  145.6230  161.3019 H   0  0  0  0  0  0  0  0  0  0  0  0
  150.6671  145.0346  160.6948 H   0  0  0  0  0  0  0  0  0  0  0  0
  151.7984  145.8382  159.6026 H   0  0  0  0  0  0  0  0  0  0  0  0
  153.6509  144.1839  158.5646 H   0  0  0  0  0  0  0  0  0  0  0  0
  152.0111  143.7802  158.0674 H   0  0  0  0  0  0  0  0  0  0  0  0
  1  2  1  0  0  0  0
  1 19  1  0  0  0  0
  1 20  1  0  0  0  0
  1 21  1  0  0  0  0
  2  3  1  0  0  0  0
  2  9  1  0  0  0  0
  2 22  1  0  0  0  0
  3  4  1  0  0  0  0
  3 23  1  0  0  0  0
  3 24  1  0  0  0  0
  4  8  1  0  0  0  0
  4  5  1  0  0  0  0
  5  6  2  0  0  0  0
  5 25  1  0  0  0  0
  6  7  1  0  0  0  0
  6 26  1  0  0  0  0
  7  8  2  0  0  0  0
  8 27  1  0  0  0  0
  9 10  1  0  0  0  0
  9 28  1  0  0  0  0
 10 11  2  0  0  0  0
 10 12  1  0  0  0  0
 12 18  1  0  0  0  0
 12 13  1  0  0  0  0
 12 29  1  0  0  0  0
 13 14  1  0  0  0  0
 13 30  1  0  0  0  0
 13 31  1  0  0  0  0
 14 15  2  0  0  0  0
 14 16  1  0  0  0  0
 16 17  1  0  0  0  0
 16 18  1  0  0  0  0
 17 32  1  0  0  0  0
 17 33  1  0  0  0  0
 17 34  1  0  0  0  0
 18 35  1  0  0  0  0
 18 36  1  0  0  0  0
M  END
> <s_m_source_file>
AV-unprocessed.smi

> <i_m_source_file_index>
3253

> <i_lp_mmshare_version>
43012

> <i_f3d_flags>
0

> <s_epik_input>
W2NIXTFuW2NIXVtjSF1uMVtDSDJdW0NAQEhdKFtDSDNdKVtOSF1DKD1PKVtDQEBIXTJbQ0gyXUMoPU8pTihbQ0gzXSlbQ0gyXTI=

> <s_epik_cmdline>
J2VwaWtfcHl0aG9uJywgJy1waCcsICc3LjAnLCAnLXRuJywgJzgnLCAnLW1hJywgJzIwMCcsICctbWV0YWxfYmluZGluZycsICctaW1hZScsICc8aW5maWxlLm1hZT4nLCAnLW9tYWUnLCAnPG91dGZpbGUubWFlPic=

> <r_lp_tautomer_probability>
1

> <r_epik_Ionization_Penalty>
0.628884

> <r_epik_Ionization_Penalty_Charging>
0.628884

> <r_epik_Ionization_Penalty_Neutral>
2.35084e-08

> <r_epik_State_Penalty>
0.64556

> <r_epik_Charging_Adjusted_Penalty>
1.27444

> <i_epik_Tot_Q>
0

> <i_epik_Tot_abs_Q>
0

> <r_epik_Metal_State_Penalty>
0.308736

> <b_epik_Metal_Only>
0

> <s_lp_Force_Field>
OPLS_2005

> <r_lp_Energy>
12.6473

> <b_lp_Chiralities_Consistent>
1

> <s_lp_Variant>
AV-unprocessed.smi:3253-6

> <Gold.Version>
5.8.1

> <Gold.Id.Protein>
6NUR|6NUR_protein|mol2

> <Gold.PLP.Fitness>
46.8780

> <Gold.PLP.PLP>
-39.4924

> <Gold.PLP.part.hbond>
-1.0000

> <Gold.PLP.part.metal>
0.0000

> <Gold.PLP.part.buried>
-6.2868

> <Gold.PLP.part.nonpolar>
-33.5755

> <Gold.PLP.part.repulsive>
1.2547

> <Gold.PLP.ligand.clash>
0.0000

> <Gold.PLP.ligand.torsion>
0.7689

> <Gold.PLP.Chemscore.Hbond>
1.0000

> <Gold.PLP.Chemscore.CHOScore>
1.9676

> <Gold.PLP.Chemscore.Metal>
0.0000

> <Gold.Chemscore.Hbonds>
donor molecule, donor type, donor heavy atom, donor atom, acceptor molecule, acceptor atom, score
      P1  H  7997  8008       L1    11  0.99
      L1  C     5    25       P1  8028  1.00
      L1  C     6    26       P1 10175  0.95

> <Gold.PLP.Chemscore.Internal.Correction>
0.0207

> <Gold.Rescore>
     Score         DG    S(hbond)    S(metal)    S(lipo)     H(rot)  DE(clash)    DE(int)     intcor
     11.02     -12.78       1.18        0.00      71.62       1.97       1.00       0.76       ----

> <Gold.Chemscore.Fitness>
11.0200

> <Gold.Chemscore.DG>
-12.7789

> <Gold.Chemscore.ZeroCoef>
-5.4800

> <Gold.Chemscore.Hbond>
1.1841

> <Gold.Chemscore.Metal>
0.0000

> <Gold.Chemscore.Lipo>
71.6156

> <Gold.Chemscore.Internal_Hbond>
0.0000

> <Gold.Chemscore.DEClash>
0.9988

> <Gold.Chemscore.DEInternal>
0.7601

> <Gold.Chemscore.Rot>
1.9669

> <Gold.Chemscore.Internal.Correction>
   9.000000E+99

> <Gold.Chemscore.Hbonds>
donor molecule, donor type, donor heavy atom, donor atom, acceptor molecule, acceptor atom, score
      P1  H  6933  6945       L1    15  0.01
      P1  H  7997  8008       L1    11  0.74

> <Gold.Chemscore.Hbond.Weighted>
-3.9550

> <Gold.Chemscore.Metal.Weighted>
-0.0000

> <Gold.Chemscore.Lipo.Weighted>
-8.3790

> <Gold.Chemscore.Internal_Hbond.Weighted>
0.0000

> <Gold.Chemscore.DEClash.Weighted>
0.9988

> <Gold.Chemscore.DEInternal.Weighted>
0.7601

> <Gold.Chemscore.Rot.Weighted>
5.0352

> <Gold.Chemscore.Internal.Correction.Weighted>
   9.000000E+99

> <Gold.Protein.RotatedTorsions>
[ 6907 6896 6895 6894 ] final -157.61 input  -60.11 | X-H torsion
[ 7974 7965 7964 7962 ] final -162.50 input  175.53 | X-H torsion
[ 8008 7997 7996 7995 ] final  -71.45 input   59.86 | X-H torsion
[ 10167 10162 10161 10158 ] final    6.76 input  -65.29 | X-H torsion
[ 10718 10713 10712 10709 ] final   80.06 input   66.30 | X-H torsion
[ 10763 10752 10751 10750 ] final  -56.38 input  -60.55 | X-H torsion
[ 11005 11000 10999 10996 ] final  -92.91 input  -57.11 | X-H torsion

> <Gold.Protein.ActiveResidues>
 VAL166  LYS551  ARG553  GLY616  TRP617  ASP618  TYR619  PRO620  LYS621  CYS622 
 ASP623  PHE694  ASN695  SER759  ASP760  ASP761  ALA762  ILE779  LEU786  VAL792 
 PHE793  MET794  SER795  GLU796  ALA797  LYS798  CYS799  TRP800  GLU811  SER814 

> <Gold.Protein.RotatedAtoms>
  151.3055  133.4103  159.2642 H   0  0  0  0  0  0  0  0  0  0  0  0  # atno 6907 bound_to 6896
  151.0159  134.9433  159.8043 H   0  0  0  0  0  0  0  0  0  0  0  0  # atno 6908 bound_to 6896
  152.5312  134.3018  159.9134 H   0  0  0  0  0  0  0  0  0  0  0  0  # atno 6909 bound_to 6896
  144.7355  140.3244  143.6165 H   0  0  0  0  0  0  0  0  0  0  0  0  # atno 7974 bound_to 7965
  154.5089  140.0815  156.7950 H   0  0  0  0  0  0  0  0  0  0  0  0  # atno 8008 bound_to 7997
  155.3830  140.3429  155.4229 H   0  0  0  0  0  0  0  0  0  0  0  0  # atno 8009 bound_to 7997
  156.1549  140.1570  156.8696 H   0  0  0  0  0  0  0  0  0  0  0  0  # atno 8010 bound_to 7997
  140.6410  143.7775  150.7427 H   0  0  0  0  0  0  0  0  0  0  0  0  # atno 10167 bound_to 10162
  157.6795  130.9942  150.2023 H   0  0  0  0  0  0  0  0  0  0  0  0  # atno 10718 bound_to 10713
  154.2057  135.6403  153.5100 H   0  0  0  0  0  0  0  0  0  0  0  0  # atno 10763 bound_to 10752
  153.0001  135.5462  154.6268 H   0  0  0  0  0  0  0  0  0  0  0  0  # atno 10764 bound_to 10752
  154.5692  135.2915  155.0817 H   0  0  0  0  0  0  0  0  0  0  0  0  # atno 10765 bound_to 10752
  141.1510  133.7852  157.0086 H   0  0  0  0  0  0  0  0  0  0  0  0  # atno 11005 bound_to 11000
  145.7536  139.1801  143.2307 LP  0  0  0  0  0  0  0  0  0  0  0  0  # atno 17320 bound_to 7965
  146.1042  140.7508  142.9534 LP  0  0  0  0  0  0  0  0  0  0  0  0  # atno 17321 bound_to 7965
  140.1406  143.4444  152.2196 LP  0  0  0  0  0  0  0  0  0  0  0  0  # atno 17342 bound_to 10162
  139.5619  144.7411  151.4131 LP  0  0  0  0  0  0  0  0  0  0  0  0  # atno 17343 bound_to 10162
  156.2712  130.3722  149.8030 LP  0  0  0  0  0  0  0  0  0  0  0  0  # atno 17370 bound_to 10713
  156.5747  130.8440  151.3366 LP  0  0  0  0  0  0  0  0  0  0  0  0  # atno 17371 bound_to 10713
  140.0893  134.9602  157.1750 LP  0  0  0  0  0  0  0  0  0  0  0  0  # atno 17394 bound_to 11000
  140.3468  134.2642  155.7204 LP  0  0  0  0  0  0  0  0  0  0  0  0  # atno 17395 bound_to 11000

$$$$
