AV-unprocessed.smi:2645|AV-procd|sdf|10280|dock2
  -GOLD-   2272014293D 1   1.00000     0.00000
 Structure written by MMmdl.
 50 52  0  0  0  0  0  0  0  0  2 V2000
  145.7509  136.8443  153.3939 O   0  0  0  0  0  0  0  0  0  0  0  0
  145.9686  137.1920  152.2327 C   0  0  0  0  0  0  0  0  0  0  0  0
  146.6016  138.3311  151.9150 N   0  0  0  0  0  0  0  0  0  0  0  0
  147.1263  139.2857  152.8851 C   0  0  0  0  0  0  0  0  0  0  0  0
  148.1822  138.6403  153.8044 C   0  0  0  0  0  0  0  0  0  0  0  0
  149.3190  139.5499  154.0931 N   0  3  0  0  0  0  0  0  0  0  0  0
  148.9299  140.6569  155.0092 C   0  0  0  0  0  0  0  0  0  0  0  0
  150.1168  141.5907  155.3114 C   0  0  0  0  0  0  0  0  0  0  0  0
  151.2254  140.7915  155.8410 N   0  0  0  0  0  0  0  0  0  0  0  0
  151.6632  140.8939  157.1197 C   0  0  0  0  0  0  0  0  0  0  0  0
  152.5258  140.1419  157.5747 O   0  0  0  0  0  0  0  0  0  0  0  0
  151.0968  142.0165  158.0161 C   0  0  0  0  0  0  0  0  0  0  0  0
  151.4639  143.4618  157.6241 C   0  0  0  0  0  0  0  0  0  0  0  0
  152.5141  143.4811  158.7387 C   0  0  0  0  0  0  0  0  0  0  0  0
  151.8732  142.2209  159.3282 C   0  0  0  0  0  0  0  0  0  0  0  0
  151.6900  139.8172  154.8498 C   0  0  0  0  0  0  0  0  0  0  0  0
  150.5463  138.8340  154.5434 C   0  0  0  0  0  0  0  0  0  0  0  0
  145.6169  136.5020  151.1333 N   0  0  0  0  0  0  0  0  0  0  0  0
  144.9244  135.2637  151.0608 C   0  0  0  0  0  0  0  0  0  0  0  0
  145.2105  134.4828  149.9181 C   0  0  0  0  0  0  0  0  0  0  0  0
  144.5734  133.2375  149.7529 C   0  0  0  0  0  0  0  0  0  0  0  0
  143.6640  132.8056  150.7348 C   0  0  0  0  0  0  0  0  0  0  0  0
  143.4344  133.6443  151.8409 C   0  0  0  0  0  0  0  0  0  0  0  0
  144.0446  134.8377  152.0017 N   0  0  0  0  0  0  0  0  0  0  0  0
  146.7440  138.5431  150.9379 H   0  0  0  0  0  0  0  0  0  0  0  0
  147.5318  140.1439  152.3488 H   0  0  0  0  0  0  0  0  0  0  0  0
  146.2925  139.6575  153.4810 H   0  0  0  0  0  0  0  0  0  0  0  0
  147.6930  138.3705  154.7417 H   0  0  0  0  0  0  0  0  0  0  0  0
  148.5625  137.7103  153.3791 H   0  0  0  0  0  0  0  0  0  0  0  0
  148.1179  141.2325  154.5635 H   0  0  0  0  0  0  0  0  0  0  0  0
  148.5470  140.2358  155.9403 H   0  0  0  0  0  0  0  0  0  0  0  0
  150.4400  142.0965  154.4005 H   0  0  0  0  0  0  0  0  0  0  0  0
  149.7972  142.3810  155.9918 H   0  0  0  0  0  0  0  0  0  0  0  0
  150.0201  141.9195  158.1598 H   0  0  0  0  0  0  0  0  0  0  0  0
  151.8767  143.6079  156.6254 H   0  0  0  0  0  0  0  0  0  0  0  0
  150.6451  144.1588  157.8078 H   0  0  0  0  0  0  0  0  0  0  0  0
  153.5246  143.3042  158.3678 H   0  0  0  0  0  0  0  0  0  0  0  0
  152.4689  144.3569  159.3870 H   0  0  0  0  0  0  0  0  0  0  0  0
  151.2165  142.4320  160.1730 H   0  0  0  0  0  0  0  0  0  0  0  0
  152.5917  141.4372  159.5725 H   0  0  0  0  0  0  0  0  0  0  0  0
  151.9753  140.3471  153.9397 H   0  0  0  0  0  0  0  0  0  0  0  0
  152.5827  139.2726  155.1526 H   0  0  0  0  0  0  0  0  0  0  0  0
  150.3181  138.2470  155.4347 H   0  0  0  0  0  0  0  0  0  0  0  0
  150.8787  138.1326  153.7793 H   0  0  0  0  0  0  0  0  0  0  0  0
  145.8745  136.9068  150.2453 H   0  0  0  0  0  0  0  0  0  0  0  0
  145.9118  134.8293  149.1725 H   0  0  0  0  0  0  0  0  0  0  0  0
  144.7795  132.6254  148.8871 H   0  0  0  0  0  0  0  0  0  0  0  0
  143.1559  131.8571  150.6436 H   0  0  0  0  0  0  0  0  0  0  0  0
  142.7434  133.3503  152.6172 H   0  0  0  0  0  0  0  0  0  0  0  0
  149.5554  139.9953  153.2180 H   0  0  0  0  0  0  0  0  0  0  0  0
  1  2  2  0  0  0  0
  2  3  1  0  0  0  0
  2 18  1  0  0  0  0
  3  4  1  0  0  0  0
  3 25  1  0  0  0  0
  4  5  1  0  0  0  0
  4 26  1  0  0  0  0
  4 27  1  0  0  0  0
  5  6  1  0  0  0  0
  5 28  1  0  0  0  0
  5 29  1  0  0  0  0
  6 17  1  0  0  0  0
  6  7  1  0  0  0  0
  6 50  1  0  0  0  0
  7  8  1  0  0  0  0
  7 30  1  0  0  0  0
  7 31  1  0  0  0  0
  8  9  1  0  0  0  0
  8 32  1  0  0  0  0
  8 33  1  0  0  0  0
  9 10  1  0  0  0  0
  9 16  1  0  0  0  0
 10 11  2  0  0  0  0
 10 12  1  0  0  0  0
 12 15  1  0  0  0  0
 12 13  1  0  0  0  0
 12 34  1  0  0  0  0
 13 14  1  0  0  0  0
 13 35  1  0  0  0  0
 13 36  1  0  0  0  0
 14 15  1  0  0  0  0
 14 37  1  0  0  0  0
 14 38  1  0  0  0  0
 15 39  1  0  0  0  0
 15 40  1  0  0  0  0
 16 17  1  0  0  0  0
 16 41  1  0  0  0  0
 16 42  1  0  0  0  0
 17 43  1  0  0  0  0
 17 44  1  0  0  0  0
 18 19  1  0  0  0  0
 18 45  1  0  0  0  0
 19 24  1  0  0  0  0
 19 20  2  0  0  0  0
 20 21  1  0  0  0  0
 20 46  1  0  0  0  0
 21 22  2  0  0  0  0
 21 47  1  0  0  0  0
 22 23  1  0  0  0  0
 22 48  1  0  0  0  0
 23 24  2  0  0  0  0
 23 49  1  0  0  0  0
M  CHG  1   6   1
M  END
> <s_m_source_file>
AV-unprocessed.smi

> <i_m_source_file_index>
2645

> <i_lp_mmshare_version>
43012

> <i_f3d_flags>
0

> <s_epik_input>
bjFbY0hdW2NIXVtjSF1bY0hdYzFbTkhdQyg9TylbTkhdW0NIMl1bQ0gyXU4yW0NIMl1bQ0gyXU4oW0NIMl1bQ0gyXTIpQyg9TylbQ0hdM1tDSDJdW0NIMl1bQ0gyXTM=

> <s_epik_cmdline>
J2VwaWtfcHl0aG9uJywgJy1waCcsICc3LjAnLCAnLXRuJywgJzgnLCAnLW1hJywgJzIwMCcsICctbWV0YWxfYmluZGluZycsICctaW1hZScsICc8aW5maWxlLm1hZT4nLCAnLW9tYWUnLCAnPG91dGZpbGUubWFlPic=

> <r_epik_Ionization_Penalty>
0.58203

> <r_epik_Ionization_Penalty_Charging>
0.581996

> <r_epik_Ionization_Penalty_Neutral>
3.43439e-05

> <r_epik_State_Penalty>
0.594836

> <r_epik_Charging_Adjusted_Penalty>
1.17683

> <i_epik_Tot_Q>
1

> <i_epik_Tot_abs_Q>
1

> <r_epik_Metal_State_Penalty>
0.594839

> <b_epik_Metal_Only>
0

> <s_lp_Force_Field>
OPLS_2005

> <r_lp_Energy>
52.325

> <b_lp_Chiralities_Consistent>
1

> <s_lp_Variant>
AV-unprocessed.smi:2645-2

> <Gold.Version>
5.8.1

> <Gold.Id.Protein>
6NUR|6NUR_protein|mol2

> <Gold.PLP.Fitness>
51.1476

> <Gold.PLP.PLP>
-43.6295

> <Gold.PLP.part.hbond>
-3.5027

> <Gold.PLP.part.metal>
0.0000

> <Gold.PLP.part.buried>
2.7750

> <Gold.PLP.part.nonpolar>
-41.5340

> <Gold.PLP.part.repulsive>
0.4858

> <Gold.PLP.ligand.clash>
0.0000

> <Gold.PLP.ligand.torsion>
0.7639

> <Gold.PLP.Chemscore.Hbond>
1.8688

> <Gold.PLP.Chemscore.CHOScore>
0.9979

> <Gold.PLP.Chemscore.Metal>
0.0000

> <Gold.Chemscore.Hbonds>
donor molecule, donor type, donor heavy atom, donor atom, acceptor molecule, acceptor atom, score
      L1  H     6    50       P1  7957  0.93
      P1  H  7997  8009       L1    11  0.94
      L1  C    23    49       P1 10957  0.66

> <Gold.PLP.Chemscore.Internal.Correction>
0.4460

> <Gold.Rescore>
     Score         DG    S(hbond)    S(metal)    S(lipo)     H(rot)  DE(clash)    DE(int)     intcor
     15.37     -19.78       1.66        0.00     114.08       1.79       1.81       2.60       ----

> <Gold.Chemscore.Fitness>
15.3679

> <Gold.Chemscore.DG>
-19.7835

> <Gold.Chemscore.ZeroCoef>
-5.4800

> <Gold.Chemscore.Hbond>
1.6577

> <Gold.Chemscore.Metal>
0.0000

> <Gold.Chemscore.Lipo>
114.0810

> <Gold.Chemscore.Internal_Hbond>
0.0000

> <Gold.Chemscore.DEClash>
1.8113

> <Gold.Chemscore.DEInternal>
2.6042

> <Gold.Chemscore.Rot>
1.7894

> <Gold.Chemscore.Internal.Correction>
   9.000000E+99

> <Gold.Chemscore.Hbonds>
donor molecule, donor type, donor heavy atom, donor atom, acceptor molecule, acceptor atom, score
      L1  H     6    50       P1  7957  0.85
      P1  H  7997  8009       L1    11  0.86

> <Gold.Chemscore.Hbond.Weighted>
-5.5367

> <Gold.Chemscore.Metal.Weighted>
-0.0000

> <Gold.Chemscore.Lipo.Weighted>
-13.3475

> <Gold.Chemscore.Internal_Hbond.Weighted>
0.0000

> <Gold.Chemscore.DEClash.Weighted>
1.8113

> <Gold.Chemscore.DEInternal.Weighted>
2.6042

> <Gold.Chemscore.Rot.Weighted>
4.5807

> <Gold.Chemscore.Internal.Correction.Weighted>
   9.000000E+99

> <Gold.Protein.RotatedTorsions>
[ 6907 6896 6895 6894 ] final   48.12 input  -60.11 | X-H torsion
[ 7974 7965 7964 7962 ] final   96.84 input  175.53 | X-H torsion
[ 8008 7997 7996 7995 ] final  173.29 input   59.86 | X-H torsion
[ 10167 10162 10161 10158 ] final  156.37 input  -65.29 | X-H torsion
[ 10718 10713 10712 10709 ] final   20.55 input   66.30 | X-H torsion
[ 10763 10752 10751 10750 ] final   42.09 input  -60.55 | X-H torsion
[ 11005 11000 10999 10996 ] final  128.41 input  -57.11 | X-H torsion

> <Gold.Protein.ActiveResidues>
 VAL166  LYS551  ARG553  GLY616  TRP617  ASP618  TYR619  PRO620  LYS621  CYS622 
 ASP623  PHE694  ASN695  SER759  ASP760  ASP761  ALA762  ILE779  LEU786  VAL792 
 PHE793  MET794  SER795  GLU796  ALA797  LYS798  CYS799  TRP800  GLU811  SER814 

> <Gold.Protein.RotatedAtoms>
  152.2759  134.7882  160.0405 H   0  0  0  0  0  0  0  0  0  0  0  0  # atno 6907 bound_to 6896
  151.8478  133.3429  159.3671 H   0  0  0  0  0  0  0  0  0  0  0  0  # atno 6908 bound_to 6896
  150.7170  134.5257  159.5719 H   0  0  0  0  0  0  0  0  0  0  0  0  # atno 6909 bound_to 6896
  145.4334  139.2308  143.3131 H   0  0  0  0  0  0  0  0  0  0  0  0  # atno 7974 bound_to 7965
  156.1090  140.1464  156.9364 H   0  0  0  0  0  0  0  0  0  0  0  0  # atno 8008 bound_to 7997
  154.4754  140.0896  156.7292 H   0  0  0  0  0  0  0  0  0  0  0  0  # atno 8009 bound_to 7997
  155.4628  140.3439  155.4317 H   0  0  0  0  0  0  0  0  0  0  0  0  # atno 8010 bound_to 7997
  139.4821  144.5015  151.8161 H   0  0  0  0  0  0  0  0  0  0  0  0  # atno 10167 bound_to 10162
  157.1260  130.6570  149.5938 H   0  0  0  0  0  0  0  0  0  0  0  0  # atno 10718 bound_to 10713
  152.9891  135.6142  154.2893 H   0  0  0  0  0  0  0  0  0  0  0  0  # atno 10763 bound_to 10752
  154.2619  135.2782  155.2776 H   0  0  0  0  0  0  0  0  0  0  0  0  # atno 10764 bound_to 10752
  154.5198  135.5818  153.6729 H   0  0  0  0  0  0  0  0  0  0  0  0  # atno 10765 bound_to 10752
  139.9559  134.9613  156.8998 H   0  0  0  0  0  0  0  0  0  0  0  0  # atno 11005 bound_to 11000
  146.2595  140.5074  142.8859 LP  0  0  0  0  0  0  0  0  0  0  0  0  # atno 17320 bound_to 7965
  144.8168  140.6481  143.6379 LP  0  0  0  0  0  0  0  0  0  0  0  0  # atno 17321 bound_to 7965
  140.4509  144.1857  150.5897 LP  0  0  0  0  0  0  0  0  0  0  0  0  # atno 17342 bound_to 10162
  140.4586  143.2458  151.9251 LP  0  0  0  0  0  0  0  0  0  0  0  0  # atno 17343 bound_to 10162
  155.9818  130.4828  150.6847 LP  0  0  0  0  0  0  0  0  0  0  0  0  # atno 17370 bound_to 10713
  157.4434  131.0864  151.0920 LP  0  0  0  0  0  0  0  0  0  0  0  0  # atno 17371 bound_to 10713
  140.5610  134.0535  155.7399 LP  0  0  0  0  0  0  0  0  0  0  0  0  # atno 17394 bound_to 11000
  141.1230  133.9429  157.2691 LP  0  0  0  0  0  0  0  0  0  0  0  0  # atno 17395 bound_to 11000

$$$$
