AV-unprocessed.smi:2710|AV-procd|sdf|10465|dock3
  -GOLD-   2272014503D 1   1.00000     0.00000
 Structure written by MMmdl.
 53 54  0  0  0  0  0  0  0  0  2 V2000
  143.7580  132.7200  148.1808 C   0  0  0  0  0  0  0  0  0  0  0  0
  143.7196  133.5234  149.4896 C   0  0  0  0  0  0  0  0  0  0  0  0
  145.0545  134.0653  149.8794 N   0  3  1  0  0  0  0  0  0  0  0  0
  144.9890  135.2997  150.7120 C   0  0  0  0  0  0  0  0  0  0  0  0
  144.5392  135.0015  152.1562 C   0  0  0  0  0  0  0  0  0  0  0  0
  145.4334  133.9365  152.8163 C   0  0  1  0  0  0  0  0  0  0  0  0
  144.8874  133.5623  154.1185 N   0  0  0  0  0  0  0  0  0  0  0  0
  145.3438  133.9784  155.3088 C   0  0  0  0  0  0  0  0  0  0  0  0
  146.2999  134.7411  155.4449 O   0  0  0  0  0  0  0  0  0  0  0  0
  144.6093  133.4717  156.3134 N   0  0  0  0  0  0  0  0  0  0  0  0
  144.7838  133.6681  157.7090 C   0  0  0  0  0  0  0  0  0  0  0  0
  145.8454  134.4762  158.1633 C   0  0  0  0  0  0  0  0  0  0  0  0
  146.0562  134.7079  159.4760 N   0  0  0  0  0  0  0  0  0  0  0  0
  145.2111  134.1433  160.3483 C   0  0  0  0  0  0  0  0  0  0  0  0
  145.4602  134.4476  161.8369 C   0  0  0  0  0  0  0  0  0  0  0  0
  145.4752  135.9687  162.1274 C   0  0  0  0  0  0  0  0  0  0  0  0
  146.8272  133.8762  162.2632 C   0  0  0  0  0  0  0  0  0  0  0  0
  144.3301  133.8387  162.6936 C   0  0  0  0  0  0  0  0  0  0  0  0
  144.1548  133.3865  160.0230 N   0  0  0  0  0  0  0  0  0  0  0  0
  143.9370  133.1417  158.7133 C   0  0  0  0  0  0  0  0  0  0  0  0
  145.5458  132.6912  151.9186 C   0  0  0  0  0  0  0  0  0  0  0  0
  145.9911  133.0746  150.4921 C   0  0  1  0  0  0  0  0  0  0  0  0
  146.2586  131.8456  149.6049 C   0  0  0  0  0  0  0  0  0  0  0  0
  142.7987  132.2326  148.0060 H   0  0  0  0  0  0  0  0  0  0  0  0
  144.5195  131.9406  148.2180 H   0  0  0  0  0  0  0  0  0  0  0  0
  143.9559  133.3495  147.3139 H   0  0  0  0  0  0  0  0  0  0  0  0
  142.9787  134.3194  149.4208 H   0  0  0  0  0  0  0  0  0  0  0  0
  143.3579  132.8405  150.2554 H   0  0  0  0  0  0  0  0  0  0  0  0
  145.9822  135.7503  150.7336 H   0  0  0  0  0  0  0  0  0  0  0  0
  144.3427  136.0500  150.2594 H   0  0  0  0  0  0  0  0  0  0  0  0
  144.5670  135.9204  152.7435 H   0  0  0  0  0  0  0  0  0  0  0  0
  143.4992  134.6739  152.1612 H   0  0  0  0  0  0  0  0  0  0  0  0
  146.4342  134.3578  152.9285 H   0  0  0  0  0  0  0  0  0  0  0  0
  144.0934  132.9387  154.1134 H   0  0  0  0  0  0  0  0  0  0  0  0
  143.7997  132.9298  156.0487 H   0  0  0  0  0  0  0  0  0  0  0  0
  146.5350  134.9378  157.4716 H   0  0  0  0  0  0  0  0  0  0  0  0
  145.6378  136.1684  163.1872 H   0  0  0  0  0  0  0  0  0  0  0  0
  144.5308  136.4404  161.8523 H   0  0  0  0  0  0  0  0  0  0  0  0
  146.2721  136.4767  161.5825 H   0  0  0  0  0  0  0  0  0  0  0  0
  147.6367  134.3022  161.6694 H   0  0  0  0  0  0  0  0  0  0  0  0
  146.8651  132.7931  162.1418 H   0  0  0  0  0  0  0  0  0  0  0  0
  147.0384  134.0908  163.3113 H   0  0  0  0  0  0  0  0  0  0  0  0
  144.4674  134.0646  163.7516 H   0  0  0  0  0  0  0  0  0  0  0  0
  144.2911  132.7530  162.6009 H   0  0  0  0  0  0  0  0  0  0  0  0
  143.3558  134.2291  162.3974 H   0  0  0  0  0  0  0  0  0  0  0  0
  143.0692  132.5418  158.4875 H   0  0  0  0  0  0  0  0  0  0  0  0
  146.2641  131.9951  152.3542 H   0  0  0  0  0  0  0  0  0  0  0  0
  144.5923  132.1623  151.8837 H   0  0  0  0  0  0  0  0  0  0  0  0
  146.9512  133.5863  150.5787 H   0  0  0  0  0  0  0  0  0  0  0  0
  147.1061  131.2761  149.9879 H   0  0  0  0  0  0  0  0  0  0  0  0
  146.4985  132.1389  148.5825 H   0  0  0  0  0  0  0  0  0  0  0  0
  145.4092  131.1632  149.5754 H   0  0  0  0  0  0  0  0  0  0  0  0
  145.4885  134.3415  149.0102 H   0  0  0  0  0  0  0  0  0  0  0  0
  1  2  1  0  0  0  0
  1 24  1  0  0  0  0
  1 25  1  0  0  0  0
  1 26  1  0  0  0  0
  2  3  1  0  0  0  0
  2 27  1  0  0  0  0
  2 28  1  0  0  0  0
  3 22  1  0  0  0  0
  3  4  1  0  0  0  0
  3 53  1  0  0  0  0
  4  5  1  0  0  0  0
  4 29  1  0  0  0  0
  4 30  1  0  0  0  0
  5  6  1  0  0  0  0
  5 31  1  0  0  0  0
  5 32  1  0  0  0  0
  6  7  1  0  0  0  0
  6 21  1  0  0  0  0
  6 33  1  0  0  0  0
  7  8  1  0  0  0  0
  7 34  1  0  0  0  0
  8  9  2  0  0  0  0
  8 10  1  0  0  0  0
 10 11  1  0  0  0  0
 10 35  1  0  0  0  0
 11 20  1  0  0  0  0
 11 12  2  0  0  0  0
 12 13  1  0  0  0  0
 12 36  1  0  0  0  0
 13 14  2  0  0  0  0
 14 15  1  0  0  0  0
 14 19  1  0  0  0  0
 15 16  1  0  0  0  0
 15 17  1  0  0  0  0
 15 18  1  0  0  0  0
 16 37  1  0  0  0  0
 16 38  1  0  0  0  0
 16 39  1  0  0  0  0
 17 40  1  0  0  0  0
 17 41  1  0  0  0  0
 17 42  1  0  0  0  0
 18 43  1  0  0  0  0
 18 44  1  0  0  0  0
 18 45  1  0  0  0  0
 19 20  2  0  0  0  0
 20 46  1  0  0  0  0
 21 22  1  0  0  0  0
 21 47  1  0  0  0  0
 21 48  1  0  0  0  0
 22 23  1  0  0  0  0
 22 49  1  0  0  0  0
 23 50  1  0  0  0  0
 23 51  1  0  0  0  0
 23 52  1  0  0  0  0
M  CHG  1   3   1
M  END
> <s_m_source_file>
AV-unprocessed.smi

> <i_m_source_file_index>
2710

> <i_lp_mmshare_version>
43012

> <i_f3d_flags>
0

> <s_epik_input>
W0NIM11bQ0gyXU4xW0NIMl1bQ0gyXVtDQEhdKFtDSDJdW0NASF0xW0NIM10pW05IXUMoPU8pW05IXWMyW2NIXW5jKEMoW0NIM10pKFtDSDNdKVtDSDNdKW5bY0hdMg==

> <s_epik_cmdline>
J2VwaWtfcHl0aG9uJywgJy1waCcsICc3LjAnLCAnLXRuJywgJzgnLCAnLW1hJywgJzIwMCcsICctbWV0YWxfYmluZGluZycsICctaW1hZScsICc8aW5maWxlLm1hZT4nLCAnLW9tYWUnLCAnPG91dGZpbGUubWFlPic=

> <r_lp_tautomer_probability>
1

> <r_epik_Ionization_Penalty>
0.00396003

> <r_epik_Ionization_Penalty_Charging>
0.0039379

> <r_epik_Ionization_Penalty_Neutral>
2.21316e-05

> <r_epik_State_Penalty>
0.00281651

> <r_epik_Charging_Adjusted_Penalty>
0.00675441

> <i_epik_Tot_Q>
1

> <i_epik_Tot_abs_Q>
1

> <r_epik_Metal_State_Penalty>
-0

> <b_epik_Metal_Only>
0

> <s_lp_Force_Field>
OPLS_2005

> <r_lp_Energy>
21.9784

> <b_lp_Chiralities_Consistent>
1

> <s_lp_Variant>
AV-unprocessed.smi:2710-2

> <Gold.Version>
5.8.1

> <Gold.Id.Protein>
6NUR|6NUR_protein|mol2

> <Gold.PLP.Fitness>
40.3456

> <Gold.PLP.PLP>
-32.2975

> <Gold.PLP.part.hbond>
-3.0000

> <Gold.PLP.part.metal>
0.0000

> <Gold.PLP.part.buried>
0.4816

> <Gold.PLP.part.nonpolar>
-29.2693

> <Gold.PLP.part.repulsive>
0.1166

> <Gold.PLP.ligand.clash>
0.0000

> <Gold.PLP.ligand.torsion>
0.4856

> <Gold.PLP.Chemscore.Hbond>
2.9913

> <Gold.PLP.Chemscore.CHOScore>
0.0000

> <Gold.PLP.Chemscore.Metal>
0.0000

> <Gold.Chemscore.Hbonds>
donor molecule, donor type, donor heavy atom, donor atom, acceptor molecule, acceptor atom, score
      L1  H     3    53       P1  7921  1.00
      L1  H     7    34       P1 10957  1.00
      L1  H    10    35       P1 10957  0.99

> <Gold.PLP.Chemscore.Internal.Correction>
0.0456

> <Gold.Rescore>
     Score         DG    S(hbond)    S(metal)    S(lipo)     H(rot)  DE(clash)    DE(int)     intcor
     19.98     -23.29       2.90        0.00      98.19       1.31       1.33       1.98       ----

> <Gold.Chemscore.Fitness>
19.9811

> <Gold.Chemscore.DG>
-23.2908

> <Gold.Chemscore.ZeroCoef>
-5.4800

> <Gold.Chemscore.Hbond>
2.8956

> <Gold.Chemscore.Metal>
0.0000

> <Gold.Chemscore.Lipo>
98.1900

> <Gold.Chemscore.Internal_Hbond>
0.0000

> <Gold.Chemscore.DEClash>
1.3274

> <Gold.Chemscore.DEInternal>
1.9822

> <Gold.Chemscore.Rot>
1.3081

> <Gold.Chemscore.Internal.Correction>
   9.000000E+99

> <Gold.Chemscore.Hbonds>
donor molecule, donor type, donor heavy atom, donor atom, acceptor molecule, acceptor atom, score
      L1  H     3    53       P1  7921  0.93
      L1  H     7    34       P1 10957  0.96
      L1  H    10    35       P1 10957  0.91

> <Gold.Chemscore.Hbond.Weighted>
-9.6714

> <Gold.Chemscore.Metal.Weighted>
-0.0000

> <Gold.Chemscore.Lipo.Weighted>
-11.4882

> <Gold.Chemscore.Internal_Hbond.Weighted>
0.0000

> <Gold.Chemscore.DEClash.Weighted>
1.3274

> <Gold.Chemscore.DEInternal.Weighted>
1.9822

> <Gold.Chemscore.Rot.Weighted>
3.3488

> <Gold.Chemscore.Internal.Correction.Weighted>
   9.000000E+99

> <Gold.Protein.RotatedTorsions>
[ 6907 6896 6895 6894 ] final -111.18 input  -60.11 | X-H torsion
[ 7974 7965 7964 7962 ] final   60.90 input  175.53 | X-H torsion
[ 8008 7997 7996 7995 ] final  -10.48 input   59.86 | X-H torsion
[ 10167 10162 10161 10158 ] final  -34.42 input  -65.29 | X-H torsion
[ 10718 10713 10712 10709 ] final -105.35 input   66.30 | X-H torsion
[ 10763 10752 10751 10750 ] final  115.74 input  -60.55 | X-H torsion
[ 11005 11000 10999 10996 ] final -104.61 input  -57.11 | X-H torsion

> <Gold.Protein.ActiveResidues>
 VAL166  LYS551  ARG553  GLY616  TRP617  ASP618  TYR619  PRO620  LYS621  CYS622 
 ASP623  PHE694  ASN695  SER759  ASP760  ASP761  ALA762  ILE779  LEU786  VAL792 
 PHE793  MET794  SER795  GLU796  ALA797  LYS798  CYS799  TRP800  GLU811  SER814 

> <Gold.Protein.RotatedAtoms>
  150.7673  133.9273  159.3416 H   0  0  0  0  0  0  0  0  0  0  0  0  # atno 6907 bound_to 6896
  151.7168  135.0900  160.0286 H   0  0  0  0  0  0  0  0  0  0  0  0  # atno 6908 bound_to 6896
  152.3675  133.6338  159.6097 H   0  0  0  0  0  0  0  0  0  0  0  0  # atno 6909 bound_to 6896
  145.8909  139.3510  143.0650 H   0  0  0  0  0  0  0  0  0  0  0  0  # atno 7974 bound_to 7965
  154.5550  140.2327  155.8424 H   0  0  0  0  0  0  0  0  0  0  0  0  # atno 8008 bound_to 7997
  156.1981  140.3060  155.9428 H   0  0  0  0  0  0  0  0  0  0  0  0  # atno 8009 bound_to 7997
  155.2997  140.0430  157.3019 H   0  0  0  0  0  0  0  0  0  0  0  0  # atno 8010 bound_to 7997
  140.7186  143.3549  151.2080 H   0  0  0  0  0  0  0  0  0  0  0  0  # atno 10167 bound_to 10162
  156.0342  130.5559  150.7526 H   0  0  0  0  0  0  0  0  0  0  0  0  # atno 10718 bound_to 10713
  153.5268  135.3586  155.2657 H   0  0  0  0  0  0  0  0  0  0  0  0  # atno 10763 bound_to 10752
  154.8730  135.4058  154.3197 H   0  0  0  0  0  0  0  0  0  0  0  0  # atno 10764 bound_to 10752
  153.3878  135.7070  153.6585 H   0  0  0  0  0  0  0  0  0  0  0  0  # atno 10765 bound_to 10752
  141.1092  133.8738  157.1632 H   0  0  0  0  0  0  0  0  0  0  0  0  # atno 11005 bound_to 11000
  145.8910  140.9304  143.0552 LP  0  0  0  0  0  0  0  0  0  0  0  0  # atno 17320 bound_to 7965
  144.6730  140.0905  143.7465 LP  0  0  0  0  0  0  0  0  0  0  0  0  # atno 17321 bound_to 7965
  139.7088  143.9411  152.2938 LP  0  0  0  0  0  0  0  0  0  0  0  0  # atno 17342 bound_to 10162
  139.9129  144.6846  150.8543 LP  0  0  0  0  0  0  0  0  0  0  0  0  # atno 17343 bound_to 10162
  157.5066  131.0922  151.0249 LP  0  0  0  0  0  0  0  0  0  0  0  0  # atno 17370 bound_to 10713
  157.0616  130.5827  149.5387 LP  0  0  0  0  0  0  0  0  0  0  0  0  # atno 17371 bound_to 10713
  139.9977  135.0040  157.0121 LP  0  0  0  0  0  0  0  0  0  0  0  0  # atno 17394 bound_to 11000
  140.4820  134.1280  155.7218 LP  0  0  0  0  0  0  0  0  0  0  0  0  # atno 17395 bound_to 11000

$$$$
