#       Name:                AV-unprocessed.smi:890
#       Creating user name   scv26
#       Creation time:       Fri Mar 27 01:54:46 2020


#       File generated by GOLD software.
#

@<TRIPOS>MOLECULE
AV-unprocessed.smi:890
    56    59     1
SMALL
NO_CHARGES


@<TRIPOS>ATOM
      1 ****         1.3247   2.2089   0.6719 O.2            1 S1                 0.0000
      2 ****         0.9593   1.0526   0.8831 C.2            1 S1                 0.0000
      3 ****         1.7738   0.0061   1.0992 N.am           1 S1                 0.0000
      4 ****         3.1984  -0.0199   1.1155 C.ar           1 S1                 0.0000
      5 ****         3.9778   1.1101   1.4657 C.ar           1 S1                 0.0000
      6 ****         5.3791   0.9987   1.4892 C.ar           1 S1                 0.0000
      7 ****         5.9548  -0.2433   1.1712 C.ar           1 S1                 0.0000
      8 ****         5.2275  -1.3326   0.8519 N.ar           1 S1                 0.0000
      9 ****         3.8754  -1.2371   0.8303 C.ar           1 S1                 0.0000
     10 ****         3.1441  -2.3879   0.4674 N.3            1 S1                 0.0000
     11 ****         2.6365  -2.3509  -0.9018 C.3            1 S1                 0.0000
     12 ****         2.7269  -3.7815  -1.4360 C.3            1 S1                 0.0000
     13 ****         3.8816  -4.3735  -0.6378 C.3            1 S1                 0.0000
     14 ****         3.7105  -3.7109   0.7280 C.3            1 S1                 0.0000
     15 ****        -0.3285   0.6795   0.9063 N.am           1 S1                 0.0000
     16 ****        -1.4629   1.5791   0.7163 C.3            1 S1                 0.0000
     17 ****        -2.7394   0.9490   1.2970 C.3            1 S1                 0.0000
     18 ****        -3.9638   1.8520   1.0526 C.3            1 S1                 0.0000
     19 ****        -4.1406   2.1816  -0.3856 N.4            1 S1                 1.0000
     20 ****        -4.6846   1.0571  -1.1825 C.3            1 S1                 0.0000
     21 ****        -5.5302   1.4989  -2.3546 C.3            1 S1                 0.0000
     22 ****        -6.1892   0.9391  -1.1139 C.3            1 S1                 0.0000
     23 ****        -2.9191   2.7853  -0.9781 C.3            1 S1                 0.0000
     24 ****        -1.6763   1.8988  -0.7753 C.3            1 S1                 0.0000
     25 ****         1.3286  -0.8971   1.1732 H              1 S1                 0.0000
     26 ****         3.5289   2.0543   1.7326 H              1 S1                 0.0000
     27 ****         5.9972   1.8447   1.7504 H              1 S1                 0.0000
     28 ****         7.0275  -0.3677   1.1790 H              1 S1                 0.0000
     29 ****         1.6116  -1.9805  -0.9322 H              1 S1                 0.0000
     30 ****         3.2495  -1.6860  -1.5127 H              1 S1                 0.0000
     31 ****         1.8071  -4.3217  -1.2075 H              1 S1                 0.0000
     32 ****         2.8848  -3.8226  -2.5138 H              1 S1                 0.0000
     33 ****         3.8563  -5.4623  -0.5884 H              1 S1                 0.0000
     34 ****         4.8325  -4.0735  -1.0805 H              1 S1                 0.0000
     35 ****         4.6424  -3.7026   1.2936 H              1 S1                 0.0000
     36 ****         2.9864  -4.2689   1.3223 H              1 S1                 0.0000
     37 ****        -0.5386  -0.2924   1.0818 H              1 S1                 0.0000
     38 ****        -1.2673   2.5087   1.2549 H              1 S1                 0.0000
     39 ****        -2.9080  -0.0328   0.8521 H              1 S1                 0.0000
     40 ****        -2.6180   0.7814   2.3679 H              1 S1                 0.0000
     41 ****        -4.8679   1.3813   1.4407 H              1 S1                 0.0000
     42 ****        -3.8426   2.7844   1.6055 H              1 S1                 0.0000
     43 ****        -4.0676   0.1640  -1.2582 H              1 S1                 0.0000
     44 ****        -5.6373   2.5661  -2.5416 H              1 S1                 0.0000
     45 ****        -5.5245   0.8704  -3.2427 H              1 S1                 0.0000
     46 ****        -6.6186  -0.0581  -1.1852 H              1 S1                 0.0000
     47 ****        -6.7335   1.6351  -0.4779 H              1 S1                 0.0000
     48 ****        -3.0767   2.9825  -2.0391 H              1 S1                 0.0000
     49 ****        -2.7531   3.7555  -0.5080 H              1 S1                 0.0000
     50 ****        -0.8014   2.4075  -1.1814 H              1 S1                 0.0000
     51 ****        -1.7818   0.9744  -1.3448 H              1 S1                 0.0000
     52 ****        -4.8512   2.8986  -0.4221 H              1 S1                 0.0000
     53 ****         2.2999   2.4292   0.6514 LP             1 S1                 0.0000
     54 ****         0.6463   2.9279   0.5209 LP             1 S1                 0.0000
     55 ****         5.6786  -2.1981   0.6343 LP             1 S1                 0.0000
     56 ****         2.4033  -2.3034   1.1338 LP             1 S1                 0.0000
@<TRIPOS>BOND
    1    1    2 2     
    2    2    3 am    
    3    2   15 am    
    4    3    4 1     
    5    3   25 1     
    6    4    9 ar    
    7    4    5 ar    
    8    5    6 ar    
    9    5   26 1     
   10    6    7 ar    
   11    6   27 1     
   12    7    8 ar    
   13    7   28 1     
   14    8    9 ar    
   15    9   10 1     
   16   10   14 1     
   17   10   11 1     
   18   11   12 1     
   19   11   29 1     
   20   11   30 1     
   21   12   13 1     
   22   12   31 1     
   23   12   32 1     
   24   13   14 1     
   25   13   33 1     
   26   13   34 1     
   27   14   35 1     
   28   14   36 1     
   29   15   16 1     
   30   15   37 1     
   31   16   24 1     
   32   16   17 1     
   33   16   38 1     
   34   17   18 1     
   35   17   39 1     
   36   17   40 1     
   37   18   19 1     
   38   18   41 1     
   39   18   42 1     
   40   19   20 1     
   41   19   23 1     
   42   19   52 1     
   43   20   22 1     
   44   20   21 1     
   45   20   43 1     
   46   21   22 1     
   47   21   44 1     
   48   21   45 1     
   49   22   46 1     
   50   22   47 1     
   51   23   24 1     
   52   23   48 1     
   53   23   49 1     
   54   24   50 1     
   55   24   51 1     
   56    1   53 1     
   57    1   54 1     
   58    8   55 1     
   59   10   56 1     
@<TRIPOS>SUBSTRUCTURE
      1 S1             1
@<TRIPOS>SET
LONE_PAIRS      STATIC     ATOMS    <user>   **** ""
4 53 54 55 56
DONOR_HYDROGENS      STATIC     ATOMS    <user>   **** ""
3 25 37 52
ATOM$BLUE        STATIC     ATOMS    COLORGROUP SYSTEM
4 53 54 55 56
ATOM$RED        STATIC     ATOMS    COLORGROUP SYSTEM
3 25 37 52
