AV-unprocessed.smi:2899|AV-procd|sdf|11143|dock1
  -GOLD-   2272016 23D 1   1.00000     0.00000
 Structure written by MMmdl.
 30 32  0  0  0  0  0  0  0  0  1 V2000
  152.5202  138.6482  156.2455 C   0  0  0  0  0  0  0  0  0  0  0  0
  151.4835  139.6608  155.8081 C   0  0  0  0  0  0  0  0  0  0  0  0
  150.6411  139.4246  154.7018 C   0  0  0  0  0  0  0  0  0  0  0  0
  149.7187  140.4450  154.3951 C   0  0  0  0  0  0  0  0  0  0  0  0
  149.6466  141.5817  155.1219 N   0  0  0  0  0  0  0  0  0  0  0  0
  150.4898  141.7001  156.1507 C   0  0  0  0  0  0  0  0  0  0  0  0
  150.3814  142.8730  156.8752 N   0  0  0  0  0  0  0  0  0  0  0  0
  150.7780  143.0255  158.2696 C   0  0  2  0  0  0  0  0  0  0  0  0
  150.4128  144.3972  158.8509 C   0  0  0  0  0  0  0  0  0  0  0  0
  151.7760  144.9108  159.3317 C   0  0  1  0  0  0  0  0  0  0  0  0
  152.3000  144.1254  160.5416 C   0  0  0  0  0  0  0  0  0  0  0  0
  152.7014  142.7967  159.9016 C   0  0  0  0  0  0  0  0  0  0  0  0
  152.3069  143.0199  158.4353 C   0  0  2  0  0  0  0  0  0  0  0  0
  152.6105  144.3999  158.3074 O   0  0  0  0  0  0  0  0  0  0  0  0
  151.4053  140.8000  156.5308 N   0  0  0  0  0  0  0  0  0  0  0  0
  152.5489  137.7959  155.5660 H   0  0  0  0  0  0  0  0  0  0  0  0
  152.2913  138.2797  157.2458 H   0  0  0  0  0  0  0  0  0  0  0  0
  153.5113  139.1025  156.2636 H   0  0  0  0  0  0  0  0  0  0  0  0
  150.6960  138.5163  154.1200 H   0  0  0  0  0  0  0  0  0  0  0  0
  149.0356  140.3492  153.5643 H   0  0  0  0  0  0  0  0  0  0  0  0
  149.8769  143.6335  156.4431 H   0  0  0  0  0  0  0  0  0  0  0  0
  150.3365  142.2158  158.8524 H   0  0  0  0  0  0  0  0  0  0  0  0
  150.0080  145.0640  158.0878 H   0  0  0  0  0  0  0  0  0  0  0  0
  149.6843  144.3291  159.6592 H   0  0  0  0  0  0  0  0  0  0  0  0
  151.8232  145.9935  159.4515 H   0  0  0  0  0  0  0  0  0  0  0  0
  153.1698  144.6177  160.9778 H   0  0  0  0  0  0  0  0  0  0  0  0
  151.5447  144.0116  161.3200 H   0  0  0  0  0  0  0  0  0  0  0  0
  153.7768  142.6388  159.9923 H   0  0  0  0  0  0  0  0  0  0  0  0
  152.1928  141.9402  160.3456 H   0  0  0  0  0  0  0  0  0  0  0  0
  152.8369  142.3699  157.7381 H   0  0  0  0  0  0  0  0  0  0  0  0
  1  2  1  0  0  0  0
  1 16  1  0  0  0  0
  1 17  1  0  0  0  0
  1 18  1  0  0  0  0
  2 15  1  0  0  0  0
  2  3  2  0  0  0  0
  3  4  1  0  0  0  0
  3 19  1  0  0  0  0
  4  5  2  0  0  0  0
  4 20  1  0  0  0  0
  5  6  1  0  0  0  0
  6  7  1  0  0  0  0
  6 15  2  0  0  0  0
  7  8  1  0  0  0  0
  7 21  1  0  0  0  0
  8 13  1  0  0  0  0
  8  9  1  0  0  0  0
  8 22  1  0  0  0  0
  9 10  1  0  0  0  0
  9 23  1  0  0  0  0
  9 24  1  0  0  0  0
 10 14  1  0  0  0  0
 10 11  1  0  0  0  0
 10 25  1  0  0  0  0
 11 12  1  0  0  0  0
 11 26  1  0  0  0  0
 11 27  1  0  0  0  0
 12 13  1  0  0  0  0
 12 28  1  0  0  0  0
 12 29  1  0  0  0  0
 13 14  1  0  0  0  0
 13 30  1  0  0  0  0
M  END
> <s_m_source_file>
AV-unprocessed.smi

> <i_m_source_file_index>
2899

> <i_lp_mmshare_version>
43012

> <i_f3d_flags>
0

> <s_epik_input>
W0NIM11jMVtjSF1bY0hdbmMobjEpW05IXVtDQEhdKFtDSDJdW0NAQEhdMjMpW0NAQEhdKE8zKVtDSDJdW0NIMl0y

> <s_epik_cmdline>
J2VwaWtfcHl0aG9uJywgJy1waCcsICc3LjAnLCAnLXRuJywgJzgnLCAnLW1hJywgJzIwMCcsICctbWV0YWxfYmluZGluZycsICctaW1hZScsICc8aW5maWxlLm1hZT4nLCAnLW9tYWUnLCAnPG91dGZpbGUubWFlPic=

> <r_lp_tautomer_probability>
1

> <r_epik_Ionization_Penalty>
0.00589655

> <r_epik_Ionization_Penalty_Charging>
0

> <r_epik_Ionization_Penalty_Neutral>
0.00589655

> <r_epik_State_Penalty>
0.00375391

> <r_epik_Charging_Adjusted_Penalty>
0.00375391

> <i_epik_Tot_Q>
0

> <i_epik_Tot_abs_Q>
0

> <r_epik_Metal_State_Penalty>
-0

> <b_epik_Metal_Only>
0

> <s_lp_Force_Field>
OPLS_2005

> <r_lp_Energy>
31.4606

> <b_lp_Chiralities_Consistent>
1

> <s_lp_Variant>
AV-unprocessed.smi:2899-1

> <Gold.Version>
5.8.1

> <Gold.Id.Protein>
6NUR|6NUR_protein|mol2

> <Gold.PLP.Fitness>
39.9746

> <Gold.PLP.PLP>
-34.5624

> <Gold.PLP.part.hbond>
-1.0951

> <Gold.PLP.part.metal>
0.0000

> <Gold.PLP.part.buried>
-3.5620

> <Gold.PLP.part.nonpolar>
-30.1205

> <Gold.PLP.part.repulsive>
0.1956

> <Gold.PLP.ligand.clash>
0.0000

> <Gold.PLP.ligand.torsion>
0.2125

> <Gold.PLP.Chemscore.Hbond>
1.0000

> <Gold.PLP.Chemscore.CHOScore>
0.9393

> <Gold.PLP.Chemscore.Metal>
0.0000

> <Gold.Chemscore.Hbonds>
donor molecule, donor type, donor heavy atom, donor atom, acceptor molecule, acceptor atom, score
      L1  H     7    21       P1  8028  1.00
      L1  C     4    20       P1  7957  0.95

> <Gold.PLP.Chemscore.Internal.Correction>
0.0195

> <Gold.Rescore>
     Score         DG    S(hbond)    S(metal)    S(lipo)     H(rot)  DE(clash)    DE(int)     intcor
     17.02     -17.30       1.00        0.00      94.39       1.00       0.02       0.26       ----

> <Gold.Chemscore.Fitness>
17.0247

> <Gold.Chemscore.DG>
-17.3033

> <Gold.Chemscore.ZeroCoef>
-5.4800

> <Gold.Chemscore.Hbond>
0.9999

> <Gold.Chemscore.Metal>
0.0000

> <Gold.Chemscore.Lipo>
94.3917

> <Gold.Chemscore.Internal_Hbond>
0.0000

> <Gold.Chemscore.DEClash>
0.0201

> <Gold.Chemscore.DEInternal>
0.2585

> <Gold.Chemscore.Rot>
1.0000

> <Gold.Chemscore.Internal.Correction>
   9.000000E+99

> <Gold.Chemscore.Hbonds>
donor molecule, donor type, donor heavy atom, donor atom, acceptor molecule, acceptor atom, score
      L1  H     7    21       P1  8028  1.00

> <Gold.Chemscore.Hbond.Weighted>
-3.3395

> <Gold.Chemscore.Metal.Weighted>
-0.0000

> <Gold.Chemscore.Lipo.Weighted>
-11.0438

> <Gold.Chemscore.Internal_Hbond.Weighted>
0.0000

> <Gold.Chemscore.DEClash.Weighted>
0.0201

> <Gold.Chemscore.DEInternal.Weighted>
0.2585

> <Gold.Chemscore.Rot.Weighted>
2.5600

> <Gold.Chemscore.Internal.Correction.Weighted>
   9.000000E+99

> <Gold.Protein.RotatedTorsions>
[ 6907 6896 6895 6894 ] final   74.83 input  -60.11 | X-H torsion
[ 7974 7965 7964 7962 ] final   52.25 input  175.53 | X-H torsion
[ 8008 7997 7996 7995 ] final   11.27 input   59.86 | X-H torsion
[ 10167 10162 10161 10158 ] final  179.51 input  -65.29 | X-H torsion
[ 10718 10713 10712 10709 ] final  -12.09 input   66.30 | X-H torsion
[ 10763 10752 10751 10750 ] final  -28.73 input  -60.55 | X-H torsion
[ 11005 11000 10999 10996 ] final -139.23 input  -57.11 | X-H torsion

> <Gold.Protein.ActiveResidues>
 VAL166  LYS551  ARG553  GLY616  TRP617  ASP618  TYR619  PRO620  LYS621  CYS622 
 ASP623  PHE694  ASN695  SER759  ASP760  ASP761  ALA762  ILE779  LEU786  VAL792 
 PHE793  MET794  SER795  GLU796  ALA797  LYS798  CYS799  TRP800  GLU811  SER814 

> <Gold.Protein.RotatedAtoms>
  152.4996  134.4212  159.9480 H   0  0  0  0  0  0  0  0  0  0  0  0  # atno 6907 bound_to 6896
  151.4185  133.3699  159.2761 H   0  0  0  0  0  0  0  0  0  0  0  0  # atno 6908 bound_to 6896
  150.9240  134.8679  159.7567 H   0  0  0  0  0  0  0  0  0  0  0  0  # atno 6909 bound_to 6896
  145.9832  139.4263  143.0119 H   0  0  0  0  0  0  0  0  0  0  0  0  # atno 7974 bound_to 7965
  154.8046  140.2858  155.5897 H   0  0  0  0  0  0  0  0  0  0  0  0  # atno 8008 bound_to 7997
  156.2981  140.2580  156.2851 H   0  0  0  0  0  0  0  0  0  0  0  0  # atno 8009 bound_to 7997
  154.9518  140.0379  157.2137 H   0  0  0  0  0  0  0  0  0  0  0  0  # atno 8010 bound_to 7997
  139.5339  144.2553  152.0751 H   0  0  0  0  0  0  0  0  0  0  0  0  # atno 10167 bound_to 10162
  156.6497  130.4951  149.6066 H   0  0  0  0  0  0  0  0  0  0  0  0  # atno 10718 bound_to 10713
  153.7531  135.6924  153.4941 H   0  0  0  0  0  0  0  0  0  0  0  0  # atno 10763 bound_to 10752
  153.1989  135.4443  155.0241 H   0  0  0  0  0  0  0  0  0  0  0  0  # atno 10764 bound_to 10752
  154.8180  135.3408  154.7051 H   0  0  0  0  0  0  0  0  0  0  0  0  # atno 10765 bound_to 10752
  140.8539  134.2251  157.4745 H   0  0  0  0  0  0  0  0  0  0  0  0  # atno 11005 bound_to 11000
  145.7739  140.9885  143.1135 LP  0  0  0  0  0  0  0  0  0  0  0  0  # atno 17320 bound_to 7965
  144.6867  139.9481  143.7477 LP  0  0  0  0  0  0  0  0  0  0  0  0  # atno 17321 bound_to 7965
  140.2020  144.4648  150.6427 LP  0  0  0  0  0  0  0  0  0  0  0  0  # atno 17342 bound_to 10162
  140.6535  143.2231  151.6023 LP  0  0  0  0  0  0  0  0  0  0  0  0  # atno 17343 bound_to 10162
  156.2094  130.6669  151.1253 LP  0  0  0  0  0  0  0  0  0  0  0  0  # atno 17370 bound_to 10713
  157.7145  131.0717  150.6379 LP  0  0  0  0  0  0  0  0  0  0  0  0  # atno 17371 bound_to 10713
  139.8705  134.9697  156.4675 LP  0  0  0  0  0  0  0  0  0  0  0  0  # atno 17394 bound_to 11000
  140.8759  133.7954  155.9414 LP  0  0  0  0  0  0  0  0  0  0  0  0  # atno 17395 bound_to 11000

$$$$
