AV-unprocessed.smi:249|AV-procd|sdf|1929|dock5
  -GOLD-   2262021 43D 1   1.00000     0.00000
 Structure written by MMmdl.
 64 67  0  0  0  0  0  0  0  0  2 V2000
  152.4505  143.0683  161.8260 C   0  0  0  0  0  0  0  0  0  0  0  0
  153.5028  142.3108  160.9994 C   0  0  0  0  0  0  0  0  0  0  0  0
  153.0545  142.0015  159.6104 N   0  3  1  0  0  0  0  0  0  0  0  0
  152.6147  140.5817  159.4792 C   0  0  0  0  0  0  0  0  0  0  0  0
  152.2643  140.2131  158.0315 C   0  0  0  0  0  0  0  0  0  0  0  0
  151.1694  141.1433  157.4944 C   0  0  2  0  0  0  0  0  0  0  0  0
  150.7577  140.7989  156.1287 N   0  0  0  0  0  0  0  0  0  0  0  0
  151.3251  139.6245  155.4672 C   0  0  0  0  0  0  0  0  0  0  0  0
  149.4748  141.1127  155.8136 C   0  0  0  0  0  0  0  0  0  0  0  0
  148.9666  140.7353  154.6103 N   0  0  0  0  0  0  0  0  0  0  0  0
  147.6986  141.0155  154.2968 C   0  0  0  0  0  0  0  0  0  0  0  0
  146.7825  141.6569  155.0237 N   0  0  0  0  0  0  0  0  0  0  0  0
  147.2891  142.0558  156.2255 C   0  0  0  0  0  0  0  0  0  0  0  0
  148.6111  141.8184  156.6983 C   0  0  0  0  0  0  0  0  0  0  0  0
  148.7627  142.3561  157.9705 N   0  0  0  0  0  0  0  0  0  0  0  0
  147.5936  142.8690  158.2396 C   0  0  0  0  0  0  0  0  0  0  0  0
  146.6563  142.7625  157.2360 N   0  0  0  0  0  0  0  0  0  0  0  0
  145.2786  143.2332  157.2861 C   0  0  0  0  0  0  0  0  0  0  0  0
  144.9068  144.2794  156.1957 C   0  0  1  0  0  0  0  0  0  0  0  0
  144.6254  143.5426  154.8643 C   0  0  0  0  0  0  0  0  0  0  0  0
  143.3099  143.0275  154.8376 O   0  0  0  0  0  0  0  0  0  0  0  0
  143.6963  145.1917  156.5650 C   0  0  1  0  0  0  0  0  0  0  0  0
  143.9335  146.2436  157.6393 C   0  0  0  0  0  0  0  0  0  0  0  0
  144.6397  147.3609  156.8794 C   0  0  0  0  0  0  0  0  0  0  0  0
  144.1307  147.2862  155.5521 O   0  0  0  0  0  0  0  0  0  0  0  0
  143.3012  146.1355  155.4180 C   0  0  0  0  0  0  0  0  0  0  0  0
  151.6488  142.5959  157.6208 C   0  0  0  0  0  0  0  0  0  0  0  0
  152.0219  142.9514  159.0772 C   0  0  2  0  0  0  0  0  0  0  0  0
  152.4694  144.4279  159.1210 C   0  0  0  0  0  0  0  0  0  0  0  0
  152.7615  143.1315  162.8690 H   0  0  0  0  0  0  0  0  0  0  0  0
  151.4871  142.5581  161.8021 H   0  0  0  0  0  0  0  0  0  0  0  0
  152.3046  144.0911  161.4807 H   0  0  0  0  0  0  0  0  0  0  0  0
  154.4409  142.8673  160.9730 H   0  0  0  0  0  0  0  0  0  0  0  0
  153.7028  141.3945  161.5495 H   0  0  0  0  0  0  0  0  0  0  0  0
  153.3985  139.9030  159.8105 H   0  0  0  0  0  0  0  0  0  0  0  0
  151.7537  140.4071  160.1269 H   0  0  0  0  0  0  0  0  0  0  0  0
  153.1606  140.2783  157.4134 H   0  0  0  0  0  0  0  0  0  0  0  0
  151.9306  139.1754  157.9892 H   0  0  0  0  0  0  0  0  0  0  0  0
  150.3096  141.0382  158.1555 H   0  0  0  0  0  0  0  0  0  0  0  0
  151.0534  139.6081  154.4108 H   0  0  0  0  0  0  0  0  0  0  0  0
  150.9634  138.7035  155.9258 H   0  0  0  0  0  0  0  0  0  0  0  0
  152.4130  139.6277  155.5184 H   0  0  0  0  0  0  0  0  0  0  0  0
  147.3706  140.6767  153.3251 H   0  0  0  0  0  0  0  0  0  0  0  0
  147.3859  143.3569  159.1809 H   0  0  0  0  0  0  0  0  0  0  0  0
  144.6563  142.3429  157.1935 H   0  0  0  0  0  0  0  0  0  0  0  0
  145.0715  143.6347  158.2790 H   0  0  0  0  0  0  0  0  0  0  0  0
  145.7627  144.9301  156.0205 H   0  0  0  0  0  0  0  0  0  0  0  0
  144.7683  144.2125  154.0157 H   0  0  0  0  0  0  0  0  0  0  0  0
  145.2998  142.7017  154.7132 H   0  0  0  0  0  0  0  0  0  0  0  0
  143.1752  142.5873  154.0122 H   0  0  0  0  0  0  0  0  0  0  0  0
  142.8558  144.5579  156.8510 H   0  0  0  0  0  0  0  0  0  0  0  0
  142.9698  146.6114  157.9948 H   0  0  0  0  0  0  0  0  0  0  0  0
  144.4691  145.9019  158.5188 H   0  0  0  0  0  0  0  0  0  0  0  0
  144.4604  148.3409  157.3219 H   0  0  0  0  0  0  0  0  0  0  0  0
  145.7165  147.1903  156.8541 H   0  0  0  0  0  0  0  0  0  0  0  0
  143.3973  145.7054  154.4222 H   0  0  0  0  0  0  0  0  0  0  0  0
  142.2629  146.4499  155.5353 H   0  0  0  0  0  0  0  0  0  0  0  0
  152.5150  142.7689  156.9814 H   0  0  0  0  0  0  0  0  0  0  0  0
  150.8626  143.2639  157.2659 H   0  0  0  0  0  0  0  0  0  0  0  0
  151.1256  142.8524  159.6920 H   0  0  0  0  0  0  0  0  0  0  0  0
  151.7701  145.0623  158.5752 H   0  0  0  0  0  0  0  0  0  0  0  0
  153.4526  144.5610  158.6688 H   0  0  0  0  0  0  0  0  0  0  0  0
  152.5009  144.8239  160.1353 H   0  0  0  0  0  0  0  0  0  0  0  0
  153.8661  142.1094  159.0186 H   0  0  0  0  0  0  0  0  0  0  0  0
  1  2  1  0  0  0  0
  1 30  1  0  0  0  0
  1 31  1  0  0  0  0
  1 32  1  0  0  0  0
  2  3  1  0  0  0  0
  2 33  1  0  0  0  0
  2 34  1  0  0  0  0
  3 28  1  0  0  0  0
  3  4  1  0  0  0  0
  3 64  1  0  0  0  0
  4  5  1  0  0  0  0
  4 35  1  0  0  0  0
  4 36  1  0  0  0  0
  5  6  1  0  0  0  0
  5 37  1  0  0  0  0
  5 38  1  0  0  0  0
  6  7  1  0  0  0  0
  6 27  1  0  0  0  0
  6 39  1  0  0  0  0
  7  8  1  0  0  0  0
  7  9  1  0  0  0  0
  8 40  1  0  0  0  0
  8 41  1  0  0  0  0
  8 42  1  0  0  0  0
  9 14  1  0  0  0  0
  9 10  2  0  0  0  0
 10 11  1  0  0  0  0
 11 12  2  0  0  0  0
 11 43  1  0  0  0  0
 12 13  1  0  0  0  0
 13 17  1  0  0  0  0
 13 14  2  0  0  0  0
 14 15  1  0  0  0  0
 15 16  2  0  0  0  0
 16 17  1  0  0  0  0
 16 44  1  0  0  0  0
 17 18  1  0  0  0  0
 18 19  1  0  0  0  0
 18 45  1  0  0  0  0
 18 46  1  0  0  0  0
 19 20  1  0  0  0  0
 19 22  1  0  0  0  0
 19 47  1  0  0  0  0
 20 21  1  0  0  0  0
 20 48  1  0  0  0  0
 20 49  1  0  0  0  0
 21 50  1  0  0  0  0
 22 26  1  0  0  0  0
 22 23  1  0  0  0  0
 22 51  1  0  0  0  0
 23 24  1  0  0  0  0
 23 52  1  0  0  0  0
 23 53  1  0  0  0  0
 24 25  1  0  0  0  0
 24 54  1  0  0  0  0
 24 55  1  0  0  0  0
 25 26  1  0  0  0  0
 26 56  1  0  0  0  0
 26 57  1  0  0  0  0
 27 28  1  0  0  0  0
 27 58  1  0  0  0  0
 27 59  1  0  0  0  0
 28 29  1  0  0  0  0
 28 60  1  0  0  0  0
 29 61  1  0  0  0  0
 29 62  1  0  0  0  0
 29 63  1  0  0  0  0
M  CHG  1   3   1
M  END
> <s_m_source_file>
AV-unprocessed.smi

> <i_m_source_file_index>
249

> <i_lp_mmshare_version>
43012

> <i_f3d_flags>
0

> <s_epik_input>
W0NIM11bQ0gyXU4xW0NIMl1bQ0gyXVtDQEhdKFtDSDJdW0NASF0xW0NIM10pTihbQ0gzXSljKG5bY0hdbjIpYyhjMjMpbltjSF1uM1tDSDJdW0NASF0oW0NIMl1bT0hdKVtDQEBIXTRbQ0gyXVtDSDJdT1tDSDJdNA==

> <s_epik_cmdline>
J2VwaWtfcHl0aG9uJywgJy1waCcsICc3LjAnLCAnLXRuJywgJzgnLCAnLW1hJywgJzIwMCcsICctbWV0YWxfYmluZGluZycsICctaW1hZScsICc8aW5maWxlLm1hZT4nLCAnLW9tYWUnLCAnPG91dGZpbGUubWFlPic=

> <r_lp_tautomer_probability>
1

> <r_epik_Ionization_Penalty>
0.00294688

> <r_epik_Ionization_Penalty_Charging>
0.00169971

> <r_epik_Ionization_Penalty_Neutral>
0.00124717

> <r_epik_State_Penalty>
-0

> <r_epik_Charging_Adjusted_Penalty>
0.00169971

> <i_epik_Tot_Q>
1

> <i_epik_Tot_abs_Q>
1

> <r_epik_Metal_State_Penalty>
-0

> <b_epik_Metal_Only>
0

> <s_lp_Force_Field>
OPLS_2005

> <r_lp_Energy>
57.6505

> <b_lp_Chiralities_Consistent>
1

> <s_lp_Variant>
AV-unprocessed.smi:249-32

> <Gold.Version>
5.8.1

> <Gold.Id.Protein>
6NUR|6NUR_protein|mol2

> <Gold.PLP.Fitness>
51.6615

> <Gold.PLP.PLP>
-51.1192

> <Gold.PLP.part.hbond>
-2.0000

> <Gold.PLP.part.metal>
0.0000

> <Gold.PLP.part.buried>
-7.0197

> <Gold.PLP.part.nonpolar>
-42.0970

> <Gold.PLP.part.repulsive>
0.4936

> <Gold.PLP.ligand.clash>
0.4811

> <Gold.PLP.ligand.torsion>
1.5626

> <Gold.PLP.Chemscore.Hbond>
1.0000

> <Gold.PLP.Chemscore.CHOScore>
0.0000

> <Gold.PLP.Chemscore.Metal>
0.0000

> <Gold.Chemscore.Hbonds>
donor molecule, donor type, donor heavy atom, donor atom, acceptor molecule, acceptor atom, score
      L1  H    21    50       P1 10174  1.00

> <Gold.PLP.Chemscore.Internal.Correction>
1.1485

> <Gold.Rescore>
     Score         DG    S(hbond)    S(metal)    S(lipo)     H(rot)  DE(clash)    DE(int)     intcor
     11.60     -15.60       0.91        0.00     118.60       2.65       0.15       3.84       ----

> <Gold.Chemscore.Fitness>
11.6000

> <Gold.Chemscore.DG>
-15.5970

> <Gold.Chemscore.ZeroCoef>
-5.4800

> <Gold.Chemscore.Hbond>
0.9067

> <Gold.Chemscore.Metal>
0.0000

> <Gold.Chemscore.Lipo>
118.6035

> <Gold.Chemscore.Internal_Hbond>
0.0000

> <Gold.Chemscore.DEClash>
0.1531

> <Gold.Chemscore.DEInternal>
3.8439

> <Gold.Chemscore.Rot>
2.6515

> <Gold.Chemscore.Internal.Correction>
   9.000000E+99

> <Gold.Chemscore.Hbonds>
donor molecule, donor type, donor heavy atom, donor atom, acceptor molecule, acceptor atom, score
      L1  H    21    50       P1 10174  0.25

> <Gold.Chemscore.Hbond.Weighted>
-3.0283

> <Gold.Chemscore.Metal.Weighted>
-0.0000

> <Gold.Chemscore.Lipo.Weighted>
-13.8766

> <Gold.Chemscore.Internal_Hbond.Weighted>
0.0000

> <Gold.Chemscore.DEClash.Weighted>
0.1531

> <Gold.Chemscore.DEInternal.Weighted>
3.8439

> <Gold.Chemscore.Rot.Weighted>
6.7880

> <Gold.Chemscore.Internal.Correction.Weighted>
   9.000000E+99

> <Gold.Protein.RotatedTorsions>
[ 6907 6896 6895 6894 ] final  130.71 input  -60.11 | X-H torsion
[ 7974 7965 7964 7962 ] final  157.06 input  175.53 | X-H torsion
[ 8008 7997 7996 7995 ] final  -56.74 input   59.86 | X-H torsion
[ 10167 10162 10161 10158 ] final -137.21 input  -65.29 | X-H torsion
[ 10718 10713 10712 10709 ] final  137.55 input   66.30 | X-H torsion
[ 10763 10752 10751 10750 ] final  -41.24 input  -60.55 | X-H torsion
[ 11005 11000 10999 10996 ] final  -96.53 input  -57.11 | X-H torsion

> <Gold.Protein.ActiveResidues>
 VAL166  LYS551  ARG553  GLY616  TRP617  ASP618  TYR619  PRO620  LYS621  CYS622 
 ASP623  PHE694  ASN695  SER759  ASP760  ASP761  ALA762  ILE779  LEU786  VAL792 
 PHE793  MET794  SER795  GLU796  ALA797  LYS798  CYS799  TRP800  GLU811  SER814 

> <Gold.Protein.RotatedAtoms>
  152.3499  133.6167  159.5937 H   0  0  0  0  0  0  0  0  0  0  0  0  # atno 6907 bound_to 6896
  150.7531  133.9590  159.3518 H   0  0  0  0  0  0  0  0  0  0  0  0  # atno 6908 bound_to 6896
  151.7443  135.0848  160.0372 H   0  0  0  0  0  0  0  0  0  0  0  0  # atno 6909 bound_to 6896
  144.7926  139.7289  143.6215 H   0  0  0  0  0  0  0  0  0  0  0  0  # atno 7974 bound_to 7965
  154.4241  140.1123  156.5685 H   0  0  0  0  0  0  0  0  0  0  0  0  # atno 8008 bound_to 7997
  155.6237  140.3495  155.4641 H   0  0  0  0  0  0  0  0  0  0  0  0  # atno 8009 bound_to 7997
  156.0004  140.1198  157.0543 H   0  0  0  0  0  0  0  0  0  0  0  0  # atno 8010 bound_to 7997
  139.8601  143.7088  152.2651 H   0  0  0  0  0  0  0  0  0  0  0  0  # atno 10167 bound_to 10162
  157.4349  131.1052  151.0209 H   0  0  0  0  0  0  0  0  0  0  0  0  # atno 10718 bound_to 10713
  153.9592  135.6741  153.4745 H   0  0  0  0  0  0  0  0  0  0  0  0  # atno 10763 bound_to 10752
  153.0846  135.4905  154.8568 H   0  0  0  0  0  0  0  0  0  0  0  0  # atno 10764 bound_to 10752
  154.7282  135.3132  154.8896 H   0  0  0  0  0  0  0  0  0  0  0  0  # atno 10765 bound_to 10752
  141.1408  133.8104  157.0584 H   0  0  0  0  0  0  0  0  0  0  0  0  # atno 11005 bound_to 11000
  146.2183  139.5589  142.9635 LP  0  0  0  0  0  0  0  0  0  0  0  0  # atno 17320 bound_to 7965
  145.5756  141.0389  143.2150 LP  0  0  0  0  0  0  0  0  0  0  0  0  # atno 17321 bound_to 7965
  139.7382  144.7566  151.0694 LP  0  0  0  0  0  0  0  0  0  0  0  0  # atno 17342 bound_to 10162
  140.7776  143.5004  150.9778 LP  0  0  0  0  0  0  0  0  0  0  0  0  # atno 17343 bound_to 10162
  157.1092  130.6014  149.5478 LP  0  0  0  0  0  0  0  0  0  0  0  0  # atno 17370 bound_to 10713
  155.9927  130.4985  150.7349 LP  0  0  0  0  0  0  0  0  0  0  0  0  # atno 17371 bound_to 10713
  140.0587  134.9766  157.1266 LP  0  0  0  0  0  0  0  0  0  0  0  0  # atno 17394 bound_to 11000
  140.3881  134.2215  155.7167 LP  0  0  0  0  0  0  0  0  0  0  0  0  # atno 17395 bound_to 11000

$$$$
