AV-unprocessed.smi:3160|AV-procd|sdf|12051|dock6
  -GOLD-   2272017483D 1   1.00000     0.00000
 Structure written by MMmdl.
 40 41  0  0  0  0  0  0  0  0  2 V2000
  150.4453  135.8284  155.2823 C   0  0  0  0  0  0  0  0  0  0  0  0
  150.7741  137.2932  155.3094 C   0  0  0  0  0  0  0  0  0  0  0  0
  151.0140  138.1564  154.2032 C   0  0  0  0  0  0  0  0  0  0  0  0
  151.2778  139.4001  154.5695 N   0  0  0  0  0  0  0  0  0  0  0  0
  151.2180  139.3776  155.9182 N   0  0  0  0  0  0  0  0  0  0  0  0
  151.4550  140.6014  156.6731 C   0  0  2  0  0  0  0  0  0  0  0  0
  151.7021  140.2577  158.1534 C   0  0  0  0  0  0  0  0  0  0  0  0
  150.3133  141.6328  156.4725 C   0  0  2  0  0  0  0  0  0  0  0  0
  149.7201  141.6142  155.0518 C   0  0  0  0  0  0  0  0  0  0  0  0
  150.7986  143.0007  156.7667 N   0  3  0  0  0  0  0  0  0  0  0  0
  151.0065  143.3073  158.1987 C   0  0  0  0  0  0  0  0  0  0  0  0
  150.7244  144.7705  158.5497 C   0  0  0  0  0  0  0  0  0  0  0  0
  151.4929  145.0126  159.8541 C   0  0  0  0  0  0  0  0  0  0  0  0
  152.6007  143.9476  159.9064 C   0  0  0  0  0  0  0  0  0  0  0  0
  152.4636  143.1232  158.6217 C   0  0  0  0  0  0  0  0  0  0  0  0
  150.9130  138.1165  156.3902 C   0  0  0  0  0  0  0  0  0  0  0  0
  150.7394  135.3651  154.3402 H   0  0  0  0  0  0  0  0  0  0  0  0
  149.3765  135.6542  155.4069 H   0  0  0  0  0  0  0  0  0  0  0  0
  150.9555  135.2859  156.0785 H   0  0  0  0  0  0  0  0  0  0  0  0
  151.0036  137.9166  153.1502 H   0  0  0  0  0  0  0  0  0  0  0  0
  152.3747  141.0459  156.2868 H   0  0  0  0  0  0  0  0  0  0  0  0
  152.0102  141.1345  158.7228 H   0  0  0  0  0  0  0  0  0  0  0  0
  152.4948  139.5154  158.2543 H   0  0  0  0  0  0  0  0  0  0  0  0
  150.8068  139.8522  158.6253 H   0  0  0  0  0  0  0  0  0  0  0  0
  149.5018  141.3820  157.1574 H   0  0  0  0  0  0  0  0  0  0  0  0
  149.2489  140.6588  154.8202 H   0  0  0  0  0  0  0  0  0  0  0  0
  150.4877  141.7980  154.2993 H   0  0  0  0  0  0  0  0  0  0  0  0
  148.9537  142.3817  154.9384 H   0  0  0  0  0  0  0  0  0  0  0  0
  151.6765  143.1253  156.2830 H   0  0  0  0  0  0  0  0  0  0  0  0
  150.3809  142.6562  158.8118 H   0  0  0  0  0  0  0  0  0  0  0  0
  151.1192  145.4242  157.7702 H   0  0  0  0  0  0  0  0  0  0  0  0
  149.6600  144.9843  158.6502 H   0  0  0  0  0  0  0  0  0  0  0  0
  151.8982  146.0245  159.8938 H   0  0  0  0  0  0  0  0  0  0  0  0
  150.8285  144.8949  160.7108 H   0  0  0  0  0  0  0  0  0  0  0  0
  153.5928  144.3926  159.9898 H   0  0  0  0  0  0  0  0  0  0  0  0
  152.4562  143.3094  160.7792 H   0  0  0  0  0  0  0  0  0  0  0  0
  152.7291  142.0755  158.7674 H   0  0  0  0  0  0  0  0  0  0  0  0
  153.1296  143.5310  157.8595 H   0  0  0  0  0  0  0  0  0  0  0  0
  150.8198  137.9102  157.4462 H   0  0  0  0  0  0  0  0  0  0  0  0
  150.1350  143.6655  156.3959 H   0  0  0  0  0  0  0  0  0  0  0  0
  1  2  1  0  0  0  0
  1 17  1  0  0  0  0
  1 18  1  0  0  0  0
  1 19  1  0  0  0  0
  2 16  2  0  0  0  0
  2  3  1  0  0  0  0
  3  4  2  0  0  0  0
  3 20  1  0  0  0  0
  4  5  1  0  0  0  0
  5  6  1  0  0  0  0
  5 16  1  0  0  0  0
  6  7  1  0  0  0  0
  6  8  1  0  0  0  0
  6 21  1  0  0  0  0
  7 22  1  0  0  0  0
  7 23  1  0  0  0  0
  7 24  1  0  0  0  0
  8  9  1  0  0  0  0
  8 10  1  0  0  0  0
  8 25  1  0  0  0  0
  9 26  1  0  0  0  0
  9 27  1  0  0  0  0
  9 28  1  0  0  0  0
 10 11  1  0  0  0  0
 10 29  1  0  0  0  0
 10 40  1  0  0  0  0
 11 15  1  0  0  0  0
 11 12  1  0  0  0  0
 11 30  1  0  0  0  0
 12 13  1  0  0  0  0
 12 31  1  0  0  0  0
 12 32  1  0  0  0  0
 13 14  1  0  0  0  0
 13 33  1  0  0  0  0
 13 34  1  0  0  0  0
 14 15  1  0  0  0  0
 14 35  1  0  0  0  0
 14 36  1  0  0  0  0
 15 37  1  0  0  0  0
 15 38  1  0  0  0  0
 16 39  1  0  0  0  0
M  CHG  1  10   1
M  END
> <s_m_source_file>
AV-unprocessed.smi

> <i_m_source_file_index>
3160

> <i_lp_mmshare_version>
43012

> <i_f3d_flags>
0

> <s_epik_input>
W0NIM11jMVtjSF1ubihbY0hdMSlbQ0BIXShbQ0gzXSlbQ0BIXShbQ0gzXSlbTkhdW0NIXTJbQ0gyXVtDSDJdW0NIMl1bQ0gyXTI=

> <s_epik_cmdline>
J2VwaWtfcHl0aG9uJywgJy1waCcsICc3LjAnLCAnLXRuJywgJzgnLCAnLW1hJywgJzIwMCcsICctbWV0YWxfYmluZGluZycsICctaW1hZScsICc8aW5maWxlLm1hZT4nLCAnLW9tYWUnLCAnPG91dGZpbGUubWFlPic=

> <r_lp_tautomer_probability>
1

> <r_epik_Ionization_Penalty>
0.00117636

> <r_epik_Ionization_Penalty_Charging>
0.00115264

> <r_epik_Ionization_Penalty_Neutral>
2.37123e-05

> <r_epik_State_Penalty>
-0

> <r_epik_Charging_Adjusted_Penalty>
0.00115264

> <i_epik_Tot_Q>
1

> <i_epik_Tot_abs_Q>
1

> <r_epik_Metal_State_Penalty>
-0

> <b_epik_Metal_Only>
0

> <s_lp_Force_Field>
OPLS_2005

> <r_lp_Energy>
32.1139

> <b_lp_Chiralities_Consistent>
1

> <s_lp_Variant>
AV-unprocessed.smi:3160-1

> <Gold.Version>
5.8.1

> <Gold.Id.Protein>
6NUR|6NUR_protein|mol2

> <Gold.PLP.Fitness>
46.0687

> <Gold.PLP.PLP>
-36.4127

> <Gold.PLP.part.hbond>
-2.0000

> <Gold.PLP.part.metal>
0.0000

> <Gold.PLP.part.buried>
-4.6286

> <Gold.PLP.part.nonpolar>
-29.9287

> <Gold.PLP.part.repulsive>
0.1582

> <Gold.PLP.ligand.clash>
0.0077

> <Gold.PLP.ligand.torsion>
1.2926

> <Gold.PLP.Chemscore.Hbond>
3.0000

> <Gold.PLP.Chemscore.CHOScore>
1.0543

> <Gold.PLP.Chemscore.Metal>
0.0000

> <Gold.Chemscore.Hbonds>
donor molecule, donor type, donor heavy atom, donor atom, acceptor molecule, acceptor atom, score
      L1  H    10    40       P1  8028  2.00
      P1  H  7989  7998       L1     4  1.00
      L1  C     3    20       P1  7948  0.03
      L1  C     3    20       P1  7949  0.96

> <Gold.PLP.Chemscore.Internal.Correction>
0.0861

> <Gold.Rescore>
     Score         DG    S(hbond)    S(metal)    S(lipo)     H(rot)  DE(clash)    DE(int)     intcor
     18.32     -21.15       1.99        0.00     107.04       1.37       0.00       2.83       ----

> <Gold.Chemscore.Fitness>
18.3161

> <Gold.Chemscore.DG>
-21.1543

> <Gold.Chemscore.ZeroCoef>
-5.4800

> <Gold.Chemscore.Hbond>
1.9939

> <Gold.Chemscore.Metal>
0.0000

> <Gold.Chemscore.Lipo>
107.0429

> <Gold.Chemscore.Internal_Hbond>
0.0000

> <Gold.Chemscore.DEClash>
0.0043

> <Gold.Chemscore.DEInternal>
2.8339

> <Gold.Chemscore.Rot>
1.3709

> <Gold.Chemscore.Internal.Correction>
   9.000000E+99

> <Gold.Chemscore.Hbonds>
donor molecule, donor type, donor heavy atom, donor atom, acceptor molecule, acceptor atom, score
      L1  H    10    40       P1  8028  1.00
      P1  H  7989  7998       L1     4  1.00

> <Gold.Chemscore.Hbond.Weighted>
-6.6598

> <Gold.Chemscore.Metal.Weighted>
-0.0000

> <Gold.Chemscore.Lipo.Weighted>
-12.5240

> <Gold.Chemscore.Internal_Hbond.Weighted>
0.0000

> <Gold.Chemscore.DEClash.Weighted>
0.0043

> <Gold.Chemscore.DEInternal.Weighted>
2.8339

> <Gold.Chemscore.Rot.Weighted>
3.5095

> <Gold.Chemscore.Internal.Correction.Weighted>
   9.000000E+99

> <Gold.Protein.RotatedTorsions>
[ 6907 6896 6895 6894 ] final -138.20 input  -60.11 | X-H torsion
[ 7974 7965 7964 7962 ] final -163.94 input  175.53 | X-H torsion
[ 8008 7997 7996 7995 ] final  127.66 input   59.86 | X-H torsion
[ 10167 10162 10161 10158 ] final  -85.13 input  -65.29 | X-H torsion
[ 10718 10713 10712 10709 ] final  115.86 input   66.30 | X-H torsion
[ 10763 10752 10751 10750 ] final  -46.51 input  -60.55 | X-H torsion
[ 11005 11000 10999 10996 ] final  -95.82 input  -57.11 | X-H torsion

> <Gold.Protein.ActiveResidues>
 VAL166  LYS551  ARG553  GLY616  TRP617  ASP618  TYR619  PRO620  LYS621  CYS622 
 ASP623  PHE694  ASN695  SER759  ASP760  ASP761  ALA762  ILE779  LEU786  VAL792 
 PHE793  MET794  SER795  GLU796  ALA797  LYS798  CYS799  TRP800  GLU811  SER814 

> <Gold.Protein.RotatedAtoms>
  151.0320  133.5782  159.2659 H   0  0  0  0  0  0  0  0  0  0  0  0  # atno 6907 bound_to 6896
  151.2860  135.0727  159.9196 H   0  0  0  0  0  0  0  0  0  0  0  0  # atno 6908 bound_to 6896
  152.5346  134.0026  159.7956 H   0  0  0  0  0  0  0  0  0  0  0  0  # atno 6909 bound_to 6896
  144.7311  140.3033  143.6201 H   0  0  0  0  0  0  0  0  0  0  0  0  # atno 7974 bound_to 7965
  156.2896  140.2663  156.2310 H   0  0  0  0  0  0  0  0  0  0  0  0  # atno 8008 bound_to 7997
  155.0072  140.0387  157.2403 H   0  0  0  0  0  0  0  0  0  0  0  0  # atno 8009 bound_to 7997
  154.7549  140.2750  155.6266 H   0  0  0  0  0  0  0  0  0  0  0  0  # atno 8010 bound_to 7997
  140.4067  143.2640  151.9072 H   0  0  0  0  0  0  0  0  0  0  0  0  # atno 10167 bound_to 10162
  157.6196  131.1018  150.7390 H   0  0  0  0  0  0  0  0  0  0  0  0  # atno 10718 bound_to 10713
  154.0461  135.6637  153.4795 H   0  0  0  0  0  0  0  0  0  0  0  0  # atno 10763 bound_to 10752
  153.0482  135.5101  154.7796 H   0  0  0  0  0  0  0  0  0  0  0  0  # atno 10764 bound_to 10752
  154.6787  135.3041  154.9609 H   0  0  0  0  0  0  0  0  0  0  0  0  # atno 10765 bound_to 10752
  141.1430  133.8053  157.0487 H   0  0  0  0  0  0  0  0  0  0  0  0  # atno 11005 bound_to 11000
  145.7738  139.1867  143.2197 LP  0  0  0  0  0  0  0  0  0  0  0  0  # atno 17320 bound_to 7965
  146.0889  140.7678  142.9605 LP  0  0  0  0  0  0  0  0  0  0  0  0  # atno 17321 bound_to 7965
  139.4783  144.5579  151.8285 LP  0  0  0  0  0  0  0  0  0  0  0  0  # atno 17342 bound_to 10162
  140.4682  144.1625  150.5914 LP  0  0  0  0  0  0  0  0  0  0  0  0  # atno 17343 bound_to 10162
  156.7750  130.4841  149.5411 LP  0  0  0  0  0  0  0  0  0  0  0  0  # atno 17370 bound_to 10713
  156.1335  130.6195  151.0367 LP  0  0  0  0  0  0  0  0  0  0  0  0  # atno 17371 bound_to 10713
  140.0646  134.9736  157.1363 LP  0  0  0  0  0  0  0  0  0  0  0  0  # atno 17394 bound_to 11000
  140.3799  134.2299  155.7172 LP  0  0  0  0  0  0  0  0  0  0  0  0  # atno 17395 bound_to 11000

$$$$
