#       Name:                AV-unprocessed.smi:2732
#       Creating user name   scv26
#       Creation time:       Fri Mar 27 14:57:46 2020


#       File generated by GOLD software.
#

@<TRIPOS>MOLECULE
AV-unprocessed.smi:2732
    39    40     1
SMALL
NO_CHARGES


@<TRIPOS>ATOM
      1 ****        -0.5114  -2.9441   2.1672 C.3            1 S1                 0.0000
      2 ****        -0.0765  -2.1364   0.9354 C.3            1 S1                 0.0000
      3 ****         1.3482  -2.1033   0.9278 O.3            1 S1                 0.0000
      4 ****         1.9421  -1.6494  -0.2824 C.3            1 S1                 0.0000
      5 ****         3.4470  -1.7091  -0.1349 C.3            1 S1                 0.0000
      6 ****         4.2047  -0.5471   0.4660 C.3            1 S1                 0.0000
      7 ****         4.3376  -0.8511  -1.0047 C.3            1 S1                 0.0000
      8 ****        -0.6411  -0.7069   0.9744 C.2            1 S1                 0.0000
      9 ****        -0.4374   0.0018   1.9601 O.2            1 S1                 0.0000
     10 ****        -1.3433  -0.3255  -0.1085 N.am           1 S1                 0.0000
     11 ****        -1.9365   0.9373  -0.3780 C.ar           1 S1                 0.0000
     12 ****        -1.5043   2.1564   0.1971 C.ar           1 S1                 0.0000
     13 ****        -2.1548   3.3503  -0.1701 C.ar           1 S1                 0.0000
     14 ****        -3.2069   3.2848  -1.1050 C.ar           1 S1                 0.0000
     15 ****        -3.8706   4.4459  -1.4928 N.pl3          1 S1                 0.0000
     16 ****        -3.6196   2.1309  -1.6699 N.ar           1 S1                 0.0000
     17 ****        -2.9912   0.9899  -1.3136 C.ar           1 S1                 0.0000
     18 ****        -1.5980  -2.9946   2.2460 H              1 S1                 0.0000
     19 ****        -0.1273  -2.5077   3.0903 H              1 S1                 0.0000
     20 ****        -0.1385  -3.9669   2.1079 H              1 S1                 0.0000
     21 ****        -0.4311  -2.6544   0.0419 H              1 S1                 0.0000
     22 ****         1.6418  -2.2887  -1.1135 H              1 S1                 0.0000
     23 ****         1.6433  -0.6277  -0.5208 H              1 S1                 0.0000
     24 ****         3.8271  -2.7015   0.1008 H              1 S1                 0.0000
     25 ****         3.6361   0.3371   0.7477 H              1 S1                 0.0000
     26 ****         5.0516  -0.7799   1.1081 H              1 S1                 0.0000
     27 ****         5.2761  -1.2839  -1.3452 H              1 S1                 0.0000
     28 ****         3.8588  -0.1673  -1.7029 H              1 S1                 0.0000
     29 ****        -1.5134  -1.0418  -0.7997 H              1 S1                 0.0000
     30 ****        -0.6821   2.2022   0.8943 H              1 S1                 0.0000
     31 ****        -1.8452   4.2937   0.2550 H              1 S1                 0.0000
     32 ****        -3.6183   5.3496  -1.1195 H              1 S1                 0.0000
     33 ****        -4.6220   4.4210  -2.1671 H              1 S1                 0.0000
     34 ****        -3.3460   0.0880  -1.7907 H              1 S1                 0.0000
     35 ****         1.6792  -3.0302   1.1051 LP             1 S1                 0.0000
     36 ****         1.6465  -1.4963   1.6643 LP             1 S1                 0.0000
     37 ****         0.0930  -0.3531   2.7300 LP             1 S1                 0.0000
     38 ****        -0.8022   0.9323   1.9908 LP             1 S1                 0.0000
     39 ****        -4.3684   2.1209  -2.3326 LP             1 S1                 0.0000
@<TRIPOS>BOND
    1    1    2 1     
    2    1   18 1     
    3    1   19 1     
    4    1   20 1     
    5    2    3 1     
    6    2    8 1     
    7    2   21 1     
    8    3    4 1     
    9    4    5 1     
   10    4   22 1     
   11    4   23 1     
   12    5    7 1     
   13    5    6 1     
   14    5   24 1     
   15    6    7 1     
   16    6   25 1     
   17    6   26 1     
   18    7   27 1     
   19    7   28 1     
   20    8    9 2     
   21    8   10 am    
   22   10   11 1     
   23   10   29 1     
   24   11   17 ar    
   25   11   12 ar    
   26   12   13 ar    
   27   12   30 1     
   28   13   14 ar    
   29   13   31 1     
   30   14   15 1     
   31   14   16 ar    
   32   15   32 1     
   33   15   33 1     
   34   16   17 ar    
   35   17   34 1     
   36    3   35 1     
   37    3   36 1     
   38    9   37 1     
   39    9   38 1     
   40   16   39 1     
@<TRIPOS>SUBSTRUCTURE
      1 S1             1
@<TRIPOS>SET
LONE_PAIRS      STATIC     ATOMS    <user>   **** ""
5 35 36 37 38 39
DONOR_HYDROGENS      STATIC     ATOMS    <user>   **** ""
3 29 32 33
ATOM$BLUE        STATIC     ATOMS    COLORGROUP SYSTEM
5 35 36 37 38 39
ATOM$RED        STATIC     ATOMS    COLORGROUP SYSTEM
3 29 32 33
