AV-unprocessed.smi:2931|AV-procd|sdf|11243|dock1
  -GOLD-   2272016133D 1   1.00000     0.00000
 Structure written by MMmdl.
 42 43  0  0  0  0  0  0  0  0  2 V2000
  146.2964  133.7923  152.1489 C   0  0  0  0  0  0  0  0  0  0  0  0
  147.5032  133.8950  152.9968 N   0  3  2  0  0  0  0  0  0  0  0  0
  148.1638  132.5817  153.2041 C   0  0  0  0  0  0  0  0  0  0  0  0
  149.4838  132.7422  153.9779 C   0  0  0  0  0  0  0  0  0  0  0  0
  149.2662  133.4866  155.3063 C   0  0  0  0  0  0  0  0  0  0  0  0
  148.5376  134.8236  155.0784 C   0  0  1  0  0  0  0  0  0  0  0  0
  149.4270  135.7664  154.3992 N   0  0  0  0  0  0  0  0  0  0  0  0
  149.9868  136.8452  154.9650 C   0  0  0  0  0  0  0  0  0  0  0  0
  149.7907  137.1908  156.1299 O   0  0  0  0  0  0  0  0  0  0  0  0
  150.7813  137.5026  154.1093 N   0  0  0  0  0  0  0  0  0  0  0  0
  151.5339  138.7097  154.4313 C   0  0  0  0  0  0  0  0  0  0  0  0
  152.1117  138.6566  155.8551 C   0  0  0  0  0  0  0  0  0  0  0  0
  151.7568  139.8915  156.6601 C   0  0  0  0  0  0  0  0  0  0  0  0
  151.0946  140.9803  156.0566 C   0  0  0  0  0  0  0  0  0  0  0  0
  150.7834  142.1016  156.8519 C   0  0  0  0  0  0  0  0  0  0  0  0
  151.0860  142.1864  158.1655 N   0  0  0  0  0  0  0  0  0  0  0  0
  151.7190  141.1389  158.7366 C   0  0  0  0  0  0  0  0  0  0  0  0
  152.0760  139.9719  158.0313 C   0  0  0  0  0  0  0  0  0  0  0  0
  147.2338  134.5846  154.2836 C   0  0  0  0  0  0  0  0  0  0  0  0
  145.5308  133.1815  152.6294 H   0  0  0  0  0  0  0  0  0  0  0  0
  146.5394  133.3426  151.1857 H   0  0  0  0  0  0  0  0  0  0  0  0
  145.8757  134.7799  151.9570 H   0  0  0  0  0  0  0  0  0  0  0  0
  147.4896  131.9159  153.7454 H   0  0  0  0  0  0  0  0  0  0  0  0
  148.3631  132.1150  152.2385 H   0  0  0  0  0  0  0  0  0  0  0  0
  149.9233  131.7627  154.1699 H   0  0  0  0  0  0  0  0  0  0  0  0
  150.2036  133.2841  153.3631 H   0  0  0  0  0  0  0  0  0  0  0  0
  148.6712  132.8618  155.9738 H   0  0  0  0  0  0  0  0  0  0  0  0
  150.2198  133.6496  155.8106 H   0  0  0  0  0  0  0  0  0  0  0  0
  148.2845  135.2435  156.0536 H   0  0  0  0  0  0  0  0  0  0  0  0
  149.6582  135.5623  153.4378 H   0  0  0  0  0  0  0  0  0  0  0  0
  150.8830  137.1394  153.1728 H   0  0  0  0  0  0  0  0  0  0  0  0
  152.3306  138.8602  153.7005 H   0  0  0  0  0  0  0  0  0  0  0  0
  150.8609  139.5623  154.3352 H   0  0  0  0  0  0  0  0  0  0  0  0
  151.7383  137.7754  156.3786 H   0  0  0  0  0  0  0  0  0  0  0  0
  153.1976  138.5567  155.8206 H   0  0  0  0  0  0  0  0  0  0  0  0
  150.8290  140.9600  155.0097 H   0  0  0  0  0  0  0  0  0  0  0  0
  150.2770  142.9527  156.4214 H   0  0  0  0  0  0  0  0  0  0  0  0
  151.9474  141.2325  159.7879 H   0  0  0  0  0  0  0  0  0  0  0  0
  152.5802  139.1598  158.5343 H   0  0  0  0  0  0  0  0  0  0  0  0
  146.7281  135.5322  154.0938 H   0  0  0  0  0  0  0  0  0  0  0  0
  146.5430  133.9826  154.8764 H   0  0  0  0  0  0  0  0  0  0  0  0
  148.1591  134.4738  152.4921 H   0  0  0  0  0  0  0  0  0  0  0  0
  1  2  1  0  0  0  0
  1 20  1  0  0  0  0
  1 21  1  0  0  0  0
  1 22  1  0  0  0  0
  2 19  1  0  0  0  0
  2  3  1  0  0  0  0
  2 42  1  0  0  0  0
  3  4  1  0  0  0  0
  3 23  1  0  0  0  0
  3 24  1  0  0  0  0
  4  5  1  0  0  0  0
  4 25  1  0  0  0  0
  4 26  1  0  0  0  0
  5  6  1  0  0  0  0
  5 27  1  0  0  0  0
  5 28  1  0  0  0  0
  6  7  1  0  0  0  0
  6 19  1  0  0  0  0
  6 29  1  0  0  0  0
  7  8  1  0  0  0  0
  7 30  1  0  0  0  0
  8  9  2  0  0  0  0
  8 10  1  0  0  0  0
 10 11  1  0  0  0  0
 10 31  1  0  0  0  0
 11 12  1  0  0  0  0
 11 32  1  0  0  0  0
 11 33  1  0  0  0  0
 12 13  1  0  0  0  0
 12 34  1  0  0  0  0
 12 35  1  0  0  0  0
 13 18  1  0  0  0  0
 13 14  2  0  0  0  0
 14 15  1  0  0  0  0
 14 36  1  0  0  0  0
 15 16  2  0  0  0  0
 15 37  1  0  0  0  0
 16 17  1  0  0  0  0
 17 18  2  0  0  0  0
 17 38  1  0  0  0  0
 18 39  1  0  0  0  0
 19 40  1  0  0  0  0
 19 41  1  0  0  0  0
M  CHG  1   2   1
M  END
> <s_m_source_file>
AV-unprocessed.smi

> <i_m_source_file_index>
2931

> <i_lp_mmshare_version>
43012

> <i_f3d_flags>
0

> <s_epik_input>
W0NIM11OMVtDSDJdW0NIMl1bQ0gyXVtDQEhdKFtDSDJdMSlbTkhdQyg9TylbTkhdW0NIMl1bQ0gyXWMyW2NIXVtjSF1uW2NIXVtjSF0y

> <s_epik_cmdline>
J2VwaWtfcHl0aG9uJywgJy1waCcsICc3LjAnLCAnLXRuJywgJzgnLCAnLW1hJywgJzIwMCcsICctbWV0YWxfYmluZGluZycsICctaW1hZScsICc8aW5maWxlLm1hZT4nLCAnLW9tYWUnLCAnPG91dGZpbGUubWFlPic=

> <r_epik_Ionization_Penalty>
0.0573876

> <r_epik_Ionization_Penalty_Charging>
0.00229982

> <r_epik_Ionization_Penalty_Neutral>
0.0550878

> <r_epik_State_Penalty>
0.0473925

> <r_epik_Charging_Adjusted_Penalty>
0.0496923

> <i_epik_Tot_Q>
1

> <i_epik_Tot_abs_Q>
1

> <r_epik_Metal_State_Penalty>
0.0433388

> <b_epik_Metal_Only>
0

> <s_lp_Force_Field>
OPLS_2005

> <r_lp_Energy>
20.9129

> <b_lp_Chiralities_Consistent>
1

> <s_lp_Variant>
AV-unprocessed.smi:2931-2

> <Gold.Version>
5.8.1

> <Gold.Id.Protein>
6NUR|6NUR_protein|mol2

> <Gold.PLP.Fitness>
44.7020

> <Gold.PLP.PLP>
-33.0071

> <Gold.PLP.part.hbond>
-3.6465

> <Gold.PLP.part.metal>
0.0000

> <Gold.PLP.part.buried>
-4.6849

> <Gold.PLP.part.nonpolar>
-24.8725

> <Gold.PLP.part.repulsive>
0.1889

> <Gold.PLP.ligand.clash>
0.0000

> <Gold.PLP.ligand.torsion>
0.6530

> <Gold.PLP.Chemscore.Hbond>
3.3257

> <Gold.PLP.Chemscore.CHOScore>
1.0000

> <Gold.PLP.Chemscore.Metal>
0.0000

> <Gold.Chemscore.Hbonds>
donor molecule, donor type, donor heavy atom, donor atom, acceptor molecule, acceptor atom, score
      L1  H     2    42       P1  7948  2.00
      L1  H     7    30       P1  7948  0.43
      L1  H    10    31       P1  7949  0.83
      L1  C    15    37       P1  8028  1.00

> <Gold.PLP.Chemscore.Internal.Correction>
0.0238

> <Gold.Rescore>
     Score         DG    S(hbond)    S(metal)    S(lipo)     H(rot)  DE(clash)    DE(int)     intcor
     13.92     -15.94       1.87        0.00      70.07       1.56       0.00       2.02       ----

> <Gold.Chemscore.Fitness>
13.9181

> <Gold.Chemscore.DG>
-15.9424

> <Gold.Chemscore.ZeroCoef>
-5.4800

> <Gold.Chemscore.Hbond>
1.8731

> <Gold.Chemscore.Metal>
0.0000

> <Gold.Chemscore.Lipo>
70.0659

> <Gold.Chemscore.Internal_Hbond>
0.0000

> <Gold.Chemscore.DEClash>
0.0004

> <Gold.Chemscore.DEInternal>
2.0239

> <Gold.Chemscore.Rot>
1.5592

> <Gold.Chemscore.Internal.Correction>
   9.000000E+99

> <Gold.Chemscore.Hbonds>
donor molecule, donor type, donor heavy atom, donor atom, acceptor molecule, acceptor atom, score
      L1  H     2    42       P1  7948  0.25
      L1  H     7    30       P1  7948  0.04
      L1  H    10    31       P1  7949  0.16

> <Gold.Chemscore.Hbond.Weighted>
-6.2562

> <Gold.Chemscore.Metal.Weighted>
-0.0000

> <Gold.Chemscore.Lipo.Weighted>
-8.1977

> <Gold.Chemscore.Internal_Hbond.Weighted>
0.0000

> <Gold.Chemscore.DEClash.Weighted>
0.0004

> <Gold.Chemscore.DEInternal.Weighted>
2.0239

> <Gold.Chemscore.Rot.Weighted>
3.9915

> <Gold.Chemscore.Internal.Correction.Weighted>
   9.000000E+99

> <Gold.Protein.RotatedTorsions>
[ 6907 6896 6895 6894 ] final -147.21 input  -60.11 | X-H torsion
[ 7974 7965 7964 7962 ] final  -43.22 input  175.53 | X-H torsion
[ 8008 7997 7996 7995 ] final   75.15 input   59.86 | X-H torsion
[ 10167 10162 10161 10158 ] final  145.84 input  -65.29 | X-H torsion
[ 10718 10713 10712 10709 ] final  -73.48 input   66.30 | X-H torsion
[ 10763 10752 10751 10750 ] final  113.25 input  -60.55 | X-H torsion
[ 11005 11000 10999 10996 ] final   75.94 input  -57.11 | X-H torsion

> <Gold.Protein.ActiveResidues>
 VAL166  LYS551  ARG553  GLY616  TRP617  ASP618  TYR619  PRO620  LYS621  CYS622 
 ASP623  PHE694  ASN695  SER759  ASP760  ASP761  ALA762  ILE779  LEU786  VAL792 
 PHE793  MET794  SER795  GLU796  ALA797  LYS798  CYS799  TRP800  GLU811  SER814 

> <Gold.Protein.RotatedAtoms>
  151.1524  133.4898  159.2594 H   0  0  0  0  0  0  0  0  0  0  0  0  # atno 6907 bound_to 6896
  151.1540  135.0241  159.8691 H   0  0  0  0  0  0  0  0  0  0  0  0  # atno 6908 bound_to 6896
  152.5463  134.1405  159.8530 H   0  0  0  0  0  0  0  0  0  0  0  0  # atno 6909 bound_to 6896
  146.0040  140.7041  142.9256 H   0  0  0  0  0  0  0  0  0  0  0  0  # atno 7974 bound_to 7965
  155.8087  140.3474  155.5445 H   0  0  0  0  0  0  0  0  0  0  0  0  # atno 8008 bound_to 7997
  155.8463  140.0949  157.1723 H   0  0  0  0  0  0  0  0  0  0  0  0  # atno 8009 bound_to 7997
  154.4006  140.1385  156.3777 H   0  0  0  0  0  0  0  0  0  0  0  0  # atno 8010 bound_to 7997
  139.4918  144.5872  151.6753 H   0  0  0  0  0  0  0  0  0  0  0  0  # atno 10167 bound_to 10162
  156.0279  130.4395  150.2749 H   0  0  0  0  0  0  0  0  0  0  0  0  # atno 10718 bound_to 10713
  153.4897  135.3661  155.2485 H   0  0  0  0  0  0  0  0  0  0  0  0  # atno 10763 bound_to 10752
  154.8752  135.3974  154.3603 H   0  0  0  0  0  0  0  0  0  0  0  0  # atno 10764 bound_to 10752
  153.4221  135.7080  153.6353 H   0  0  0  0  0  0  0  0  0  0  0  0  # atno 10765 bound_to 10752
  139.9321  134.7559  156.1333 H   0  0  0  0  0  0  0  0  0  0  0  0  # atno 11005 bound_to 11000
  144.6929  140.3282  143.7220 LP  0  0  0  0  0  0  0  0  0  0  0  0  # atno 17320 bound_to 7965
  145.7444  139.1774  143.2357 LP  0  0  0  0  0  0  0  0  0  0  0  0  # atno 17321 bound_to 7965
  140.5491  144.0454  150.6119 LP  0  0  0  0  0  0  0  0  0  0  0  0  # atno 17342 bound_to 10162
  140.3502  143.2967  152.0495 LP  0  0  0  0  0  0  0  0  0  0  0  0  # atno 17343 bound_to 10162
  157.0852  131.0154  151.3142 LP  0  0  0  0  0  0  0  0  0  0  0  0  # atno 17370 bound_to 10713
  157.4897  130.7814  149.7495 LP  0  0  0  0  0  0  0  0  0  0  0  0  # atno 17371 bound_to 10713
  141.0915  133.6712  156.2551 LP  0  0  0  0  0  0  0  0  0  0  0  0  # atno 17394 bound_to 11000
  140.6174  134.5396  157.5542 LP  0  0  0  0  0  0  0  0  0  0  0  0  # atno 17395 bound_to 11000

$$$$
