#       Name:                AV-unprocessed.smi:49
#       Creating user name   scv26
#       Creation time:       Thu Mar 26 16:35:08 2020


#       File generated by GOLD software.
#

@<TRIPOS>MOLECULE
AV-unprocessed.smi:49
    32    33     1
SMALL
NO_CHARGES


@<TRIPOS>ATOM
      1 ****        -4.2927   1.5799   0.9417 C.3            1 S1                 0.0000
      2 ****        -3.7421   0.1515   0.8849 C.3            1 S1                 0.0000
      3 ****        -2.2294   0.1230   0.8937 C.2            1 S1                 0.0000
      4 ****        -1.4427   0.1853  -0.1761 N.2            1 S1                 0.0000
      5 ****        -0.1865   0.1781   0.2922 C.2            1 S1                 0.0000
      6 ****         1.0475   0.1954  -0.5905 C.3            1 S1                 0.0000
      7 ****         1.5463  -1.2144  -0.9305 C.3            1 S1                 0.0000
      8 ****         3.0327  -0.9891  -1.1625 C.3            1 S1                 0.0000
      9 ****         3.8001  -2.1654  -1.0181 O.3            1 S1                 0.0000
     10 ****         3.3664   0.0586  -0.1040 C.3            1 S1                 0.0000
     11 ****         2.1861   0.9141  -0.0051 N.3            1 S1                 0.0000
     12 ****        -0.1816   0.1020   1.6330 N.2            1 S1                 0.0000
     13 ****        -1.4501   0.0825   1.9886 N.pl3          1 S1                -1.0000
     14 ****         0.7775   0.6919  -1.5232 H              1 S1                 0.0000
     15 ****         3.1923  -0.5741  -2.1588 H              1 S1                 0.0000
     16 ****        -5.3827   1.5773   0.9411 H              1 S1                 0.0000
     17 ****        -3.9587   2.1628   0.0829 H              1 S1                 0.0000
     18 ****        -3.9597   2.0925   1.8447 H              1 S1                 0.0000
     19 ****        -4.1094  -0.4240   1.7350 H              1 S1                 0.0000
     20 ****        -4.0998  -0.3511  -0.0142 H              1 S1                 0.0000
     21 ****         1.4063  -1.8767  -0.0739 H              1 S1                 0.0000
     22 ****         1.0305  -1.6557  -1.7837 H              1 S1                 0.0000
     23 ****         3.5041  -2.7959  -1.6567 H              1 S1                 0.0000
     24 ****         3.5354  -0.4297   0.8568 H              1 S1                 0.0000
     25 ****         4.2636   0.6286  -0.3461 H              1 S1                 0.0000
     26 ****         2.3473   1.7531  -0.5522 H              1 S1                 0.0000
     27 ****        -1.7290   0.2286  -1.1332 LP             1 S1                 0.0000
     28 ****         3.6798  -2.5359  -0.0971 LP             1 S1                 0.0000
     29 ****         4.7665  -1.9588  -1.1706 LP             1 S1                 0.0000
     30 ****         2.0045   1.1496   0.9497 LP             1 S1                 0.0000
     31 ****         0.6164   0.0674   2.2346 LP             1 S1                 0.0000
     32 ****        -1.7831   0.0434   2.9308 LP             1 S1                 0.0000
@<TRIPOS>BOND
    1    1    2 1     
    2    1   16 1     
    3    1   17 1     
    4    1   18 1     
    5    2    3 1     
    6    2   19 1     
    7    2   20 1     
    8    3   13 1     
    9    3    4 2     
   10    4    5 1     
   11    5    6 1     
   12    5   12 2     
   13    6   14 1     
   14    6   11 1     
   15    6    7 1     
   16    7    8 1     
   17    7   21 1     
   18    7   22 1     
   19    8   15 1     
   20    8    9 1     
   21    8   10 1     
   22    9   23 1     
   23   10   11 1     
   24   10   24 1     
   25   10   25 1     
   26   11   26 1     
   27   12   13 1     
   28    4   27 1     
   29    9   28 1     
   30    9   29 1     
   31   11   30 1     
   32   12   31 1     
   33   13   32 1     
@<TRIPOS>SUBSTRUCTURE
      1 S1             1
@<TRIPOS>SET
LONE_PAIRS      STATIC     ATOMS    <user>   **** ""
6 27 28 29 30 31 32
DONOR_HYDROGENS      STATIC     ATOMS    <user>   **** ""
2 23 26
ATOM$BLUE        STATIC     ATOMS    COLORGROUP SYSTEM
6 27 28 29 30 31 32
ATOM$RED        STATIC     ATOMS    COLORGROUP SYSTEM
2 23 26
