AV-unprocessed.smi:1057|AV-procd|sdf|4651|dock7
  -GOLD-   22720 3163D 1   1.00000     0.00000
 Structure written by MMmdl.
 45 46  0  0  0  0  0  0  0  0  2 V2000
  153.4474  142.7321  162.8492 C   0  0  0  0  0  0  0  0  0  0  0  0
  152.8255  143.4255  162.0597 C   0  0  0  0  0  0  0  0  0  0  0  0
  152.0646  144.2560  161.1146 C   0  0  0  0  0  0  0  0  0  0  0  0
  152.1779  143.7660  159.7490 N   0  0  0  0  0  0  0  0  0  0  0  0
  151.5400  144.3009  158.6984 C   0  0  0  0  0  0  0  0  0  0  0  0
  150.7928  145.2764  158.7897 O   0  0  0  0  0  0  0  0  0  0  0  0
  151.8098  143.6392  157.3415 C   0  0  0  0  0  0  0  0  0  0  0  0
  150.5853  143.3274  156.6078 N   0  0  0  0  0  0  0  0  0  0  0  0
  150.3256  142.1599  156.0015 C   0  0  0  0  0  0  0  0  0  0  0  0
  151.1171  141.2178  155.9697 O   0  0  0  0  0  0  0  0  0  0  0  0
  149.0944  142.1527  155.4646 N   0  0  0  0  0  0  0  0  0  0  0  0
  148.4533  141.0973  154.7564 C   0  0  0  0  0  0  0  0  0  0  0  0
  149.1155  139.8885  154.4225 C   0  0  0  0  0  0  0  0  0  0  0  0
  148.4288  138.8940  153.6974 C   0  0  0  0  0  0  0  0  0  0  0  0
  147.0957  139.1252  153.3099 C   0  0  0  0  0  0  0  0  0  0  0  0
  146.4978  140.2919  153.6310 N   0  3  0  0  0  0  0  0  0  0  0  0
  147.1142  141.2781  154.3270 C   0  0  0  0  0  0  0  0  0  0  0  0
  146.3978  142.4531  154.6057 N   0  0  0  0  0  0  0  0  0  0  0  0
  145.9143  143.1350  153.4083 C   0  0  0  0  0  0  0  0  0  0  0  0
  145.3548  144.5237  153.7622 C   0  0  0  0  0  0  0  0  0  0  0  0
  144.2808  144.4213  154.8577 C   0  0  0  0  0  0  0  0  0  0  0  0
  144.8343  143.6676  156.0780 C   0  0  0  0  0  0  0  0  0  0  0  0
  145.4053  142.2997  155.6663 C   0  0  0  0  0  0  0  0  0  0  0  0
  153.9873  142.1265  163.5422 H   0  0  0  0  0  0  0  0  0  0  0  0
  151.0202  144.2613  161.4299 H   0  0  0  0  0  0  0  0  0  0  0  0
  152.4396  145.2783  161.1787 H   0  0  0  0  0  0  0  0  0  0  0  0
  152.7777  142.9687  159.5934 H   0  0  0  0  0  0  0  0  0  0  0  0
  152.4073  144.3213  156.7364 H   0  0  0  0  0  0  0  0  0  0  0  0
  152.4088  142.7372  157.4793 H   0  0  0  0  0  0  0  0  0  0  0  0
  149.8739  144.0434  156.5927 H   0  0  0  0  0  0  0  0  0  0  0  0
  148.5192  142.9590  155.6606 H   0  0  0  0  0  0  0  0  0  0  0  0
  150.1445  139.7132  154.6977 H   0  0  0  0  0  0  0  0  0  0  0  0
  148.9215  137.9685  153.4373 H   0  0  0  0  0  0  0  0  0  0  0  0
  146.4964  138.4207  152.7516 H   0  0  0  0  0  0  0  0  0  0  0  0
  146.7260  143.2347  152.6863 H   0  0  0  0  0  0  0  0  0  0  0  0
  145.1376  142.5320  152.9358 H   0  0  0  0  0  0  0  0  0  0  0  0
  146.1661  145.1667  154.1064 H   0  0  0  0  0  0  0  0  0  0  0  0
  144.9396  144.9980  152.8728 H   0  0  0  0  0  0  0  0  0  0  0  0
  143.9436  145.4162  155.1500 H   0  0  0  0  0  0  0  0  0  0  0  0
  143.4075  143.8969  154.4679 H   0  0  0  0  0  0  0  0  0  0  0  0
  145.6174  144.2628  156.5499 H   0  0  0  0  0  0  0  0  0  0  0  0
  144.0512  143.5369  156.8253 H   0  0  0  0  0  0  0  0  0  0  0  0
  144.5988  141.6516  155.3207 H   0  0  0  0  0  0  0  0  0  0  0  0
  145.8608  141.8124  156.5294 H   0  0  0  0  0  0  0  0  0  0  0  0
  145.5327  140.4376  153.3340 H   0  0  0  0  0  0  0  0  0  0  0  0
  1  2  3  0  0  0  0
  1 24  1  0  0  0  0
  2  3  1  0  0  0  0
  3  4  1  0  0  0  0
  3 25  1  0  0  0  0
  3 26  1  0  0  0  0
  4  5  1  0  0  0  0
  4 27  1  0  0  0  0
  5  6  2  0  0  0  0
  5  7  1  0  0  0  0
  7  8  1  0  0  0  0
  7 28  1  0  0  0  0
  7 29  1  0  0  0  0
  8  9  1  0  0  0  0
  8 30  1  0  0  0  0
  9 10  2  0  0  0  0
  9 11  1  0  0  0  0
 11 12  1  0  0  0  0
 11 31  1  0  0  0  0
 12 17  1  0  0  0  0
 12 13  2  0  0  0  0
 13 14  1  0  0  0  0
 13 32  1  0  0  0  0
 14 15  2  0  0  0  0
 14 33  1  0  0  0  0
 15 16  1  0  0  0  0
 15 34  1  0  0  0  0
 16 17  2  0  0  0  0
 16 45  1  0  0  0  0
 17 18  1  0  0  0  0
 18 23  1  0  0  0  0
 18 19  1  0  0  0  0
 19 20  1  0  0  0  0
 19 35  1  0  0  0  0
 19 36  1  0  0  0  0
 20 21  1  0  0  0  0
 20 37  1  0  0  0  0
 20 38  1  0  0  0  0
 21 22  1  0  0  0  0
 21 39  1  0  0  0  0
 21 40  1  0  0  0  0
 22 23  1  0  0  0  0
 22 41  1  0  0  0  0
 22 42  1  0  0  0  0
 23 43  1  0  0  0  0
 23 44  1  0  0  0  0
M  CHG  1  16   1
M  END
> <s_m_source_file>
AV-unprocessed.smi

> <i_m_source_file_index>
1057

> <i_lp_mmshare_version>
43012

> <i_f3d_flags>
0

> <s_epik_input>
W0NIXSNDW0NIMl1bTkhdQyg9TylbQ0gyXVtOSF1DKD1PKVtOSF1jMVtjSF1bY0hdW2NIXW5jMU4yW0NIMl1bQ0gyXVtDSDJdW0NIMl1bQ0gyXTI=

> <s_epik_cmdline>
J2VwaWtfcHl0aG9uJywgJy1waCcsICc3LjAnLCAnLXRuJywgJzgnLCAnLW1hJywgJzIwMCcsICctbWV0YWxfYmluZGluZycsICctaW1hZScsICc8aW5maWxlLm1hZT4nLCAnLW9tYWUnLCAnPG91dGZpbGUubWFlPic=

> <r_lp_tautomer_probability>
0.999994

> <r_epik_Ionization_Penalty>
0.641093

> <r_epik_Ionization_Penalty_Charging>
0.641074

> <r_epik_Ionization_Penalty_Neutral>
1.89753e-05

> <r_epik_State_Penalty>
0.658761

> <r_epik_Charging_Adjusted_Penalty>
1.29984

> <i_epik_Tot_Q>
1

> <i_epik_Tot_abs_Q>
1

> <r_epik_Metal_State_Penalty>
0.833895

> <b_epik_Metal_Only>
0

> <s_lp_Force_Field>
OPLS_2005

> <r_lp_Energy>
23.0781

> <b_lp_Chiralities_Consistent>
1

> <s_lp_Variant>
AV-unprocessed.smi:1057-2

> <Gold.Version>
5.8.1

> <Gold.Id.Protein>
6NUR|6NUR_protein|mol2

> <Gold.PLP.Fitness>
54.3406

> <Gold.PLP.PLP>
-44.4650

> <Gold.PLP.part.hbond>
-2.7535

> <Gold.PLP.part.metal>
0.0000

> <Gold.PLP.part.buried>
-7.4098

> <Gold.PLP.part.nonpolar>
-34.6163

> <Gold.PLP.part.repulsive>
0.6494

> <Gold.PLP.ligand.clash>
0.0000

> <Gold.PLP.ligand.torsion>
0.3742

> <Gold.PLP.Chemscore.Hbond>
3.4720

> <Gold.PLP.Chemscore.CHOScore>
0.0000

> <Gold.PLP.Chemscore.Metal>
0.0000

> <Gold.Chemscore.Hbonds>
donor molecule, donor type, donor heavy atom, donor atom, acceptor molecule, acceptor atom, score
      L1  H     8    30       P1  8028  0.79
      L1  H    11    31       P1  8028  0.66
      L1  H    16    45       P1 10175  1.95

> <Gold.PLP.Chemscore.Internal.Correction>
0.2081

> <Gold.Rescore>
     Score         DG    S(hbond)    S(metal)    S(lipo)     H(rot)  DE(clash)    DE(int)     intcor
     18.05     -21.01       2.58        0.00      98.80       1.82       1.21       1.76       ----

> <Gold.Chemscore.Fitness>
18.0476

> <Gold.Chemscore.DG>
-21.0127

> <Gold.Chemscore.ZeroCoef>
-5.4800

> <Gold.Chemscore.Hbond>
2.5814

> <Gold.Chemscore.Metal>
0.0000

> <Gold.Chemscore.Lipo>
98.7997

> <Gold.Chemscore.Internal_Hbond>
0.0000

> <Gold.Chemscore.DEClash>
1.2054

> <Gold.Chemscore.DEInternal>
1.7597

> <Gold.Chemscore.Rot>
1.8159

> <Gold.Chemscore.Internal.Correction>
   9.000000E+99

> <Gold.Chemscore.Hbonds>
donor molecule, donor type, donor heavy atom, donor atom, acceptor molecule, acceptor atom, score
      L1  H     8    30       P1  8028  0.75
      L1  H    11    31       P1  8028  0.66
      L1  H    16    45       P1 10175  0.89

> <Gold.Chemscore.Hbond.Weighted>
-8.6218

> <Gold.Chemscore.Metal.Weighted>
-0.0000

> <Gold.Chemscore.Lipo.Weighted>
-11.5596

> <Gold.Chemscore.Internal_Hbond.Weighted>
0.0000

> <Gold.Chemscore.DEClash.Weighted>
1.2054

> <Gold.Chemscore.DEInternal.Weighted>
1.7597

> <Gold.Chemscore.Rot.Weighted>
4.6486

> <Gold.Chemscore.Internal.Correction.Weighted>
   9.000000E+99

> <Gold.Protein.RotatedTorsions>
[ 6907 6896 6895 6894 ] final  -71.15 input  -60.11 | X-H torsion
[ 7974 7965 7964 7962 ] final    2.55 input  175.53 | X-H torsion
[ 8008 7997 7996 7995 ] final -142.66 input   59.86 | X-H torsion
[ 10167 10162 10161 10158 ] final   85.74 input  -65.29 | X-H torsion
[ 10718 10713 10712 10709 ] final  -84.86 input   66.30 | X-H torsion
[ 10763 10752 10751 10750 ] final    7.76 input  -60.55 | X-H torsion
[ 11005 11000 10999 10996 ] final  -71.61 input  -57.11 | X-H torsion

> <Gold.Protein.ActiveResidues>
 VAL166  LYS551  ARG553  GLY616  TRP617  ASP618  TYR619  PRO620  LYS621  CYS622 
 ASP623  PHE694  ASN695  SER759  ASP760  ASP761  ALA762  ILE779  LEU786  VAL792 
 PHE793  MET794  SER795  GLU796  ALA797  LYS798  CYS799  TRP800  GLU811  SER814 

> <Gold.Protein.RotatedAtoms>
  150.7225  134.5351  159.5719 H   0  0  0  0  0  0  0  0  0  0  0  0  # atno 6907 bound_to 6896
  152.2875  134.7756  160.0393 H   0  0  0  0  0  0  0  0  0  0  0  0  # atno 6908 bound_to 6896
  151.8382  133.3384  159.3671 H   0  0  0  0  0  0  0  0  0  0  0  0  # atno 6909 bound_to 6896
  146.2444  140.0819  142.8356 H   0  0  0  0  0  0  0  0  0  0  0  0  # atno 7974 bound_to 7965
  155.4979  140.0573  157.2944 H   0  0  0  0  0  0  0  0  0  0  0  0  # atno 8008 bound_to 7997
  154.4598  140.1991  156.0226 H   0  0  0  0  0  0  0  0  0  0  0  0  # atno 8009 bound_to 7997
  156.0869  140.3239  155.7769 H   0  0  0  0  0  0  0  0  0  0  0  0  # atno 8010 bound_to 7997
  139.8947  144.6365  150.8701 H   0  0  0  0  0  0  0  0  0  0  0  0  # atno 10167 bound_to 10162
  156.0002  130.4712  150.4474 H   0  0  0  0  0  0  0  0  0  0  0  0  # atno 10718 bound_to 10713
  153.2326  135.6894  153.7872 H   0  0  0  0  0  0  0  0  0  0  0  0  # atno 10763 bound_to 10752
  153.7031  135.3294  155.3230 H   0  0  0  0  0  0  0  0  0  0  0  0  # atno 10764 bound_to 10752
  154.8321  135.4572  154.1217 H   0  0  0  0  0  0  0  0  0  0  0  0  # atno 10765 bound_to 10752
  141.1595  133.6822  156.6933 H   0  0  0  0  0  0  0  0  0  0  0  0  # atno 11005 bound_to 11000
  145.0726  140.9166  143.4873 LP  0  0  0  0  0  0  0  0  0  0  0  0  # atno 17320 bound_to 7965
  145.0956  139.2859  143.5713 LP  0  0  0  0  0  0  0  0  0  0  0  0  # atno 17321 bound_to 7965
  140.7719  143.3483  151.2066 LP  0  0  0  0  0  0  0  0  0  0  0  0  # atno 17342 bound_to 10162
  139.7078  143.9426  152.2934 LP  0  0  0  0  0  0  0  0  0  0  0  0  # atno 17343 bound_to 10162
  157.2510  131.0546  151.2379 LP  0  0  0  0  0  0  0  0  0  0  0  0  # atno 17370 bound_to 10713
  157.3528  130.7091  149.6452 LP  0  0  0  0  0  0  0  0  0  0  0  0  # atno 17371 bound_to 10713
  140.3014  134.8160  157.4101 LP  0  0  0  0  0  0  0  0  0  0  0  0  # atno 17394 bound_to 11000
  140.1258  134.5159  155.8145 LP  0  0  0  0  0  0  0  0  0  0  0  0  # atno 17395 bound_to 11000

$$$$
