AV-unprocessed.smi:227|AV-procd|sdf|1728|dock2
  -GOLD-   2262020213D 1   1.00000     0.00000
 Structure written by MMmdl.
 54 58  0  0  0  0  0  0  0  0  1 V2000
  149.9130  140.7179  153.5445 O   0  0  0  0  0  0  0  0  0  0  0  0
  149.0825  140.8181  154.6832 C   0  0  0  0  0  0  0  0  0  0  0  0
  149.7644  140.2214  155.9412 C   0  0  1  0  0  0  0  0  0  0  0  0
  149.9048  138.6743  155.8240 C   0  0  0  0  0  0  0  0  0  0  0  0
  149.6114  137.9518  157.0534 N   0  0  0  0  0  0  0  0  0  0  0  0
  150.4646  137.1237  157.7451 C   0  0  0  0  0  0  0  0  0  0  0  0
  149.9674  136.5933  158.8276 N   0  0  0  0  0  0  0  0  0  0  0  0
  148.6648  137.0762  158.8861 C   0  0  0  0  0  0  0  0  0  0  0  0
  147.5721  136.9116  159.7901 C   0  0  0  0  0  0  0  0  0  0  0  0
  147.6049  136.1618  160.9277 N   0  0  0  0  0  0  0  0  0  0  0  0
  147.3611  136.7518  162.2364 C   0  0  2  0  0  0  0  0  0  0  0  0
  147.6784  135.5862  163.1888 C   0  0  0  0  0  0  0  0  0  0  0  0
  147.1904  134.3848  162.3675 C   0  0  0  0  0  0  0  0  0  0  0  0
  146.6414  135.0825  161.1091 C   0  0  1  0  0  0  0  0  0  0  0  0
  145.3192  135.8369  161.4068 C   0  0  1  0  0  0  0  0  0  0  0  0
  144.1890  135.0107  162.0469 C   0  0  0  0  0  0  0  0  0  0  0  0
  143.0856  135.8451  162.3276 O   0  0  0  0  0  0  0  0  0  0  0  0
  145.8407  137.0111  162.2576 C   0  0  0  0  0  0  0  0  0  0  0  0
  146.4088  137.5418  159.4759 N   0  0  0  0  0  0  0  0  0  0  0  0
  146.3175  138.2972  158.3790 C   0  0  0  0  0  0  0  0  0  0  0  0
  147.2534  138.5545  157.4660 N   0  0  0  0  0  0  0  0  0  0  0  0
  148.4219  137.9182  157.7617 C   0  0  0  0  0  0  0  0  0  0  0  0
  151.1231  140.9251  156.2543 C   0  0  2  0  0  0  0  0  0  0  0  0
  151.8631  140.3382  157.4539 C   0  0  0  0  0  0  0  0  0  0  0  0
  151.2928  141.0963  158.6545 C   0  0  0  0  0  0  0  0  0  0  0  0
  150.6718  142.2612  158.1240 O   0  0  0  0  0  0  0  0  0  0  0  0
  151.0098  142.3737  156.7507 C   0  0  0  0  0  0  0  0  0  0  0  0
  149.5747  140.0354  152.9849 H   0  0  0  0  0  0  0  0  0  0  0  0
  148.8036  141.8598  154.8398 H   0  0  0  0  0  0  0  0  0  0  0  0
  148.1693  140.2839  154.4308 H   0  0  0  0  0  0  0  0  0  0  0  0
  149.0949  140.4130  156.7808 H   0  0  0  0  0  0  0  0  0  0  0  0
  149.2658  138.2813  155.0350 H   0  0  0  0  0  0  0  0  0  0  0  0
  150.9143  138.4050  155.5124 H   0  0  0  0  0  0  0  0  0  0  0  0
  151.4779  136.9295  157.4240 H   0  0  0  0  0  0  0  0  0  0  0  0
  147.9551  137.6308  162.4788 H   0  0  0  0  0  0  0  0  0  0  0  0
  148.7507  135.5130  163.3735 H   0  0  0  0  0  0  0  0  0  0  0  0
  147.1736  135.6774  164.1513 H   0  0  0  0  0  0  0  0  0  0  0  0
  148.0317  133.7411  162.1075 H   0  0  0  0  0  0  0  0  0  0  0  0
  146.4594  133.7702  162.8910 H   0  0  0  0  0  0  0  0  0  0  0  0
  146.5609  134.3967  160.2650 H   0  0  0  0  0  0  0  0  0  0  0  0
  144.9452  136.2327  160.4608 H   0  0  0  0  0  0  0  0  0  0  0  0
  143.8638  134.2218  161.3681 H   0  0  0  0  0  0  0  0  0  0  0  0
  144.5099  134.5360  162.9738 H   0  0  0  0  0  0  0  0  0  0  0  0
  143.4089  136.7045  162.5506 H   0  0  0  0  0  0  0  0  0  0  0  0
  145.4374  137.0276  163.2709 H   0  0  0  0  0  0  0  0  0  0  0  0
  145.5965  137.9634  161.7850 H   0  0  0  0  0  0  0  0  0  0  0  0
  145.3581  138.7637  158.2104 H   0  0  0  0  0  0  0  0  0  0  0  0
  151.7520  140.8953  155.3637 H   0  0  0  0  0  0  0  0  0  0  0  0
  151.7799  139.2599  157.5706 H   0  0  0  0  0  0  0  0  0  0  0  0
  152.9266  140.5630  157.3603 H   0  0  0  0  0  0  0  0  0  0  0  0
  150.5427  140.5028  159.1782 H   0  0  0  0  0  0  0  0  0  0  0  0
  152.0741  141.3619  159.3671 H   0  0  0  0  0  0  0  0  0  0  0  0
  151.9810  142.8664  156.6781 H   0  0  0  0  0  0  0  0  0  0  0  0
  150.3040  143.0014  156.2119 H   0  0  0  0  0  0  0  0  0  0  0  0
  1  2  1  0  0  0  0
  1 28  1  0  0  0  0
  2  3  1  0  0  0  0
  2 29  1  0  0  0  0
  2 30  1  0  0  0  0
  3  4  1  0  0  0  0
  3 23  1  0  0  0  0
  3 31  1  0  0  0  0
  4  5  1  0  0  0  0
  4 32  1  0  0  0  0
  4 33  1  0  0  0  0
  5 22  1  0  0  0  0
  5  6  1  0  0  0  0
  6  7  2  0  0  0  0
  6 34  1  0  0  0  0
  7  8  1  0  0  0  0
  8 22  2  0  0  0  0
  8  9  1  0  0  0  0
  9 10  1  0  0  0  0
  9 19  2  0  0  0  0
 10 14  1  0  0  0  0
 10 11  1  0  0  0  0
 11 18  1  0  0  0  0
 11 12  1  0  0  0  0
 11 35  1  0  0  0  0
 12 13  1  0  0  0  0
 12 36  1  0  0  0  0
 12 37  1  0  0  0  0
 13 14  1  0  0  0  0
 13 38  1  0  0  0  0
 13 39  1  0  0  0  0
 14 15  1  0  0  0  0
 14 40  1  0  0  0  0
 15 16  1  0  0  0  0
 15 18  1  0  0  0  0
 15 41  1  0  0  0  0
 16 17  1  0  0  0  0
 16 42  1  0  0  0  0
 16 43  1  0  0  0  0
 17 44  1  0  0  0  0
 18 45  1  0  0  0  0
 18 46  1  0  0  0  0
 19 20  1  0  0  0  0
 20 21  2  0  0  0  0
 20 47  1  0  0  0  0
 21 22  1  0  0  0  0
 23 27  1  0  0  0  0
 23 24  1  0  0  0  0
 23 48  1  0  0  0  0
 24 25  1  0  0  0  0
 24 49  1  0  0  0  0
 24 50  1  0  0  0  0
 25 26  1  0  0  0  0
 25 51  1  0  0  0  0
 25 52  1  0  0  0  0
 26 27  1  0  0  0  0
 27 53  1  0  0  0  0
 27 54  1  0  0  0  0
M  END
> <s_m_source_file>
AV-unprocessed.smi

> <i_m_source_file_index>
227

> <i_lp_mmshare_version>
43012

> <i_f3d_flags>
0

> <s_epik_input>
W0NIMl0xT1tDSDJdW0NIMl1bQ0BIXTFbQ0BIXShbQ0gyXVtPSF0pW0NIMl1uKFtjSF1uMiljKGMyMyluW2NIXW5jM04oW0NASF00NSlbQ0BASF0oW0NIMl1bQ0gyXTQpW0NASF0oW0NIMl01KVtDSDJdW09IXQ==

> <s_epik_cmdline>
J2VwaWtfcHl0aG9uJywgJy1waCcsICc3LjAnLCAnLXRuJywgJzgnLCAnLW1hJywgJzIwMCcsICctbWV0YWxfYmluZGluZycsICctaW1hZScsICc8aW5maWxlLm1hZT4nLCAnLW9tYWUnLCAnPG91dGZpbGUubWFlPic=

> <r_lp_tautomer_probability>
1

> <r_epik_Ionization_Penalty>
0.0055791

> <r_epik_Ionization_Penalty_Charging>
0

> <r_epik_Ionization_Penalty_Neutral>
0.0055791

> <r_epik_State_Penalty>
0.00401299

> <r_epik_Charging_Adjusted_Penalty>
0.00401299

> <i_epik_Tot_Q>
0

> <i_epik_Tot_abs_Q>
0

> <r_epik_Metal_State_Penalty>
-0

> <b_epik_Metal_Only>
0

> <s_lp_Force_Field>
OPLS_2005

> <r_lp_Energy>
90.5153

> <b_lp_Chiralities_Consistent>
1

> <s_lp_Variant>
AV-unprocessed.smi:227-2

> <Gold.Version>
5.8.1

> <Gold.Id.Protein>
6NUR|6NUR_protein|mol2

> <Gold.PLP.Fitness>
47.4702

> <Gold.PLP.PLP>
-40.2828

> <Gold.PLP.part.hbond>
-3.9993

> <Gold.PLP.part.metal>
0.0000

> <Gold.PLP.part.buried>
-6.3340

> <Gold.PLP.part.nonpolar>
-28.9422

> <Gold.PLP.part.repulsive>
0.0639

> <Gold.PLP.ligand.clash>
0.0000

> <Gold.PLP.ligand.torsion>
0.6630

> <Gold.PLP.Chemscore.Hbond>
2.7452

> <Gold.PLP.Chemscore.CHOScore>
0.0000

> <Gold.PLP.Chemscore.Metal>
0.0000

> <Gold.Chemscore.Hbonds>
donor molecule, donor type, donor heavy atom, donor atom, acceptor molecule, acceptor atom, score
      L1  H     1    28       P1  7957  0.51
      P1  H  6896  6907       L1     7  0.80
      P1  H  6934  6947       L1    19  0.08
      P1  H  7989  7998       L1     1  0.42
      P1  H  8011  8017       L1     1  0.88

> <Gold.PLP.Chemscore.Internal.Correction>
0.2777

> <Gold.Rescore>
     Score         DG    S(hbond)    S(metal)    S(lipo)     H(rot)  DE(clash)    DE(int)     intcor
     10.42     -13.69       1.83        0.00      96.83       3.61       0.00       3.26       ----

> <Gold.Chemscore.Fitness>
10.4226

> <Gold.Chemscore.DG>
-13.6853

> <Gold.Chemscore.ZeroCoef>
-5.4800

> <Gold.Chemscore.Hbond>
1.8294

> <Gold.Chemscore.Metal>
0.0000

> <Gold.Chemscore.Lipo>
96.8307

> <Gold.Chemscore.Internal_Hbond>
0.0000

> <Gold.Chemscore.DEClash>
0.0009

> <Gold.Chemscore.DEInternal>
3.2618

> <Gold.Chemscore.Rot>
3.6071

> <Gold.Chemscore.Internal.Correction>
   9.000000E+99

> <Gold.Chemscore.Hbonds>
donor molecule, donor type, donor heavy atom, donor atom, acceptor molecule, acceptor atom, score
      L1  H     1    28       P1  7957  0.50
      P1  H  6896  6907       L1     7  0.77
      P1  H  7989  7998       L1     1  0.37
      P1  H  8011  8017       L1     1  0.28

> <Gold.Chemscore.Hbond.Weighted>
-6.1103

> <Gold.Chemscore.Metal.Weighted>
-0.0000

> <Gold.Chemscore.Lipo.Weighted>
-11.3292

> <Gold.Chemscore.Internal_Hbond.Weighted>
0.0000

> <Gold.Chemscore.DEClash.Weighted>
0.0009

> <Gold.Chemscore.DEInternal.Weighted>
3.2618

> <Gold.Chemscore.Rot.Weighted>
9.2342

> <Gold.Chemscore.Internal.Correction.Weighted>
   9.000000E+99

> <Gold.Protein.RotatedTorsions>
[ 6907 6896 6895 6894 ] final  -44.79 input  -60.11 | X-H torsion
[ 7974 7965 7964 7962 ] final  -29.82 input  175.53 | X-H torsion
[ 8008 7997 7996 7995 ] final  -58.57 input   59.86 | X-H torsion
[ 10167 10162 10161 10158 ] final  -71.22 input  -65.29 | X-H torsion
[ 10718 10713 10712 10709 ] final -154.86 input   66.30 | X-H torsion
[ 10763 10752 10751 10750 ] final  129.48 input  -60.55 | X-H torsion
[ 11005 11000 10999 10996 ] final -108.04 input  -57.11 | X-H torsion

> <Gold.Protein.ActiveResidues>
 VAL166  LYS551  ARG553  GLY616  TRP617  ASP618  TYR619  PRO620  LYS621  CYS622 
 ASP623  PHE694  ASN695  SER759  ASP760  ASP761  ALA762  ILE779  LEU786  VAL792 
 PHE793  MET794  SER795  GLU796  ALA797  LYS798  CYS799  TRP800  GLU811  SER814 

> <Gold.Protein.RotatedAtoms>
  150.9290  134.8706  159.7538 H   0  0  0  0  0  0  0  0  0  0  0  0  # atno 6907 bound_to 6896
  152.5029  134.4107  159.9457 H   0  0  0  0  0  0  0  0  0  0  0  0  # atno 6908 bound_to 6896
  151.4135  133.3680  159.2782 H   0  0  0  0  0  0  0  0  0  0  0  0  # atno 6909 bound_to 6896
  146.1188  140.5462  142.8744 H   0  0  0  0  0  0  0  0  0  0  0  0  # atno 7974 bound_to 7965
  154.4314  140.1081  156.5978 H   0  0  0  0  0  0  0  0  0  0  0  0  # atno 8008 bound_to 7997
  155.5943  140.3492  155.4556 H   0  0  0  0  0  0  0  0  0  0  0  0  # atno 8009 bound_to 7997
  156.0222  140.1242  157.0335 H   0  0  0  0  0  0  0  0  0  0  0  0  # atno 8010 bound_to 7997
  140.5290  143.2323  151.7296 H   0  0  0  0  0  0  0  0  0  0  0  0  # atno 10167 bound_to 10162
  156.5051  130.8409  151.2624 H   0  0  0  0  0  0  0  0  0  0  0  0  # atno 10718 bound_to 10713
  153.7425  135.3222  155.3306 H   0  0  0  0  0  0  0  0  0  0  0  0  # atno 10763 bound_to 10752
  154.8290  135.4548  154.1012 H   0  0  0  0  0  0  0  0  0  0  0  0  # atno 10764 bound_to 10752
  153.2191  135.6946  153.8103 H   0  0  0  0  0  0  0  0  0  0  0  0  # atno 10765 bound_to 10752
  141.0923  133.9033  157.2047 H   0  0  0  0  0  0  0  0  0  0  0  0  # atno 11005 bound_to 11000
  144.7578  140.5349  143.6757 LP  0  0  0  0  0  0  0  0  0  0  0  0  # atno 17320 bound_to 7965
  145.5509  139.1477  143.3394 LP  0  0  0  0  0  0  0  0  0  0  0  0  # atno 17321 bound_to 7965
  139.4948  144.4143  152.0047 LP  0  0  0  0  0  0  0  0  0  0  0  0  # atno 17342 bound_to 10162
  140.3244  144.3390  150.6002 LP  0  0  0  0  0  0  0  0  0  0  0  0  # atno 17343 bound_to 10162
  157.7458  130.9969  150.2795 LP  0  0  0  0  0  0  0  0  0  0  0  0  # atno 17370 bound_to 10713
  156.3295  130.3798  149.7503 LP  0  0  0  0  0  0  0  0  0  0  0  0  # atno 17371 bound_to 10713
  139.9751  135.0116  156.9611 LP  0  0  0  0  0  0  0  0  0  0  0  0  # atno 17394 bound_to 11000
  140.5223  134.0895  155.7295 LP  0  0  0  0  0  0  0  0  0  0  0  0  # atno 17395 bound_to 11000

$$$$
