#       Name:                AV-unprocessed.smi:2130
#       Creating user name   scv26
#       Creation time:       Fri Mar 27 11:43:58 2020


#       File generated by GOLD software.
#

@<TRIPOS>MOLECULE
AV-unprocessed.smi:2130
    36    37     1
SMALL
NO_CHARGES


@<TRIPOS>ATOM
      1 ****        -2.3648   1.5414  -1.8024 C.3            1 S1                 0.0000
      2 ****        -2.6533   2.1734  -0.4515 C.2            1 S1                 0.0000
      3 ****        -3.1443   3.4016  -0.2560 C.2            1 S1                 0.0000
      4 ****        -3.3065   3.8025   1.4362 S.3            1 S1                 0.0000
      5 ****        -2.6564   2.1863   1.8907 C.2            1 S1                 0.0000
      6 ****        -2.5110   1.8308   3.0592 O.2            1 S1                 0.0000
      7 ****        -2.3765   1.4683   0.7283 N.am           1 S1                 0.0000
      8 ****        -1.8519   0.0964   0.7472 C.3            1 S1                 0.0000
      9 ****        -0.3190   0.0281   0.7497 C.2            1 S1                 0.0000
     10 ****         0.3637   1.0513   0.8173 O.2            1 S1                 0.0000
     11 ****         0.2069  -1.2034   0.6666 N.am           1 S1                 0.0000
     12 ****         1.6317  -1.5150   0.6185 C.3            1 S1                 0.0000
     13 ****         1.8428  -2.9334   1.1655 C.3            1 S1                 0.0000
     14 ****         2.2314  -1.3771  -0.7711 C.3            1 S1                 0.0000
     15 ****         3.7228  -1.2321  -0.9629 C.3            1 S1                 0.0000
     16 ****         2.8058  -0.0669  -1.2566 C.3            1 S1                 0.0000
     17 ****        -2.3327   2.3061  -2.5791 H              1 S1                 0.0000
     18 ****        -3.1468   0.8277  -2.0622 H              1 S1                 0.0000
     19 ****        -1.4031   1.0285  -1.8105 H              1 S1                 0.0000
     20 ****        -3.4152   4.1123  -1.0228 H              1 S1                 0.0000
     21 ****        -2.2170  -0.4217   1.6355 H              1 S1                 0.0000
     22 ****        -2.2396  -0.4733  -0.0976 H              1 S1                 0.0000
     23 ****        -0.4291  -1.9861   0.6189 H              1 S1                 0.0000
     24 ****         2.1599  -0.8301   1.2847 H              1 S1                 0.0000
     25 ****         2.9023  -3.1892   1.1946 H              1 S1                 0.0000
     26 ****         1.3392  -3.6771   0.5472 H              1 S1                 0.0000
     27 ****         1.4559  -3.0259   2.1809 H              1 S1                 0.0000
     28 ****         1.7216  -1.9767  -1.5233 H              1 S1                 0.0000
     29 ****         4.3458  -1.1665  -0.0730 H              1 S1                 0.0000
     30 ****         4.1726  -1.7452  -1.8104 H              1 S1                 0.0000
     31 ****         2.6413   0.1954  -2.2997 H              1 S1                 0.0000
     32 ****         2.8232   0.7709  -0.5625 H              1 S1                 0.0000
     33 ****        -2.7580   2.4499   3.8046 LP             1 S1                 0.0000
     34 ****        -2.1458   0.9226   3.2638 LP             1 S1                 0.0000
     35 ****        -0.0801   1.9457   0.8718 LP             1 S1                 0.0000
     36 ****         1.3617   0.9874   0.8177 LP             1 S1                 0.0000
@<TRIPOS>BOND
    1    1    2 1     
    2    1   17 1     
    3    1   18 1     
    4    1   19 1     
    5    2    7 1     
    6    2    3 2     
    7    3    4 1     
    8    3   20 1     
    9    4    5 1     
   10    5    6 2     
   11    5    7 am    
   12    7    8 1     
   13    8    9 1     
   14    8   21 1     
   15    8   22 1     
   16    9   10 2     
   17    9   11 am    
   18   11   12 1     
   19   11   23 1     
   20   12   13 1     
   21   12   14 1     
   22   12   24 1     
   23   13   25 1     
   24   13   26 1     
   25   13   27 1     
   26   14   16 1     
   27   14   15 1     
   28   14   28 1     
   29   15   16 1     
   30   15   29 1     
   31   15   30 1     
   32   16   31 1     
   33   16   32 1     
   34    6   33 1     
   35    6   34 1     
   36   10   35 1     
   37   10   36 1     
@<TRIPOS>SUBSTRUCTURE
      1 S1             1
@<TRIPOS>SET
LONE_PAIRS      STATIC     ATOMS    <user>   **** ""
4 33 34 35 36
DONOR_HYDROGENS      STATIC     ATOMS    <user>   **** ""
1 23
ATOM$BLUE        STATIC     ATOMS    COLORGROUP SYSTEM
4 33 34 35 36
ATOM$RED        STATIC     ATOMS    COLORGROUP SYSTEM
1 23
