AV-unprocessed.smi:1244|AV-procd|sdf|5227|dock7
  -GOLD-   22720 4323D 1   1.00000     0.00000
 Structure written by MMmdl.
 55 57  0  0  0  0  0  0  0  0  2 V2000
  150.8319  142.7379  158.1760 C   0  0  0  0  0  0  0  0  0  0  0  0
  149.9909  141.7405  157.3714 C   0  0  1  0  0  0  0  0  0  0  0  0
  150.5757  140.3179  157.4257 C   0  0  0  0  0  0  0  0  0  0  0  0
  149.6935  139.3646  156.7136 N   0  3  1  0  0  0  0  0  0  0  0  0
  150.2711  137.9988  156.6546 C   0  0  0  0  0  0  0  0  0  0  0  0
  150.8991  137.6828  155.2836 C   0  0  0  0  0  0  0  0  0  0  0  0
  150.2278  136.5623  154.6357 N   0  0  0  0  0  0  0  0  0  0  0  0
  150.3156  135.2854  155.0337 C   0  0  0  0  0  0  0  0  0  0  0  0
  150.9768  134.9222  156.0068 O   0  0  0  0  0  0  0  0  0  0  0  0
  149.5773  134.4783  154.2543 N   0  0  0  0  0  0  0  0  0  0  0  0
  149.3895  133.0737  154.3852 C   0  0  0  0  0  0  0  0  0  0  0  0
  150.2886  132.2773  155.1356 C   0  0  0  0  0  0  0  0  0  0  0  0
  150.1061  130.8846  155.1784 C   0  0  0  0  0  0  0  0  0  0  0  0
  149.0372  130.3322  154.4533 C   0  0  0  0  0  0  0  0  0  0  0  0
  148.1808  131.0747  153.7236 N   0  0  0  0  0  0  0  0  0  0  0  0
  148.3344  132.4214  153.6847 C   0  0  0  0  0  0  0  0  0  0  0  0
  147.3944  133.1503  152.9202 N   0  0  0  0  0  0  0  0  0  0  0  0
  147.4890  133.1802  151.4642 C   0  0  0  0  0  0  0  0  0  0  0  0
  146.1332  133.6953  150.9899 C   0  0  0  0  0  0  0  0  0  0  0  0
  145.1771  133.0826  152.0087 C   0  0  0  0  0  0  0  0  0  0  0  0
  145.9888  133.0719  153.3083 C   0  0  0  0  0  0  0  0  0  0  0  0
  148.3235  139.4076  157.2823 C   0  0  0  0  0  0  0  0  0  0  0  0
  147.7628  140.8438  157.2782 C   0  0  2  0  0  0  0  0  0  0  0  0
  147.3517  141.3394  155.8801 C   0  0  0  0  0  0  0  0  0  0  0  0
  148.6760  141.7331  157.9207 O   0  0  0  0  0  0  0  0  0  0  0  0
  151.8500  142.7953  157.7902 H   0  0  0  0  0  0  0  0  0  0  0  0
  150.8876  142.4507  159.2265 H   0  0  0  0  0  0  0  0  0  0  0  0
  150.4023  143.7388  158.1274 H   0  0  0  0  0  0  0  0  0  0  0  0
  149.9577  142.0846  156.3374 H   0  0  0  0  0  0  0  0  0  0  0  0
  151.5662  140.3153  156.9689 H   0  0  0  0  0  0  0  0  0  0  0  0
  150.6995  139.9958  158.4611 H   0  0  0  0  0  0  0  0  0  0  0  0
  151.0471  137.9152  157.4169 H   0  0  0  0  0  0  0  0  0  0  0  0
  149.5083  137.2617  156.9106 H   0  0  0  0  0  0  0  0  0  0  0  0
  150.8195  138.5375  154.6131 H   0  0  0  0  0  0  0  0  0  0  0  0
  151.9639  137.4686  155.3903 H   0  0  0  0  0  0  0  0  0  0  0  0
  149.6606  136.7724  153.8270 H   0  0  0  0  0  0  0  0  0  0  0  0
  149.0042  134.9281  153.5552 H   0  0  0  0  0  0  0  0  0  0  0  0
  151.1278  132.7097  155.6589 H   0  0  0  0  0  0  0  0  0  0  0  0
  150.7776  130.2545  155.7425 H   0  0  0  0  0  0  0  0  0  0  0  0
  148.8685  129.2656  154.4535 H   0  0  0  0  0  0  0  0  0  0  0  0
  148.3054  133.8223  151.1324 H   0  0  0  0  0  0  0  0  0  0  0  0
  147.6550  132.1788  151.0645 H   0  0  0  0  0  0  0  0  0  0  0  0
  146.1016  134.7837  151.0567 H   0  0  0  0  0  0  0  0  0  0  0  0
  145.9053  133.4095  149.9629 H   0  0  0  0  0  0  0  0  0  0  0  0
  144.2401  133.6326  152.0985 H   0  0  0  0  0  0  0  0  0  0  0  0
  144.9392  132.0588  151.7164 H   0  0  0  0  0  0  0  0  0  0  0  0
  145.7747  132.1831  153.9036 H   0  0  0  0  0  0  0  0  0  0  0  0
  145.7405  133.9484  153.9072 H   0  0  0  0  0  0  0  0  0  0  0  0
  147.6508  138.7546  156.7273 H   0  0  0  0  0  0  0  0  0  0  0  0
  148.3524  139.0310  158.3060 H   0  0  0  0  0  0  0  0  0  0  0  0
  146.8601  140.8475  157.8899 H   0  0  0  0  0  0  0  0  0  0  0  0
  146.5532  140.7203  155.4705 H   0  0  0  0  0  0  0  0  0  0  0  0
  148.1781  141.3121  155.1703 H   0  0  0  0  0  0  0  0  0  0  0  0
  146.9822  142.3641  155.9249 H   0  0  0  0  0  0  0  0  0  0  0  0
  149.6322  139.6936  155.7604 H   0  0  0  0  0  0  0  0  0  0  0  0
  1  2  1  0  0  0  0
  1 26  1  0  0  0  0
  1 27  1  0  0  0  0
  1 28  1  0  0  0  0
  2 25  1  0  0  0  0
  2  3  1  0  0  0  0
  2 29  1  0  0  0  0
  3  4  1  0  0  0  0
  3 30  1  0  0  0  0
  3 31  1  0  0  0  0
  4  5  1  0  0  0  0
  4 22  1  0  0  0  0
  4 55  1  0  0  0  0
  5  6  1  0  0  0  0
  5 32  1  0  0  0  0
  5 33  1  0  0  0  0
  6  7  1  0  0  0  0
  6 34  1  0  0  0  0
  6 35  1  0  0  0  0
  7  8  1  0  0  0  0
  7 36  1  0  0  0  0
  8  9  2  0  0  0  0
  8 10  1  0  0  0  0
 10 11  1  0  0  0  0
 10 37  1  0  0  0  0
 11 16  1  0  0  0  0
 11 12  2  0  0  0  0
 12 13  1  0  0  0  0
 12 38  1  0  0  0  0
 13 14  2  0  0  0  0
 13 39  1  0  0  0  0
 14 15  1  0  0  0  0
 14 40  1  0  0  0  0
 15 16  2  0  0  0  0
 16 17  1  0  0  0  0
 17 21  1  0  0  0  0
 17 18  1  0  0  0  0
 18 19  1  0  0  0  0
 18 41  1  0  0  0  0
 18 42  1  0  0  0  0
 19 20  1  0  0  0  0
 19 43  1  0  0  0  0
 19 44  1  0  0  0  0
 20 21  1  0  0  0  0
 20 45  1  0  0  0  0
 20 46  1  0  0  0  0
 21 47  1  0  0  0  0
 21 48  1  0  0  0  0
 22 23  1  0  0  0  0
 22 49  1  0  0  0  0
 22 50  1  0  0  0  0
 23 24  1  0  0  0  0
 23 25  1  0  0  0  0
 23 51  1  0  0  0  0
 24 52  1  0  0  0  0
 24 53  1  0  0  0  0
 24 54  1  0  0  0  0
M  CHG  1   4   1
M  END
> <s_m_source_file>
AV-unprocessed.smi

> <i_m_source_file_index>
1244

> <i_lp_mmshare_version>
43012

> <i_f3d_flags>
0

> <s_epik_input>
W0NIM11bQ0BASF0xW0NIMl1OKFtDSDJdW0NASF0oTzEpW0NIM10pW0NIMl1bQ0gyXVtOSF1DKD1PKVtOSF1jMltjSF1bY0hdW2NIXW5jMk4zW0NIMl1bQ0gyXVtDSDJdW0NIMl0z

> <s_epik_cmdline>
J2VwaWtfcHl0aG9uJywgJy1waCcsICc3LjAnLCAnLXRuJywgJzgnLCAnLW1hJywgJzIwMCcsICctbWV0YWxfYmluZGluZycsICctaW1hZScsICc8aW5maWxlLm1hZT4nLCAnLW9tYWUnLCAnPG91dGZpbGUubWFlPic=

> <r_lp_tautomer_probability>
1

> <r_epik_Ionization_Penalty>
0.684913

> <r_epik_Ionization_Penalty_Charging>
0.602531

> <r_epik_Ionization_Penalty_Neutral>
0.0823829

> <r_epik_State_Penalty>
0.678827

> <r_epik_Charging_Adjusted_Penalty>
1.28136

> <i_epik_Tot_Q>
1

> <i_epik_Tot_abs_Q>
1

> <r_epik_Metal_State_Penalty>
0.67806

> <b_epik_Metal_Only>
0

> <s_lp_Force_Field>
OPLS_2005

> <r_lp_Energy>
45.4089

> <b_lp_Chiralities_Consistent>
1

> <s_lp_Variant>
AV-unprocessed.smi:1244-7

> <Gold.Version>
5.8.1

> <Gold.Id.Protein>
6NUR|6NUR_protein|mol2

> <Gold.PLP.Fitness>
40.8423

> <Gold.PLP.PLP>
-35.0111

> <Gold.PLP.part.hbond>
-4.1257

> <Gold.PLP.part.metal>
0.0000

> <Gold.PLP.part.buried>
-3.9788

> <Gold.PLP.part.nonpolar>
-27.5308

> <Gold.PLP.part.repulsive>
0.5278

> <Gold.PLP.ligand.clash>
0.0000

> <Gold.PLP.ligand.torsion>
1.3531

> <Gold.PLP.Chemscore.Hbond>
2.7360

> <Gold.PLP.Chemscore.CHOScore>
0.0000

> <Gold.PLP.Chemscore.Metal>
0.0000

> <Gold.Chemscore.Hbonds>
donor molecule, donor type, donor heavy atom, donor atom, acceptor molecule, acceptor atom, score
      L1  H     7    36       P1  7948  0.75
      L1  H    10    37       P1  7948  0.76
      P1  H 10752 10764       L1     9  0.03

> <Gold.PLP.Chemscore.Internal.Correction>
0.3294

> <Gold.Rescore>
     Score         DG    S(hbond)    S(metal)    S(lipo)     H(rot)  DE(clash)    DE(int)     intcor
     13.92     -16.82       1.74        0.00      82.30       1.60       0.20       2.70       ----

> <Gold.Chemscore.Fitness>
13.9178

> <Gold.Chemscore.DG>
-16.8182

> <Gold.Chemscore.ZeroCoef>
-5.4800

> <Gold.Chemscore.Hbond>
1.7363

> <Gold.Chemscore.Metal>
0.0000

> <Gold.Chemscore.Lipo>
82.3013

> <Gold.Chemscore.Internal_Hbond>
0.0000

> <Gold.Chemscore.DEClash>
0.2015

> <Gold.Chemscore.DEInternal>
2.6988

> <Gold.Chemscore.Rot>
1.5978

> <Gold.Chemscore.Internal.Correction>
   9.000000E+99

> <Gold.Chemscore.Hbonds>
donor molecule, donor type, donor heavy atom, donor atom, acceptor molecule, acceptor atom, score
      L1  H     7    36       P1  7948  0.52
      L1  H    10    37       P1  7948  0.21

> <Gold.Chemscore.Hbond.Weighted>
-5.7994

> <Gold.Chemscore.Metal.Weighted>
-0.0000

> <Gold.Chemscore.Lipo.Weighted>
-9.6292

> <Gold.Chemscore.Internal_Hbond.Weighted>
0.0000

> <Gold.Chemscore.DEClash.Weighted>
0.2015

> <Gold.Chemscore.DEInternal.Weighted>
2.6988

> <Gold.Chemscore.Rot.Weighted>
4.0905

> <Gold.Chemscore.Internal.Correction.Weighted>
   9.000000E+99

> <Gold.Protein.RotatedTorsions>
[ 6907 6896 6895 6894 ] final   95.78 input  -60.11 | X-H torsion
[ 7974 7965 7964 7962 ] final  -28.48 input  175.53 | X-H torsion
[ 8008 7997 7996 7995 ] final    5.82 input   59.86 | X-H torsion
[ 10167 10162 10161 10158 ] final  -95.58 input  -65.29 | X-H torsion
[ 10718 10713 10712 10709 ] final   28.34 input   66.30 | X-H torsion
[ 10763 10752 10751 10750 ] final  -44.15 input  -60.55 | X-H torsion
[ 11005 11000 10999 10996 ] final -112.92 input  -57.11 | X-H torsion

> <Gold.Protein.ActiveResidues>
 VAL166  LYS551  ARG553  GLY616  TRP617  ASP618  TYR619  PRO620  LYS621  CYS622 
 ASP623  PHE694  ASN695  SER759  ASP760  ASP761  ALA762  ILE779  LEU786  VAL792 
 PHE793  MET794  SER795  GLU796  ALA797  LYS798  CYS799  TRP800  GLU811  SER814 

> <Gold.Protein.RotatedAtoms>
  152.5441  134.0987  159.8308 H   0  0  0  0  0  0  0  0  0  0  0  0  # atno 6907 bound_to 6896
  151.1068  133.5195  159.2615 H   0  0  0  0  0  0  0  0  0  0  0  0  # atno 6908 bound_to 6896
  151.1929  135.0419  159.8894 H   0  0  0  0  0  0  0  0  0  0  0  0  # atno 6909 bound_to 6896
  146.1285  140.5288  142.8704 H   0  0  0  0  0  0  0  0  0  0  0  0  # atno 7974 bound_to 7965
  154.7331  140.2734  155.6438 H   0  0  0  0  0  0  0  0  0  0  0  0  # atno 8008 bound_to 7997
  156.2855  140.2712  156.1963 H   0  0  0  0  0  0  0  0  0  0  0  0  # atno 8009 bound_to 7997
  155.0355  140.0371  157.2480 H   0  0  0  0  0  0  0  0  0  0  0  0  # atno 8010 bound_to 7997
  140.3027  143.3153  152.0232 H   0  0  0  0  0  0  0  0  0  0  0  0  # atno 10167 bound_to 10162
  157.2321  130.7029  149.6318 H   0  0  0  0  0  0  0  0  0  0  0  0  # atno 10718 bound_to 10713
  154.0073  135.6686  153.4763 H   0  0  0  0  0  0  0  0  0  0  0  0  # atno 10763 bound_to 10752
  153.0636  135.5013  154.8146 H   0  0  0  0  0  0  0  0  0  0  0  0  # atno 10764 bound_to 10752
  154.7017  135.3080  154.9295 H   0  0  0  0  0  0  0  0  0  0  0  0  # atno 10765 bound_to 10752
  141.0646  133.9480  157.2603 H   0  0  0  0  0  0  0  0  0  0  0  0  # atno 11005 bound_to 11000
  144.7666  140.5545  143.6698 LP  0  0  0  0  0  0  0  0  0  0  0  0  # atno 17320 bound_to 7965
  145.5313  139.1475  143.3498 LP  0  0  0  0  0  0  0  0  0  0  0  0  # atno 17321 bound_to 7965
  139.4911  144.6444  151.6810 LP  0  0  0  0  0  0  0  0  0  0  0  0  # atno 17342 bound_to 10162
  140.5637  144.0225  150.6182 LP  0  0  0  0  0  0  0  0  0  0  0  0  # atno 17343 bound_to 10162
  155.9675  130.4485  150.5623 LP  0  0  0  0  0  0  0  0  0  0  0  0  # atno 17370 bound_to 10713
  157.3467  131.0726  151.1745 LP  0  0  0  0  0  0  0  0  0  0  0  0  # atno 17371 bound_to 10713
  139.9464  135.0183  156.8865 LP  0  0  0  0  0  0  0  0  0  0  0  0  # atno 17394 bound_to 11000
  140.5800  134.0362  155.7460 LP  0  0  0  0  0  0  0  0  0  0  0  0  # atno 17395 bound_to 11000

$$$$
