#       Name:                AV-unprocessed.smi:2561
#       Creating user name   scv26
#       Creation time:       Fri Mar 27 14:08:44 2020


#       File generated by GOLD software.
#

@<TRIPOS>MOLECULE
AV-unprocessed.smi:2561
    36    37     1
SMALL
NO_CHARGES


@<TRIPOS>ATOM
      1 ****        -6.1562   1.7237   0.1377 C.3            1 S1                 0.0000
      2 ****        -5.0211   0.8139   0.1674 N.am           1 S1                 0.0000
      3 ****        -3.7409   1.2074   0.1567 C.2            1 S1                 0.0000
      4 ****        -3.3967   2.3885   0.1161 O.2            1 S1                 0.0000
      5 ****        -2.9075   0.1529   0.1775 N.am           1 S1                 0.0000
      6 ****        -1.4864   0.1480   0.1696 C.ar           1 S1                 0.0000
      7 ****        -0.6828   1.2343   0.5902 C.ar           1 S1                 0.0000
      8 ****         0.7183   1.1000   0.5496 C.ar           1 S1                 0.0000
      9 ****         1.2748  -0.1154   0.1011 C.ar           1 S1                 0.0000
     10 ****         2.6715  -0.2447   0.0600 N.3            1 S1                 0.0000
     11 ****         3.2249  -1.3226   0.8634 C.3            1 S1                 0.0000
     12 ****         4.6597  -1.5075   0.3634 C.3            1 S1                 0.0000
     13 ****         4.6622  -0.9158  -1.0514 C.3            1 S1                 0.0000
     14 ****         3.2328  -0.4124  -1.2702 C.3            1 S1                 0.0000
     15 ****         0.5109  -1.1632  -0.2905 N.ar           1 S1                 0.0000
     16 ****        -0.8313  -1.0281  -0.2498 C.ar           1 S1                 0.0000
     17 ****        -7.0873   1.1573   0.1535 H              1 S1                 0.0000
     18 ****        -6.1427   2.3329  -0.7671 H              1 S1                 0.0000
     19 ****        -6.1450   2.3865   1.0039 H              1 S1                 0.0000
     20 ****        -5.2230  -0.1750   0.1959 H              1 S1                 0.0000
     21 ****        -3.3428  -0.7568   0.1319 H              1 S1                 0.0000
     22 ****        -1.1083   2.1564   0.9540 H              1 S1                 0.0000
     23 ****         1.3529   1.9161   0.8635 H              1 S1                 0.0000
     24 ****         3.1982  -1.0749   1.9250 H              1 S1                 0.0000
     25 ****         2.6580  -2.2431   0.7173 H              1 S1                 0.0000
     26 ****         5.3549  -0.9557   0.9970 H              1 S1                 0.0000
     27 ****         4.9580  -2.5562   0.3769 H              1 S1                 0.0000
     28 ****         5.3694  -0.0874  -1.1060 H              1 S1                 0.0000
     29 ****         4.9494  -1.6476  -1.8070 H              1 S1                 0.0000
     30 ****         2.6595  -1.1477  -1.8368 H              1 S1                 0.0000
     31 ****         3.2186   0.5264  -1.8245 H              1 S1                 0.0000
     32 ****        -1.4010  -1.8887  -0.5689 H              1 S1                 0.0000
     33 ****        -4.0884   3.1102   0.0891 LP             1 S1                 0.0000
     34 ****        -2.4254   2.6263   0.1101 LP             1 S1                 0.0000
     35 ****         2.9357   0.6394   0.4454 LP             1 S1                 0.0000
     36 ****         0.9309  -2.0156  -0.6020 LP             1 S1                 0.0000
@<TRIPOS>BOND
    1    1    2 1     
    2    1   17 1     
    3    1   18 1     
    4    1   19 1     
    5    2    3 am    
    6    2   20 1     
    7    3    4 2     
    8    3    5 am    
    9    5    6 1     
   10    5   21 1     
   11    6   16 ar    
   12    6    7 ar    
   13    7    8 ar    
   14    7   22 1     
   15    8    9 ar    
   16    8   23 1     
   17    9   10 1     
   18    9   15 ar    
   19   10   14 1     
   20   10   11 1     
   21   11   12 1     
   22   11   24 1     
   23   11   25 1     
   24   12   13 1     
   25   12   26 1     
   26   12   27 1     
   27   13   14 1     
   28   13   28 1     
   29   13   29 1     
   30   14   30 1     
   31   14   31 1     
   32   15   16 ar    
   33   16   32 1     
   34    4   33 1     
   35    4   34 1     
   36   10   35 1     
   37   15   36 1     
@<TRIPOS>SUBSTRUCTURE
      1 S1             1
@<TRIPOS>SET
LONE_PAIRS      STATIC     ATOMS    <user>   **** ""
4 33 34 35 36
DONOR_HYDROGENS      STATIC     ATOMS    <user>   **** ""
2 20 21
ATOM$BLUE        STATIC     ATOMS    COLORGROUP SYSTEM
4 33 34 35 36
ATOM$RED        STATIC     ATOMS    COLORGROUP SYSTEM
2 20 21
