AV-unprocessed.smi:1295|AV-procd|sdf|5407|dock9
  -GOLD-   22720 4563D 1   1.00000     0.00000
 Structure written by MMmdl.
 43 44  0  0  0  0  0  0  0  0  1 V2000
  146.8668  138.2874  152.5621 C   0  0  0  0  0  0  0  0  0  0  0  0
  147.9498  138.8002  153.4864 C   0  0  0  0  0  0  0  0  0  0  0  0
  149.0379  137.9501  153.5932 N   0  0  0  0  0  0  0  0  0  0  0  0
  150.0832  138.3362  154.4132 C   0  0  0  0  0  0  0  0  0  0  0  0
  151.2438  137.3577  154.4594 C   0  0  0  0  0  0  0  0  0  0  0  0
  150.0445  139.5088  155.0956 C   0  0  0  0  0  0  0  0  0  0  0  0
  151.1902  139.9822  155.9920 C   0  0  0  0  0  0  0  0  0  0  0  0
  150.7807  140.4705  157.3836 C   0  0  0  0  0  0  0  0  0  0  0  0
  150.0951  139.7535  158.1113 O   0  0  0  0  0  0  0  0  0  0  0  0
  151.2213  141.6870  157.7377 N   0  0  0  0  0  0  0  0  0  0  0  0
  151.0671  142.3245  159.0432 C   0  0  2  0  0  0  0  0  0  0  0  0
  150.2885  143.6482  158.9032 C   0  0  0  0  0  0  0  0  0  0  0  0
  151.1050  144.7267  158.1700 C   0  0  0  0  0  0  0  0  0  0  0  0
  152.4653  144.9498  158.8473 C   0  0  0  0  0  0  0  0  0  0  0  0
  153.2556  143.6367  158.9614 C   0  0  0  0  0  0  0  0  0  0  0  0
  152.4496  142.5509  159.7046 C   0  0  2  0  0  0  0  0  0  0  0  0
  153.2610  141.2511  159.8481 C   0  0  0  0  0  0  0  0  0  0  0  0
  148.8540  140.3781  154.9385 C   0  0  0  0  0  0  0  0  0  0  0  0
  148.7666  141.4606  155.5161 O   0  0  0  0  0  0  0  0  0  0  0  0
  147.8208  139.9398  154.0948 N   0  0  0  0  0  0  0  0  0  0  0  0
  149.1083  137.0703  153.1024 H   0  0  0  0  0  0  0  0  0  0  0  0
  145.9864  138.9305  152.5976 H   0  0  0  0  0  0  0  0  0  0  0  0
  146.5635  137.2803  152.8503 H   0  0  0  0  0  0  0  0  0  0  0  0
  147.2286  138.2607  151.5336 H   0  0  0  0  0  0  0  0  0  0  0  0
  151.3972  136.9955  155.4760 H   0  0  0  0  0  0  0  0  0  0  0  0
  152.1620  137.8393  154.1221 H   0  0  0  0  0  0  0  0  0  0  0  0
  151.0661  136.4927  153.8191 H   0  0  0  0  0  0  0  0  0  0  0  0
  151.7113  140.7943  155.4845 H   0  0  0  0  0  0  0  0  0  0  0  0
  151.9418  139.2012  156.1099 H   0  0  0  0  0  0  0  0  0  0  0  0
  151.7622  142.1995  157.0562 H   0  0  0  0  0  0  0  0  0  0  0  0
  150.4923  141.6663  159.6970 H   0  0  0  0  0  0  0  0  0  0  0  0
  149.3439  143.4774  158.3849 H   0  0  0  0  0  0  0  0  0  0  0  0
  150.0262  144.0151  159.8961 H   0  0  0  0  0  0  0  0  0  0  0  0
  151.2572  144.4331  157.1305 H   0  0  0  0  0  0  0  0  0  0  0  0
  150.5452  145.6619  158.1456 H   0  0  0  0  0  0  0  0  0  0  0  0
  153.0438  145.6838  158.2856 H   0  0  0  0  0  0  0  0  0  0  0  0
  152.3132  145.3716  159.8415 H   0  0  0  0  0  0  0  0  0  0  0  0
  153.5239  143.2851  157.9639 H   0  0  0  0  0  0  0  0  0  0  0  0
  154.1956  143.8235  159.4819 H   0  0  0  0  0  0  0  0  0  0  0  0
  152.2642  142.9197  160.7146 H   0  0  0  0  0  0  0  0  0  0  0  0
  153.5582  140.8503  158.8783 H   0  0  0  0  0  0  0  0  0  0  0  0
  152.6837  140.4826  160.3628 H   0  0  0  0  0  0  0  0  0  0  0  0
  154.1706  141.4209  160.4248 H   0  0  0  0  0  0  0  0  0  0  0  0
  1 22  1  0  0  0  0
  1 23  1  0  0  0  0
  1 24  1  0  0  0  0
  1  2  1  0  0  0  0
  2  3  1  0  0  0  0
  2 20  2  0  0  0  0
  3  4  1  0  0  0  0
  3 21  1  0  0  0  0
  4  6  2  0  0  0  0
  4  5  1  0  0  0  0
  5 25  1  0  0  0  0
  5 26  1  0  0  0  0
  5 27  1  0  0  0  0
  6 18  1  0  0  0  0
  6  7  1  0  0  0  0
  7  8  1  0  0  0  0
  7 28  1  0  0  0  0
  7 29  1  0  0  0  0
  8  9  2  0  0  0  0
  8 10  1  0  0  0  0
 10 11  1  0  0  0  0
 10 30  1  0  0  0  0
 11 16  1  0  0  0  0
 11 12  1  0  0  0  0
 11 31  1  0  0  0  0
 12 13  1  0  0  0  0
 12 32  1  0  0  0  0
 12 33  1  0  0  0  0
 13 14  1  0  0  0  0
 13 34  1  0  0  0  0
 13 35  1  0  0  0  0
 14 15  1  0  0  0  0
 14 36  1  0  0  0  0
 14 37  1  0  0  0  0
 15 16  1  0  0  0  0
 15 38  1  0  0  0  0
 15 39  1  0  0  0  0
 16 17  1  0  0  0  0
 16 40  1  0  0  0  0
 17 41  1  0  0  0  0
 17 42  1  0  0  0  0
 17 43  1  0  0  0  0
 18 19  2  0  0  0  0
 18 20  1  0  0  0  0
M  END
> <s_m_source_file>
AV-unprocessed.smi

> <i_m_source_file_index>
1295

> <i_lp_mmshare_version>
43012

> <i_f3d_flags>
0

> <s_epik_input>
W0NIM11jMW5jKFtDSDNdKWMoYyg9TylbbkhdMSlbQ0gyXUMoPU8pW05IXVtDQEBIXTJbQ0gyXVtDSDJdW0NIMl1bQ0gyXVtDQEhdMltDSDNd

> <s_epik_cmdline>
J2VwaWtfcHl0aG9uJywgJy1waCcsICc3LjAnLCAnLXRuJywgJzgnLCAnLW1hJywgJzIwMCcsICctbWV0YWxfYmluZGluZycsICctaW1hZScsICc8aW5maWxlLm1hZT4nLCAnLW9tYWUnLCAnPG91dGZpbGUubWFlPic=

> <r_lp_tautomer_probability>
0.156392

> <r_epik_Ionization_Penalty>
0.0136057

> <r_epik_Ionization_Penalty_Charging>
0.0134742

> <r_epik_Ionization_Penalty_Neutral>
0.000131572

> <r_epik_State_Penalty>
1.15342

> <r_epik_Charging_Adjusted_Penalty>
1.16689

> <i_epik_Tot_Q>
0

> <i_epik_Tot_abs_Q>
0

> <r_epik_Metal_State_Penalty>
1.31351

> <b_epik_Metal_Only>
0

> <s_lp_Force_Field>
OPLS_2005

> <r_lp_Energy>
13.3466

> <b_lp_Chiralities_Consistent>
1

> <s_lp_Variant>
AV-unprocessed.smi:1295-7

> <Gold.Version>
5.8.1

> <Gold.Id.Protein>
6NUR|6NUR_protein|mol2

> <Gold.PLP.Fitness>
45.0403

> <Gold.PLP.PLP>
-42.3724

> <Gold.PLP.part.hbond>
-2.0000

> <Gold.PLP.part.metal>
0.0000

> <Gold.PLP.part.buried>
-3.4072

> <Gold.PLP.part.nonpolar>
-38.4837

> <Gold.PLP.part.repulsive>
1.2935

> <Gold.PLP.ligand.clash>
0.0000

> <Gold.PLP.ligand.torsion>
0.1704

> <Gold.PLP.Chemscore.Hbond>
1.0000

> <Gold.PLP.Chemscore.CHOScore>
0.0000

> <Gold.PLP.Chemscore.Metal>
0.0000

> <Gold.Chemscore.Hbonds>
donor molecule, donor type, donor heavy atom, donor atom, acceptor molecule, acceptor atom, score
      L1  H     3    21       P1  7948  0.88

> <Gold.PLP.Chemscore.Internal.Correction>
0.0087

> <Gold.Rescore>
     Score         DG    S(hbond)    S(metal)    S(lipo)     H(rot)  DE(clash)    DE(int)     intcor
     16.11     -17.72       1.00        0.00     108.54       1.48       0.01       1.59       ----

> <Gold.Chemscore.Fitness>
16.1132

> <Gold.Chemscore.DG>
-17.7184

> <Gold.Chemscore.ZeroCoef>
-5.4800

> <Gold.Chemscore.Hbond>
0.9965

> <Gold.Chemscore.Metal>
0.0000

> <Gold.Chemscore.Lipo>
108.5399

> <Gold.Chemscore.Internal_Hbond>
0.0000

> <Gold.Chemscore.DEClash>
0.0126

> <Gold.Chemscore.DEInternal>
1.5926

> <Gold.Chemscore.Rot>
1.4801

> <Gold.Chemscore.Internal.Correction>
   9.000000E+99

> <Gold.Chemscore.Hbonds>
donor molecule, donor type, donor heavy atom, donor atom, acceptor molecule, acceptor atom, score
      L1  H     3    21       P1  7948  0.81

> <Gold.Chemscore.Hbond.Weighted>
-3.3283

> <Gold.Chemscore.Metal.Weighted>
-0.0000

> <Gold.Chemscore.Lipo.Weighted>
-12.6992

> <Gold.Chemscore.Internal_Hbond.Weighted>
0.0000

> <Gold.Chemscore.DEClash.Weighted>
0.0126

> <Gold.Chemscore.DEInternal.Weighted>
1.5926

> <Gold.Chemscore.Rot.Weighted>
3.7891

> <Gold.Chemscore.Internal.Correction.Weighted>
   9.000000E+99

> <Gold.Protein.RotatedTorsions>
[ 6907 6896 6895 6894 ] final  117.63 input  -60.11 | X-H torsion
[ 7974 7965 7964 7962 ] final  -22.24 input  175.53 | X-H torsion
[ 8008 7997 7996 7995 ] final   89.75 input   59.86 | X-H torsion
[ 10167 10162 10161 10158 ] final  -41.61 input  -65.29 | X-H torsion
[ 10718 10713 10712 10709 ] final   53.76 input   66.30 | X-H torsion
[ 10763 10752 10751 10750 ] final  -77.43 input  -60.55 | X-H torsion
[ 11005 11000 10999 10996 ] final  164.60 input  -57.11 | X-H torsion

> <Gold.Protein.ActiveResidues>
 VAL166  LYS551  ARG553  GLY616  TRP617  ASP618  TYR619  PRO620  LYS621  CYS622 
 ASP623  PHE694  ASN695  SER759  ASP760  ASP761  ALA762  ILE779  LEU786  VAL792 
 PHE793  MET794  SER795  GLU796  ALA797  LYS798  CYS799  TRP800  GLU811  SER814 

> <Gold.Protein.RotatedAtoms>
  152.4599  133.7800  159.6845 H   0  0  0  0  0  0  0  0  0  0  0  0  # atno 6907 bound_to 6896
  150.8539  133.7735  159.3022 H   0  0  0  0  0  0  0  0  0  0  0  0  # atno 6908 bound_to 6896
  151.5322  135.1071  159.9957 H   0  0  0  0  0  0  0  0  0  0  0  0  # atno 6909 bound_to 6896
  146.1687  140.4451  142.8541 H   0  0  0  0  0  0  0  0  0  0  0  0  # atno 7974 bound_to 7965
  156.0037  140.3357  155.6871 H   0  0  0  0  0  0  0  0  0  0  0  0  # atno 8008 bound_to 7997
  155.6254  140.0679  157.2683 H   0  0  0  0  0  0  0  0  0  0  0  0  # atno 8009 bound_to 7997
  154.4258  140.1769  156.1404 H   0  0  0  0  0  0  0  0  0  0  0  0  # atno 8010 bound_to 7997
  140.6997  143.3085  151.3091 H   0  0  0  0  0  0  0  0  0  0  0  0  # atno 10167 bound_to 10162
  157.5196  130.8556  149.8540 H   0  0  0  0  0  0  0  0  0  0  0  0  # atno 10718 bound_to 10713
  154.5128  135.5764  153.6618 H   0  0  0  0  0  0  0  0  0  0  0  0  # atno 10763 bound_to 10752
  152.9900  135.6163  154.2856 H   0  0  0  0  0  0  0  0  0  0  0  0  # atno 10764 bound_to 10752
  154.2772  135.2852  155.2692 H   0  0  0  0  0  0  0  0  0  0  0  0  # atno 10765 bound_to 10752
  140.2475  134.8003  157.3470 H   0  0  0  0  0  0  0  0  0  0  0  0  # atno 11005 bound_to 11000
  144.8131  140.6420  143.6402 LP  0  0  0  0  0  0  0  0  0  0  0  0  # atno 17320 bound_to 7965
  145.4398  139.1537  143.3976 LP  0  0  0  0  0  0  0  0  0  0  0  0  # atno 17321 bound_to 7965
  139.6499  144.0382  152.2618 LP  0  0  0  0  0  0  0  0  0  0  0  0  # atno 17342 bound_to 10162
  139.9915  144.6358  150.7810 LP  0  0  0  0  0  0  0  0  0  0  0  0  # atno 17343 bound_to 10162
  156.0344  130.3755  150.1600 LP  0  0  0  0  0  0  0  0  0  0  0  0  # atno 17370 bound_to 10713
  156.9789  130.9858  151.3442 LP  0  0  0  0  0  0  0  0  0  0  0  0  # atno 17371 bound_to 10713
  140.1591  134.4752  155.7907 LP  0  0  0  0  0  0  0  0  0  0  0  0  # atno 17394 bound_to 11000
  141.2205  133.6894  156.7512 LP  0  0  0  0  0  0  0  0  0  0  0  0  # atno 17395 bound_to 11000

$$$$
