AV-unprocessed.smi:490|AV-procd|sdf|2706|dock2
  -GOLD-   2262023143D 1   1.00000     0.00000
 Structure written by MMmdl.
 50 52  0  0  0  0  0  0  0  0  2 V2000
  147.4164  132.2949  152.7305 C   0  0  0  0  0  0  0  0  0  0  0  0
  148.4084  132.9519  153.6751 C   0  0  0  0  0  0  0  0  0  0  0  0
  149.5431  132.2241  154.0874 C   0  0  0  0  0  0  0  0  0  0  0  0
  150.4779  132.7998  154.9654 C   0  0  0  0  0  0  0  0  0  0  0  0
  150.2924  134.1142  155.4357 C   0  0  0  0  0  0  0  0  0  0  0  0
  151.3088  134.7144  156.3897 C   0  0  0  0  0  0  0  0  0  0  0  0
  149.1654  134.8586  155.0150 C   0  0  0  0  0  0  0  0  0  0  0  0
  148.9903  136.1398  155.4714 O   0  0  0  0  0  0  0  0  0  0  0  0
  149.9926  137.0440  155.0304 C   0  0  0  0  0  0  0  0  0  0  0  0
  149.7895  138.3905  155.7404 C   0  0  1  0  0  0  0  0  0  0  0  0
  149.2428  138.1443  157.0207 O   0  0  0  0  0  0  0  0  0  0  0  0
  151.1136  139.1642  155.8948 C   0  0  0  0  0  0  0  0  0  0  0  0
  150.9106  140.5749  156.2655 N   0  0  0  0  0  0  0  0  0  0  0  0
  150.0999  141.5205  155.7073 C   0  0  0  0  0  0  0  0  0  0  0  0
  149.1792  141.3449  154.5443 C   0  0  0  0  0  0  0  0  0  0  0  0
  149.8458  140.8556  153.4017 O   0  0  0  0  0  0  0  0  0  0  0  0
  150.2717  142.6704  156.4182 N   0  3  0  0  0  0  0  0  0  0  0  0
  151.1968  142.4605  157.4412 C   0  0  0  0  0  0  0  0  0  0  0  0
  151.6875  143.3249  158.4152 C   0  0  0  0  0  0  0  0  0  0  0  0
  152.6263  142.7898  159.3213 C   0  0  0  0  0  0  0  0  0  0  0  0
  153.0410  141.4448  159.2391 C   0  0  0  0  0  0  0  0  0  0  0  0
  152.5371  140.5784  158.2464 C   0  0  0  0  0  0  0  0  0  0  0  0
  151.6108  141.1155  157.3518 C   0  0  0  0  0  0  0  0  0  0  0  0
  148.2101  134.2739  154.1461 C   0  0  0  0  0  0  0  0  0  0  0  0
  146.9796  135.0625  153.7176 C   0  0  0  0  0  0  0  0  0  0  0  0
  147.7934  131.3411  152.3600 H   0  0  0  0  0  0  0  0  0  0  0  0
  147.2230  132.9327  151.8676 H   0  0  0  0  0  0  0  0  0  0  0  0
  146.4722  132.1065  153.2421 H   0  0  0  0  0  0  0  0  0  0  0  0
  149.7003  131.2150  153.7350 H   0  0  0  0  0  0  0  0  0  0  0  0
  151.3390  132.2267  155.2769 H   0  0  0  0  0  0  0  0  0  0  0  0
  150.8221  135.3413  157.1374 H   0  0  0  0  0  0  0  0  0  0  0  0
  152.0261  135.3252  155.8416 H   0  0  0  0  0  0  0  0  0  0  0  0
  151.8583  133.9342  156.9171 H   0  0  0  0  0  0  0  0  0  0  0  0
  150.9955  136.6508  155.2047 H   0  0  0  0  0  0  0  0  0  0  0  0
  149.8876  137.1808  153.9526 H   0  0  0  0  0  0  0  0  0  0  0  0
  149.0878  138.9983  155.1682 H   0  0  0  0  0  0  0  0  0  0  0  0
  149.9557  138.0287  157.6307 H   0  0  0  0  0  0  0  0  0  0  0  0
  151.7696  138.6862  156.6226 H   0  0  0  0  0  0  0  0  0  0  0  0
  151.6606  139.1555  154.9519 H   0  0  0  0  0  0  0  0  0  0  0  0
  148.3831  140.6507  154.8146 H   0  0  0  0  0  0  0  0  0  0  0  0
  148.7038  142.2951  154.3020 H   0  0  0  0  0  0  0  0  0  0  0  0
  149.2484  140.3080  152.9154 H   0  0  0  0  0  0  0  0  0  0  0  0
  151.3685  144.3547  158.4822 H   0  0  0  0  0  0  0  0  0  0  0  0
  153.0342  143.4224  160.0966 H   0  0  0  0  0  0  0  0  0  0  0  0
  153.7590  141.0682  159.9533 H   0  0  0  0  0  0  0  0  0  0  0  0
  152.8570  139.5482  158.1993 H   0  0  0  0  0  0  0  0  0  0  0  0
  146.8286  135.9573  154.3209 H   0  0  0  0  0  0  0  0  0  0  0  0
  146.0783  134.4572  153.8155 H   0  0  0  0  0  0  0  0  0  0  0  0
  147.0756  135.3712  152.6763 H   0  0  0  0  0  0  0  0  0  0  0  0
  149.7839  143.5340  156.2186 H   0  0  0  0  0  0  0  0  0  0  0  0
  1  2  1  0  0  0  0
  1 26  1  0  0  0  0
  1 27  1  0  0  0  0
  1 28  1  0  0  0  0
  2 24  1  0  0  0  0
  2  3  2  0  0  0  0
  3  4  1  0  0  0  0
  3 29  1  0  0  0  0
  4  5  2  0  0  0  0
  4 30  1  0  0  0  0
  5  6  1  0  0  0  0
  5  7  1  0  0  0  0
  6 31  1  0  0  0  0
  6 32  1  0  0  0  0
  6 33  1  0  0  0  0
  7  8  1  0  0  0  0
  7 24  2  0  0  0  0
  8  9  1  0  0  0  0
  9 10  1  0  0  0  0
  9 34  1  0  0  0  0
  9 35  1  0  0  0  0
 10 11  1  0  0  0  0
 10 12  1  0  0  0  0
 10 36  1  0  0  0  0
 11 37  1  0  0  0  0
 12 13  1  0  0  0  0
 12 38  1  0  0  0  0
 12 39  1  0  0  0  0
 13 23  1  0  0  0  0
 13 14  1  0  0  0  0
 14 15  1  0  0  0  0
 14 17  2  0  0  0  0
 15 16  1  0  0  0  0
 15 40  1  0  0  0  0
 15 41  1  0  0  0  0
 16 42  1  0  0  0  0
 17 18  1  0  0  0  0
 17 50  1  0  0  0  0
 18 23  2  0  0  0  0
 18 19  1  0  0  0  0
 19 20  2  0  0  0  0
 19 43  1  0  0  0  0
 20 21  1  0  0  0  0
 20 44  1  0  0  0  0
 21 22  2  0  0  0  0
 21 45  1  0  0  0  0
 22 23  1  0  0  0  0
 22 46  1  0  0  0  0
 24 25  1  0  0  0  0
 25 47  1  0  0  0  0
 25 48  1  0  0  0  0
 25 49  1  0  0  0  0
M  CHG  1  17   1
M  END
> <s_m_source_file>
AV-unprocessed.smi

> <i_m_source_file_index>
490

> <i_lp_mmshare_version>
43012

> <i_f3d_flags>
0

> <s_epik_input>
W0NIM11jMVtjSF1bY0hdYyhbQ0gzXSljKGMxW0NIM10pT1tDSDJdW0NASF0oW09IXSlbQ0gyXW4oYyhuMilbQ0gyXVtPSF0pYyhjMjMpW2NIXVtjSF1bY0hdW2NIXTM=

> <s_epik_cmdline>
J2VwaWtfcHl0aG9uJywgJy1waCcsICc3LjAnLCAnLXRuJywgJzgnLCAnLW1hJywgJzIwMCcsICctbWV0YWxfYmluZGluZycsICctaW1hZScsICc8aW5maWxlLm1hZT4nLCAnLW9tYWUnLCAnPG91dGZpbGUubWFlPic=

> <r_lp_tautomer_probability>
1

> <r_epik_Ionization_Penalty>
1.43125

> <r_epik_Ionization_Penalty_Charging>
1.43039

> <r_epik_Ionization_Penalty_Neutral>
0.000858184

> <r_epik_State_Penalty>
1.51493

> <r_epik_Charging_Adjusted_Penalty>
2.94531

> <i_epik_Tot_Q>
1

> <i_epik_Tot_abs_Q>
1

> <r_epik_Metal_State_Penalty>
5.5599

> <b_epik_Metal_Only>
0

> <s_lp_Force_Field>
OPLS_2005

> <r_lp_Energy>
24.5509

> <b_lp_Chiralities_Consistent>
1

> <s_lp_Variant>
AV-unprocessed.smi:490-4

> <Gold.Version>
5.8.1

> <Gold.Id.Protein>
6NUR|6NUR_protein|mol2

> <Gold.PLP.Fitness>
55.3971

> <Gold.PLP.PLP>
-45.4612

> <Gold.PLP.part.hbond>
-3.4483

> <Gold.PLP.part.metal>
0.0000

> <Gold.PLP.part.buried>
-3.2567

> <Gold.PLP.part.nonpolar>
-38.0100

> <Gold.PLP.part.repulsive>
0.1520

> <Gold.PLP.ligand.clash>
0.0000

> <Gold.PLP.ligand.torsion>
0.5845

> <Gold.PLP.Chemscore.Hbond>
3.6400

> <Gold.PLP.Chemscore.CHOScore>
0.0000

> <Gold.PLP.Chemscore.Metal>
0.0000

> <Gold.Chemscore.Hbonds>
donor molecule, donor type, donor heavy atom, donor atom, acceptor molecule, acceptor atom, score
      L1  H    16    42       P1  7957  0.34
      L1  H    17    50       P1  8028  2.00
      P1  H  7989  7998       L1    16  0.29
      P1  H  8011  8017       L1    16  1.00

> <Gold.PLP.Chemscore.Internal.Correction>
0.1848

> <Gold.Rescore>
     Score         DG    S(hbond)    S(metal)    S(lipo)     H(rot)  DE(clash)    DE(int)     intcor
     18.14     -18.97       2.26        0.00     116.78       3.02       0.06       0.77       ----

> <Gold.Chemscore.Fitness>
18.1419

> <Gold.Chemscore.DG>
-18.9717

> <Gold.Chemscore.ZeroCoef>
-5.4800

> <Gold.Chemscore.Hbond>
2.2616

> <Gold.Chemscore.Metal>
0.0000

> <Gold.Chemscore.Lipo>
116.7844

> <Gold.Chemscore.Internal_Hbond>
0.0000

> <Gold.Chemscore.DEClash>
0.0624

> <Gold.Chemscore.DEInternal>
0.7674

> <Gold.Chemscore.Rot>
3.0180

> <Gold.Chemscore.Internal.Correction>
   9.000000E+99

> <Gold.Chemscore.Hbonds>
donor molecule, donor type, donor heavy atom, donor atom, acceptor molecule, acceptor atom, score
      L1  H    16    42       P1  7957  0.34
      L1  H    17    50       P1  8028  0.98
      P1  H  7989  7998       L1    16  0.26
      P1  H  8011  8017       L1    16  0.06

> <Gold.Chemscore.Hbond.Weighted>
-7.5539

> <Gold.Chemscore.Metal.Weighted>
-0.0000

> <Gold.Chemscore.Lipo.Weighted>
-13.6638

> <Gold.Chemscore.Internal_Hbond.Weighted>
0.0000

> <Gold.Chemscore.DEClash.Weighted>
0.0624

> <Gold.Chemscore.DEInternal.Weighted>
0.7674

> <Gold.Chemscore.Rot.Weighted>
7.7260

> <Gold.Chemscore.Internal.Correction.Weighted>
   9.000000E+99

> <Gold.Protein.RotatedTorsions>
[ 6907 6896 6895 6894 ] final  138.61 input  -60.11 | X-H torsion
[ 7974 7965 7964 7962 ] final -159.67 input  175.53 | X-H torsion
[ 8008 7997 7996 7995 ] final   21.35 input   59.86 | X-H torsion
[ 10167 10162 10161 10158 ] final  -55.83 input  -65.29 | X-H torsion
[ 10718 10713 10712 10709 ] final   38.00 input   66.30 | X-H torsion
[ 10763 10752 10751 10750 ] final  -15.10 input  -60.55 | X-H torsion
[ 11005 11000 10999 10996 ] final  -50.86 input  -57.11 | X-H torsion

> <Gold.Protein.ActiveResidues>
 VAL166  LYS551  ARG553  GLY616  TRP617  ASP618  TYR619  PRO620  LYS621  CYS622 
 ASP623  PHE694  ASN695  SER759  ASP760  ASP761  ALA762  ILE779  LEU786  VAL792 
 PHE793  MET794  SER795  GLU796  ALA797  LYS798  CYS799  TRP800  GLU811  SER814 

> <Gold.Protein.RotatedAtoms>
  152.2646  133.5327  159.5401 H   0  0  0  0  0  0  0  0  0  0  0  0  # atno 6907 bound_to 6896
  150.7137  134.0782  159.3897 H   0  0  0  0  0  0  0  0  0  0  0  0  # atno 6908 bound_to 6896
  151.8699  135.0493  160.0529 H   0  0  0  0  0  0  0  0  0  0  0  0  # atno 6909 bound_to 6896
  144.7456  140.3651  143.6088 H   0  0  0  0  0  0  0  0  0  0  0  0  # atno 7974 bound_to 7965
  154.9494  140.3063  155.5082 H   0  0  0  0  0  0  0  0  0  0  0  0  # atno 8008 bound_to 7997
  156.2988  140.2321  156.4508 H   0  0  0  0  0  0  0  0  0  0  0  0  # atno 8009 bound_to 7997
  154.8069  140.0431  157.1303 H   0  0  0  0  0  0  0  0  0  0  0  0  # atno 8010 bound_to 7997
  140.6352  143.2478  151.5137 H   0  0  0  0  0  0  0  0  0  0  0  0  # atno 10167 bound_to 10162
  157.3537  130.7612  149.6997 H   0  0  0  0  0  0  0  0  0  0  0  0  # atno 10718 bound_to 10713
  153.5382  135.7013  153.5649 H   0  0  0  0  0  0  0  0  0  0  0  0  # atno 10763 bound_to 10752
  153.3627  135.3965  155.1730 H   0  0  0  0  0  0  0  0  0  0  0  0  # atno 10764 bound_to 10752
  154.8677  135.3792  154.4884 H   0  0  0  0  0  0  0  0  0  0  0  0  # atno 10765 bound_to 10752
  141.0839  133.6647  156.3793 H   0  0  0  0  0  0  0  0  0  0  0  0  # atno 11005 bound_to 11000
  145.7136  139.1691  143.2524 LP  0  0  0  0  0  0  0  0  0  0  0  0  # atno 17320 bound_to 7965
  146.1328  140.7162  142.9404 LP  0  0  0  0  0  0  0  0  0  0  0  0  # atno 17321 bound_to 7965
  139.5563  144.2268  152.1617 LP  0  0  0  0  0  0  0  0  0  0  0  0  # atno 17342 bound_to 10162
  140.1523  144.5103  150.6680 LP  0  0  0  0  0  0  0  0  0  0  0  0  # atno 17343 bound_to 10162
  155.9725  130.4133  150.4077 LP  0  0  0  0  0  0  0  0  0  0  0  0  # atno 17370 bound_to 10713
  157.2144  131.0468  151.2581 LP  0  0  0  0  0  0  0  0  0  0  0  0  # atno 17371 bound_to 10713
  140.5406  134.6124  157.5378 LP  0  0  0  0  0  0  0  0  0  0  0  0  # atno 17394 bound_to 11000
  139.9656  134.7379  156.0146 LP  0  0  0  0  0  0  0  0  0  0  0  0  # atno 17395 bound_to 11000

$$$$
