AV-unprocessed.smi:1413|AV-procd|sdf|5751|dock4
  -GOLD-   22720 5383D 1   1.00000     0.00000
 Structure written by MMmdl.
 53 55  0  0  0  0  0  0  0  0  1 V2000
  151.7081  145.2483  158.8938 C   0  0  0  0  0  0  0  0  0  0  0  0
  152.2958  143.8799  158.5335 C   0  0  2  0  0  0  0  0  0  0  0  0
  151.3052  143.0216  157.7239 C   0  0  0  0  0  0  0  0  0  0  0  0
  151.8477  141.6837  157.5063 N   0  0  0  0  0  0  0  0  0  0  0  0
  151.1633  140.8993  156.5532 C   0  0  0  0  0  0  0  0  0  0  0  0
  151.8440  139.8720  155.8584 C   0  0  0  0  0  0  0  0  0  0  0  0
  151.1443  139.0980  154.9126 C   0  0  0  0  0  0  0  0  0  0  0  0
  149.7742  139.3655  154.6888 C   0  0  0  0  0  0  0  0  0  0  0  0
  148.9691  138.6684  153.7488 N   0  0  0  0  0  0  0  0  0  0  0  0
  147.6492  138.7943  153.5310 C   0  0  0  0  0  0  0  0  0  0  0  0
  146.9033  139.5717  154.1261 O   0  0  0  0  0  0  0  0  0  0  0  0
  147.2409  137.9683  152.5568 N   0  0  0  0  0  0  0  0  0  0  0  0
  145.8818  137.8676  152.0241 C   0  0  1  0  0  0  0  0  0  0  0  0
  145.8993  138.2070  150.5267 C   0  0  0  0  0  0  0  0  0  0  0  0
  145.2820  136.4704  152.2877 C   0  0  2  0  0  0  0  0  0  0  0  0
  145.7764  135.3462  151.3651 C   0  0  0  0  0  0  0  0  0  0  0  0
  144.5453  134.4802  151.1334 C   0  0  0  0  0  0  0  0  0  0  0  0
  143.4702  135.1147  152.0125 C   0  0  0  0  0  0  0  0  0  0  0  0
  143.8722  136.4707  152.1077 O   0  0  0  0  0  0  0  0  0  0  0  0
  149.1860  140.4174  155.4184 C   0  0  0  0  0  0  0  0  0  0  0  0
  149.8517  141.1582  156.3287 N   0  0  0  0  0  0  0  0  0  0  0  0
  152.2905  141.0330  158.7374 C   0  0  0  0  0  0  0  0  0  0  0  0
  153.2581  141.9481  159.5108 C   0  0  2  0  0  0  0  0  0  0  0  0
  153.6585  141.3512  160.8638 C   0  0  0  0  0  0  0  0  0  0  0  0
  152.6257  143.2035  159.7440 O   0  0  0  0  0  0  0  0  0  0  0  0
  151.4475  145.8114  157.9973 H   0  0  0  0  0  0  0  0  0  0  0  0
  152.4233  145.8422  159.4634 H   0  0  0  0  0  0  0  0  0  0  0  0
  150.8063  145.1432  159.4977 H   0  0  0  0  0  0  0  0  0  0  0  0
  153.2061  144.0362  157.9519 H   0  0  0  0  0  0  0  0  0  0  0  0
  150.3599  142.9315  158.2608 H   0  0  0  0  0  0  0  0  0  0  0  0
  151.0867  143.5224  156.7816 H   0  0  0  0  0  0  0  0  0  0  0  0
  152.8865  139.6625  156.0470 H   0  0  0  0  0  0  0  0  0  0  0  0
  151.6716  138.3265  154.3731 H   0  0  0  0  0  0  0  0  0  0  0  0
  149.4672  138.0548  153.1206 H   0  0  0  0  0  0  0  0  0  0  0  0
  147.9295  137.3619  152.1361 H   0  0  0  0  0  0  0  0  0  0  0  0
  145.2353  138.6013  152.5083 H   0  0  0  0  0  0  0  0  0  0  0  0
  144.8943  138.1724  150.1054 H   0  0  0  0  0  0  0  0  0  0  0  0
  146.5191  137.5064  149.9661 H   0  0  0  0  0  0  0  0  0  0  0  0
  146.2925  139.2096  150.3554 H   0  0  0  0  0  0  0  0  0  0  0  0
  145.4843  136.1798  153.3206 H   0  0  0  0  0  0  0  0  0  0  0  0
  146.1444  135.7228  150.4111 H   0  0  0  0  0  0  0  0  0  0  0  0
  146.5899  134.7880  151.8294 H   0  0  0  0  0  0  0  0  0  0  0  0
  144.2503  134.5323  150.0846 H   0  0  0  0  0  0  0  0  0  0  0  0
  144.7134  133.4322  151.3832 H   0  0  0  0  0  0  0  0  0  0  0  0
  142.4698  135.0199  151.5901 H   0  0  0  0  0  0  0  0  0  0  0  0
  143.4670  134.6659  153.0071 H   0  0  0  0  0  0  0  0  0  0  0  0
  148.1456  140.6699  155.2746 H   0  0  0  0  0  0  0  0  0  0  0  0
  151.4213  140.7974  159.3532 H   0  0  0  0  0  0  0  0  0  0  0  0
  152.7901  140.0918  158.5038 H   0  0  0  0  0  0  0  0  0  0  0  0
  154.1632  142.1074  158.9217 H   0  0  0  0  0  0  0  0  0  0  0  0
  154.1571  140.3901  160.7358 H   0  0  0  0  0  0  0  0  0  0  0  0
  152.7871  141.1945  161.5001 H   0  0  0  0  0  0  0  0  0  0  0  0
  154.3438  142.0131  161.3940 H   0  0  0  0  0  0  0  0  0  0  0  0
  1  2  1  0  0  0  0
  1 26  1  0  0  0  0
  1 27  1  0  0  0  0
  1 28  1  0  0  0  0
  2 25  1  0  0  0  0
  2  3  1  0  0  0  0
  2 29  1  0  0  0  0
  3  4  1  0  0  0  0
  3 30  1  0  0  0  0
  3 31  1  0  0  0  0
  4  5  1  0  0  0  0
  4 22  1  0  0  0  0
  5 21  1  0  0  0  0
  5  6  2  0  0  0  0
  6  7  1  0  0  0  0
  6 32  1  0  0  0  0
  7  8  2  0  0  0  0
  7 33  1  0  0  0  0
  8  9  1  0  0  0  0
  8 20  1  0  0  0  0
  9 10  1  0  0  0  0
  9 34  1  0  0  0  0
 10 11  2  0  0  0  0
 10 12  1  0  0  0  0
 12 13  1  0  0  0  0
 12 35  1  0  0  0  0
 13 14  1  0  0  0  0
 13 15  1  0  0  0  0
 13 36  1  0  0  0  0
 14 37  1  0  0  0  0
 14 38  1  0  0  0  0
 14 39  1  0  0  0  0
 15 19  1  0  0  0  0
 15 16  1  0  0  0  0
 15 40  1  0  0  0  0
 16 17  1  0  0  0  0
 16 41  1  0  0  0  0
 16 42  1  0  0  0  0
 17 18  1  0  0  0  0
 17 43  1  0  0  0  0
 17 44  1  0  0  0  0
 18 19  1  0  0  0  0
 18 45  1  0  0  0  0
 18 46  1  0  0  0  0
 20 21  2  0  0  0  0
 20 47  1  0  0  0  0
 22 23  1  0  0  0  0
 22 48  1  0  0  0  0
 22 49  1  0  0  0  0
 23 24  1  0  0  0  0
 23 25  1  0  0  0  0
 23 50  1  0  0  0  0
 24 51  1  0  0  0  0
 24 52  1  0  0  0  0
 24 53  1  0  0  0  0
M  END
> <s_m_source_file>
AV-unprocessed.smi

> <i_m_source_file_index>
1413

> <i_lp_mmshare_version>
43012

> <i_f3d_flags>
0

> <s_epik_input>
W0NIM11bQ0BASF0xW0NIMl1OKFtDSDJdW0NASF0oTzEpW0NIM10pYzJbY0hdW2NIXWMoW2NIXW4yKVtOSF1DKD1PKVtOSF1bQ0BIXShbQ0gzXSlbQ0BASF0zW0NIMl1bQ0gyXVtDSDJdTzM=

> <s_epik_cmdline>
J2VwaWtfcHl0aG9uJywgJy1waCcsICc3LjAnLCAnLXRuJywgJzgnLCAnLW1hJywgJzIwMCcsICctbWV0YWxfYmluZGluZycsICctaW1hZScsICc8aW5maWxlLm1hZT4nLCAnLW9tYWUnLCAnPG91dGZpbGUubWFlPic=

> <r_lp_tautomer_probability>
1

> <r_epik_Ionization_Penalty>
0.00271172

> <r_epik_Ionization_Penalty_Charging>
0

> <r_epik_Ionization_Penalty_Neutral>
0.00271172

> <r_epik_State_Penalty>
0.00186503

> <r_epik_Charging_Adjusted_Penalty>
0.00186503

> <i_epik_Tot_Q>
0

> <i_epik_Tot_abs_Q>
0

> <r_epik_Metal_State_Penalty>
-0

> <b_epik_Metal_Only>
0

> <s_lp_Force_Field>
OPLS_2005

> <r_lp_Energy>
35.2684

> <b_lp_Chiralities_Consistent>
1

> <s_lp_Variant>
AV-unprocessed.smi:1413-4

> <Gold.Version>
5.8.1

> <Gold.Id.Protein>
6NUR|6NUR_protein|mol2

> <Gold.PLP.Fitness>
48.8025

> <Gold.PLP.PLP>
-45.6901

> <Gold.PLP.part.hbond>
-2.8843

> <Gold.PLP.part.metal>
0.0000

> <Gold.PLP.part.buried>
2.1919

> <Gold.PLP.part.nonpolar>
-47.4752

> <Gold.PLP.part.repulsive>
0.8243

> <Gold.PLP.ligand.clash>
0.0000

> <Gold.PLP.ligand.torsion>
0.6571

> <Gold.PLP.Chemscore.Hbond>
1.3588

> <Gold.PLP.Chemscore.CHOScore>
0.0000

> <Gold.PLP.Chemscore.Metal>
0.0000

> <Gold.Chemscore.Hbonds>
donor molecule, donor type, donor heavy atom, donor atom, acceptor molecule, acceptor atom, score
      L1  H     9    34       P1  7948  0.37
      L1  H    12    35       P1  7948  0.99

> <Gold.PLP.Chemscore.Internal.Correction>
0.3503

> <Gold.Rescore>
     Score         DG    S(hbond)    S(metal)    S(lipo)     H(rot)  DE(clash)    DE(int)     intcor
     18.37     -22.83       1.90        0.00     123.48       1.35       2.47       1.99       ----

> <Gold.Chemscore.Fitness>
18.3737

> <Gold.Chemscore.DG>
-22.8254

> <Gold.Chemscore.ZeroCoef>
-5.4800

> <Gold.Chemscore.Hbond>
1.9002

> <Gold.Chemscore.Metal>
0.0000

> <Gold.Chemscore.Lipo>
123.4801

> <Gold.Chemscore.Internal_Hbond>
0.0000

> <Gold.Chemscore.DEClash>
2.4654

> <Gold.Chemscore.DEInternal>
1.9863

> <Gold.Chemscore.Rot>
1.3471

> <Gold.Chemscore.Internal.Correction>
   9.000000E+99

> <Gold.Chemscore.Hbonds>
donor molecule, donor type, donor heavy atom, donor atom, acceptor molecule, acceptor atom, score
      L1  H     9    34       P1  7948  0.33
      L1  H    12    35       P1  7948  0.92

> <Gold.Chemscore.Hbond.Weighted>
-6.3468

> <Gold.Chemscore.Metal.Weighted>
-0.0000

> <Gold.Chemscore.Lipo.Weighted>
-14.4472

> <Gold.Chemscore.Internal_Hbond.Weighted>
0.0000

> <Gold.Chemscore.DEClash.Weighted>
2.4654

> <Gold.Chemscore.DEInternal.Weighted>
1.9863

> <Gold.Chemscore.Rot.Weighted>
3.4485

> <Gold.Chemscore.Internal.Correction.Weighted>
   9.000000E+99

> <Gold.Protein.RotatedTorsions>
[ 6907 6896 6895 6894 ] final   11.33 input  -60.11 | X-H torsion
[ 7974 7965 7964 7962 ] final  -29.26 input  175.53 | X-H torsion
[ 8008 7997 7996 7995 ] final  -16.95 input   59.86 | X-H torsion
[ 10167 10162 10161 10158 ] final  119.96 input  -65.29 | X-H torsion
[ 10718 10713 10712 10709 ] final -104.75 input   66.30 | X-H torsion
[ 10763 10752 10751 10750 ] final   90.20 input  -60.55 | X-H torsion
[ 11005 11000 10999 10996 ] final   -4.00 input  -57.11 | X-H torsion

> <Gold.Protein.ActiveResidues>
 VAL166  LYS551  ARG553  GLY616  TRP617  ASP618  TYR619  PRO620  LYS621  CYS622 
 ASP623  PHE694  ASN695  SER759  ASP760  ASP761  ALA762  ILE779  LEU786  VAL792 
 PHE793  MET794  SER795  GLU796  ALA797  LYS798  CYS799  TRP800  GLU811  SER814 

> <Gold.Protein.RotatedAtoms>
  151.7526  135.0829  160.0332 H   0  0  0  0  0  0  0  0  0  0  0  0  # atno 6907 bound_to 6896
  152.3407  133.6059  159.5882 H   0  0  0  0  0  0  0  0  0  0  0  0  # atno 6908 bound_to 6896
  150.7477  133.9643  159.3567 H   0  0  0  0  0  0  0  0  0  0  0  0  # atno 6909 bound_to 6896
  146.1229  140.5389  142.8727 H   0  0  0  0  0  0  0  0  0  0  0  0  # atno 7974 bound_to 7965
  154.5014  140.2155  155.9339 H   0  0  0  0  0  0  0  0  0  0  0  0  # atno 8008 bound_to 7997
  156.1438  140.3174  155.8505 H   0  0  0  0  0  0  0  0  0  0  0  0  # atno 8009 bound_to 7997
  155.4069  140.0488  157.3024 H   0  0  0  0  0  0  0  0  0  0  0  0  # atno 8010 bound_to 7997
  139.6012  144.7057  151.3058 H   0  0  0  0  0  0  0  0  0  0  0  0  # atno 10167 bound_to 10162
  156.0317  130.5530  150.7440 H   0  0  0  0  0  0  0  0  0  0  0  0  # atno 10718 bound_to 10713
  153.1951  135.4442  155.0197 H   0  0  0  0  0  0  0  0  0  0  0  0  # atno 10763 bound_to 10752
  154.8114  135.3296  154.7298 H   0  0  0  0  0  0  0  0  0  0  0  0  # atno 10764 bound_to 10752
  153.7748  135.6982  153.4955 H   0  0  0  0  0  0  0  0  0  0  0  0  # atno 10765 bound_to 10752
  140.6755  133.9199  155.8522 H   0  0  0  0  0  0  0  0  0  0  0  0  # atno 11005 bound_to 11000
  144.7614  140.5431  143.6732 LP  0  0  0  0  0  0  0  0  0  0  0  0  # atno 17320 bound_to 7965
  145.5427  139.1475  143.3438 LP  0  0  0  0  0  0  0  0  0  0  0  0  # atno 17321 bound_to 7965
  140.7251  143.7026  150.7832 LP  0  0  0  0  0  0  0  0  0  0  0  0  # atno 17342 bound_to 10162
  140.0603  143.5161  152.2631 LP  0  0  0  0  0  0  0  0  0  0  0  0  # atno 17343 bound_to 10162
  157.5002  131.0918  151.0323 LP  0  0  0  0  0  0  0  0  0  0  0  0  # atno 17370 bound_to 10713
  157.0706  130.5863  149.5402 LP  0  0  0  0  0  0  0  0  0  0  0  0  # atno 17371 bound_to 10713
  141.0358  134.0691  157.3960 LP  0  0  0  0  0  0  0  0  0  0  0  0  # atno 17394 bound_to 11000
  139.8968  135.0147  156.7069 LP  0  0  0  0  0  0  0  0  0  0  0  0  # atno 17395 bound_to 11000

$$$$
