AV-unprocessed.smi:1976|AV-procd|sdf|7983|dock7
  -GOLD-   2272010163D 1   1.00000     0.00000
 Structure written by MMmdl.
 45 47  0  0  0  0  0  0  0  0  2 V2000
  149.6188  139.7893  156.5312 O   0  0  0  0  0  0  0  0  0  0  0  0
  150.0282  140.5050  155.6161 C   0  0  0  0  0  0  0  0  0  0  0  0
  150.6915  141.8594  155.9057 C   0  0  0  0  0  0  0  0  0  0  0  0
  151.3622  141.9165  157.2155 N   0  0  0  0  0  0  0  0  0  0  0  0
  151.0475  143.0072  158.0497 C   0  0  0  0  0  0  0  0  0  0  0  0
  151.5811  143.1706  159.2754 C   0  0  0  0  0  0  0  0  0  0  0  0
  151.2681  144.3913  160.1271 C   0  0  0  0  0  0  0  0  0  0  0  0
  151.9468  144.3629  161.2744 F   0  0  0  0  0  0  0  0  0  0  0  0
  151.5769  145.5189  159.4853 F   0  0  0  0  0  0  0  0  0  0  0  0
  149.9675  144.4214  160.4150 F   0  0  0  0  0  0  0  0  0  0  0  0
  152.5408  142.1701  159.6997 C   0  0  0  0  0  0  0  0  0  0  0  0
  152.8637  141.1284  158.9084 C   0  0  0  0  0  0  0  0  0  0  0  0
  152.2609  140.9552  157.5847 C   0  0  0  0  0  0  0  0  0  0  0  0
  152.5462  140.0073  156.8523 O   0  0  0  0  0  0  0  0  0  0  0  0
  149.9443  140.1570  154.3238 N   0  0  0  0  0  0  0  0  0  0  0  0
  149.3491  138.9177  153.8362 C   0  0  2  0  0  0  0  0  0  0  0  0
  147.8104  138.8837  153.9202 C   0  0  0  0  0  0  0  0  0  0  0  0
  147.4554  137.4386  154.3229 C   0  0  0  0  0  0  0  0  0  0  0  0
  148.7406  136.7141  154.3487 N   0  3  2  0  0  0  0  0  0  0  0  0
  148.8173  135.5054  155.1980 C   0  0  0  0  0  0  0  0  0  0  0  0
  150.2050  134.8536  155.0325 C   0  0  0  0  0  0  0  0  0  0  0  0
  151.3460  135.8608  155.2855 C   0  0  0  0  0  0  0  0  0  0  0  0
  151.1617  137.1351  154.4383 C   0  0  0  0  0  0  0  0  0  0  0  0
  149.7608  137.7176  154.6876 C   0  0  1  0  0  0  0  0  0  0  0  0
  151.4012  142.0689  155.1044 H   0  0  0  0  0  0  0  0  0  0  0  0
  149.9416  142.6497  155.8345 H   0  0  0  0  0  0  0  0  0  0  0  0
  150.3484  143.7120  157.6234 H   0  0  0  0  0  0  0  0  0  0  0  0
  153.0070  142.2552  160.6702 H   0  0  0  0  0  0  0  0  0  0  0  0
  153.5825  140.4017  159.2576 H   0  0  0  0  0  0  0  0  0  0  0  0
  150.3091  140.7973  153.6332 H   0  0  0  0  0  0  0  0  0  0  0  0
  149.6568  138.7432  152.8028 H   0  0  0  0  0  0  0  0  0  0  0  0
  147.4379  139.5781  154.6750 H   0  0  0  0  0  0  0  0  0  0  0  0
  147.3595  139.1631  152.9672 H   0  0  0  0  0  0  0  0  0  0  0  0
  146.9991  137.4284  155.3141 H   0  0  0  0  0  0  0  0  0  0  0  0
  146.7607  136.9705  153.6252 H   0  0  0  0  0  0  0  0  0  0  0  0
  148.6415  135.7720  156.2413 H   0  0  0  0  0  0  0  0  0  0  0  0
  148.0347  134.8037  154.9072 H   0  0  0  0  0  0  0  0  0  0  0  0
  150.3008  134.0025  155.7075 H   0  0  0  0  0  0  0  0  0  0  0  0
  150.2969  134.4548  154.0213 H   0  0  0  0  0  0  0  0  0  0  0  0
  151.3640  136.1284  156.3428 H   0  0  0  0  0  0  0  0  0  0  0  0
  152.3099  135.3995  155.0675 H   0  0  0  0  0  0  0  0  0  0  0  0
  151.9280  137.8684  154.6917 H   0  0  0  0  0  0  0  0  0  0  0  0
  151.2896  136.8989  153.3809 H   0  0  0  0  0  0  0  0  0  0  0  0
  149.6568  137.9746  155.7445 H   0  0  0  0  0  0  0  0  0  0  0  0
  148.9278  136.4270  153.3986 H   0  0  0  0  0  0  0  0  0  0  0  0
  1  2  2  0  0  0  0
  2  3  1  0  0  0  0
  2 15  1  0  0  0  0
  3  4  1  0  0  0  0
  3 25  1  0  0  0  0
  3 26  1  0  0  0  0
  4 13  1  0  0  0  0
  4  5  1  0  0  0  0
  5  6  2  0  0  0  0
  5 27  1  0  0  0  0
  6  7  1  0  0  0  0
  6 11  1  0  0  0  0
  7  8  1  0  0  0  0
  7  9  1  0  0  0  0
  7 10  1  0  0  0  0
 11 12  2  0  0  0  0
 11 28  1  0  0  0  0
 12 13  1  0  0  0  0
 12 29  1  0  0  0  0
 13 14  2  0  0  0  0
 15 16  1  0  0  0  0
 15 30  1  0  0  0  0
 16 24  1  0  0  0  0
 16 17  1  0  0  0  0
 16 31  1  0  0  0  0
 17 18  1  0  0  0  0
 17 32  1  0  0  0  0
 17 33  1  0  0  0  0
 18 19  1  0  0  0  0
 18 34  1  0  0  0  0
 18 35  1  0  0  0  0
 19 24  1  0  0  0  0
 19 20  1  0  0  0  0
 19 45  1  0  0  0  0
 20 21  1  0  0  0  0
 20 36  1  0  0  0  0
 20 37  1  0  0  0  0
 21 22  1  0  0  0  0
 21 38  1  0  0  0  0
 21 39  1  0  0  0  0
 22 23  1  0  0  0  0
 22 40  1  0  0  0  0
 22 41  1  0  0  0  0
 23 24  1  0  0  0  0
 23 42  1  0  0  0  0
 23 43  1  0  0  0  0
 24 44  1  0  0  0  0
M  CHG  1  19   1
M  END
> <s_m_source_file>
AV-unprocessed.smi

> <i_m_source_file_index>
1976

> <i_lp_mmshare_version>
43012

> <i_f3d_flags>
0

> <s_epik_input>
W0NIMl0xW0NIMl1bQ0gyXVtDSDJdW0NASF0oTjEyKVtDQEBIXShbQ0gyXVtDSDJdMilbTkhdQyg9TylbQ0gyXW4zW2NIXWMoQyhGKShGKUYpW2NIXVtjSF1jMz1P

> <s_epik_cmdline>
J2VwaWtfcHl0aG9uJywgJy1waCcsICc3LjAnLCAnLXRuJywgJzgnLCAnLW1hJywgJzIwMCcsICctbWV0YWxfYmluZGluZycsICctaW1hZScsICc8aW5maWxlLm1hZT4nLCAnLW9tYWUnLCAnPG91dGZpbGUubWFlPic=

> <r_lp_tautomer_probability>
1

> <r_epik_Ionization_Penalty>
0.00171506

> <r_epik_Ionization_Penalty_Charging>
0.00171498

> <r_epik_Ionization_Penalty_Neutral>
7.81737e-08

> <r_epik_State_Penalty>
0.00115937

> <r_epik_Charging_Adjusted_Penalty>
0.00287436

> <i_epik_Tot_Q>
1

> <i_epik_Tot_abs_Q>
1

> <r_epik_Metal_State_Penalty>
-0

> <b_epik_Metal_Only>
0

> <s_lp_Force_Field>
OPLS_2005

> <r_lp_Energy>
45.9566

> <b_lp_Chiralities_Consistent>
1

> <s_lp_Variant>
AV-unprocessed.smi:1976-1

> <Gold.Version>
5.8.1

> <Gold.Id.Protein>
6NUR|6NUR_protein|mol2

> <Gold.PLP.Fitness>
53.3603

> <Gold.PLP.PLP>
-43.2036

> <Gold.PLP.part.hbond>
-2.2734

> <Gold.PLP.part.metal>
0.0000

> <Gold.PLP.part.buried>
-5.5701

> <Gold.PLP.part.nonpolar>
-35.2485

> <Gold.PLP.part.repulsive>
0.6403

> <Gold.PLP.ligand.clash>
0.0000

> <Gold.PLP.ligand.torsion>
0.6557

> <Gold.PLP.Chemscore.Hbond>
3.0000

> <Gold.PLP.Chemscore.CHOScore>
0.8066

> <Gold.PLP.Chemscore.Metal>
0.0000

> <Gold.Chemscore.Hbonds>
donor molecule, donor type, donor heavy atom, donor atom, acceptor molecule, acceptor atom, score
      L1  H    19    45       P1  7948  2.00
      P1  H  7997  8010       L1    14  1.00
      L1  C     5    27       P1  8028  0.76

> <Gold.PLP.Chemscore.Internal.Correction>
0.0482

> <Gold.Rescore>
     Score         DG    S(hbond)    S(metal)    S(lipo)     H(rot)  DE(clash)    DE(int)     intcor
     14.74     -18.13       1.86        0.00      89.71       1.58       0.30       3.09       ----

> <Gold.Chemscore.Fitness>
14.7383

> <Gold.Chemscore.DG>
-18.1265

> <Gold.Chemscore.ZeroCoef>
-5.4800

> <Gold.Chemscore.Hbond>
1.8570

> <Gold.Chemscore.Metal>
0.0000

> <Gold.Chemscore.Lipo>
89.7142

> <Gold.Chemscore.Internal_Hbond>
0.0000

> <Gold.Chemscore.DEClash>
0.3031

> <Gold.Chemscore.DEInternal>
3.0852

> <Gold.Chemscore.Rot>
1.5830

> <Gold.Chemscore.Internal.Correction>
   9.000000E+99

> <Gold.Chemscore.Hbonds>
donor molecule, donor type, donor heavy atom, donor atom, acceptor molecule, acceptor atom, score
      L1  H    19    45       P1  7948  0.93
      P1  H  7997  8010       L1    14  0.55

> <Gold.Chemscore.Hbond.Weighted>
-6.2023

> <Gold.Chemscore.Metal.Weighted>
-0.0000

> <Gold.Chemscore.Lipo.Weighted>
-10.4966

> <Gold.Chemscore.Internal_Hbond.Weighted>
0.0000

> <Gold.Chemscore.DEClash.Weighted>
0.3031

> <Gold.Chemscore.DEInternal.Weighted>
3.0852

> <Gold.Chemscore.Rot.Weighted>
4.0524

> <Gold.Chemscore.Internal.Correction.Weighted>
   9.000000E+99

> <Gold.Protein.RotatedTorsions>
[ 6907 6896 6895 6894 ] final  -52.57 input  -60.11 | X-H torsion
[ 7974 7965 7964 7962 ] final  -84.82 input  175.53 | X-H torsion
[ 8008 7997 7996 7995 ] final   65.30 input   59.86 | X-H torsion
[ 10167 10162 10161 10158 ] final  124.86 input  -65.29 | X-H torsion
[ 10718 10713 10712 10709 ] final -105.13 input   66.30 | X-H torsion
[ 10763 10752 10751 10750 ] final -177.92 input  -60.55 | X-H torsion
[ 11005 11000 10999 10996 ] final  -45.03 input  -57.11 | X-H torsion

> <Gold.Protein.ActiveResidues>
 VAL166  LYS551  ARG553  GLY616  TRP617  ASP618  TYR619  PRO620  LYS621  CYS622 
 ASP623  PHE694  ASN695  SER759  ASP760  ASP761  ALA762  ILE779  LEU786  VAL792 
 PHE793  MET794  SER795  GLU796  ALA797  LYS798  CYS799  TRP800  GLU811  SER814 

> <Gold.Protein.RotatedAtoms>
  150.8506  134.7829  159.7005 H   0  0  0  0  0  0  0  0  0  0  0  0  # atno 6907 bound_to 6896
  152.4571  134.5263  159.9807 H   0  0  0  0  0  0  0  0  0  0  0  0  # atno 6908 bound_to 6896
  151.5385  133.3399  159.2967 H   0  0  0  0  0  0  0  0  0  0  0  0  # atno 6909 bound_to 6896
  145.5015  140.9546  143.1757 H   0  0  0  0  0  0  0  0  0  0  0  0  # atno 7974 bound_to 7965
  155.6595  140.3497  155.4777 H   0  0  0  0  0  0  0  0  0  0  0  0  # atno 8008 bound_to 7997
  155.9780  140.1169  157.0775 H   0  0  0  0  0  0  0  0  0  0  0  0  # atno 8009 bound_to 7997
  154.4184  140.1144  156.5383 H   0  0  0  0  0  0  0  0  0  0  0  0  # atno 8010 bound_to 7997
  139.5718  144.6942  151.3760 H   0  0  0  0  0  0  0  0  0  0  0  0  # atno 10167 bound_to 10162
  156.0333  130.5549  150.7495 H   0  0  0  0  0  0  0  0  0  0  0  0  # atno 10718 bound_to 10713
  154.5541  135.2815  155.0981 H   0  0  0  0  0  0  0  0  0  0  0  0  # atno 10763 bound_to 10752
  154.2415  135.6356  153.5212 H   0  0  0  0  0  0  0  0  0  0  0  0  # atno 10764 bound_to 10752
  153.0011  135.5561  154.6116 H   0  0  0  0  0  0  0  0  0  0  0  0  # atno 10765 bound_to 10752
  141.0489  133.6750  156.2956 H   0  0  0  0  0  0  0  0  0  0  0  0  # atno 11005 bound_to 11000
  144.7777  139.6593  143.7168 LP  0  0  0  0  0  0  0  0  0  0  0  0  # atno 17320 bound_to 7965
  146.2223  139.5658  142.9610 LP  0  0  0  0  0  0  0  0  0  0  0  0  # atno 17321 bound_to 7965
  140.7002  143.7651  150.7390 LP  0  0  0  0  0  0  0  0  0  0  0  0  # atno 17342 bound_to 10162
  140.1159  143.4656  152.2342 LP  0  0  0  0  0  0  0  0  0  0  0  0  # atno 17343 bound_to 10162
  157.5043  131.0921  151.0276 LP  0  0  0  0  0  0  0  0  0  0  0  0  # atno 17370 bound_to 10713
  157.0648  130.5840  149.5392 LP  0  0  0  0  0  0  0  0  0  0  0  0  # atno 17371 bound_to 10713
  140.6093  134.5475  157.5531 LP  0  0  0  0  0  0  0  0  0  0  0  0  # atno 17394 bound_to 11000
  139.9334  134.7920  156.0868 LP  0  0  0  0  0  0  0  0  0  0  0  0  # atno 17395 bound_to 11000

$$$$
