AV-unprocessed.smi:652|AV-procd|sdf|3192|dock10
  -GOLD-   22720 0123D 1   1.00000     0.00000
 Structure written by MMmdl.
 48 49  0  0  0  0  0  0  0  0  2 V2000
  147.0226  144.7674  161.1801 C   0  0  0  0  0  0  0  0  0  0  0  0
  145.6639  144.2024  160.7453 C   0  0  0  0  0  0  0  0  0  0  0  0
  144.8027  143.7986  161.9522 C   0  0  0  0  0  0  0  0  0  0  0  0
  145.8739  143.0581  159.8625 N   0  0  0  0  0  0  0  0  0  0  0  0
  145.3231  142.8995  158.6484 C   0  0  0  0  0  0  0  0  0  0  0  0
  144.5502  143.7140  158.1439 O   0  0  0  0  0  0  0  0  0  0  0  0
  145.6972  141.6225  157.8914 C   0  0  0  0  0  0  0  0  0  0  0  0
  145.8968  141.8714  156.3820 C   0  0  0  0  0  0  0  0  0  0  0  0
  147.1795  141.3213  155.8759 N   0  3  1  0  0  0  0  0  0  0  0  0
  147.3370  141.5177  154.4149 C   0  0  0  0  0  0  0  0  0  0  0  0
  148.6574  140.9006  153.9259 C   0  0  0  0  0  0  0  0  0  0  0  0
  149.7425  141.4663  154.6499 O   0  0  0  0  0  0  0  0  0  0  0  0
  149.6598  141.1911  156.0445 C   0  0  1  0  0  0  0  0  0  0  0  0
  150.9079  141.7644  156.7293 C   0  0  0  0  0  0  0  0  0  0  0  0
  150.7753  143.1909  156.9924 N   0  0  0  0  0  0  0  0  0  0  0  0
  151.0440  143.7044  158.2685 C   0  0  0  0  0  0  0  0  0  0  0  0
  151.3735  145.0680  158.4014 C   0  0  0  0  0  0  0  0  0  0  0  0
  151.6425  145.5509  159.6940 C   0  0  0  0  0  0  0  0  0  0  0  0
  151.5623  144.6320  160.7563 C   0  0  0  0  0  0  0  0  0  0  0  0
  151.2408  143.3319  160.5711 N   0  0  0  0  0  0  0  0  0  0  0  0
  150.9848  142.8742  159.3405 N   0  0  0  0  0  0  0  0  0  0  0  0
  148.3719  141.8334  156.5955 C   0  0  0  0  0  0  0  0  0  0  0  0
  146.8962  145.6438  161.8166 H   0  0  0  0  0  0  0  0  0  0  0  0
  147.6164  145.0720  160.3174 H   0  0  0  0  0  0  0  0  0  0  0  0
  147.6003  144.0312  161.7402 H   0  0  0  0  0  0  0  0  0  0  0  0
  145.1418  144.9873  160.1948 H   0  0  0  0  0  0  0  0  0  0  0  0
  144.6291  144.6503  162.6105 H   0  0  0  0  0  0  0  0  0  0  0  0
  145.2838  143.0167  162.5407 H   0  0  0  0  0  0  0  0  0  0  0  0
  143.8277  143.4261  161.6364 H   0  0  0  0  0  0  0  0  0  0  0  0
  146.4913  142.3340  160.2006 H   0  0  0  0  0  0  0  0  0  0  0  0
  146.5971  141.1940  158.3332 H   0  0  0  0  0  0  0  0  0  0  0  0
  144.8968  140.8979  158.0453 H   0  0  0  0  0  0  0  0  0  0  0  0
  145.0837  141.3930  155.8331 H   0  0  0  0  0  0  0  0  0  0  0  0
  145.8362  142.9374  156.1564 H   0  0  0  0  0  0  0  0  0  0  0  0
  146.5008  141.0595  153.8855 H   0  0  0  0  0  0  0  0  0  0  0  0
  147.3165  142.5845  154.1856 H   0  0  0  0  0  0  0  0  0  0  0  0
  148.6499  139.8160  154.0437 H   0  0  0  0  0  0  0  0  0  0  0  0
  148.7965  141.1043  152.8640 H   0  0  0  0  0  0  0  0  0  0  0  0
  149.6252  140.1121  156.2074 H   0  0  0  0  0  0  0  0  0  0  0  0
  151.1050  141.2346  157.6624 H   0  0  0  0  0  0  0  0  0  0  0  0
  151.7736  141.6118  156.0835 H   0  0  0  0  0  0  0  0  0  0  0  0
  150.3464  143.7821  156.2950 H   0  0  0  0  0  0  0  0  0  0  0  0
  151.4194  145.7238  157.5444 H   0  0  0  0  0  0  0  0  0  0  0  0
  151.9008  146.5852  159.8659 H   0  0  0  0  0  0  0  0  0  0  0  0
  151.7591  144.9431  161.7715 H   0  0  0  0  0  0  0  0  0  0  0  0
  148.4198  142.9192  156.4959 H   0  0  0  0  0  0  0  0  0  0  0  0
  148.2940  141.6134  157.6596 H   0  0  0  0  0  0  0  0  0  0  0  0
  147.1475  140.3230  156.0268 H   0  0  0  0  0  0  0  0  0  0  0  0
  1  2  1  0  0  0  0
  1 23  1  0  0  0  0
  1 24  1  0  0  0  0
  1 25  1  0  0  0  0
  2  3  1  0  0  0  0
  2  4  1  0  0  0  0
  2 26  1  0  0  0  0
  3 27  1  0  0  0  0
  3 28  1  0  0  0  0
  3 29  1  0  0  0  0
  4  5  1  0  0  0  0
  4 30  1  0  0  0  0
  5  6  2  0  0  0  0
  5  7  1  0  0  0  0
  7  8  1  0  0  0  0
  7 31  1  0  0  0  0
  7 32  1  0  0  0  0
  8  9  1  0  0  0  0
  8 33  1  0  0  0  0
  8 34  1  0  0  0  0
  9 22  1  0  0  0  0
  9 10  1  0  0  0  0
  9 48  1  0  0  0  0
 10 11  1  0  0  0  0
 10 35  1  0  0  0  0
 10 36  1  0  0  0  0
 11 12  1  0  0  0  0
 11 37  1  0  0  0  0
 11 38  1  0  0  0  0
 12 13  1  0  0  0  0
 13 14  1  0  0  0  0
 13 22  1  0  0  0  0
 13 39  1  0  0  0  0
 14 15  1  0  0  0  0
 14 40  1  0  0  0  0
 14 41  1  0  0  0  0
 15 16  1  0  0  0  0
 15 42  1  0  0  0  0
 16 21  1  0  0  0  0
 16 17  2  0  0  0  0
 17 18  1  0  0  0  0
 17 43  1  0  0  0  0
 18 19  2  0  0  0  0
 18 44  1  0  0  0  0
 19 20  1  0  0  0  0
 19 45  1  0  0  0  0
 20 21  2  0  0  0  0
 22 46  1  0  0  0  0
 22 47  1  0  0  0  0
M  CHG  1   9   1
M  END
> <s_m_source_file>
AV-unprocessed.smi

> <i_m_source_file_index>
652

> <i_lp_mmshare_version>
43012

> <i_f3d_flags>
0

> <s_epik_input>
W0NIM11bQ0hdKFtDSDNdKVtOSF1DKD1PKVtDSDJdW0NIMl1OMVtDSDJdW0NIMl1PW0NASF0oW0NIMl0xKVtDSDJdW05IXWMyW2NIXVtjSF1bY0hdbm4y

> <s_epik_cmdline>
J2VwaWtfcHl0aG9uJywgJy1waCcsICc3LjAnLCAnLXRuJywgJzgnLCAnLW1hJywgJzIwMCcsICctbWV0YWxfYmluZGluZycsICctaW1hZScsICc8aW5maWxlLm1hZT4nLCAnLW9tYWUnLCAnPG91dGZpbGUubWFlPic=

> <r_lp_tautomer_probability>
0.999978

> <r_epik_Ionization_Penalty>
0.433079

> <r_epik_Ionization_Penalty_Charging>
0.413784

> <r_epik_Ionization_Penalty_Neutral>
0.0192945

> <r_epik_State_Penalty>
0.425138

> <r_epik_Charging_Adjusted_Penalty>
0.838922

> <i_epik_Tot_Q>
1

> <i_epik_Tot_abs_Q>
1

> <r_epik_Metal_State_Penalty>
0.422073

> <b_epik_Metal_Only>
0

> <s_lp_Force_Field>
OPLS_2005

> <r_lp_Energy>
21.6039

> <b_lp_Chiralities_Consistent>
1

> <s_lp_Variant>
AV-unprocessed.smi:652-1

> <Gold.Version>
5.8.1

> <Gold.Id.Protein>
6NUR|6NUR_protein|mol2

> <Gold.PLP.Fitness>
44.3010

> <Gold.PLP.PLP>
-42.8707

> <Gold.PLP.part.hbond>
-3.2784

> <Gold.PLP.part.metal>
0.0000

> <Gold.PLP.part.buried>
-5.9672

> <Gold.PLP.part.nonpolar>
-33.8200

> <Gold.PLP.part.repulsive>
0.4732

> <Gold.PLP.ligand.clash>
0.0000

> <Gold.PLP.ligand.torsion>
1.1099

> <Gold.PLP.Chemscore.Hbond>
1.1825

> <Gold.PLP.Chemscore.CHOScore>
0.0000

> <Gold.PLP.Chemscore.Metal>
0.0000

> <Gold.Chemscore.Hbonds>
donor molecule, donor type, donor heavy atom, donor atom, acceptor molecule, acceptor atom, score
      L1  H    15    42       P1  8028  1.00
      P1  H  7989  7998       L1    12  0.16

> <Gold.PLP.Chemscore.Internal.Correction>
0.1024

> <Gold.Rescore>
     Score         DG    S(hbond)    S(metal)    S(lipo)     H(rot)  DE(clash)    DE(int)     intcor
     12.83     -14.11       1.22        0.00      88.50       2.26       0.00       1.28       ----

> <Gold.Chemscore.Fitness>
12.8316

> <Gold.Chemscore.DG>
-14.1141

> <Gold.Chemscore.ZeroCoef>
-5.4800

> <Gold.Chemscore.Hbond>
1.2168

> <Gold.Chemscore.Metal>
0.0000

> <Gold.Chemscore.Lipo>
88.4961

> <Gold.Chemscore.Internal_Hbond>
0.0000

> <Gold.Chemscore.DEClash>
0.0048

> <Gold.Chemscore.DEInternal>
1.2777

> <Gold.Chemscore.Rot>
2.2594

> <Gold.Chemscore.Internal.Correction>
   9.000000E+99

> <Gold.Chemscore.Hbonds>
donor molecule, donor type, donor heavy atom, donor atom, acceptor molecule, acceptor atom, score
      L1  H    15    42       P1  8028  0.95
      P1  H  7989  7998       L1    12  0.09

> <Gold.Chemscore.Hbond.Weighted>
-4.0642

> <Gold.Chemscore.Metal.Weighted>
-0.0000

> <Gold.Chemscore.Lipo.Weighted>
-10.3540

> <Gold.Chemscore.Internal_Hbond.Weighted>
0.0000

> <Gold.Chemscore.DEClash.Weighted>
0.0048

> <Gold.Chemscore.DEInternal.Weighted>
1.2777

> <Gold.Chemscore.Rot.Weighted>
5.7841

> <Gold.Chemscore.Internal.Correction.Weighted>
   9.000000E+99

> <Gold.Protein.RotatedTorsions>
[ 6907 6896 6895 6894 ] final  129.62 input  -60.11 | X-H torsion
[ 7974 7965 7964 7962 ] final   79.65 input  175.53 | X-H torsion
[ 8008 7997 7996 7995 ] final    9.68 input   59.86 | X-H torsion
[ 10167 10162 10161 10158 ] final  -25.74 input  -65.29 | X-H torsion
[ 10718 10713 10712 10709 ] final -114.92 input   66.30 | X-H torsion
[ 10763 10752 10751 10750 ] final  -34.96 input  -60.55 | X-H torsion
[ 11005 11000 10999 10996 ] final  106.38 input  -57.11 | X-H torsion

> <Gold.Protein.ActiveResidues>
 VAL166  LYS551  ARG553  GLY616  TRP617  ASP618  TYR619  PRO620  LYS621  CYS622 
 ASP623  PHE694  ASN695  SER759  ASP760  ASP761  ALA762  ILE779  LEU786  VAL792 
 PHE793  MET794  SER795  GLU796  ALA797  LYS798  CYS799  TRP800  GLU811  SER814 

> <Gold.Protein.RotatedAtoms>
  152.3606  133.6292  159.6011 H   0  0  0  0  0  0  0  0  0  0  0  0  # atno 6907 bound_to 6896
  150.7598  133.9430  159.3471 H   0  0  0  0  0  0  0  0  0  0  0  0  # atno 6908 bound_to 6896
  151.7269  135.0884  160.0344 H   0  0  0  0  0  0  0  0  0  0  0  0  # atno 6909 bound_to 6896
  145.6615  139.2472  143.1920 H   0  0  0  0  0  0  0  0  0  0  0  0  # atno 7974 bound_to 7965
  154.7833  140.2823  155.6047 H   0  0  0  0  0  0  0  0  0  0  0  0  # atno 8008 bound_to 7997
  156.2953  140.2619  156.2592 H   0  0  0  0  0  0  0  0  0  0  0  0  # atno 8009 bound_to 7997
  154.9758  140.0375  157.2245 H   0  0  0  0  0  0  0  0  0  0  0  0  # atno 8010 bound_to 7997
  140.7285  143.4239  151.0908 H   0  0  0  0  0  0  0  0  0  0  0  0  # atno 10167 bound_to 10162
  156.0861  130.6053  150.8838 H   0  0  0  0  0  0  0  0  0  0  0  0  # atno 10718 bound_to 10713
  153.8553  135.6845  153.4788 H   0  0  0  0  0  0  0  0  0  0  0  0  # atno 10763 bound_to 10752
  153.1373  135.4672  154.9440 H   0  0  0  0  0  0  0  0  0  0  0  0  # atno 10764 bound_to 10752
  154.7784  135.3260  154.7992 H   0  0  0  0  0  0  0  0  0  0  0  0  # atno 10765 bound_to 10752
  139.8813  134.9367  156.5658 H   0  0  0  0  0  0  0  0  0  0  0  0  # atno 11005 bound_to 11000
  146.1121  140.7415  142.9498 LP  0  0  0  0  0  0  0  0  0  0  0  0  # atno 17320 bound_to 7965
  144.7087  140.3956  143.7097 LP  0  0  0  0  0  0  0  0  0  0  0  0  # atno 17321 bound_to 7965
  139.7888  143.8249  152.3149 LP  0  0  0  0  0  0  0  0  0  0  0  0  # atno 17342 bound_to 10162
  139.8225  144.7289  150.9554 LP  0  0  0  0  0  0  0  0  0  0  0  0  # atno 17343 bound_to 10162
  157.5996  131.0942  150.8982 LP  0  0  0  0  0  0  0  0  0  0  0  0  # atno 17370 bound_to 10713
  156.9142  130.5292  149.5280 LP  0  0  0  0  0  0  0  0  0  0  0  0  # atno 17371 bound_to 10713
  140.8135  133.8410  155.8831 LP  0  0  0  0  0  0  0  0  0  0  0  0  # atno 17394 bound_to 11000
  140.9484  134.1810  157.4746 LP  0  0  0  0  0  0  0  0  0  0  0  0  # atno 17395 bound_to 11000

$$$$
