AV-unprocessed.smi:2573|AV-procd|sdf|10113|dock2
  -GOLD-   2272014133D 1   1.00000     0.00000
 Structure written by MMmdl.
 38 39  0  0  0  0  0  0  0  0  1 V2000
  155.2466  140.2744  162.0523 C   0  0  0  0  0  0  0  0  0  0  0  0
  154.6318  141.0602  160.8895 C   0  0  0  0  0  0  0  0  0  0  0  0
  153.4437  140.3266  160.2482 C   0  0  0  0  0  0  0  0  0  0  0  0
  152.7116  141.2013  159.3357 N   0  0  0  0  0  0  0  0  0  0  0  0
  152.3138  140.9043  158.0763 C   0  0  0  0  0  0  0  0  0  0  0  0
  152.5118  139.8419  157.4872 O   0  0  0  0  0  0  0  0  0  0  0  0
  151.6552  141.9777  157.5784 N   0  0  0  0  0  0  0  0  0  0  0  0
  151.0484  142.0832  156.2513 C   0  0  0  0  0  0  0  0  0  0  0  0
  149.6858  141.3650  156.1665 C   0  0  1  0  0  0  0  0  0  0  0  0
  148.7406  142.1829  156.8256 O   0  0  0  0  0  0  0  0  0  0  0  0
  149.2227  141.0975  154.7170 C   0  0  0  0  0  0  0  0  0  0  0  0
  147.6977  140.9874  154.5395 C   0  0  0  0  0  0  0  0  0  0  0  0
  147.4395  140.2867  153.4359 F   0  0  0  0  0  0  0  0  0  0  0  0
  147.1551  140.3552  155.5799 F   0  0  0  0  0  0  0  0  0  0  0  0
  147.1371  142.1902  154.4155 F   0  0  0  0  0  0  0  0  0  0  0  0
  151.6209  142.9871  158.5529 C   0  0  0  0  0  0  0  0  0  0  0  0
  151.0647  144.2784  158.5322 C   0  0  0  0  0  0  0  0  0  0  0  0
  151.2064  145.0631  159.7006 C   0  0  0  0  0  0  0  0  0  0  0  0
  151.8829  144.5554  160.8399 C   0  0  0  0  0  0  0  0  0  0  0  0
  152.4357  143.2535  160.8335 C   0  0  0  0  0  0  0  0  0  0  0  0
  152.2841  142.4968  159.6585 C   0  0  0  0  0  0  0  0  0  0  0  0
  156.0866  140.8167  162.4867 H   0  0  0  0  0  0  0  0  0  0  0  0
  155.6141  139.3034  161.7196 H   0  0  0  0  0  0  0  0  0  0  0  0
  154.5154  140.1041  162.8427 H   0  0  0  0  0  0  0  0  0  0  0  0
  154.3097  142.0387  161.2481 H   0  0  0  0  0  0  0  0  0  0  0  0
  155.3998  141.2447  160.1372 H   0  0  0  0  0  0  0  0  0  0  0  0
  153.7915  139.4471  159.7055 H   0  0  0  0  0  0  0  0  0  0  0  0
  152.7711  139.9552  161.0230 H   0  0  0  0  0  0  0  0  0  0  0  0
  150.9209  143.1421  156.0193 H   0  0  0  0  0  0  0  0  0  0  0  0
  151.7286  141.6964  155.4923 H   0  0  0  0  0  0  0  0  0  0  0  0
  149.7435  140.4223  156.7116 H   0  0  0  0  0  0  0  0  0  0  0  0
  148.9497  143.0877  156.6489 H   0  0  0  0  0  0  0  0  0  0  0  0
  149.6169  141.8710  154.0563 H   0  0  0  0  0  0  0  0  0  0  0  0
  149.6580  140.1601  154.3705 H   0  0  0  0  0  0  0  0  0  0  0  0
  150.5521  144.6634  157.6634 H   0  0  0  0  0  0  0  0  0  0  0  0
  150.7939  146.0609  159.7259 H   0  0  0  0  0  0  0  0  0  0  0  0
  151.9783  145.1707  161.7224 H   0  0  0  0  0  0  0  0  0  0  0  0
  152.9517  142.8620  161.6976 H   0  0  0  0  0  0  0  0  0  0  0  0
  1  2  1  0  0  0  0
  1 22  1  0  0  0  0
  1 23  1  0  0  0  0
  1 24  1  0  0  0  0
  2  3  1  0  0  0  0
  2 25  1  0  0  0  0
  2 26  1  0  0  0  0
  3  4  1  0  0  0  0
  3 27  1  0  0  0  0
  3 28  1  0  0  0  0
  4 21  1  0  0  0  0
  4  5  1  0  0  0  0
  5  6  2  0  0  0  0
  5  7  1  0  0  0  0
  7  8  1  0  0  0  0
  7 16  1  0  0  0  0
  8  9  1  0  0  0  0
  8 29  1  0  0  0  0
  8 30  1  0  0  0  0
  9 10  1  0  0  0  0
  9 11  1  0  0  0  0
  9 31  1  0  0  0  0
 10 32  1  0  0  0  0
 11 12  1  0  0  0  0
 11 33  1  0  0  0  0
 11 34  1  0  0  0  0
 12 13  1  0  0  0  0
 12 14  1  0  0  0  0
 12 15  1  0  0  0  0
 16 21  2  0  0  0  0
 16 17  1  0  0  0  0
 17 18  2  0  0  0  0
 17 35  1  0  0  0  0
 18 19  1  0  0  0  0
 18 36  1  0  0  0  0
 19 20  2  0  0  0  0
 19 37  1  0  0  0  0
 20 21  1  0  0  0  0
 20 38  1  0  0  0  0
M  END
> <s_m_source_file>
AV-unprocessed.smi

> <i_m_source_file_index>
2573

> <i_lp_mmshare_version>
43012

> <i_f3d_flags>
0

> <s_epik_input>
W2NIXTFbY0hdW2NIXVtjSF1jKGMxMiluKFtDSDJdW0NIMl1bQ0gzXSljKD1PKW4yW0NIMl1bQ0BIXShbT0hdKVtDSDJdQyhGKShGKUY=

> <s_epik_cmdline>
J2VwaWtfcHl0aG9uJywgJy1waCcsICc3LjAnLCAnLXRuJywgJzgnLCAnLW1hJywgJzIwMCcsICctbWV0YWxfYmluZGluZycsICctaW1hZScsICc8aW5maWxlLm1hZT4nLCAnLW9tYWUnLCAnPG91dGZpbGUubWFlPic=

> <r_lp_tautomer_probability>
1

> <r_epik_Ionization_Penalty>
2.4024e-06

> <r_epik_Ionization_Penalty_Charging>
3.10219e-09

> <r_epik_Ionization_Penalty_Neutral>
2.3993e-06

> <r_epik_State_Penalty>
-0

> <r_epik_Charging_Adjusted_Penalty>
3.10219e-09

> <i_epik_Tot_Q>
0

> <i_epik_Tot_abs_Q>
0

> <r_epik_Metal_State_Penalty>
-0

> <b_epik_Metal_Only>
0

> <s_lp_Force_Field>
OPLS_2005

> <r_lp_Energy>
39.6684

> <b_lp_Chiralities_Consistent>
1

> <s_lp_Variant>
AV-unprocessed.smi:2573-2

> <Gold.Version>
5.8.1

> <Gold.Id.Protein>
6NUR|6NUR_protein|mol2

> <Gold.PLP.Fitness>
52.7423

> <Gold.PLP.PLP>
-49.1810

> <Gold.PLP.part.hbond>
-2.0000

> <Gold.PLP.part.metal>
0.0000

> <Gold.PLP.part.buried>
-4.8915

> <Gold.PLP.part.nonpolar>
-41.8094

> <Gold.PLP.part.repulsive>
0.0000

> <Gold.PLP.ligand.clash>
0.0000

> <Gold.PLP.ligand.torsion>
1.2091

> <Gold.PLP.Chemscore.Hbond>
1.9263

> <Gold.PLP.Chemscore.CHOScore>
0.0000

> <Gold.PLP.Chemscore.Metal>
0.0000

> <Gold.Chemscore.Hbonds>
donor molecule, donor type, donor heavy atom, donor atom, acceptor molecule, acceptor atom, score
      L1  H    10    32       P1  8028  1.00
      P1  H  7997  8010       L1     6  0.94

> <Gold.PLP.Chemscore.Internal.Correction>
0.2007

> <Gold.Rescore>
     Score         DG    S(hbond)    S(metal)    S(lipo)     H(rot)  DE(clash)    DE(int)     intcor
     15.58     -18.13       1.70        0.00     113.87       2.48       0.07       2.47       ----

> <Gold.Chemscore.Fitness>
15.5845

> <Gold.Chemscore.DG>
-18.1307

> <Gold.Chemscore.ZeroCoef>
-5.4800

> <Gold.Chemscore.Hbond>
1.7004

> <Gold.Chemscore.Metal>
0.0000

> <Gold.Chemscore.Lipo>
113.8744

> <Gold.Chemscore.Internal_Hbond>
0.0000

> <Gold.Chemscore.DEClash>
0.0741

> <Gold.Chemscore.DEInternal>
2.4720

> <Gold.Chemscore.Rot>
2.4812

> <Gold.Chemscore.Internal.Correction>
   9.000000E+99

> <Gold.Chemscore.Hbonds>
donor molecule, donor type, donor heavy atom, donor atom, acceptor molecule, acceptor atom, score
      L1  H    10    32       P1  8028  0.94
      P1  H  7997  8010       L1     6  0.36

> <Gold.Chemscore.Hbond.Weighted>
-5.6792

> <Gold.Chemscore.Metal.Weighted>
-0.0000

> <Gold.Chemscore.Lipo.Weighted>
-13.3233

> <Gold.Chemscore.Internal_Hbond.Weighted>
0.0000

> <Gold.Chemscore.DEClash.Weighted>
0.0741

> <Gold.Chemscore.DEInternal.Weighted>
2.4720

> <Gold.Chemscore.Rot.Weighted>
6.3518

> <Gold.Chemscore.Internal.Correction.Weighted>
   9.000000E+99

> <Gold.Protein.RotatedTorsions>
[ 6907 6896 6895 6894 ] final  -52.85 input  -60.11 | X-H torsion
[ 7974 7965 7964 7962 ] final  179.85 input  175.53 | X-H torsion
[ 8008 7997 7996 7995 ] final   53.22 input   59.86 | X-H torsion
[ 10167 10162 10161 10158 ] final   27.23 input  -65.29 | X-H torsion
[ 10718 10713 10712 10709 ] final  163.65 input   66.30 | X-H torsion
[ 10763 10752 10751 10750 ] final   48.59 input  -60.55 | X-H torsion
[ 11005 11000 10999 10996 ] final -167.41 input  -57.11 | X-H torsion

> <Gold.Protein.ActiveResidues>
 VAL166  LYS551  ARG553  GLY616  TRP617  ASP618  TYR619  PRO620  LYS621  CYS622 
 ASP623  PHE694  ASN695  SER759  ASP760  ASP761  ALA762  ILE779  LEU786  VAL792 
 PHE793  MET794  SER795  GLU796  ALA797  LYS798  CYS799  TRP800  GLU811  SER814 

> <Gold.Protein.RotatedAtoms>
  150.8480  134.7796  159.6985 H   0  0  0  0  0  0  0  0  0  0  0  0  # atno 6907 bound_to 6896
  152.4552  134.5304  159.9819 H   0  0  0  0  0  0  0  0  0  0  0  0  # atno 6908 bound_to 6896
  151.5430  133.3391  159.2974 H   0  0  0  0  0  0  0  0  0  0  0  0  # atno 6909 bound_to 6896
  144.7142  140.0610  143.6432 H   0  0  0  0  0  0  0  0  0  0  0  0  # atno 7974 bound_to 7965
  155.4647  140.3463  155.4317 H   0  0  0  0  0  0  0  0  0  0  0  0  # atno 8008 bound_to 7997
  156.1139  140.1468  156.9330 H   0  0  0  0  0  0  0  0  0  0  0  0  # atno 8009 bound_to 7997
  154.4775  140.0880  156.7277 H   0  0  0  0  0  0  0  0  0  0  0  0  # atno 8010 bound_to 7997
  140.4956  144.0397  150.6313 H   0  0  0  0  0  0  0  0  0  0  0  0  # atno 10167 bound_to 10162
  157.1056  131.0454  151.2479 H   0  0  0  0  0  0  0  0  0  0  0  0  # atno 10718 bound_to 10713
  152.9791  135.5939  154.3951 H   0  0  0  0  0  0  0  0  0  0  0  0  # atno 10763 bound_to 10752
  154.3602  135.2767  155.2326 H   0  0  0  0  0  0  0  0  0  0  0  0  # atno 10764 bound_to 10752
  154.4326  135.6032  153.6133 H   0  0  0  0  0  0  0  0  0  0  0  0  # atno 10765 bound_to 10752
  140.5535  134.5404  157.5128 H   0  0  0  0  0  0  0  0  0  0  0  0  # atno 11005 bound_to 11000
  145.9864  139.2980  143.1011 LP  0  0  0  0  0  0  0  0  0  0  0  0  # atno 17320 bound_to 7965
  145.8953  140.9278  143.0531 LP  0  0  0  0  0  0  0  0  0  0  0  0  # atno 17321 bound_to 7965
  140.3679  143.2871  152.0311 LP  0  0  0  0  0  0  0  0  0  0  0  0  # atno 17342 bound_to 10162
  139.4860  144.6253  151.7177 LP  0  0  0  0  0  0  0  0  0  0  0  0  # atno 17343 bound_to 10162
  157.4604  130.7650  149.7230 LP  0  0  0  0  0  0  0  0  0  0  0  0  # atno 17370 bound_to 10713
  155.9863  130.3976  150.3220 LP  0  0  0  0  0  0  0  0  0  0  0  0  # atno 17371 bound_to 10713
  139.9443  134.7730  156.0600 LP  0  0  0  0  0  0  0  0  0  0  0  0  # atno 17394 bound_to 11000
  141.1157  133.6628  156.3089 LP  0  0  0  0  0  0  0  0  0  0  0  0  # atno 17395 bound_to 11000

$$$$
