AV-unprocessed.smi:2593|AV-procd|sdf|10164|dock2
  -GOLD-   2272014173D 1   1.00000     0.00000
 Structure written by MMmdl.
 41 43  0  0  0  0  0  0  0  0  2 V2000
  150.7046  135.6620  155.2956 C   0  0  0  0  0  0  0  0  0  0  0  0
  151.4741  136.6024  154.5676 O   0  0  0  0  0  0  0  0  0  0  0  0
  150.7914  137.8303  154.3720 C   0  0  0  0  0  0  0  0  0  0  0  0
  150.4073  138.4252  155.7339 C   0  0  0  0  0  0  0  0  0  0  0  0
  149.7845  139.7503  155.6054 N   0  0  0  0  0  0  0  0  0  0  0  0
  150.1412  140.9551  156.1327 C   0  0  0  0  0  0  0  0  0  0  0  0
  151.5497  141.2979  157.1354 S   0  0  0  0  0  0  0  0  0  0  0  0
  151.1548  142.8690  157.9556 C   0  0  0  0  0  0  0  0  0  0  0  0
  151.7888  142.9043  159.3330 C   0  0  0  0  0  0  0  0  0  0  0  0
  151.4950  143.9503  160.2327 C   0  0  0  0  0  0  0  0  0  0  0  0
  152.1345  143.9542  161.4872 C   0  0  0  0  0  0  0  0  0  0  0  0
  153.0430  142.9210  161.7891 C   0  0  0  0  0  0  0  0  0  0  0  0
  153.2691  141.9211  160.8214 C   0  0  0  0  0  0  0  0  0  0  0  0
  154.1656  140.8876  161.0792 N   0  0  0  0  0  0  0  0  0  0  0  0
  152.6560  141.9065  159.6191 N   0  0  0  0  0  0  0  0  0  0  0  0
  149.2253  141.8750  155.7241 N   0  3  0  0  0  0  0  0  0  0  0  0
  148.2705  141.2536  154.9181 C   0  0  0  0  0  0  0  0  0  0  0  0
  147.1537  141.7685  154.2672 C   0  0  0  0  0  0  0  0  0  0  0  0
  146.3796  140.8559  153.5210 C   0  0  0  0  0  0  0  0  0  0  0  0
  146.7250  139.4910  153.4432 C   0  0  0  0  0  0  0  0  0  0  0  0
  147.8598  138.9798  154.1070 C   0  0  0  0  0  0  0  0  0  0  0  0
  148.6215  139.8890  154.8403 C   0  0  0  0  0  0  0  0  0  0  0  0
  151.2750  134.7420  155.4227 H   0  0  0  0  0  0  0  0  0  0  0  0
  149.7817  135.4160  154.7690 H   0  0  0  0  0  0  0  0  0  0  0  0
  150.4526  136.0414  156.2866 H   0  0  0  0  0  0  0  0  0  0  0  0
  151.4274  138.5313  153.8294 H   0  0  0  0  0  0  0  0  0  0  0  0
  149.8975  137.6667  153.7683 H   0  0  0  0  0  0  0  0  0  0  0  0
  149.6988  137.7682  156.2372 H   0  0  0  0  0  0  0  0  0  0  0  0
  151.2748  138.5031  156.3897 H   0  0  0  0  0  0  0  0  0  0  0  0
  151.5284  143.6961  157.3515 H   0  0  0  0  0  0  0  0  0  0  0  0
  150.0733  142.9859  158.0300 H   0  0  0  0  0  0  0  0  0  0  0  0
  150.8001  144.7336  159.9669 H   0  0  0  0  0  0  0  0  0  0  0  0
  151.9359  144.7381  162.2029 H   0  0  0  0  0  0  0  0  0  0  0  0
  153.5514  142.9004  162.7422 H   0  0  0  0  0  0  0  0  0  0  0  0
  154.6671  140.8326  161.9540 H   0  0  0  0  0  0  0  0  0  0  0  0
  154.2545  140.1028  160.4502 H   0  0  0  0  0  0  0  0  0  0  0  0
  146.8861  142.8134  154.3260 H   0  0  0  0  0  0  0  0  0  0  0  0
  145.5027  141.2097  152.9984 H   0  0  0  0  0  0  0  0  0  0  0  0
  146.1069  138.8219  152.8623 H   0  0  0  0  0  0  0  0  0  0  0  0
  148.1155  137.9325  154.0421 H   0  0  0  0  0  0  0  0  0  0  0  0
  149.2601  142.8553  155.9718 H   0  0  0  0  0  0  0  0  0  0  0  0
  1  2  1  0  0  0  0
  1 23  1  0  0  0  0
  1 24  1  0  0  0  0
  1 25  1  0  0  0  0
  2  3  1  0  0  0  0
  3  4  1  0  0  0  0
  3 26  1  0  0  0  0
  3 27  1  0  0  0  0
  4  5  1  0  0  0  0
  4 28  1  0  0  0  0
  4 29  1  0  0  0  0
  5 22  1  0  0  0  0
  5  6  1  0  0  0  0
  6  7  1  0  0  0  0
  6 16  2  0  0  0  0
  7  8  1  0  0  0  0
  8  9  1  0  0  0  0
  8 30  1  0  0  0  0
  8 31  1  0  0  0  0
  9 15  1  0  0  0  0
  9 10  2  0  0  0  0
 10 11  1  0  0  0  0
 10 32  1  0  0  0  0
 11 12  2  0  0  0  0
 11 33  1  0  0  0  0
 12 13  1  0  0  0  0
 12 34  1  0  0  0  0
 13 14  1  0  0  0  0
 13 15  2  0  0  0  0
 14 35  1  0  0  0  0
 14 36  1  0  0  0  0
 16 17  1  0  0  0  0
 16 41  1  0  0  0  0
 17 22  2  0  0  0  0
 17 18  1  0  0  0  0
 18 19  2  0  0  0  0
 18 37  1  0  0  0  0
 19 20  1  0  0  0  0
 19 38  1  0  0  0  0
 20 21  2  0  0  0  0
 20 39  1  0  0  0  0
 21 22  1  0  0  0  0
 21 40  1  0  0  0  0
M  CHG  1  16   1
M  END
> <s_m_source_file>
AV-unprocessed.smi

> <i_m_source_file_index>
2593

> <i_lp_mmshare_version>
43012

> <i_f3d_flags>
0

> <s_epik_input>
W2NIXTFbY0hdW2NIXVtjSF1jKGMxMiluKFtDSDJdW0NIMl1PW0NIM10pYyhuMilTW0NIMl1jM1tjSF1bY0hdW2NIXWMobjMpW05IMl0=

> <s_epik_cmdline>
J2VwaWtfcHl0aG9uJywgJy1waCcsICc3LjAnLCAnLXRuJywgJzgnLCAnLW1hJywgJzIwMCcsICctbWV0YWxfYmluZGluZycsICctaW1hZScsICc8aW5maWxlLm1hZT4nLCAnLW9tYWUnLCAnPG91dGZpbGUubWFlPic=

> <r_lp_tautomer_probability>
1

> <r_epik_Ionization_Penalty>
1.62501

> <r_epik_Ionization_Penalty_Charging>
1.62036

> <r_epik_Ionization_Penalty_Neutral>
0.00464699

> <r_epik_State_Penalty>
1.7318

> <r_epik_Charging_Adjusted_Penalty>
3.35216

> <i_epik_Tot_Q>
1

> <i_epik_Tot_abs_Q>
1

> <r_epik_Metal_State_Penalty>
1.7649

> <b_epik_Metal_Only>
0

> <s_lp_Force_Field>
OPLS_2005

> <r_lp_Energy>
8.46533

> <b_lp_Chiralities_Consistent>
1

> <s_lp_Variant>
AV-unprocessed.smi:2593-2

> <Gold.Version>
5.8.1

> <Gold.Id.Protein>
6NUR|6NUR_protein|mol2

> <Gold.PLP.Fitness>
55.9434

> <Gold.PLP.PLP>
-48.0517

> <Gold.PLP.part.hbond>
-2.0000

> <Gold.PLP.part.metal>
0.0000

> <Gold.PLP.part.buried>
-7.4543

> <Gold.PLP.part.nonpolar>
-38.5487

> <Gold.PLP.part.repulsive>
0.3314

> <Gold.PLP.ligand.clash>
0.0000

> <Gold.PLP.ligand.torsion>
0.5617

> <Gold.PLP.Chemscore.Hbond>
2.9840

> <Gold.PLP.Chemscore.CHOScore>
0.0000

> <Gold.PLP.Chemscore.Metal>
0.0000

> <Gold.Chemscore.Hbonds>
donor molecule, donor type, donor heavy atom, donor atom, acceptor molecule, acceptor atom, score
      L1  H    16    41       P1  8028  2.00
      P1  H 10752 10764       L1     2  0.65

> <Gold.PLP.Chemscore.Internal.Correction>
0.0631

> <Gold.Rescore>
     Score         DG    S(hbond)    S(metal)    S(lipo)     H(rot)  DE(clash)    DE(int)     intcor
     18.93     -19.85       1.94        0.00     115.47       2.19       0.20       0.72       ----

> <Gold.Chemscore.Fitness>
18.9321

> <Gold.Chemscore.DG>
-19.8492

> <Gold.Chemscore.ZeroCoef>
-5.4800

> <Gold.Chemscore.Hbond>
1.9389

> <Gold.Chemscore.Metal>
0.0000

> <Gold.Chemscore.Lipo>
115.4727

> <Gold.Chemscore.Internal_Hbond>
0.0000

> <Gold.Chemscore.DEClash>
0.2009

> <Gold.Chemscore.DEInternal>
0.7162

> <Gold.Chemscore.Rot>
2.1941

> <Gold.Chemscore.Internal.Correction>
   9.000000E+99

> <Gold.Chemscore.Hbonds>
donor molecule, donor type, donor heavy atom, donor atom, acceptor molecule, acceptor atom, score
      L1  H    16    41       P1  8028  0.96
      P1  H 10752 10764       L1     2  0.06

> <Gold.Chemscore.Hbond.Weighted>
-6.4758

> <Gold.Chemscore.Metal.Weighted>
-0.0000

> <Gold.Chemscore.Lipo.Weighted>
-13.5103

> <Gold.Chemscore.Internal_Hbond.Weighted>
0.0000

> <Gold.Chemscore.DEClash.Weighted>
0.2009

> <Gold.Chemscore.DEInternal.Weighted>
0.7162

> <Gold.Chemscore.Rot.Weighted>
5.6169

> <Gold.Chemscore.Internal.Correction.Weighted>
   9.000000E+99

> <Gold.Protein.RotatedTorsions>
[ 6907 6896 6895 6894 ] final  -90.74 input  -60.11 | X-H torsion
[ 7974 7965 7964 7962 ] final   60.48 input  175.53 | X-H torsion
[ 8008 7997 7996 7995 ] final  -43.09 input   59.86 | X-H torsion
[ 10167 10162 10161 10158 ] final   95.30 input  -65.29 | X-H torsion
[ 10718 10713 10712 10709 ] final -111.96 input   66.30 | X-H torsion
[ 10763 10752 10751 10750 ] final  -54.61 input  -60.55 | X-H torsion
[ 11005 11000 10999 10996 ] final  156.15 input  -57.11 | X-H torsion

> <Gold.Protein.ActiveResidues>
 VAL166  LYS551  ARG553  GLY616  TRP617  ASP618  TYR619  PRO620  LYS621  CYS622 
 ASP623  PHE694  ASN695  SER759  ASP760  ASP761  ALA762  ILE779  LEU786  VAL792 
 PHE793  MET794  SER795  GLU796  ALA797  LYS798  CYS799  TRP800  GLU811  SER814 

> <Gold.Protein.RotatedAtoms>
  150.6885  134.2385  159.4462 H   0  0  0  0  0  0  0  0  0  0  0  0  # atno 6907 bound_to 6896
  152.0331  134.9753  160.0582 H   0  0  0  0  0  0  0  0  0  0  0  0  # atno 6908 bound_to 6896
  152.1285  133.4359  159.4746 H   0  0  0  0  0  0  0  0  0  0  0  0  # atno 6909 bound_to 6896
  145.8955  139.3542  143.0624 H   0  0  0  0  0  0  0  0  0  0  0  0  # atno 7974 bound_to 7965
  154.3997  140.1456  156.3462 H   0  0  0  0  0  0  0  0  0  0  0  0  # atno 8008 bound_to 7997
  155.8311  140.3466  155.5552 H   0  0  0  0  0  0  0  0  0  0  0  0  # atno 8009 bound_to 7997
  155.8187  140.0895  157.1852 H   0  0  0  0  0  0  0  0  0  0  0  0  # atno 8010 bound_to 7997
  139.8002  144.6817  150.9776 H   0  0  0  0  0  0  0  0  0  0  0  0  # atno 10167 bound_to 10162
  156.0677  130.5894  150.8443 H   0  0  0  0  0  0  0  0  0  0  0  0  # atno 10718 bound_to 10713
  154.1776  135.6449  153.5025 H   0  0  0  0  0  0  0  0  0  0  0  0  # atno 10763 bound_to 10752
  153.0067  135.5398  154.6548 H   0  0  0  0  0  0  0  0  0  0  0  0  # atno 10764 bound_to 10752
  154.5903  135.2933  155.0614 H   0  0  0  0  0  0  0  0  0  0  0  0  # atno 10765 bound_to 10752
  140.1648  134.8584  157.2619 H   0  0  0  0  0  0  0  0  0  0  0  0  # atno 11005 bound_to 11000
  145.8856  140.9336  143.0579 LP  0  0  0  0  0  0  0  0  0  0  0  0  # atno 17320 bound_to 7965
  144.6732  140.0837  143.7468 LP  0  0  0  0  0  0  0  0  0  0  0  0  # atno 17321 bound_to 7965
  140.7820  143.4290  151.0724 LP  0  0  0  0  0  0  0  0  0  0  0  0  # atno 17342 bound_to 10162
  139.7962  143.8148  152.3158 LP  0  0  0  0  0  0  0  0  0  0  0  0  # atno 17343 bound_to 10162
  157.5729  131.0946  150.9390 LP  0  0  0  0  0  0  0  0  0  0  0  0  # atno 17370 bound_to 10713
  156.9602  130.5452  149.5285 LP  0  0  0  0  0  0  0  0  0  0  0  0  # atno 17371 bound_to 10713
  140.2446  134.3754  155.7466 LP  0  0  0  0  0  0  0  0  0  0  0  0  # atno 17394 bound_to 11000
  141.2212  133.7284  156.8842 LP  0  0  0  0  0  0  0  0  0  0  0  0  # atno 17395 bound_to 11000

$$$$
