AV-unprocessed.smi:2239|AV-procd|sdf|9056|dock2
  -GOLD-   2272012263D 1   1.00000     0.00000
 Structure written by MMmdl.
 33 34  0  0  0  0  0  0  0  0  1 V2000
  152.7634  142.5714  162.1236 C   0  0  0  0  0  0  0  0  0  0  0  0
  152.3919  143.2636  160.8291 C   0  0  0  0  0  0  0  0  0  0  0  0
  153.3295  143.4069  159.7878 C   0  0  0  0  0  0  0  0  0  0  0  0
  152.9202  144.0638  158.6136 C   0  0  0  0  0  0  0  0  0  0  0  0
  151.5999  144.5470  158.5295 C   0  0  0  0  0  0  0  0  0  0  0  0
  150.7212  144.3616  159.6204 C   0  0  0  0  0  0  0  0  0  0  0  0
  149.4145  144.8879  159.4387 N   0  0  0  0  0  0  0  0  0  0  0  0
  148.4295  144.9965  160.3477 C   0  0  0  0  0  0  0  0  0  0  0  0
  148.4962  144.6239  161.5196 O   0  0  0  0  0  0  0  0  0  0  0  0
  147.3411  145.5734  159.8178 N   0  0  0  0  0  0  0  0  0  0  0  0
  146.1041  145.8514  160.5410 C   0  0  0  0  0  0  0  0  0  0  0  0
  144.9014  145.0727  159.9771 C   0  0  0  0  0  0  0  0  0  0  0  0
  144.5345  143.8509  160.7999 C   0  0  0  0  0  0  0  0  0  0  0  0
  144.2328  143.9584  162.2768 C   0  0  0  0  0  0  0  0  0  0  0  0
  145.5028  143.2853  161.8114 C   0  0  0  0  0  0  0  0  0  0  0  0
  151.1261  143.7269  160.7488 N   0  0  0  0  0  0  0  0  0  0  0  0
  153.7402  142.0925  162.0493 H   0  0  0  0  0  0  0  0  0  0  0  0
  152.0280  141.8055  162.3719 H   0  0  0  0  0  0  0  0  0  0  0  0
  152.7980  143.2930  162.9402 H   0  0  0  0  0  0  0  0  0  0  0  0
  154.3357  143.0259  159.8837 H   0  0  0  0  0  0  0  0  0  0  0  0
  153.6068  144.1960  157.7906 H   0  0  0  0  0  0  0  0  0  0  0  0
  151.2699  145.0538  157.6343 H   0  0  0  0  0  0  0  0  0  0  0  0
  149.2089  145.2279  158.5112 H   0  0  0  0  0  0  0  0  0  0  0  0
  147.3714  145.8474  158.8467 H   0  0  0  0  0  0  0  0  0  0  0  0
  146.2562  145.5886  161.5880 H   0  0  0  0  0  0  0  0  0  0  0  0
  145.8988  146.9229  160.5213 H   0  0  0  0  0  0  0  0  0  0  0  0
  144.0328  145.7307  159.9405 H   0  0  0  0  0  0  0  0  0  0  0  0
  145.0976  144.7696  158.9478 H   0  0  0  0  0  0  0  0  0  0  0  0
  143.9515  143.1158  160.2483 H   0  0  0  0  0  0  0  0  0  0  0  0
  144.3265  144.9362  162.7453 H   0  0  0  0  0  0  0  0  0  0  0  0
  143.4431  143.3244  162.6746 H   0  0  0  0  0  0  0  0  0  0  0  0
  145.5604  142.2023  161.9007 H   0  0  0  0  0  0  0  0  0  0  0  0
  146.4384  143.8168  161.9733 H   0  0  0  0  0  0  0  0  0  0  0  0
  1  2  1  0  0  0  0
  1 17  1  0  0  0  0
  1 18  1  0  0  0  0
  1 19  1  0  0  0  0
  2 16  1  0  0  0  0
  2  3  2  0  0  0  0
  3  4  1  0  0  0  0
  3 20  1  0  0  0  0
  4  5  2  0  0  0  0
  4 21  1  0  0  0  0
  5  6  1  0  0  0  0
  5 22  1  0  0  0  0
  6  7  1  0  0  0  0
  6 16  2  0  0  0  0
  7  8  1  0  0  0  0
  7 23  1  0  0  0  0
  8  9  2  0  0  0  0
  8 10  1  0  0  0  0
 10 11  1  0  0  0  0
 10 24  1  0  0  0  0
 11 12  1  0  0  0  0
 11 25  1  0  0  0  0
 11 26  1  0  0  0  0
 12 13  1  0  0  0  0
 12 27  1  0  0  0  0
 12 28  1  0  0  0  0
 13 15  1  0  0  0  0
 13 14  1  0  0  0  0
 13 29  1  0  0  0  0
 14 15  1  0  0  0  0
 14 30  1  0  0  0  0
 14 31  1  0  0  0  0
 15 32  1  0  0  0  0
 15 33  1  0  0  0  0
M  END
> <s_m_source_file>
AV-unprocessed.smi

> <i_m_source_file_index>
2239

> <i_lp_mmshare_version>
43012

> <i_f3d_flags>
0

> <s_epik_input>
W0NIM11jMVtjSF1bY0hdW2NIXWMobjEpW05IXUMoPU8pW05IXVtDSDJdW0NIMl1bQ0hdMltDSDJdW0NIMl0y

> <s_epik_cmdline>
J2VwaWtfcHl0aG9uJywgJy1waCcsICc3LjAnLCAnLXRuJywgJzgnLCAnLW1hJywgJzIwMCcsICctbWV0YWxfYmluZGluZycsICctaW1hZScsICc8aW5maWxlLm1hZT4nLCAnLW9tYWUnLCAnPG91dGZpbGUubWFlPic=

> <r_lp_tautomer_probability>
1

> <r_epik_Ionization_Penalty>
8.79162e-05

> <r_epik_Ionization_Penalty_Charging>
0

> <r_epik_Ionization_Penalty_Neutral>
8.79162e-05

> <r_epik_State_Penalty>
-0

> <r_epik_Charging_Adjusted_Penalty>
0

> <i_epik_Tot_Q>
0

> <i_epik_Tot_abs_Q>
0

> <r_epik_Metal_State_Penalty>
-0

> <b_epik_Metal_Only>
0

> <s_lp_Force_Field>
OPLS_2005

> <r_lp_Energy>
14.6393

> <b_lp_Chiralities_Consistent>
1

> <s_lp_Variant>
AV-unprocessed.smi:2239-1

> <Gold.Version>
5.8.1

> <Gold.Id.Protein>
6NUR|6NUR_protein|mol2

> <Gold.PLP.Fitness>
48.5335

> <Gold.PLP.PLP>
-41.7095

> <Gold.PLP.part.hbond>
-3.7852

> <Gold.PLP.part.metal>
0.0000

> <Gold.PLP.part.buried>
-6.7874

> <Gold.PLP.part.nonpolar>
-31.4274

> <Gold.PLP.part.repulsive>
0.6987

> <Gold.PLP.ligand.clash>
0.0000

> <Gold.PLP.ligand.torsion>
0.6314

> <Gold.PLP.Chemscore.Hbond>
2.5096

> <Gold.PLP.Chemscore.CHOScore>
0.0000

> <Gold.PLP.Chemscore.Metal>
0.0000

> <Gold.Chemscore.Hbonds>
donor molecule, donor type, donor heavy atom, donor atom, acceptor molecule, acceptor atom, score
      L1  H     7    23       P1  8029  0.98
      L1  H    10    24       P1  8029  1.00
      P1  H  6933  6944       L1     9  0.38

> <Gold.PLP.Chemscore.Internal.Correction>
0.5580

> <Gold.Rescore>
     Score         DG    S(hbond)    S(metal)    S(lipo)     H(rot)  DE(clash)    DE(int)     intcor
     19.78     -21.70       2.60        0.00      94.49       1.37       0.02       1.91       ----

> <Gold.Chemscore.Fitness>
19.7776

> <Gold.Chemscore.DG>
-21.7028

> <Gold.Chemscore.ZeroCoef>
-5.4800

> <Gold.Chemscore.Hbond>
2.5957

> <Gold.Chemscore.Metal>
0.0000

> <Gold.Chemscore.Lipo>
94.4935

> <Gold.Chemscore.Internal_Hbond>
0.0000

> <Gold.Chemscore.DEClash>
0.0197

> <Gold.Chemscore.DEInternal>
1.9055

> <Gold.Chemscore.Rot>
1.3682

> <Gold.Chemscore.Internal.Correction>
   9.000000E+99

> <Gold.Chemscore.Hbonds>
donor molecule, donor type, donor heavy atom, donor atom, acceptor molecule, acceptor atom, score
      L1  H     7    23       P1  8029  0.84
      L1  H    10    24       P1  8029  0.99
      P1  H  6933  6944       L1     9  0.23

> <Gold.Chemscore.Hbond.Weighted>
-8.6697

> <Gold.Chemscore.Metal.Weighted>
-0.0000

> <Gold.Chemscore.Lipo.Weighted>
-11.0557

> <Gold.Chemscore.Internal_Hbond.Weighted>
0.0000

> <Gold.Chemscore.DEClash.Weighted>
0.0197

> <Gold.Chemscore.DEInternal.Weighted>
1.9055

> <Gold.Chemscore.Rot.Weighted>
3.5027

> <Gold.Chemscore.Internal.Correction.Weighted>
   9.000000E+99

> <Gold.Protein.RotatedTorsions>
[ 6907 6896 6895 6894 ] final  -70.39 input  -60.11 | X-H torsion
[ 7974 7965 7964 7962 ] final -166.88 input  175.53 | X-H torsion
[ 8008 7997 7996 7995 ] final   -4.19 input   59.86 | X-H torsion
[ 10167 10162 10161 10158 ] final  149.52 input  -65.29 | X-H torsion
[ 10718 10713 10712 10709 ] final  150.99 input   66.30 | X-H torsion
[ 10763 10752 10751 10750 ] final  139.67 input  -60.55 | X-H torsion
[ 11005 11000 10999 10996 ] final  175.39 input  -57.11 | X-H torsion

> <Gold.Protein.ActiveResidues>
 VAL166  LYS551  ARG553  GLY616  TRP617  ASP618  TYR619  PRO620  LYS621  CYS622 
 ASP623  PHE694  ASN695  SER759  ASP760  ASP761  ALA762  ILE779  LEU786  VAL792 
 PHE793  MET794  SER795  GLU796  ALA797  LYS798  CYS799  TRP800  GLU811  SER814 

> <Gold.Protein.RotatedAtoms>
  150.7260  134.5460  159.5770 H   0  0  0  0  0  0  0  0  0  0  0  0  # atno 6907 bound_to 6896
  152.2959  134.7665  160.0377 H   0  0  0  0  0  0  0  0  0  0  0  0  # atno 6908 bound_to 6896
  151.8262  133.3366  159.3636 H   0  0  0  0  0  0  0  0  0  0  0  0  # atno 6909 bound_to 6896
  144.7235  140.2601  143.6266 H   0  0  0  0  0  0  0  0  0  0  0  0  # atno 7974 bound_to 7965
  154.6169  140.2490  155.7598 H   0  0  0  0  0  0  0  0  0  0  0  0  # atno 8008 bound_to 7997
  156.2404  140.2935  156.0377 H   0  0  0  0  0  0  0  0  0  0  0  0  # atno 8009 bound_to 7997
  155.1960  140.0393  157.2899 H   0  0  0  0  0  0  0  0  0  0  0  0  # atno 8010 bound_to 7997
  139.4860  144.5595  151.7256 H   0  0  0  0  0  0  0  0  0  0  0  0  # atno 10167 bound_to 10162
  157.2764  131.0827  151.1563 H   0  0  0  0  0  0  0  0  0  0  0  0  # atno 10718 bound_to 10713
  153.9100  135.3012  155.3448 H   0  0  0  0  0  0  0  0  0  0  0  0  # atno 10763 bound_to 10752
  154.7628  135.4925  153.9499 H   0  0  0  0  0  0  0  0  0  0  0  0  # atno 10764 bound_to 10752
  153.1198  135.6779  153.9457 H   0  0  0  0  0  0  0  0  0  0  0  0  # atno 10765 bound_to 10752
  140.3617  134.7107  157.4335 H   0  0  0  0  0  0  0  0  0  0  0  0  # atno 11005 bound_to 11000
  145.8144  139.2017  143.1974 LP  0  0  0  0  0  0  0  0  0  0  0  0  # atno 17320 bound_to 7965
  146.0568  140.8012  142.9754 LP  0  0  0  0  0  0  0  0  0  0  0  0  # atno 17321 bound_to 7965
  140.5163  144.0948  150.6009 LP  0  0  0  0  0  0  0  0  0  0  0  0  # atno 17342 bound_to 10162
  140.3891  143.2762  152.0081 LP  0  0  0  0  0  0  0  0  0  0  0  0  # atno 17343 bound_to 10162
  157.3014  130.6845  149.6166 LP  0  0  0  0  0  0  0  0  0  0  0  0  # atno 17370 bound_to 10713
  155.9664  130.4391  150.5243 LP  0  0  0  0  0  0  0  0  0  0  0  0  # atno 17371 bound_to 10713
  140.0621  134.5980  155.8737 LP  0  0  0  0  0  0  0  0  0  0  0  0  # atno 17394 bound_to 11000
  141.1982  133.6600  156.5780 LP  0  0  0  0  0  0  0  0  0  0  0  0  # atno 17395 bound_to 11000

$$$$
