#       Name:                AV-unprocessed.smi:2233
#       Creating user name   scv26
#       Creation time:       Fri Mar 27 12:24:58 2020


#       File generated by GOLD software.
#

@<TRIPOS>MOLECULE
AV-unprocessed.smi:2233
    48    49     1
SMALL
NO_CHARGES


@<TRIPOS>ATOM
      1 ****        -4.7296   2.6235   4.8962 C.1            1 S1                 0.0000
      2 ****        -4.4042   2.9705   3.7716 C.1            1 S1                 0.0000
      3 ****        -3.9989   3.3764   2.4143 C.3            1 S1                 0.0000
      4 ****        -2.5399   3.0433   2.0519 C.3            1 S1                 0.0000
      5 ****        -2.2203   1.5374   2.0312 C.3            1 S1                 0.0000
      6 ****        -0.7629   1.2546   1.6239 C.3            1 S1                 0.0000
      7 ****        -0.4297  -0.2395   1.5487 C.2            1 S1                 0.0000
      8 ****        -1.0433  -1.0474   2.2458 O.2            1 S1                 0.0000
      9 ****         0.5400  -0.5690   0.6772 N.am           1 S1                 0.0000
     10 ****         1.0756  -1.8561   0.3865 C.ar           1 S1                 0.0000
     11 ****         1.0771  -2.9225   1.3199 C.ar           1 S1                 0.0000
     12 ****         1.6056  -4.1377   1.0647 N.ar           1 S1                 0.0000
     13 ****         2.1666  -4.3421  -0.1439 C.ar           1 S1                 0.0000
     14 ****         2.2357  -3.3511  -1.1409 C.ar           1 S1                 0.0000
     15 ****         1.6861  -2.0773  -0.8726 C.ar           1 S1                 0.0000
     16 ****         1.7268  -1.0532  -1.8331 N.3            1 S1                 0.0000
     17 ****         3.0681  -0.6767  -2.2603 C.3            1 S1                 0.0000
     18 ****         2.9933   0.5502  -3.1852 C.3            1 S1                 0.0000
     19 ****         2.1343   0.2643  -4.2859 O.3            1 S1                 0.0000
     20 ****         0.8058  -0.0375  -3.8663 C.3            1 S1                 0.0000
     21 ****         0.8199  -1.2745  -2.9511 C.3            1 S1                 0.0000
     22 ****        -5.0113   2.3161   5.8783 H              1 S1                 0.0000
     23 ****        -4.6812   2.9029   1.7078 H              1 S1                 0.0000
     24 ****        -4.1619   4.4517   2.3370 H              1 S1                 0.0000
     25 ****        -2.3247   3.4628   1.0684 H              1 S1                 0.0000
     26 ****        -1.8676   3.5491   2.7465 H              1 S1                 0.0000
     27 ****        -2.4100   1.1091   3.0162 H              1 S1                 0.0000
     28 ****        -2.8981   1.0357   1.3390 H              1 S1                 0.0000
     29 ****        -0.5614   1.7140   0.6550 H              1 S1                 0.0000
     30 ****        -0.0821   1.7194   2.3379 H              1 S1                 0.0000
     31 ****         0.8885   0.1818   0.0985 H              1 S1                 0.0000
     32 ****         0.6697  -2.8101   2.3126 H              1 S1                 0.0000
     33 ****         2.5783  -5.3247  -0.3211 H              1 S1                 0.0000
     34 ****         2.6997  -3.5721  -2.0908 H              1 S1                 0.0000
     35 ****         3.6855  -0.4545  -1.3892 H              1 S1                 0.0000
     36 ****         3.5386  -1.5066  -2.7889 H              1 S1                 0.0000
     37 ****         2.6287   1.4243  -2.6431 H              1 S1                 0.0000
     38 ****         3.9852   0.7991  -3.5623 H              1 S1                 0.0000
     39 ****         0.3726   0.8214  -3.3511 H              1 S1                 0.0000
     40 ****         0.1895  -0.2266  -4.7452 H              1 S1                 0.0000
     41 ****         1.1400  -2.1511  -3.5160 H              1 S1                 0.0000
     42 ****        -0.1856  -1.4777  -2.5803 H              1 S1                 0.0000
     43 ****        -1.7621  -0.7297   2.8641 LP             1 S1                 0.0000
     44 ****        -0.8229  -2.0214   2.1938 LP             1 S1                 0.0000
     45 ****         1.5818  -4.8644   1.7512 LP             1 S1                 0.0000
     46 ****         1.3804  -0.2507  -1.3473 LP             1 S1                 0.0000
     47 ****         2.5008  -0.5208  -4.7853 LP             1 S1                 0.0000
     48 ****         2.1084   1.0609  -4.8899 LP             1 S1                 0.0000
@<TRIPOS>BOND
    1    1    2 3     
    2    1   22 1     
    3    2    3 1     
    4    3    4 1     
    5    3   23 1     
    6    3   24 1     
    7    4    5 1     
    8    4   25 1     
    9    4   26 1     
   10    5    6 1     
   11    5   27 1     
   12    5   28 1     
   13    6    7 1     
   14    6   29 1     
   15    6   30 1     
   16    7    8 2     
   17    7    9 am    
   18    9   10 1     
   19    9   31 1     
   20   10   15 ar    
   21   10   11 ar    
   22   11   12 ar    
   23   11   32 1     
   24   12   13 ar    
   25   13   14 ar    
   26   13   33 1     
   27   14   15 ar    
   28   14   34 1     
   29   15   16 1     
   30   16   21 1     
   31   16   17 1     
   32   17   18 1     
   33   17   35 1     
   34   17   36 1     
   35   18   19 1     
   36   18   37 1     
   37   18   38 1     
   38   19   20 1     
   39   20   21 1     
   40   20   39 1     
   41   20   40 1     
   42   21   41 1     
   43   21   42 1     
   44    8   43 1     
   45    8   44 1     
   46   12   45 1     
   47   16   46 1     
   48   19   47 1     
   49   19   48 1     
@<TRIPOS>SUBSTRUCTURE
      1 S1             1
@<TRIPOS>SET
LONE_PAIRS      STATIC     ATOMS    <user>   **** ""
6 43 44 45 46 47 48
DONOR_HYDROGENS      STATIC     ATOMS    <user>   **** ""
1 31
ATOM$BLUE        STATIC     ATOMS    COLORGROUP SYSTEM
6 43 44 45 46 47 48
ATOM$RED        STATIC     ATOMS    COLORGROUP SYSTEM
1 31
