AV-unprocessed.smi:2729|AV-procd|sdf|10527|dock8
  -GOLD-   2272014573D 1   1.00000     0.00000
 Structure written by MMmdl.
 33 34  0  0  0  0  0  0  0  0  1 V2000
  157.2432  139.2803  160.2984 C   0  0  0  0  0  0  0  0  0  0  0  0
  155.8269  138.7188  160.5430 C   0  0  2  0  0  0  0  0  0  0  0  0
  154.8106  139.6369  160.0095 N   0  0  0  0  0  0  0  0  0  0  0  0
  154.5016  140.8746  160.4292 C   0  0  0  0  0  0  0  0  0  0  0  0
  155.0709  141.4485  161.3568 O   0  0  0  0  0  0  0  0  0  0  0  0
  153.5075  141.3959  159.6905 N   0  0  0  0  0  0  0  0  0  0  0  0
  152.8775  142.6626  159.8231 C   0  0  0  0  0  0  0  0  0  0  0  0
  152.8425  143.4132  161.0235 C   0  0  0  0  0  0  0  0  0  0  0  0
  152.1658  144.6480  161.0330 C   0  0  0  0  0  0  0  0  0  0  0  0
  151.5440  145.0834  159.8468 C   0  0  0  0  0  0  0  0  0  0  0  0
  151.5578  144.3724  158.6998 N   0  0  0  0  0  0  0  0  0  0  0  0
  152.2077  143.1891  158.6984 C   0  0  0  0  0  0  0  0  0  0  0  0
  155.5792  138.4244  162.0468 C   0  0  0  0  0  0  0  0  0  0  0  0
  154.3509  137.5191  162.1972 C   0  0  0  0  0  0  0  0  0  0  0  0
  154.3382  136.4555  160.7083 S   0  0  0  0  0  0  0  0  0  0  0  0
  154.8345  135.1145  161.0527 O   0  0  0  0  0  0  0  0  0  0  0  0
  153.0573  136.6328  160.0074 O   0  0  0  0  0  0  0  0  0  0  0  0
  155.6539  137.3704  159.8149 C   0  0  0  0  0  0  0  0  0  0  0  0
  158.0089  138.5749  160.6227 H   0  0  0  0  0  0  0  0  0  0  0  0
  157.4159  140.2079  160.8438 H   0  0  0  0  0  0  0  0  0  0  0  0
  157.4110  139.4809  159.2396 H   0  0  0  0  0  0  0  0  0  0  0  0
  154.2711  139.2785  159.2351 H   0  0  0  0  0  0  0  0  0  0  0  0
  153.1971  140.8394  158.9073 H   0  0  0  0  0  0  0  0  0  0  0  0
  153.3036  143.0639  161.9340 H   0  0  0  0  0  0  0  0  0  0  0  0
  152.1200  145.2455  161.9312 H   0  0  0  0  0  0  0  0  0  0  0  0
  151.0162  146.0252  159.8202 H   0  0  0  0  0  0  0  0  0  0  0  0
  152.1952  142.6469  157.7640 H   0  0  0  0  0  0  0  0  0  0  0  0
  156.4422  137.8863  162.4414 H   0  0  0  0  0  0  0  0  0  0  0  0
  155.4864  139.3246  162.6538 H   0  0  0  0  0  0  0  0  0  0  0  0
  154.3796  136.9079  163.0994 H   0  0  0  0  0  0  0  0  0  0  0  0
  153.4332  138.1076  162.2021 H   0  0  0  0  0  0  0  0  0  0  0  0
  155.3962  137.4677  158.7595 H   0  0  0  0  0  0  0  0  0  0  0  0
  156.5633  136.7721  159.8838 H   0  0  0  0  0  0  0  0  0  0  0  0
  1  2  1  0  0  0  0
  1 19  1  0  0  0  0
  1 20  1  0  0  0  0
  1 21  1  0  0  0  0
  2 18  1  0  0  0  0
  2  3  1  0  0  0  0
  2 13  1  0  0  0  0
  3  4  1  0  0  0  0
  3 22  1  0  0  0  0
  4  5  2  0  0  0  0
  4  6  1  0  0  0  0
  6  7  1  0  0  0  0
  6 23  1  0  0  0  0
  7 12  1  0  0  0  0
  7  8  2  0  0  0  0
  8  9  1  0  0  0  0
  8 24  1  0  0  0  0
  9 10  2  0  0  0  0
  9 25  1  0  0  0  0
 10 11  1  0  0  0  0
 10 26  1  0  0  0  0
 11 12  2  0  0  0  0
 12 27  1  0  0  0  0
 13 14  1  0  0  0  0
 13 28  1  0  0  0  0
 13 29  1  0  0  0  0
 14 15  1  0  0  0  0
 14 30  1  0  0  0  0
 14 31  1  0  0  0  0
 15 16  2  0  0  0  0
 15 17  2  0  0  0  0
 15 18  1  0  0  0  0
 18 32  1  0  0  0  0
 18 33  1  0  0  0  0
M  END
> <s_m_source_file>
AV-unprocessed.smi

> <i_m_source_file_index>
2729

> <i_lp_mmshare_version>
43012

> <i_f3d_flags>
0

> <s_epik_input>
Tz1TKD1PKShbQ0gyXTEpW0NIMl1bQ0gyXVtDQEBdMShbQ0gzXSlbTkhdQyg9TylbTkhdYzJbY0hdW2NIXVtjSF1uW2NIXTI=

> <s_epik_cmdline>
J2VwaWtfcHl0aG9uJywgJy1waCcsICc3LjAnLCAnLXRuJywgJzgnLCAnLW1hJywgJzIwMCcsICctbWV0YWxfYmluZGluZycsICctaW1hZScsICc8aW5maWxlLm1hZT4nLCAnLW9tYWUnLCAnPG91dGZpbGUubWFlPic=

> <r_epik_Ionization_Penalty>
0.00438887

> <r_epik_Ionization_Penalty_Charging>
0

> <r_epik_Ionization_Penalty_Neutral>
0.00438887

> <r_epik_State_Penalty>
0.00314315

> <r_epik_Charging_Adjusted_Penalty>
0.00314315

> <i_epik_Tot_Q>
0

> <i_epik_Tot_abs_Q>
0

> <r_epik_Metal_State_Penalty>
-0

> <b_epik_Metal_Only>
0

> <s_lp_Force_Field>
OPLS_2005

> <r_lp_Energy>
5.04322

> <b_lp_Chiralities_Consistent>
1

> <s_lp_Variant>
AV-unprocessed.smi:2729-2

> <Gold.Version>
5.8.1

> <Gold.Id.Protein>
6NUR|6NUR_protein|mol2

> <Gold.PLP.Fitness>
37.3969

> <Gold.PLP.PLP>
-34.6966

> <Gold.PLP.part.hbond>
-2.0000

> <Gold.PLP.part.metal>
0.0000

> <Gold.PLP.part.buried>
-5.7644

> <Gold.PLP.part.nonpolar>
-27.4553

> <Gold.PLP.part.repulsive>
0.1542

> <Gold.PLP.ligand.clash>
0.0000

> <Gold.PLP.ligand.torsion>
0.1574

> <Gold.PLP.Chemscore.Hbond>
1.0000

> <Gold.PLP.Chemscore.CHOScore>
0.0000

> <Gold.PLP.Chemscore.Metal>
0.0000

> <Gold.Chemscore.Hbonds>
donor molecule, donor type, donor heavy atom, donor atom, acceptor molecule, acceptor atom, score
      P1  H  6896  6907       L1    17  1.00

> <Gold.PLP.Chemscore.Internal.Correction>
0.0150

> <Gold.Rescore>
     Score         DG    S(hbond)    S(metal)    S(lipo)     H(rot)  DE(clash)    DE(int)     intcor
     13.75     -15.15       1.00        0.00      76.11       1.00       0.12       1.28       ----

> <Gold.Chemscore.Fitness>
13.7456

> <Gold.Chemscore.DG>
-15.1486

> <Gold.Chemscore.ZeroCoef>
-5.4800

> <Gold.Chemscore.Hbond>
0.9951

> <Gold.Chemscore.Metal>
0.0000

> <Gold.Chemscore.Lipo>
76.1091

> <Gold.Chemscore.Internal_Hbond>
0.0000

> <Gold.Chemscore.DEClash>
0.1214

> <Gold.Chemscore.DEInternal>
1.2815

> <Gold.Chemscore.Rot>
1.0000

> <Gold.Chemscore.Internal.Correction>
   9.000000E+99

> <Gold.Chemscore.Hbonds>
donor molecule, donor type, donor heavy atom, donor atom, acceptor molecule, acceptor atom, score
      P1  H  6896  6907       L1    17  0.50

> <Gold.Chemscore.Hbond.Weighted>
-3.3238

> <Gold.Chemscore.Metal.Weighted>
-0.0000

> <Gold.Chemscore.Lipo.Weighted>
-8.9048

> <Gold.Chemscore.Internal_Hbond.Weighted>
0.0000

> <Gold.Chemscore.DEClash.Weighted>
0.1214

> <Gold.Chemscore.DEInternal.Weighted>
1.2815

> <Gold.Chemscore.Rot.Weighted>
2.5600

> <Gold.Chemscore.Internal.Correction.Weighted>
   9.000000E+99

> <Gold.Protein.RotatedTorsions>
[ 6907 6896 6895 6894 ] final   40.74 input  -60.11 | X-H torsion
[ 7974 7965 7964 7962 ] final -149.96 input  175.53 | X-H torsion
[ 8008 7997 7996 7995 ] final  -72.78 input   59.86 | X-H torsion
[ 10167 10162 10161 10158 ] final -114.35 input  -65.29 | X-H torsion
[ 10718 10713 10712 10709 ] final   45.66 input   66.30 | X-H torsion
[ 10763 10752 10751 10750 ] final  171.97 input  -60.55 | X-H torsion
[ 11005 11000 10999 10996 ] final  -78.05 input  -57.11 | X-H torsion

> <Gold.Protein.ActiveResidues>
 VAL166  LYS551  ARG553  GLY616  TRP617  ASP618  TYR619  PRO620  LYS621  CYS622 
 ASP623  PHE694  ASN695  SER759  ASP760  ASP761  ALA762  ILE779  LEU786  VAL792 
 PHE793  MET794  SER795  GLU796  ALA797  LYS798  CYS799  TRP800  GLU811  SER814 

> <Gold.Protein.RotatedAtoms>
  152.1864  134.8710  160.0521 H   0  0  0  0  0  0  0  0  0  0  0  0  # atno 6907 bound_to 6896
  151.9615  133.3692  159.4045 H   0  0  0  0  0  0  0  0  0  0  0  0  # atno 6908 bound_to 6896
  150.6927  134.4159  159.5227 H   0  0  0  0  0  0  0  0  0  0  0  0  # atno 6909 bound_to 6896
  144.7936  140.4995  143.5755 H   0  0  0  0  0  0  0  0  0  0  0  0  # atno 7974 bound_to 7965
  154.5194  140.0791  156.8143 H   0  0  0  0  0  0  0  0  0  0  0  0  # atno 8008 bound_to 7997
  155.3609  140.3418  155.4222 H   0  0  0  0  0  0  0  0  0  0  0  0  # atno 8009 bound_to 7997
  156.1664  140.1605  156.8511 H   0  0  0  0  0  0  0  0  0  0  0  0  # atno 8010 bound_to 7997
  140.1019  143.4605  152.1807 H   0  0  0  0  0  0  0  0  0  0  0  0  # atno 10167 bound_to 10162
  157.4399  130.8075  149.7684 H   0  0  0  0  0  0  0  0  0  0  0  0  # atno 10718 bound_to 10713
  154.4195  135.2757  155.1984 H   0  0  0  0  0  0  0  0  0  0  0  0  # atno 10763 bound_to 10752
  154.3936  135.6060  153.5861 H   0  0  0  0  0  0  0  0  0  0  0  0  # atno 10764 bound_to 10752
  152.9832  135.5909  154.4489 H   0  0  0  0  0  0  0  0  0  0  0  0  # atno 10765 bound_to 10752
  141.1663  133.7047  156.7912 H   0  0  0  0  0  0  0  0  0  0  0  0  # atno 11005 bound_to 11000
  145.5731  139.1484  143.3277 LP  0  0  0  0  0  0  0  0  0  0  0  0  # atno 17320 bound_to 7965
  146.2197  140.5863  142.9023 LP  0  0  0  0  0  0  0  0  0  0  0  0  # atno 17321 bound_to 7965
  139.5666  144.7439  151.4005 LP  0  0  0  0  0  0  0  0  0  0  0  0  # atno 17342 bound_to 10162
  140.6973  143.7718  150.7347 LP  0  0  0  0  0  0  0  0  0  0  0  0  # atno 17343 bound_to 10162
  155.9945  130.3918  150.2858 LP  0  0  0  0  0  0  0  0  0  0  0  0  # atno 17370 bound_to 10713
  157.1021  131.0198  151.3081 LP  0  0  0  0  0  0  0  0  0  0  0  0  # atno 17371 bound_to 10713
  140.2323  134.8676  157.3490 LP  0  0  0  0  0  0  0  0  0  0  0  0  # atno 17394 bound_to 11000
  140.1878  134.4409  155.7733 LP  0  0  0  0  0  0  0  0  0  0  0  0  # atno 17395 bound_to 11000

$$$$
