AV-unprocessed.smi:464|AV-procd|sdf|2638|dock6
  -GOLD-   2262023 43D 1   1.00000     0.00000
 Structure written by MMmdl.
 24 25  0  0  0  0  0  0  0  0  2 V2000
  152.7025  140.9735  159.1318 O   0  0  0  0  0  0  0  0  0  0  0  0
  152.0249  140.8806  158.1107 C   0  0  0  0  0  0  0  0  0  0  0  0
  150.8260  141.5031  158.0991 N   0  0  0  0  0  0  0  0  0  0  0  0
  149.9838  141.4539  156.9868 C   0  0  0  0  0  0  0  0  0  0  0  0
  150.3339  140.7795  155.8717 C   0  0  0  0  0  0  0  0  0  0  0  0
  149.5182  140.7093  154.7523 N   0  0  0  0  0  0  0  0  0  0  0  0
  148.5473  141.7382  154.4075 C   0  0  0  0  0  0  0  0  0  0  0  0
  147.1252  141.1495  154.4169 C   0  0  0  0  0  0  0  0  0  0  0  0
  147.0682  140.0252  153.5429 O   0  0  0  0  0  0  0  0  0  0  0  0
  147.9633  138.9902  153.9416 C   0  0  0  0  0  0  0  0  0  0  0  0
  149.4082  139.5204  153.9190 C   0  0  0  0  0  0  0  0  0  0  0  0
  151.6383  140.0984  155.8674 C   0  0  0  0  0  0  0  0  0  0  0  0
  152.0039  139.4731  154.8719 O   0  0  0  0  0  0  0  0  0  0  0  0
  152.4092  140.1899  156.9936 N   0  5  0  0  0  0  0  0  0  0  0  0
  150.5164  142.0197  158.9095 H   0  0  0  0  0  0  0  0  0  0  0  0
  149.0549  141.9909  157.1084 H   0  0  0  0  0  0  0  0  0  0  0  0
  148.6136  142.5713  155.1085 H   0  0  0  0  0  0  0  0  0  0  0  0
  148.7857  142.1348  153.4201 H   0  0  0  0  0  0  0  0  0  0  0  0
  146.8310  140.8550  155.4253 H   0  0  0  0  0  0  0  0  0  0  0  0
  146.4063  141.8972  154.0819 H   0  0  0  0  0  0  0  0  0  0  0  0
  147.6964  138.6269  154.9353 H   0  0  0  0  0  0  0  0  0  0  0  0
  147.8604  138.1483  153.2570 H   0  0  0  0  0  0  0  0  0  0  0  0
  149.7028  139.7721  152.8996 H   0  0  0  0  0  0  0  0  0  0  0  0
  150.0965  138.7491  154.2671 H   0  0  0  0  0  0  0  0  0  0  0  0
  1  2  2  0  0  0  0
  2 14  1  0  0  0  0
  2  3  1  0  0  0  0
  3 15  1  0  0  0  0
  3  4  1  0  0  0  0
  4  5  2  0  0  0  0
  4 16  1  0  0  0  0
  5  6  1  0  0  0  0
  5 12  1  0  0  0  0
  6 11  1  0  0  0  0
  6  7  1  0  0  0  0
  7  8  1  0  0  0  0
  7 17  1  0  0  0  0
  7 18  1  0  0  0  0
  8  9  1  0  0  0  0
  8 19  1  0  0  0  0
  8 20  1  0  0  0  0
  9 10  1  0  0  0  0
 10 11  1  0  0  0  0
 10 21  1  0  0  0  0
 10 22  1  0  0  0  0
 11 23  1  0  0  0  0
 11 24  1  0  0  0  0
 12 13  2  0  0  0  0
 12 14  1  0  0  0  0
M  CHG  1  14  -1
M  END
> <s_m_source_file>
AV-unprocessed.smi

> <i_m_source_file_index>
464

> <i_lp_mmshare_version>
43012

> <i_f3d_flags>
0

> <s_epik_input>
Tz1jMVtuSF1bY0hdYyhjKD1PKVtuSF0xKU4yW0NIMl1bQ0gyXU9bQ0gyXVtDSDJdMg==

> <s_epik_cmdline>
J2VwaWtfcHl0aG9uJywgJy1waCcsICc3LjAnLCAnLXRuJywgJzgnLCAnLW1hJywgJzIwMCcsICctbWV0YWxfYmluZGluZycsICctaW1hZScsICc8aW5maWxlLm1hZT4nLCAnLW9tYWUnLCAnPG91dGZpbGUubWFlPic=

> <r_lp_tautomer_probability>
0.999801

> <r_epik_Ionization_Penalty>
3.03283

> <r_epik_Ionization_Penalty_Charging>
1.33068e-05

> <r_epik_Ionization_Penalty_Neutral>
3.03282

> <r_epik_State_Penalty>
3.03418

> <r_epik_Charging_Adjusted_Penalty>
3.03419

> <i_epik_Tot_Q>
-1

> <i_epik_Tot_abs_Q>
1

> <r_epik_Metal_State_Penalty>
0.478531

> <b_epik_Metal_Only>
1

> <s_lp_Force_Field>
OPLS_2005

> <r_lp_Energy>
27.0677

> <b_lp_Chiralities_Consistent>
1

> <s_lp_Variant>
AV-unprocessed.smi:464-3

> <Gold.Version>
5.8.1

> <Gold.Id.Protein>
6NUR|6NUR_protein|mol2

> <Gold.PLP.Fitness>
30.7432

> <Gold.PLP.PLP>
-22.0197

> <Gold.PLP.part.hbond>
-2.0000

> <Gold.PLP.part.metal>
0.0000

> <Gold.PLP.part.buried>
0.3270

> <Gold.PLP.part.nonpolar>
-20.3340

> <Gold.PLP.part.repulsive>
0.3054

> <Gold.PLP.ligand.clash>
0.0000

> <Gold.PLP.ligand.torsion>
0.4234

> <Gold.PLP.Chemscore.Hbond>
2.9280

> <Gold.PLP.Chemscore.CHOScore>
0.0000

> <Gold.PLP.Chemscore.Metal>
0.0000

> <Gold.Chemscore.Hbonds>
donor molecule, donor type, donor heavy atom, donor atom, acceptor molecule, acceptor atom, score
      P1  H  7989  7998       L1    13  0.88
      P1  H  7997  8009       L1    14  2.00

> <Gold.PLP.Chemscore.Internal.Correction>
0.7863

> <Gold.Rescore>
     Score         DG    S(hbond)    S(metal)    S(lipo)     H(rot)  DE(clash)    DE(int)     intcor
     11.88     -15.04       1.60        0.00      36.02       0.00       1.27       1.89       ----

> <Gold.Chemscore.Fitness>
11.8847

> <Gold.Chemscore.DG>
-15.0380

> <Gold.Chemscore.ZeroCoef>
-5.4800

> <Gold.Chemscore.Hbond>
1.6001

> <Gold.Chemscore.Metal>
0.0000

> <Gold.Chemscore.Lipo>
36.0153

> <Gold.Chemscore.Internal_Hbond>
0.0000

> <Gold.Chemscore.DEClash>
1.2655

> <Gold.Chemscore.DEInternal>
1.8877

> <Gold.Chemscore.Rot>
0.0000

> <Gold.Chemscore.Internal.Correction>
   9.000000E+99

> <Gold.Chemscore.Hbonds>
donor molecule, donor type, donor heavy atom, donor atom, acceptor molecule, acceptor atom, score
      P1  H  7989  7998       L1    13  0.19
      P1  H  7997  8009       L1    14  0.58

> <Gold.Chemscore.Hbond.Weighted>
-5.3442

> <Gold.Chemscore.Metal.Weighted>
-0.0000

> <Gold.Chemscore.Lipo.Weighted>
-4.2138

> <Gold.Chemscore.Internal_Hbond.Weighted>
0.0000

> <Gold.Chemscore.DEClash.Weighted>
1.2655

> <Gold.Chemscore.DEInternal.Weighted>
1.8877

> <Gold.Chemscore.Rot.Weighted>
0.0000

> <Gold.Chemscore.Internal.Correction.Weighted>
   9.000000E+99

> <Gold.Protein.RotatedTorsions>
[ 6907 6896 6895 6894 ] final  145.17 input  -60.11 | X-H torsion
[ 7974 7965 7964 7962 ] final  -15.01 input  175.53 | X-H torsion
[ 8008 7997 7996 7995 ] final -167.75 input   59.86 | X-H torsion
[ 10167 10162 10161 10158 ] final   -6.55 input  -65.29 | X-H torsion
[ 10718 10713 10712 10709 ] final   16.12 input   66.30 | X-H torsion
[ 10763 10752 10751 10750 ] final -156.14 input  -60.55 | X-H torsion
[ 11005 11000 10999 10996 ] final -154.83 input  -57.11 | X-H torsion

> <Gold.Protein.ActiveResidues>
 VAL166  LYS551  ARG553  GLY616  TRP617  ASP618  TYR619  PRO620  LYS621  CYS622 
 ASP623  PHE694  ASN695  SER759  ASP760  ASP761  ALA762  ILE779  LEU786  VAL792 
 PHE793  MET794  SER795  GLU796  ALA797  LYS798  CYS799  TRP800  GLU811  SER814 

> <Gold.Protein.RotatedAtoms>
  152.1843  133.4729  159.4974 H   0  0  0  0  0  0  0  0  0  0  0  0  # atno 6907 bound_to 6896
  150.6940  134.1793  159.4251 H   0  0  0  0  0  0  0  0  0  0  0  0  # atno 6908 bound_to 6896
  151.9706  135.0078  160.0603 H   0  0  0  0  0  0  0  0  0  0  0  0  # atno 6909 bound_to 6896
  146.2050  140.3432  142.8410 H   0  0  0  0  0  0  0  0  0  0  0  0  # atno 7974 bound_to 7965
  155.8820  140.1010  157.1479 H   0  0  0  0  0  0  0  0  0  0  0  0  # atno 8008 bound_to 7997
  154.4006  140.1327  156.4271 H   0  0  0  0  0  0  0  0  0  0  0  0  # atno 8009 bound_to 7997
  155.7632  140.3462  155.5211 H   0  0  0  0  0  0  0  0  0  0  0  0  # atno 8010 bound_to 7997
  140.7000  143.6181  150.8638 H   0  0  0  0  0  0  0  0  0  0  0  0  # atno 10167 bound_to 10162
  157.0633  130.6318  149.5790 H   0  0  0  0  0  0  0  0  0  0  0  0  # atno 10718 bound_to 10713
  154.7735  135.3152  154.8141 H   0  0  0  0  0  0  0  0  0  0  0  0  # atno 10763 bound_to 10752
  153.8870  135.6829  153.4767 H   0  0  0  0  0  0  0  0  0  0  0  0  # atno 10764 bound_to 10752
  153.1353  135.4762  154.9348 H   0  0  0  0  0  0  0  0  0  0  0  0  # atno 10765 bound_to 10752
  140.6930  134.4020  157.5217 H   0  0  0  0  0  0  0  0  0  0  0  0  # atno 11005 bound_to 11000
  144.8771  140.7351  143.6010 LP  0  0  0  0  0  0  0  0  0  0  0  0  # atno 17320 bound_to 7965
  145.3351  139.1748  143.4516 LP  0  0  0  0  0  0  0  0  0  0  0  0  # atno 17321 bound_to 7965
  139.9903  143.5854  152.2912 LP  0  0  0  0  0  0  0  0  0  0  0  0  # atno 17342 bound_to 10162
  139.6507  144.7660  151.2154 LP  0  0  0  0  0  0  0  0  0  0  0  0  # atno 17343 bound_to 10162
  155.9972  130.5043  150.7524 LP  0  0  0  0  0  0  0  0  0  0  0  0  # atno 17370 bound_to 10713
  157.4937  131.0913  151.0397 LP  0  0  0  0  0  0  0  0  0  0  0  0  # atno 17371 bound_to 10713
  139.8918  134.8771  156.2303 LP  0  0  0  0  0  0  0  0  0  0  0  0  # atno 17394 bound_to 11000
  141.0225  133.7033  156.1293 LP  0  0  0  0  0  0  0  0  0  0  0  0  # atno 17395 bound_to 11000

$$$$
