AV-unprocessed.smi:1793|AV-procd|sdf|7229|dock5
  -GOLD-   22720 8473D 1   1.00000     0.00000
 Structure written by MMmdl.
 47 49  0  0  0  0  0  0  0  0  2 V2000
  148.0959  134.7778  157.9929 C   0  0  0  0  0  0  0  0  0  0  0  0
  148.5157  135.7998  159.0594 C   0  0  1  0  0  0  0  0  0  0  0  0
  148.4760  137.1393  158.4748 N   0  0  0  0  0  0  0  0  0  0  0  0
  149.4268  138.0773  158.5914 C   0  0  0  0  0  0  0  0  0  0  0  0
  150.4728  137.9211  159.2204 O   0  0  0  0  0  0  0  0  0  0  0  0
  149.0900  139.1919  157.9216 N   0  0  0  0  0  0  0  0  0  0  0  0
  149.8694  140.3686  157.7386 C   0  0  0  0  0  0  0  0  0  0  0  0
  151.0360  140.5994  158.5124 C   0  0  0  0  0  0  0  0  0  0  0  0
  151.7512  141.8026  158.3651 C   0  0  0  0  0  0  0  0  0  0  0  0
  151.2803  142.7664  157.4578 C   0  0  0  0  0  0  0  0  0  0  0  0
  150.1612  142.5228  156.7452 N   0  3  0  0  0  0  0  0  0  0  0  0
  149.4370  141.3786  156.8298 C   0  0  0  0  0  0  0  0  0  0  0  0
  148.2904  141.2656  156.0095 N   0  0  0  0  0  0  0  0  0  0  0  0
  147.1143  142.0891  156.2657 C   0  0  0  0  0  0  0  0  0  0  0  0
  146.2519  141.9506  155.0141 C   0  0  0  0  0  0  0  0  0  0  0  0
  147.2954  141.8387  153.9069 C   0  0  0  0  0  0  0  0  0  0  0  0
  148.4491  141.0797  154.5705 C   0  0  0  0  0  0  0  0  0  0  0  0
  147.6085  135.7386  160.3038 C   0  0  2  0  0  0  0  0  0  0  0  0
  148.0747  136.5927  161.4831 C   0  0  0  0  0  0  0  0  0  0  0  0
  147.4101  135.9289  162.6773 C   0  0  0  0  0  0  0  0  0  0  0  0
  147.0652  134.5229  162.1764 C   0  0  0  0  0  0  0  0  0  0  0  0
  147.6154  134.4368  160.8683 O   0  0  0  0  0  0  0  0  0  0  0  0
  148.1433  133.7607  158.3829 H   0  0  0  0  0  0  0  0  0  0  0  0
  148.7530  134.8251  157.1237 H   0  0  0  0  0  0  0  0  0  0  0  0
  147.0758  134.9553  157.6506 H   0  0  0  0  0  0  0  0  0  0  0  0
  149.5332  135.5540  159.3683 H   0  0  0  0  0  0  0  0  0  0  0  0
  147.6529  137.3659  157.9365 H   0  0  0  0  0  0  0  0  0  0  0  0
  148.2386  139.1442  157.3812 H   0  0  0  0  0  0  0  0  0  0  0  0
  151.3828  139.8787  159.2376 H   0  0  0  0  0  0  0  0  0  0  0  0
  152.6403  141.9874  158.9502 H   0  0  0  0  0  0  0  0  0  0  0  0
  151.7572  143.7202  157.2841 H   0  0  0  0  0  0  0  0  0  0  0  0
  146.5842  141.7619  157.1605 H   0  0  0  0  0  0  0  0  0  0  0  0
  147.4024  143.1328  156.3976 H   0  0  0  0  0  0  0  0  0  0  0  0
  145.6630  141.0337  155.0649 H   0  0  0  0  0  0  0  0  0  0  0  0
  145.5669  142.7875  154.8744 H   0  0  0  0  0  0  0  0  0  0  0  0
  146.9181  141.3396  153.0140 H   0  0  0  0  0  0  0  0  0  0  0  0
  147.6305  142.8356  153.6177 H   0  0  0  0  0  0  0  0  0  0  0  0
  149.4155  141.4358  154.2114 H   0  0  0  0  0  0  0  0  0  0  0  0
  148.3721  140.0160  154.3451 H   0  0  0  0  0  0  0  0  0  0  0  0
  146.5822  136.0030  160.0412 H   0  0  0  0  0  0  0  0  0  0  0  0
  149.1590  136.5298  161.5864 H   0  0  0  0  0  0  0  0  0  0  0  0
  147.8065  137.6445  161.3790 H   0  0  0  0  0  0  0  0  0  0  0  0
  148.0753  135.9061  163.5410 H   0  0  0  0  0  0  0  0  0  0  0  0
  146.5026  136.4605  162.9657 H   0  0  0  0  0  0  0  0  0  0  0  0
  147.4730  133.7409  162.8172 H   0  0  0  0  0  0  0  0  0  0  0  0
  145.9840  134.3890  162.1229 H   0  0  0  0  0  0  0  0  0  0  0  0
  149.8442  143.2431  156.0960 H   0  0  0  0  0  0  0  0  0  0  0  0
  1  2  1  0  0  0  0
  1 23  1  0  0  0  0
  1 24  1  0  0  0  0
  1 25  1  0  0  0  0
  2  3  1  0  0  0  0
  2 18  1  0  0  0  0
  2 26  1  0  0  0  0
  3  4  1  0  0  0  0
  3 27  1  0  0  0  0
  4  5  2  0  0  0  0
  4  6  1  0  0  0  0
  6  7  1  0  0  0  0
  6 28  1  0  0  0  0
  7 12  1  0  0  0  0
  7  8  2  0  0  0  0
  8  9  1  0  0  0  0
  8 29  1  0  0  0  0
  9 10  2  0  0  0  0
  9 30  1  0  0  0  0
 10 11  1  0  0  0  0
 10 31  1  0  0  0  0
 11 12  2  0  0  0  0
 11 47  1  0  0  0  0
 12 13  1  0  0  0  0
 13 17  1  0  0  0  0
 13 14  1  0  0  0  0
 14 15  1  0  0  0  0
 14 32  1  0  0  0  0
 14 33  1  0  0  0  0
 15 16  1  0  0  0  0
 15 34  1  0  0  0  0
 15 35  1  0  0  0  0
 16 17  1  0  0  0  0
 16 36  1  0  0  0  0
 16 37  1  0  0  0  0
 17 38  1  0  0  0  0
 17 39  1  0  0  0  0
 18 22  1  0  0  0  0
 18 19  1  0  0  0  0
 18 40  1  0  0  0  0
 19 20  1  0  0  0  0
 19 41  1  0  0  0  0
 19 42  1  0  0  0  0
 20 21  1  0  0  0  0
 20 43  1  0  0  0  0
 20 44  1  0  0  0  0
 21 22  1  0  0  0  0
 21 45  1  0  0  0  0
 21 46  1  0  0  0  0
M  CHG  1  11   1
M  END
> <s_m_source_file>
AV-unprocessed.smi

> <i_m_source_file_index>
1793

> <i_lp_mmshare_version>
43012

> <i_f3d_flags>
0

> <s_epik_input>
TzFbQ0gyXVtDSDJdW0NIMl1bQ0BIXTFbQ0BIXShbQ0gzXSlbTkhdQyg9TylbTkhdYzJbY0hdW2NIXVtjSF1uYzJOM1tDSDJdW0NIMl1bQ0gyXVtDSDJdMw==

> <s_epik_cmdline>
J2VwaWtfcHl0aG9uJywgJy1waCcsICc3LjAnLCAnLXRuJywgJzgnLCAnLW1hJywgJzIwMCcsICctbWV0YWxfYmluZGluZycsICctaW1hZScsICc8aW5maWxlLm1hZT4nLCAnLW9tYWUnLCAnPG91dGZpbGUubWFlPic=

> <r_lp_tautomer_probability>
0.999994

> <r_epik_Ionization_Penalty>
1.11092

> <r_epik_Ionization_Penalty_Charging>
1.1109

> <r_epik_Ionization_Penalty_Neutral>
1.9363e-05

> <r_epik_State_Penalty>
1.16888

> <r_epik_Charging_Adjusted_Penalty>
2.27978

> <i_epik_Tot_Q>
1

> <i_epik_Tot_abs_Q>
1

> <r_epik_Metal_State_Penalty>
1.25472

> <b_epik_Metal_Only>
0

> <s_lp_Force_Field>
OPLS_2005

> <r_lp_Energy>
51.9838

> <b_lp_Chiralities_Consistent>
1

> <s_lp_Variant>
AV-unprocessed.smi:1793-6

> <Gold.Version>
5.8.1

> <Gold.Id.Protein>
6NUR|6NUR_protein|mol2

> <Gold.PLP.Fitness>
41.3549

> <Gold.PLP.PLP>
-35.8298

> <Gold.PLP.part.hbond>
-1.6121

> <Gold.PLP.part.metal>
0.0000

> <Gold.PLP.part.buried>
-4.7804

> <Gold.PLP.part.nonpolar>
-29.2601

> <Gold.PLP.part.repulsive>
0.3935

> <Gold.PLP.ligand.clash>
0.0000

> <Gold.PLP.ligand.torsion>
0.4568

> <Gold.PLP.Chemscore.Hbond>
2.0000

> <Gold.PLP.Chemscore.CHOScore>
0.0000

> <Gold.PLP.Chemscore.Metal>
0.0000

> <Gold.Chemscore.Hbonds>
donor molecule, donor type, donor heavy atom, donor atom, acceptor molecule, acceptor atom, score
      L1  H    11    47       P1  8028  2.00

> <Gold.PLP.Chemscore.Internal.Correction>
0.4388

> <Gold.Rescore>
     Score         DG    S(hbond)    S(metal)    S(lipo)     H(rot)  DE(clash)    DE(int)     intcor
     13.44     -15.25       0.99        0.00      85.37       1.38       0.05       1.75       ----

> <Gold.Chemscore.Fitness>
13.4389

> <Gold.Chemscore.DG>
-15.2460

> <Gold.Chemscore.ZeroCoef>
-5.4800

> <Gold.Chemscore.Hbond>
0.9915

> <Gold.Chemscore.Metal>
0.0000

> <Gold.Chemscore.Lipo>
85.3651

> <Gold.Chemscore.Internal_Hbond>
0.0000

> <Gold.Chemscore.DEClash>
0.0528

> <Gold.Chemscore.DEInternal>
1.7543

> <Gold.Chemscore.Rot>
1.3802

> <Gold.Chemscore.Internal.Correction>
   9.000000E+99

> <Gold.Chemscore.Hbonds>
donor molecule, donor type, donor heavy atom, donor atom, acceptor molecule, acceptor atom, score
      L1  H    11    47       P1  8028  0.97

> <Gold.Chemscore.Hbond.Weighted>
-3.3115

> <Gold.Chemscore.Metal.Weighted>
-0.0000

> <Gold.Chemscore.Lipo.Weighted>
-9.9877

> <Gold.Chemscore.Internal_Hbond.Weighted>
0.0000

> <Gold.Chemscore.DEClash.Weighted>
0.0528

> <Gold.Chemscore.DEInternal.Weighted>
1.7543

> <Gold.Chemscore.Rot.Weighted>
3.5332

> <Gold.Chemscore.Internal.Correction.Weighted>
   9.000000E+99

> <Gold.Protein.RotatedTorsions>
[ 6907 6896 6895 6894 ] final  126.10 input  -60.11 | X-H torsion
[ 7974 7965 7964 7962 ] final   11.95 input  175.53 | X-H torsion
[ 8008 7997 7996 7995 ] final  -67.31 input   59.86 | X-H torsion
[ 10167 10162 10161 10158 ] final  140.24 input  -65.29 | X-H torsion
[ 10718 10713 10712 10709 ] final -119.80 input   66.30 | X-H torsion
[ 10763 10752 10751 10750 ] final   33.72 input  -60.55 | X-H torsion
[ 11005 11000 10999 10996 ] final   25.33 input  -57.11 | X-H torsion

> <Gold.Protein.ActiveResidues>
 VAL166  LYS551  ARG553  GLY616  TRP617  ASP618  TYR619  PRO620  LYS621  CYS622 
 ASP623  PHE694  ASN695  SER759  ASP760  ASP761  ALA762  ILE779  LEU786  VAL792 
 PHE793  MET794  SER795  GLU796  ALA797  LYS798  CYS799  TRP800  GLU811  SER814 

> <Gold.Protein.RotatedAtoms>
  152.3934  133.6711  159.6255 H   0  0  0  0  0  0  0  0  0  0  0  0  # atno 6907 bound_to 6896
  150.7837  133.8916  159.3324 H   0  0  0  0  0  0  0  0  0  0  0  0  # atno 6908 bound_to 6896
  151.6698  135.0979  160.0247 H   0  0  0  0  0  0  0  0  0  0  0  0  # atno 6909 bound_to 6896
  146.2361  139.9409  142.8483 H   0  0  0  0  0  0  0  0  0  0  0  0  # atno 7974 bound_to 7965
  154.4791  140.0895  156.7334 H   0  0  0  0  0  0  0  0  0  0  0  0  # atno 8008 bound_to 7997
  155.4517  140.3457  155.4283 H   0  0  0  0  0  0  0  0  0  0  0  0  # atno 8009 bound_to 7997
  156.1163  140.1462  156.9256 H   0  0  0  0  0  0  0  0  0  0  0  0  # atno 8010 bound_to 7997
  139.5055  144.6246  151.5968 H   0  0  0  0  0  0  0  0  0  0  0  0  # atno 10167 bound_to 10162
  156.1208  130.6322  150.9461 H   0  0  0  0  0  0  0  0  0  0  0  0  # atno 10718 bound_to 10713
  153.0198  135.6379  154.1556 H   0  0  0  0  0  0  0  0  0  0  0  0  # atno 10763 bound_to 10752
  154.1291  135.2841  155.3191 H   0  0  0  0  0  0  0  0  0  0  0  0  # atno 10764 bound_to 10752
  154.6207  135.5525  153.7634 H   0  0  0  0  0  0  0  0  0  0  0  0  # atno 10765 bound_to 10752
  140.3490  134.2249  155.7682 H   0  0  0  0  0  0  0  0  0  0  0  0  # atno 11005 bound_to 11000
  145.1954  140.9830  143.4187 LP  0  0  0  0  0  0  0  0  0  0  0  0  # atno 17320 bound_to 7965
  144.9820  139.3773  143.6257 LP  0  0  0  0  0  0  0  0  0  0  0  0  # atno 17321 bound_to 7965
  140.5959  143.9697  150.6354 LP  0  0  0  0  0  0  0  0  0  0  0  0  # atno 17342 bound_to 10162
  140.2892  143.3336  152.1078 LP  0  0  0  0  0  0  0  0  0  0  0  0  # atno 17343 bound_to 10162
  157.6392  131.0912  150.8287 LP  0  0  0  0  0  0  0  0  0  0  0  0  # atno 17370 bound_to 10713
  156.8383  130.5039  149.5324 LP  0  0  0  0  0  0  0  0  0  0  0  0  # atno 17371 bound_to 10713
  141.2017  133.7955  157.0426 LP  0  0  0  0  0  0  0  0  0  0  0  0  # atno 17394 bound_to 11000
  140.0718  134.9698  157.1480 LP  0  0  0  0  0  0  0  0  0  0  0  0  # atno 17395 bound_to 11000

$$$$
