AV-unprocessed.smi:1395|AV-procd|sdf|5672|dock3
  -GOLD-   22720 5293D 1   1.00000     0.00000
 Structure written by MMmdl.
 42 43  0  0  0  0  0  0  0  0  3 V2000
  150.6844  142.9235  157.7381 C   0  0  0  0  0  0  0  0  0  0  0  0
  151.7999  142.1147  158.3802 C   0  0  0  0  0  0  0  0  0  0  0  0
  152.4628  142.6313  159.5138 C   0  0  0  0  0  0  0  0  0  0  0  0
  153.4924  141.8814  160.1077 C   0  0  0  0  0  0  0  0  0  0  0  0
  153.8175  140.6381  159.5390 C   0  0  0  0  0  0  0  0  0  0  0  0
  153.1896  140.1369  158.4558 N   0  0  0  0  0  0  0  0  0  0  0  0
  152.1939  140.8485  157.8702 C   0  0  0  0  0  0  0  0  0  0  0  0
  151.4845  140.3788  156.7288 N   0  0  0  0  0  0  0  0  0  0  0  0
  150.1845  140.0489  156.6300 C   0  0  0  0  0  0  0  0  0  0  0  0
  149.3697  140.0695  157.5531 O   0  0  0  0  0  0  0  0  0  0  0  0
  149.8697  139.6867  155.3774 N   0  0  0  0  0  0  0  0  0  0  0  0
  148.5388  139.2878  154.9290 C   0  0  2  0  0  0  0  0  0  0  0  0
  148.3284  137.7873  155.1897 C   0  0  0  0  0  0  0  0  0  0  0  0
  146.9730  137.3099  154.6416 C   0  0  0  0  0  0  0  0  0  0  0  0
  146.8472  137.6109  153.1935 N   0  3  1  0  0  0  0  0  0  0  0  0
  145.6211  137.0240  152.5945 C   0  0  0  0  0  0  0  0  0  0  0  0
  145.8997  136.4999  151.1809 C   0  0  0  0  0  0  0  0  0  0  0  0
  146.2039  137.4889  150.3160 N   0  5  0  0  0  0  0  0  0  0  0  0
  145.8298  135.2943  150.9549 O   0  0  0  0  0  0  0  0  0  0  0  0
  146.9997  139.0648  152.9209 C   0  0  0  0  0  0  0  0  0  0  0  0
  148.3554  139.5813  153.4283 C   0  0  0  0  0  0  0  0  0  0  0  0
  150.5417  143.8774  158.2470 H   0  0  0  0  0  0  0  0  0  0  0  0
  149.7426  142.3754  157.7829 H   0  0  0  0  0  0  0  0  0  0  0  0
  150.9153  143.1330  156.6931 H   0  0  0  0  0  0  0  0  0  0  0  0
  152.1874  143.5906  159.9269 H   0  0  0  0  0  0  0  0  0  0  0  0
  154.0185  142.2492  160.9761 H   0  0  0  0  0  0  0  0  0  0  0  0
  154.6018  140.0293  159.9637 H   0  0  0  0  0  0  0  0  0  0  0  0
  152.0323  140.2964  155.8854 H   0  0  0  0  0  0  0  0  0  0  0  0
  150.6009  139.6965  154.6813 H   0  0  0  0  0  0  0  0  0  0  0  0
  147.7895  139.8434  155.4968 H   0  0  0  0  0  0  0  0  0  0  0  0
  149.1283  137.2129  154.7197 H   0  0  0  0  0  0  0  0  0  0  0  0
  148.3864  137.5801  156.2589 H   0  0  0  0  0  0  0  0  0  0  0  0
  146.8813  136.2353  154.8035 H   0  0  0  0  0  0  0  0  0  0  0  0
  146.1552  137.7855  155.1854 H   0  0  0  0  0  0  0  0  0  0  0  0
  145.2685  136.1846  153.1962 H   0  0  0  0  0  0  0  0  0  0  0  0
  144.8146  137.7592  152.5822 H   0  0  0  0  0  0  0  0  0  0  0  0
  145.4920  138.2011  150.1129 H   0  0  0  0  0  0  0  0  0  0  0  0
  146.9246  139.2590  151.8506 H   0  0  0  0  0  0  0  0  0  0  0  0
  146.1861  139.6131  153.3981 H   0  0  0  0  0  0  0  0  0  0  0  0
  148.4293  140.6529  153.2394 H   0  0  0  0  0  0  0  0  0  0  0  0
  149.1576  139.1113  152.8569 H   0  0  0  0  0  0  0  0  0  0  0  0
  147.6159  137.1418  152.7342 H   0  0  0  0  0  0  0  0  0  0  0  0
  1  2  1  0  0  0  0
  1 22  1  0  0  0  0
  1 23  1  0  0  0  0
  1 24  1  0  0  0  0
  2  7  1  0  0  0  0
  2  3  2  0  0  0  0
  3  4  1  0  0  0  0
  3 25  1  0  0  0  0
  4  5  2  0  0  0  0
  4 26  1  0  0  0  0
  5  6  1  0  0  0  0
  5 27  1  0  0  0  0
  6  7  2  0  0  0  0
  7  8  1  0  0  0  0
  8  9  1  0  0  0  0
  8 28  1  0  0  0  0
  9 10  2  0  0  0  0
  9 11  1  0  0  0  0
 11 12  1  0  0  0  0
 11 29  1  0  0  0  0
 12 21  1  0  0  0  0
 12 13  1  0  0  0  0
 12 30  1  0  0  0  0
 13 14  1  0  0  0  0
 13 31  1  0  0  0  0
 13 32  1  0  0  0  0
 14 15  1  0  0  0  0
 14 33  1  0  0  0  0
 14 34  1  0  0  0  0
 15 16  1  0  0  0  0
 15 20  1  0  0  0  0
 15 42  1  0  0  0  0
 16 17  1  0  0  0  0
 16 35  1  0  0  0  0
 16 36  1  0  0  0  0
 17 18  1  0  0  0  0
 17 19  2  0  0  0  0
 18 37  1  0  0  0  0
 20 21  1  0  0  0  0
 20 38  1  0  0  0  0
 20 39  1  0  0  0  0
 21 40  1  0  0  0  0
 21 41  1  0  0  0  0
M  CHG  1  15   1
M  CHG  1  18  -1
M  END
> <s_m_source_file>
AV-unprocessed.smi

> <i_m_source_file_index>
1395

> <i_lp_mmshare_version>
43012

> <i_f3d_flags>
0

> <s_epik_input>
W0NIM11jMVtjSF1bY0hdW2NIXW5jMVtOSF1DKD1PKVtOSF1bQ0hdMltDSDJdW0NIMl1OKFtDSDJdW0NIMl0yKVtDSDJdQyg9TylbTkgyXQ==

> <s_epik_cmdline>
J2VwaWtfcHl0aG9uJywgJy1waCcsICc3LjAnLCAnLXRuJywgJzgnLCAnLW1hJywgJzIwMCcsICctbWV0YWxfYmluZGluZycsICctaW1hZScsICc8aW5maWxlLm1hZT4nLCAnLW9tYWUnLCAnPG91dGZpbGUubWFlPic=

> <r_epik_Ionization_Penalty>
5.72885

> <r_epik_Ionization_Penalty_Charging>
5.7288

> <r_epik_Ionization_Penalty_Neutral>
4.54304e-05

> <r_epik_State_Penalty>
6.54882

> <r_epik_Charging_Adjusted_Penalty>
12.2776

> <i_epik_Tot_Q>
0

> <i_epik_Tot_abs_Q>
2

> <r_epik_Metal_State_Penalty>
2.51297

> <b_epik_Metal_Only>
1

> <s_lp_Force_Field>
OPLS_2005

> <r_lp_Energy>
9.01588

> <b_lp_Chiralities_Consistent>
1

> <s_lp_Variant>
AV-unprocessed.smi:1395-4

> <Gold.Version>
5.8.1

> <Gold.Id.Protein>
6NUR|6NUR_protein|mol2

> <Gold.PLP.Fitness>
40.7339

> <Gold.PLP.PLP>
-29.2634

> <Gold.PLP.part.hbond>
-4.0000

> <Gold.PLP.part.metal>
0.0000

> <Gold.PLP.part.buried>
-0.0833

> <Gold.PLP.part.nonpolar>
-25.0342

> <Gold.PLP.part.repulsive>
0.4228

> <Gold.PLP.ligand.clash>
0.0000

> <Gold.PLP.ligand.torsion>
1.4649

> <Gold.PLP.Chemscore.Hbond>
4.7920

> <Gold.PLP.Chemscore.CHOScore>
0.0000

> <Gold.PLP.Chemscore.Metal>
0.0000

> <Gold.Chemscore.Hbonds>
donor molecule, donor type, donor heavy atom, donor atom, acceptor molecule, acceptor atom, score
      L1  H    15    42       P1  7948  2.00
      L1  H    18    37       P1 10171  0.99
      P1  H  7954  7966       L1    18  0.80
      P1  H  7997  8009       L1     6  0.99

> <Gold.PLP.Chemscore.Internal.Correction>
0.0242

> <Gold.Rescore>
     Score         DG    S(hbond)    S(metal)    S(lipo)     H(rot)  DE(clash)    DE(int)     intcor
     15.57     -18.80       2.84        0.00      75.10       1.93       1.77       1.45       ----

> <Gold.Chemscore.Fitness>
15.5714

> <Gold.Chemscore.DG>
-18.7979

> <Gold.Chemscore.ZeroCoef>
-5.4800

> <Gold.Chemscore.Hbond>
2.8390

> <Gold.Chemscore.Metal>
0.0000

> <Gold.Chemscore.Lipo>
75.1005

> <Gold.Chemscore.Internal_Hbond>
0.0000

> <Gold.Chemscore.DEClash>
1.7747

> <Gold.Chemscore.DEInternal>
1.4518

> <Gold.Chemscore.Rot>
1.9341

> <Gold.Chemscore.Internal.Correction>
   9.000000E+99

> <Gold.Chemscore.Hbonds>
donor molecule, donor type, donor heavy atom, donor atom, acceptor molecule, acceptor atom, score
      L1  H    15    42       P1  7948  1.00
      L1  H    18    37       P1 10171  0.94
      P1  H  7954  7966       L1    18  0.70
      P1  H  7997  8009       L1     6  0.18

> <Gold.Chemscore.Hbond.Weighted>
-9.4824

> <Gold.Chemscore.Metal.Weighted>
-0.0000

> <Gold.Chemscore.Lipo.Weighted>
-8.7868

> <Gold.Chemscore.Internal_Hbond.Weighted>
0.0000

> <Gold.Chemscore.DEClash.Weighted>
1.7747

> <Gold.Chemscore.DEInternal.Weighted>
1.4518

> <Gold.Chemscore.Rot.Weighted>
4.9512

> <Gold.Chemscore.Internal.Correction.Weighted>
   9.000000E+99

> <Gold.Protein.RotatedTorsions>
[ 6907 6896 6895 6894 ] final   89.35 input  -60.11 | X-H torsion
[ 7974 7965 7964 7962 ] final -148.96 input  175.53 | X-H torsion
[ 8008 7997 7996 7995 ] final  151.79 input   59.86 | X-H torsion
[ 10167 10162 10161 10158 ] final  -36.25 input  -65.29 | X-H torsion
[ 10718 10713 10712 10709 ] final  130.77 input   66.30 | X-H torsion
[ 10763 10752 10751 10750 ] final  -98.75 input  -60.55 | X-H torsion
[ 11005 11000 10999 10996 ] final  -33.92 input  -57.11 | X-H torsion

> <Gold.Protein.ActiveResidues>
 VAL166  LYS551  ARG553  GLY616  TRP617  ASP618  TYR619  PRO620  LYS621  CYS622 
 ASP623  PHE694  ASN695  SER759  ASP760  ASP761  ALA762  ILE779  LEU786  VAL792 
 PHE793  MET794  SER795  GLU796  ALA797  LYS798  CYS799  TRP800  GLU811  SER814 

> <Gold.Protein.RotatedAtoms>
  152.5435  134.1979  159.8700 H   0  0  0  0  0  0  0  0  0  0  0  0  # atno 6907 bound_to 6896
  151.1970  133.4626  159.2603 H   0  0  0  0  0  0  0  0  0  0  0  0  # atno 6908 bound_to 6896
  151.1027  134.9993  159.8512 H   0  0  0  0  0  0  0  0  0  0  0  0  # atno 6909 bound_to 6896
  144.7997  140.5128  143.5716 H   0  0  0  0  0  0  0  0  0  0  0  0  # atno 7974 bound_to 7965
  156.2658  140.2038  156.6232 H   0  0  0  0  0  0  0  0  0  0  0  0  # atno 8008 bound_to 7997
  154.6740  140.0547  157.0220 H   0  0  0  0  0  0  0  0  0  0  0  0  # atno 8009 bound_to 7997
  155.1095  140.3214  155.4528 H   0  0  0  0  0  0  0  0  0  0  0  0  # atno 8010 bound_to 7997
  140.7147  143.3421  151.2334 H   0  0  0  0  0  0  0  0  0  0  0  0  # atno 10167 bound_to 10162
  157.5031  131.1095  150.9400 H   0  0  0  0  0  0  0  0  0  0  0  0  # atno 10718 bound_to 10713
  154.7440  135.4998  153.9172 H   0  0  0  0  0  0  0  0  0  0  0  0  # atno 10763 bound_to 10752
  153.1073  135.6700  153.9572 H   0  0  0  0  0  0  0  0  0  0  0  0  # atno 10764 bound_to 10752
  153.9341  135.3074  155.3424 H   0  0  0  0  0  0  0  0  0  0  0  0  # atno 10765 bound_to 10752
  140.9674  133.7129  156.1467 H   0  0  0  0  0  0  0  0  0  0  0  0  # atno 11005 bound_to 11000
  145.5584  139.1478  143.3355 LP  0  0  0  0  0  0  0  0  0  0  0  0  # atno 17320 bound_to 7965
  146.2275  140.5721  142.8990 LP  0  0  0  0  0  0  0  0  0  0  0  0  # atno 17321 bound_to 7965
  139.6932  143.9657  152.2869 LP  0  0  0  0  0  0  0  0  0  0  0  0  # atno 17342 bound_to 10162
  139.9326  144.6732  150.8348 LP  0  0  0  0  0  0  0  0  0  0  0  0  # atno 17343 bound_to 10162
  157.0064  130.5620  149.5316 LP  0  0  0  0  0  0  0  0  0  0  0  0  # atno 17370 bound_to 10713
  156.0241  130.5335  150.8358 LP  0  0  0  0  0  0  0  0  0  0  0  0  # atno 17371 bound_to 10713
  140.7379  134.4182  157.5558 LP  0  0  0  0  0  0  0  0  0  0  0  0  # atno 17394 bound_to 11000
  139.8899  134.8817  156.2395 LP  0  0  0  0  0  0  0  0  0  0  0  0  # atno 17395 bound_to 11000

$$$$
