AV-unprocessed.smi:278|AV-procd|sdf|2089|dock10
  -GOLD-   2262021363D 1   1.00000     0.00000
 Structure written by MMmdl.
 50 54  0  0  0  0  0  0  0  0  1 V2000
  149.2727  133.6043  158.1917 O   0  0  0  0  0  0  0  0  0  0  0  0
  149.2690  132.7746  156.9767 S   0  0  0  0  0  0  0  0  0  0  0  0
  149.5459  131.3318  157.0418 O   0  0  0  0  0  0  0  0  0  0  0  0
  147.7186  133.0676  156.0614 C   0  0  0  0  0  0  0  0  0  0  0  0
  147.9301  134.4217  155.3734 C   0  0  0  0  0  0  0  0  0  0  0  0
  149.4149  134.5640  154.9504 C   0  0  1  0  0  0  0  0  0  0  0  0
  150.0367  135.9274  155.2743 C   0  0  0  0  0  0  0  0  0  0  0  0
  151.4366  135.6541  155.5587 N   0  0  0  0  0  0  0  0  0  0  0  0
  152.1063  136.6613  156.1586 C   0  0  0  0  0  0  0  0  0  0  0  0
  153.4079  136.4350  156.4615 N   0  0  0  0  0  0  0  0  0  0  0  0
  154.1321  137.3897  157.0539 C   0  0  0  0  0  0  0  0  0  0  0  0
  153.7567  138.6170  157.4211 N   0  0  0  0  0  0  0  0  0  0  0  0
  152.4467  138.8460  157.1175 C   0  0  0  0  0  0  0  0  0  0  0  0
  151.5542  137.9319  156.4905 C   0  0  0  0  0  0  0  0  0  0  0  0
  150.3027  138.5190  156.3428 N   0  0  0  0  0  0  0  0  0  0  0  0
  150.4468  139.7108  156.8554 C   0  0  0  0  0  0  0  0  0  0  0  0
  151.7029  139.9897  157.3446 N   0  0  0  0  0  0  0  0  0  0  0  0
  152.1450  141.2273  157.9628 C   0  0  0  0  0  0  0  0  0  0  0  0
  151.0268  142.2863  158.0271 C   0  0  2  0  0  0  0  0  0  0  0  0
  151.0026  143.0110  156.8118 O   0  0  0  0  0  0  0  0  0  0  0  0
  151.2244  143.2732  159.1925 C   0  0  1  0  0  0  0  0  0  0  0  0
  152.2836  144.3452  158.9427 C   0  0  0  0  0  0  0  0  0  0  0  0
  151.9077  145.4076  159.9549 C   0  0  0  0  0  0  0  0  0  0  0  0
  150.3911  145.2483  160.0882 C   0  0  0  0  0  0  0  0  0  0  0  0
  150.0526  144.0515  159.3930 O   0  0  0  0  0  0  0  0  0  0  0  0
  151.4907  134.3729  156.2478 C   0  0  0  0  0  0  0  0  0  0  0  0
  150.3138  133.5607  155.6921 C   0  0  1  0  0  0  0  0  0  0  0  0
  149.5111  134.3728  153.8807 H   0  0  0  0  0  0  0  0  0  0  0  0
  150.6542  132.7852  155.0052 H   0  0  0  0  0  0  0  0  0  0  0  0
  147.6028  132.2715  155.3257 H   0  0  0  0  0  0  0  0  0  0  0  0
  146.8661  133.0531  156.7404 H   0  0  0  0  0  0  0  0  0  0  0  0
  147.2577  134.5476  154.5246 H   0  0  0  0  0  0  0  0  0  0  0  0
  147.6728  135.2036  156.0887 H   0  0  0  0  0  0  0  0  0  0  0  0
  149.9347  136.6206  154.4388 H   0  0  0  0  0  0  0  0  0  0  0  0
  149.5568  136.3789  156.1427 H   0  0  0  0  0  0  0  0  0  0  0  0
  155.1601  137.1333  157.2636 H   0  0  0  0  0  0  0  0  0  0  0  0
  149.6346  140.4221  156.8928 H   0  0  0  0  0  0  0  0  0  0  0  0
  152.5021  140.9921  158.9661 H   0  0  0  0  0  0  0  0  0  0  0  0
  153.0033  141.6093  157.4084 H   0  0  0  0  0  0  0  0  0  0  0  0
  150.0634  141.7870  158.1396 H   0  0  0  0  0  0  0  0  0  0  0  0
  150.1460  143.3968  156.7099 H   0  0  0  0  0  0  0  0  0  0  0  0
  151.4496  142.7379  160.1170 H   0  0  0  0  0  0  0  0  0  0  0  0
  153.3022  143.9781  159.0717 H   0  0  0  0  0  0  0  0  0  0  0  0
  152.1899  144.7447  157.9318 H   0  0  0  0  0  0  0  0  0  0  0  0
  152.3888  145.1990  160.9113 H   0  0  0  0  0  0  0  0  0  0  0  0
  152.2019  146.4092  159.6405 H   0  0  0  0  0  0  0  0  0  0  0  0
  150.0951  145.1736  161.1350 H   0  0  0  0  0  0  0  0  0  0  0  0
  149.8565  146.0881  159.6440 H   0  0  0  0  0  0  0  0  0  0  0  0
  152.4384  133.8751  156.0414 H   0  0  0  0  0  0  0  0  0  0  0  0
  151.4192  134.5005  157.3272 H   0  0  0  0  0  0  0  0  0  0  0  0
  1  2  2  0  0  0  0
  2 27  1  0  0  0  0
  2  3  2  0  0  0  0
  2  4  1  0  0  0  0
  4  5  1  0  0  0  0
  4 30  1  0  0  0  0
  4 31  1  0  0  0  0
  5  6  1  0  0  0  0
  5 32  1  0  0  0  0
  5 33  1  0  0  0  0
  6 28  1  0  0  0  0
  6 27  1  0  0  0  0
  6  7  1  0  0  0  0
  7  8  1  0  0  0  0
  7 34  1  0  0  0  0
  7 35  1  0  0  0  0
  8  9  1  0  0  0  0
  8 26  1  0  0  0  0
  9 14  1  0  0  0  0
  9 10  2  0  0  0  0
 10 11  1  0  0  0  0
 11 12  2  0  0  0  0
 11 36  1  0  0  0  0
 12 13  1  0  0  0  0
 13 17  1  0  0  0  0
 13 14  2  0  0  0  0
 14 15  1  0  0  0  0
 15 16  2  0  0  0  0
 16 17  1  0  0  0  0
 16 37  1  0  0  0  0
 17 18  1  0  0  0  0
 18 19  1  0  0  0  0
 18 38  1  0  0  0  0
 18 39  1  0  0  0  0
 19 20  1  0  0  0  0
 19 21  1  0  0  0  0
 19 40  1  0  0  0  0
 20 41  1  0  0  0  0
 21 25  1  0  0  0  0
 21 22  1  0  0  0  0
 21 42  1  0  0  0  0
 22 23  1  0  0  0  0
 22 43  1  0  0  0  0
 22 44  1  0  0  0  0
 23 24  1  0  0  0  0
 23 45  1  0  0  0  0
 23 46  1  0  0  0  0
 24 25  1  0  0  0  0
 24 47  1  0  0  0  0
 24 48  1  0  0  0  0
 26 27  1  0  0  0  0
 26 49  1  0  0  0  0
 26 50  1  0  0  0  0
 27 29  1  0  0  0  0
M  END
> <s_m_source_file>
AV-unprocessed.smi

> <i_m_source_file_index>
278

> <i_lp_mmshare_version>
43012

> <i_f3d_flags>
0

> <s_epik_input>
W0NIMl0xW0NIMl1TKD1PKSg9TylbQ0BASF0oW0NAQEhdMTIpW0NIMl1OKFtDSDJdMiljKG5bY0hdbjMpYyhjMzQpbltjSF1uNFtDSDJdW0NASF0oW09IXSlbQ0BASF01W0NIMl1bQ0gyXVtDSDJdTzU=

> <s_epik_cmdline>
J2VwaWtfcHl0aG9uJywgJy1waCcsICc3LjAnLCAnLXRuJywgJzgnLCAnLW1hJywgJzIwMCcsICctbWV0YWxfYmluZGluZycsICctaW1hZScsICc8aW5maWxlLm1hZT4nLCAnLW9tYWUnLCAnPG91dGZpbGUubWFlPic=

> <r_lp_tautomer_probability>
1

> <r_epik_Ionization_Penalty>
0.000636766

> <r_epik_Ionization_Penalty_Charging>
0

> <r_epik_Ionization_Penalty_Neutral>
0.000636766

> <r_epik_State_Penalty>
0.000329976

> <r_epik_Charging_Adjusted_Penalty>
0.000329976

> <i_epik_Tot_Q>
0

> <i_epik_Tot_abs_Q>
0

> <r_epik_Metal_State_Penalty>
-0

> <b_epik_Metal_Only>
0

> <s_lp_Force_Field>
OPLS_2005

> <r_lp_Energy>
53.1939

> <b_lp_Chiralities_Consistent>
1

> <s_lp_Variant>
AV-unprocessed.smi:278-3

> <Gold.Version>
5.8.1

> <Gold.Id.Protein>
6NUR|6NUR_protein|mol2

> <Gold.PLP.Fitness>
45.6480

> <Gold.PLP.PLP>
-34.7196

> <Gold.PLP.part.hbond>
-5.0000

> <Gold.PLP.part.metal>
0.0000

> <Gold.PLP.part.buried>
-4.1212

> <Gold.PLP.part.nonpolar>
-25.6511

> <Gold.PLP.part.repulsive>
0.2274

> <Gold.PLP.ligand.clash>
0.0000

> <Gold.PLP.ligand.torsion>
0.5547

> <Gold.PLP.Chemscore.Hbond>
3.9920

> <Gold.PLP.Chemscore.CHOScore>
0.0000

> <Gold.PLP.Chemscore.Metal>
0.0000

> <Gold.Chemscore.Hbonds>
donor molecule, donor type, donor heavy atom, donor atom, acceptor molecule, acceptor atom, score
      L1  H    20    41       P1  8028  0.80
      P1  H  6896  6908       L1     1  1.00
      P1  H  7997  8009       L1    12  0.98
      P1  H 10752 10765       L1    10  0.84

> <Gold.PLP.Chemscore.Internal.Correction>
0.0617

> <Gold.Rescore>
     Score         DG    S(hbond)    S(metal)    S(lipo)     H(rot)  DE(clash)    DE(int)     intcor
     18.15     -20.19       3.28        0.00      85.93       2.46       0.27       1.78       ----

> <Gold.Chemscore.Fitness>
18.1474

> <Gold.Chemscore.DG>
-20.1935

> <Gold.Chemscore.ZeroCoef>
-5.4800

> <Gold.Chemscore.Hbond>
3.2833

> <Gold.Chemscore.Metal>
0.0000

> <Gold.Chemscore.Lipo>
85.9330

> <Gold.Chemscore.Internal_Hbond>
0.0000

> <Gold.Chemscore.DEClash>
0.2658

> <Gold.Chemscore.DEInternal>
1.7803

> <Gold.Chemscore.Rot>
2.4636

> <Gold.Chemscore.Internal.Correction>
   9.000000E+99

> <Gold.Chemscore.Hbonds>
donor molecule, donor type, donor heavy atom, donor atom, acceptor molecule, acceptor atom, score
      L1  H    20    41       P1  8028  0.74
      P1  H  6896  6908       L1     1  1.00
      P1  H  7997  8009       L1    12  0.32
      P1  H 10752 10765       L1    10  0.15

> <Gold.Chemscore.Hbond.Weighted>
-10.9661

> <Gold.Chemscore.Metal.Weighted>
-0.0000

> <Gold.Chemscore.Lipo.Weighted>
-10.0542

> <Gold.Chemscore.Internal_Hbond.Weighted>
0.0000

> <Gold.Chemscore.DEClash.Weighted>
0.2658

> <Gold.Chemscore.DEInternal.Weighted>
1.7803

> <Gold.Chemscore.Rot.Weighted>
6.3068

> <Gold.Chemscore.Internal.Correction.Weighted>
   9.000000E+99

> <Gold.Protein.RotatedTorsions>
[ 6907 6896 6895 6894 ] final  125.22 input  -60.11 | X-H torsion
[ 7974 7965 7964 7962 ] final   -9.41 input  175.53 | X-H torsion
[ 8008 7997 7996 7995 ] final  166.96 input   59.86 | X-H torsion
[ 10167 10162 10161 10158 ] final -159.28 input  -65.29 | X-H torsion
[ 10718 10713 10712 10709 ] final   38.16 input   66.30 | X-H torsion
[ 10763 10752 10751 10750 ] final -112.48 input  -60.55 | X-H torsion
[ 11005 11000 10999 10996 ] final   90.22 input  -57.11 | X-H torsion

> <Gold.Protein.ActiveResidues>
 VAL166  LYS551  ARG553  GLY616  TRP617  ASP618  TYR619  PRO620  LYS621  CYS622 
 ASP623  PHE694  ASN695  SER759  ASP760  ASP761  ALA762  ILE779  LEU786  VAL792 
 PHE793  MET794  SER795  GLU796  ALA797  LYS798  CYS799  TRP800  GLU811  SER814 

> <Gold.Protein.RotatedAtoms>
  152.4011  133.6819  159.6316 H   0  0  0  0  0  0  0  0  0  0  0  0  # atno 6907 bound_to 6896
  150.7902  133.8789  159.3289 H   0  0  0  0  0  0  0  0  0  0  0  0  # atno 6908 bound_to 6896
  151.6555  135.0998  160.0220 H   0  0  0  0  0  0  0  0  0  0  0  0  # atno 6909 bound_to 6896
  146.2252  140.2612  142.8352 H   0  0  0  0  0  0  0  0  0  0  0  0  # atno 7974 bound_to 7965
  156.1675  140.1629  156.8506 H   0  0  0  0  0  0  0  0  0  0  0  0  # atno 8008 bound_to 7997
  154.5222  140.0775  156.8228 H   0  0  0  0  0  0  0  0  0  0  0  0  # atno 8009 bound_to 7997
  155.3582  140.3394  155.4242 H   0  0  0  0  0  0  0  0  0  0  0  0  # atno 8010 bound_to 7997
  139.6627  143.9883  152.2236 H   0  0  0  0  0  0  0  0  0  0  0  0  # atno 10167 bound_to 10162
  157.3555  130.7621  149.7009 H   0  0  0  0  0  0  0  0  0  0  0  0  # atno 10718 bound_to 10713
  154.8351  135.4489  154.1200 H   0  0  0  0  0  0  0  0  0  0  0  0  # atno 10763 bound_to 10752
  153.2439  135.6919  153.7759 H   0  0  0  0  0  0  0  0  0  0  0  0  # atno 10764 bound_to 10752
  153.7097  135.3358  155.3219 H   0  0  0  0  0  0  0  0  0  0  0  0  # atno 10765 bound_to 10752
  139.8860  134.8600  156.3254 H   0  0  0  0  0  0  0  0  0  0  0  0  # atno 11005 bound_to 11000
  144.9338  140.8004  143.5673 LP  0  0  0  0  0  0  0  0  0  0  0  0  # atno 17320 bound_to 7965
  145.2558  139.2013  143.4918 LP  0  0  0  0  0  0  0  0  0  0  0  0  # atno 17321 bound_to 7965
  139.9627  144.6547  150.8064 LP  0  0  0  0  0  0  0  0  0  0  0  0  # atno 17342 bound_to 10162
  140.7587  143.3112  151.2840 LP  0  0  0  0  0  0  0  0  0  0  0  0  # atno 17343 bound_to 10162
  155.9728  130.4128  150.4053 LP  0  0  0  0  0  0  0  0  0  0  0  0  # atno 17370 bound_to 10713
  157.2122  131.0463  151.2593 LP  0  0  0  0  0  0  0  0  0  0  0  0  # atno 17371 bound_to 10713
  140.9758  133.7298  156.0601 LP  0  0  0  0  0  0  0  0  0  0  0  0  # atno 17394 bound_to 11000
  140.7812  134.3723  157.5487 LP  0  0  0  0  0  0  0  0  0  0  0  0  # atno 17395 bound_to 11000

$$$$
