AV-unprocessed.smi:102|AV-procd|sdf|951|dock3
  -GOLD-   2262017483D 1   1.00000     0.00000
 Structure written by MMmdl.
 44 45  0  0  0  0  0  0  0  0  1 V2000
  143.9338  132.3674  150.7359 C   0  0  0  0  0  0  0  0  0  0  0  0
  145.1177  133.1524  151.2856 C   0  0  0  0  0  0  0  0  0  0  0  0
  145.9133  132.6427  152.0751 O   0  0  0  0  0  0  0  0  0  0  0  0
  145.1667  134.4099  150.8087 O   0  0  0  0  0  0  0  0  0  0  0  0
  146.2295  135.2783  151.1763 C   0  0  0  0  0  0  0  0  0  0  0  0
  145.7262  136.7168  151.3708 C   0  0  2  0  0  0  0  0  0  0  0  0
  146.8207  137.6209  151.4026 O   0  0  0  0  0  0  0  0  0  0  0  0
  146.4788  138.7583  152.1325 C   0  0  2  0  0  0  0  0  0  0  0  0
  147.7192  139.2288  152.8672 N   0  0  0  0  0  0  0  0  0  0  0  0
  148.3939  138.3652  153.7188 C   0  0  0  0  0  0  0  0  0  0  0  0
  149.4824  138.7344  154.4343 C   0  0  0  0  0  0  0  0  0  0  0  0
  150.0871  137.8379  155.2323 F   0  0  0  0  0  0  0  0  0  0  0  0
  150.0025  140.0959  154.3502 C   0  0  0  0  0  0  0  0  0  0  0  0
  150.9844  140.5224  154.9548 O   0  0  0  0  0  0  0  0  0  0  0  0
  149.2804  140.9375  153.4997 N   0  0  0  0  0  0  0  0  0  0  0  0
  148.1550  140.5714  152.7597 C   0  0  0  0  0  0  0  0  0  0  0  0
  147.5907  141.4040  152.0515 O   0  0  0  0  0  0  0  0  0  0  0  0
  145.2702  138.4132  153.0355 C   0  0  2  0  0  0  0  0  0  0  0  0
  145.5293  138.6428  154.4166 O   0  0  0  0  0  0  0  0  0  0  0  0
  145.7011  139.8911  154.8784 C   0  0  0  0  0  0  0  0  0  0  0  0
  145.9653  139.9203  156.3775 C   0  0  0  0  0  0  0  0  0  0  0  0
  145.6582  140.9246  154.2114 O   0  0  0  0  0  0  0  0  0  0  0  0
  145.0532  136.9299  152.7344 C   0  0  1  0  0  0  0  0  0  0  0  0
  143.6946  136.4851  152.8139 O   0  0  0  0  0  0  0  0  0  0  0  0
  142.6808  137.0324  152.1043 C   0  0  0  0  0  0  0  0  0  0  0  0
  141.4089  136.1983  152.1804 C   0  0  0  0  0  0  0  0  0  0  0  0
  142.7187  138.0764  151.4537 O   0  0  0  0  0  0  0  0  0  0  0  0
  149.5961  141.8932  153.4185 H   0  0  0  0  0  0  0  0  0  0  0  0
  144.2163  131.8561  149.8156 H   0  0  0  0  0  0  0  0  0  0  0  0
  143.0972  133.0324  150.5205 H   0  0  0  0  0  0  0  0  0  0  0  0
  143.6029  131.6217  151.4592 H   0  0  0  0  0  0  0  0  0  0  0  0
  146.6273  134.9105  152.1223 H   0  0  0  0  0  0  0  0  0  0  0  0
  147.0520  135.2405  150.4601 H   0  0  0  0  0  0  0  0  0  0  0  0
  145.0707  137.0087  150.5508 H   0  0  0  0  0  0  0  0  0  0  0  0
  146.2283  139.5507  151.4262 H   0  0  0  0  0  0  0  0  0  0  0  0
  148.0497  137.3459  153.8196 H   0  0  0  0  0  0  0  0  0  0  0  0
  144.4409  139.0315  152.6923 H   0  0  0  0  0  0  0  0  0  0  0  0
  146.8280  139.3004  156.6222 H   0  0  0  0  0  0  0  0  0  0  0  0
  145.1000  139.5405  156.9210 H   0  0  0  0  0  0  0  0  0  0  0  0
  146.1651  140.9383  156.7121 H   0  0  0  0  0  0  0  0  0  0  0  0
  145.6174  136.3565  153.4707 H   0  0  0  0  0  0  0  0  0  0  0  0
  141.3624  135.6521  153.1227 H   0  0  0  0  0  0  0  0  0  0  0  0
  141.3798  135.4801  151.3608 H   0  0  0  0  0  0  0  0  0  0  0  0
  140.5295  136.8389  152.1109 H   0  0  0  0  0  0  0  0  0  0  0  0
  1  2  1  0  0  0  0
  1 29  1  0  0  0  0
  1 30  1  0  0  0  0
  1 31  1  0  0  0  0
  2  3  2  0  0  0  0
  2  4  1  0  0  0  0
  4  5  1  0  0  0  0
  5  6  1  0  0  0  0
  5 32  1  0  0  0  0
  5 33  1  0  0  0  0
  6 23  1  0  0  0  0
  6  7  1  0  0  0  0
  6 34  1  0  0  0  0
  7  8  1  0  0  0  0
  8  9  1  0  0  0  0
  8 18  1  0  0  0  0
  8 35  1  0  0  0  0
  9 16  1  0  0  0  0
  9 10  1  0  0  0  0
 10 11  2  0  0  0  0
 10 36  1  0  0  0  0
 11 12  1  0  0  0  0
 11 13  1  0  0  0  0
 13 14  2  0  0  0  0
 13 15  1  0  0  0  0
 15 28  1  0  0  0  0
 15 16  1  0  0  0  0
 16 17  2  0  0  0  0
 18 19  1  0  0  0  0
 18 23  1  0  0  0  0
 18 37  1  0  0  0  0
 19 20  1  0  0  0  0
 20 21  1  0  0  0  0
 20 22  2  0  0  0  0
 21 38  1  0  0  0  0
 21 39  1  0  0  0  0
 21 40  1  0  0  0  0
 23 24  1  0  0  0  0
 23 41  1  0  0  0  0
 24 25  1  0  0  0  0
 25 26  1  0  0  0  0
 25 27  2  0  0  0  0
 26 42  1  0  0  0  0
 26 43  1  0  0  0  0
 26 44  1  0  0  0  0
M  END
> <s_m_source_file>
AV-unprocessed.smi

> <i_m_source_file_index>
102

> <i_lp_mmshare_version>
43012

> <i_f3d_flags>
0

> <s_epik_input>
W0NIM11DKD1PKU9bQ0gyXVtDQEBIXTFPW0NASF0oW0NAQEhdKE9DKD1PKVtDSDNdKVtDQEhdMU9DKD1PKVtDSDNdKW4yW2NIXWMoRiljKD1PKVtuSF1jMj1P

> <s_epik_cmdline>
J2VwaWtfcHl0aG9uJywgJy1waCcsICc3LjAnLCAnLXRuJywgJzgnLCAnLW1hJywgJzIwMCcsICctbWV0YWxfYmluZGluZycsICctaW1hZScsICc8aW5maWxlLm1hZT4nLCAnLW9tYWUnLCAnPG91dGZpbGUubWFlPic=

> <r_lp_tautomer_probability>
0.999537

> <r_epik_Ionization_Penalty>
0.058267

> <r_epik_Ionization_Penalty_Charging>
0.058267

> <r_epik_Ionization_Penalty_Neutral>
6.57791e-16

> <r_epik_State_Penalty>
0.0503774

> <r_epik_Charging_Adjusted_Penalty>
0.108644

> <i_epik_Tot_Q>
0

> <i_epik_Tot_abs_Q>
0

> <r_epik_Metal_State_Penalty>
2.6644

> <b_epik_Metal_Only>
0

> <s_epik_Chemistry_Notes>
This compound has an ester and may undergo hydrolysis at high or low pH. This compound contains an acetal/aminal-like group ( X-CH(R)-Y where X, Y are N, S, or O) that may be acid/base labile, releasing an aldehyde.

> <s_lp_Force_Field>
OPLS_2005

> <r_lp_Energy>
7.12504

> <b_lp_Chiralities_Consistent>
1

> <s_lp_Variant>
AV-unprocessed.smi:102-7

> <Gold.Version>
5.8.1

> <Gold.Id.Protein>
6NUR|6NUR_protein|mol2

> <Gold.PLP.Fitness>
33.0863

> <Gold.PLP.PLP>
-28.4690

> <Gold.PLP.part.hbond>
-1.0000

> <Gold.PLP.part.metal>
0.0000

> <Gold.PLP.part.buried>
-1.0730

> <Gold.PLP.part.nonpolar>
-27.5560

> <Gold.PLP.part.repulsive>
1.4786

> <Gold.PLP.ligand.clash>
0.0000

> <Gold.PLP.ligand.torsion>
0.6381

> <Gold.PLP.Chemscore.Hbond>
1.0000

> <Gold.PLP.Chemscore.CHOScore>
0.8787

> <Gold.PLP.Chemscore.Metal>
0.0000

> <Gold.Chemscore.Hbonds>
donor molecule, donor type, donor heavy atom, donor atom, acceptor molecule, acceptor atom, score
      P1  H  7954  7966       L1     7  0.99
      P1  H  7989  7998       L1    14  0.40
      L1  C    10    36       P1  7948  0.47

> <Gold.PLP.Chemscore.Internal.Correction>
0.2573

> <Gold.Rescore>
     Score         DG    S(hbond)    S(metal)    S(lipo)     H(rot)  DE(clash)    DE(int)     intcor
     -1.99      -1.46       0.34        0.00      44.45       4.05       1.60       1.85       ----

> <Gold.Chemscore.Fitness>
-1.9911

> <Gold.Chemscore.DG>
-1.4562

> <Gold.Chemscore.ZeroCoef>
-5.4800

> <Gold.Chemscore.Hbond>
0.3440

> <Gold.Chemscore.Metal>
0.0000

> <Gold.Chemscore.Lipo>
44.4479

> <Gold.Chemscore.Internal_Hbond>
0.0000

> <Gold.Chemscore.DEClash>
1.5965

> <Gold.Chemscore.DEInternal>
1.8509

> <Gold.Chemscore.Rot>
4.0520

> <Gold.Chemscore.Internal.Correction>
   9.000000E+99

> <Gold.Chemscore.Hbonds>
donor molecule, donor type, donor heavy atom, donor atom, acceptor molecule, acceptor atom, score
      P1  H  7954  7966       L1     7  0.87
      P1  H  7989  7998       L1    14  0.01

> <Gold.Chemscore.Hbond.Weighted>
-1.1490

> <Gold.Chemscore.Metal.Weighted>
-0.0000

> <Gold.Chemscore.Lipo.Weighted>
-5.2004

> <Gold.Chemscore.Internal_Hbond.Weighted>
0.0000

> <Gold.Chemscore.DEClash.Weighted>
1.5965

> <Gold.Chemscore.DEInternal.Weighted>
1.8509

> <Gold.Chemscore.Rot.Weighted>
10.3732

> <Gold.Chemscore.Internal.Correction.Weighted>
   9.000000E+99

> <Gold.Protein.RotatedTorsions>
[ 6907 6896 6895 6894 ] final  -82.33 input  -60.11 | X-H torsion
[ 7974 7965 7964 7962 ] final  145.30 input  175.53 | X-H torsion
[ 8008 7997 7996 7995 ] final -148.07 input   59.86 | X-H torsion
[ 10167 10162 10161 10158 ] final  -90.34 input  -65.29 | X-H torsion
[ 10718 10713 10712 10709 ] final -168.42 input   66.30 | X-H torsion
[ 10763 10752 10751 10750 ] final   38.29 input  -60.55 | X-H torsion
[ 11005 11000 10999 10996 ] final  107.35 input  -57.11 | X-H torsion

> <Gold.Protein.ActiveResidues>
 VAL166  LYS551  ARG553  GLY616  TRP617  ASP618  TYR619  PRO620  LYS621  CYS622 
 ASP623  PHE694  ASN695  SER759  ASP760  ASP761  ALA762  ILE779  LEU786  VAL792 
 PHE793  MET794  SER795  GLU796  ALA797  LYS798  CYS799  TRP800  GLU811  SER814 

> <Gold.Protein.RotatedAtoms>
  150.6899  134.3682  159.4980 H   0  0  0  0  0  0  0  0  0  0  0  0  # atno 6907 bound_to 6896
  152.1501  134.8992  160.0558 H   0  0  0  0  0  0  0  0  0  0  0  0  # atno 6908 bound_to 6896
  152.0093  133.3820  159.4250 H   0  0  0  0  0  0  0  0  0  0  0  0  # atno 6909 bound_to 6896
  144.8764  139.5766  143.5863 H   0  0  0  0  0  0  0  0  0  0  0  0  # atno 7974 bound_to 7965
  155.5858  140.0648  157.2771 H   0  0  0  0  0  0  0  0  0  0  0  0  # atno 8008 bound_to 7997
  154.4319  140.1844  156.1070 H   0  0  0  0  0  0  0  0  0  0  0  0  # atno 8009 bound_to 7997
  156.0270  140.3310  155.7103 H   0  0  0  0  0  0  0  0  0  0  0  0  # atno 8010 bound_to 7997
  140.3558  143.2867  151.9672 H   0  0  0  0  0  0  0  0  0  0  0  0  # atno 10167 bound_to 10162
  156.6967  130.9180  151.3075 H   0  0  0  0  0  0  0  0  0  0  0  0  # atno 10718 bound_to 10713
  153.0006  135.6253  154.2281 H   0  0  0  0  0  0  0  0  0  0  0  0  # atno 10763 bound_to 10752
  154.2024  135.2803  155.2988 H   0  0  0  0  0  0  0  0  0  0  0  0  # atno 10764 bound_to 10752
  154.5673  135.5687  153.7121 H   0  0  0  0  0  0  0  0  0  0  0  0  # atno 10765 bound_to 10752
  139.8827  134.9398  156.5806 H   0  0  0  0  0  0  0  0  0  0  0  0  # atno 11005 bound_to 11000
  146.2965  139.7295  142.9122 LP  0  0  0  0  0  0  0  0  0  0  0  0  # atno 17320 bound_to 7965
  145.4034  141.0388  143.3057 LP  0  0  0  0  0  0  0  0  0  0  0  0  # atno 17321 bound_to 7965
  139.4820  144.6036  151.7562 LP  0  0  0  0  0  0  0  0  0  0  0  0  # atno 17342 bound_to 10162
  140.5175  144.0931  150.6012 LP  0  0  0  0  0  0  0  0  0  0  0  0  # atno 17343 bound_to 10162
  157.6989  130.9311  150.0725 LP  0  0  0  0  0  0  0  0  0  0  0  0  # atno 17370 bound_to 10713
  156.1758  130.3648  149.9102 LP  0  0  0  0  0  0  0  0  0  0  0  0  # atno 17371 bound_to 10713
  140.8029  133.8490  155.8743 LP  0  0  0  0  0  0  0  0  0  0  0  0  # atno 17394 bound_to 11000
  140.9576  134.1698  157.4679 LP  0  0  0  0  0  0  0  0  0  0  0  0  # atno 17395 bound_to 11000

$$$$
