AV-unprocessed.smi:1328|AV-procd|sdf|5479|dock6
  -GOLD-   22720 5 53D 1   1.00000     0.00000
 Structure written by MMmdl.
 38 39  0  0  0  0  0  0  0  0  1 V2000
  153.1262  142.0443  162.5966 C   0  0  0  0  0  0  0  0  0  0  0  0
  152.6494  143.0169  161.5563 C   0  0  0  0  0  0  0  0  0  0  0  0
  152.1849  144.1960  161.9338 N   0  0  0  0  0  0  0  0  0  0  0  0
  151.8239  144.8602  160.7577 O   0  0  0  0  0  0  0  0  0  0  0  0
  152.0912  144.0461  159.7053 C   0  0  0  0  0  0  0  0  0  0  0  0
  151.7636  144.5776  158.3509 C   0  0  0  0  0  0  0  0  0  0  0  0
  152.6181  142.8608  160.1403 C   0  0  0  0  0  0  0  0  0  0  0  0
  153.0549  141.6705  159.3257 C   0  0  0  0  0  0  0  0  0  0  0  0
  151.8462  141.0767  158.6036 C   0  0  0  0  0  0  0  0  0  0  0  0
  151.1654  140.2119  159.1543 O   0  0  0  0  0  0  0  0  0  0  0  0
  151.6016  141.5458  157.3698 N   0  0  0  0  0  0  0  0  0  0  0  0
  150.5468  141.0882  156.4676 C   0  0  2  0  0  0  0  0  0  0  0  0
  149.1978  141.2233  157.1891 C   0  0  0  0  0  0  0  0  0  0  0  0
  150.8108  139.6382  156.0106 C   0  0  2  0  0  0  0  0  0  0  0  0
  152.1544  139.4123  155.3133 C   0  0  0  0  0  0  0  0  0  0  0  0
  151.8690  138.1771  154.4912 C   0  0  0  0  0  0  0  0  0  0  0  0
  150.4387  138.4380  154.0310 C   0  0  0  0  0  0  0  0  0  0  0  0
  149.8368  139.2307  155.0511 O   0  0  0  0  0  0  0  0  0  0  0  0
  154.2032  142.1276  162.7412 H   0  0  0  0  0  0  0  0  0  0  0  0
  152.9083  141.0169  162.3055 H   0  0  0  0  0  0  0  0  0  0  0  0
  152.6454  142.2199  163.5596 H   0  0  0  0  0  0  0  0  0  0  0  0
  150.7083  144.4261  158.1240 H   0  0  0  0  0  0  0  0  0  0  0  0
  152.3494  144.0749  157.5813 H   0  0  0  0  0  0  0  0  0  0  0  0
  151.9741  145.6454  158.2901 H   0  0  0  0  0  0  0  0  0  0  0  0
  153.8078  141.9495  158.5877 H   0  0  0  0  0  0  0  0  0  0  0  0
  153.5163  140.9038  159.9493 H   0  0  0  0  0  0  0  0  0  0  0  0
  152.2191  142.2595  157.0116 H   0  0  0  0  0  0  0  0  0  0  0  0
  150.5127  141.7286  155.5844 H   0  0  0  0  0  0  0  0  0  0  0  0
  148.3718  140.9300  156.5405 H   0  0  0  0  0  0  0  0  0  0  0  0
  149.0201  142.2537  157.4987 H   0  0  0  0  0  0  0  0  0  0  0  0
  149.1591  140.5960  158.0806 H   0  0  0  0  0  0  0  0  0  0  0  0
  150.7377  138.9584  156.8613 H   0  0  0  0  0  0  0  0  0  0  0  0
  152.3928  140.2489  154.6547 H   0  0  0  0  0  0  0  0  0  0  0  0
  152.9813  139.2791  156.0114 H   0  0  0  0  0  0  0  0  0  0  0  0
  152.5654  138.0387  153.6638 H   0  0  0  0  0  0  0  0  0  0  0  0
  151.9060  137.2892  155.1237 H   0  0  0  0  0  0  0  0  0  0  0  0
  150.4365  139.0108  153.1030 H   0  0  0  0  0  0  0  0  0  0  0  0
  149.8822  137.5160  153.8614 H   0  0  0  0  0  0  0  0  0  0  0  0
  1  2  1  0  0  0  0
  1 19  1  0  0  0  0
  1 20  1  0  0  0  0
  1 21  1  0  0  0  0
  2  7  1  0  0  0  0
  2  3  2  0  0  0  0
  3  4  1  0  0  0  0
  4  5  1  0  0  0  0
  5  6  1  0  0  0  0
  5  7  2  0  0  0  0
  6 22  1  0  0  0  0
  6 23  1  0  0  0  0
  6 24  1  0  0  0  0
  7  8  1  0  0  0  0
  8  9  1  0  0  0  0
  8 25  1  0  0  0  0
  8 26  1  0  0  0  0
  9 10  2  0  0  0  0
  9 11  1  0  0  0  0
 11 12  1  0  0  0  0
 11 27  1  0  0  0  0
 12 13  1  0  0  0  0
 12 14  1  0  0  0  0
 12 28  1  0  0  0  0
 13 29  1  0  0  0  0
 13 30  1  0  0  0  0
 13 31  1  0  0  0  0
 14 18  1  0  0  0  0
 14 15  1  0  0  0  0
 14 32  1  0  0  0  0
 15 16  1  0  0  0  0
 15 33  1  0  0  0  0
 15 34  1  0  0  0  0
 16 17  1  0  0  0  0
 16 35  1  0  0  0  0
 16 36  1  0  0  0  0
 17 18  1  0  0  0  0
 17 37  1  0  0  0  0
 17 38  1  0  0  0  0
M  END
> <s_m_source_file>
AV-unprocessed.smi

> <i_m_source_file_index>
1328

> <i_lp_mmshare_version>
43012

> <i_f3d_flags>
0

> <s_epik_input>
W0NIM11jMW5vYyhbQ0gzXSljMVtDSDJdQyg9TylbTkhdW0NASF0oW0NIM10pW0NAQEhdMltDSDJdW0NIMl1bQ0gyXU8y

> <s_epik_cmdline>
J2VwaWtfcHl0aG9uJywgJy1waCcsICc3LjAnLCAnLXRuJywgJzgnLCAnLW1hJywgJzIwMCcsICctbWV0YWxfYmluZGluZycsICctaW1hZScsICc8aW5maWxlLm1hZT4nLCAnLW9tYWUnLCAnPG91dGZpbGUubWFlPic=

> <r_lp_tautomer_probability>
1

> <r_epik_Ionization_Penalty>
2.66156e-08

> <r_epik_Ionization_Penalty_Charging>
0

> <r_epik_Ionization_Penalty_Neutral>
2.66156e-08

> <r_epik_State_Penalty>
-0

> <r_epik_Charging_Adjusted_Penalty>
0

> <i_epik_Tot_Q>
0

> <i_epik_Tot_abs_Q>
0

> <r_epik_Metal_State_Penalty>
-0

> <b_epik_Metal_Only>
0

> <s_lp_Force_Field>
OPLS_2005

> <r_lp_Energy>
12.1854

> <b_lp_Chiralities_Consistent>
1

> <s_lp_Variant>
AV-unprocessed.smi:1328-1

> <Gold.Version>
5.8.1

> <Gold.Id.Protein>
6NUR|6NUR_protein|mol2

> <Gold.PLP.Fitness>
40.5482

> <Gold.PLP.PLP>
-41.3951

> <Gold.PLP.part.hbond>
0.0000

> <Gold.PLP.part.metal>
0.0000

> <Gold.PLP.part.buried>
-4.2020

> <Gold.PLP.part.nonpolar>
-37.5657

> <Gold.PLP.part.repulsive>
1.0520

> <Gold.PLP.ligand.clash>
0.0000

> <Gold.PLP.ligand.torsion>
0.4314

> <Gold.PLP.Chemscore.Hbond>
0.0000

> <Gold.PLP.Chemscore.CHOScore>
0.0000

> <Gold.PLP.Chemscore.Metal>
0.0000

> <Gold.PLP.Chemscore.Internal.Correction>
0.0157

> <Gold.Rescore>
     Score         DG    S(hbond)    S(metal)    S(lipo)     H(rot)  DE(clash)    DE(int)     intcor
     13.43     -14.78       0.00        0.00     112.70       1.52       0.29       1.07       ----

> <Gold.Chemscore.Fitness>
13.4336

> <Gold.Chemscore.DG>
-14.7849

> <Gold.Chemscore.ZeroCoef>
-5.4800

> <Gold.Chemscore.Hbond>
0.0000

> <Gold.Chemscore.Metal>
0.0000

> <Gold.Chemscore.Lipo>
112.6978

> <Gold.Chemscore.Internal_Hbond>
0.0000

> <Gold.Chemscore.DEClash>
0.2858

> <Gold.Chemscore.DEInternal>
1.0655

> <Gold.Chemscore.Rot>
1.5159

> <Gold.Chemscore.Internal.Correction>
   9.000000E+99

> <Gold.Chemscore.Hbond.Weighted>
-0.0000

> <Gold.Chemscore.Metal.Weighted>
-0.0000

> <Gold.Chemscore.Lipo.Weighted>
-13.1856

> <Gold.Chemscore.Internal_Hbond.Weighted>
0.0000

> <Gold.Chemscore.DEClash.Weighted>
0.2858

> <Gold.Chemscore.DEInternal.Weighted>
1.0655

> <Gold.Chemscore.Rot.Weighted>
3.8807

> <Gold.Chemscore.Internal.Correction.Weighted>
   9.000000E+99

> <Gold.Protein.RotatedTorsions>
[ 6907 6896 6895 6894 ] final  -85.05 input  -60.11 | X-H torsion
[ 7974 7965 7964 7962 ] final   90.61 input  175.53 | X-H torsion
[ 8008 7997 7996 7995 ] final  -95.95 input   59.86 | X-H torsion
[ 10167 10162 10161 10158 ] final  -32.04 input  -65.29 | X-H torsion
[ 10718 10713 10712 10709 ] final   -1.16 input   66.30 | X-H torsion
[ 10763 10752 10751 10750 ] final  -56.67 input  -60.55 | X-H torsion
[ 11005 11000 10999 10996 ] final -100.88 input  -57.11 | X-H torsion

> <Gold.Protein.ActiveResidues>
 VAL166  LYS551  ARG553  GLY616  TRP617  ASP618  TYR619  PRO620  LYS621  CYS622 
 ASP623  PHE694  ASN695  SER759  ASP760  ASP761  ALA762  ILE779  LEU786  VAL792 
 PHE793  MET794  SER795  GLU796  ALA797  LYS798  CYS799  TRP800  GLU811  SER814 

> <Gold.Protein.RotatedAtoms>
  150.6872  134.3264  159.4808 H   0  0  0  0  0  0  0  0  0  0  0  0  # atno 6907 bound_to 6896
  152.1133  134.9256  160.0575 H   0  0  0  0  0  0  0  0  0  0  0  0  # atno 6908 bound_to 6896
  152.0490  133.3976  159.4406 H   0  0  0  0  0  0  0  0  0  0  0  0  # atno 6909 bound_to 6896
  145.5168  139.2278  143.2694 H   0  0  0  0  0  0  0  0  0  0  0  0  # atno 7974 bound_to 7965
  154.7680  140.0475  157.1028 H   0  0  0  0  0  0  0  0  0  0  0  0  # atno 8008 bound_to 7997
  154.9855  140.3106  155.4909 H   0  0  0  0  0  0  0  0  0  0  0  0  # atno 8009 bound_to 7997
  156.2916  140.2228  156.4956 H   0  0  0  0  0  0  0  0  0  0  0  0  # atno 8010 bound_to 7997
  140.7227  143.3725  151.1752 H   0  0  0  0  0  0  0  0  0  0  0  0  # atno 10167 bound_to 10162
  156.8098  130.5420  149.5710 H   0  0  0  0  0  0  0  0  0  0  0  0  # atno 10718 bound_to 10713
  154.2103  135.6395  153.5113 H   0  0  0  0  0  0  0  0  0  0  0  0  # atno 10763 bound_to 10752
  152.9991  135.5472  154.6222 H   0  0  0  0  0  0  0  0  0  0  0  0  # atno 10764 bound_to 10752
  154.5657  135.2912  155.0849 H   0  0  0  0  0  0  0  0  0  0  0  0  # atno 10765 bound_to 10752
  141.1253  133.8434  157.1160 H   0  0  0  0  0  0  0  0  0  0  0  0  # atno 11005 bound_to 11000
  146.2132  140.5977  142.9050 LP  0  0  0  0  0  0  0  0  0  0  0  0  # atno 17320 bound_to 7965
  144.7698  140.5611  143.6678 LP  0  0  0  0  0  0  0  0  0  0  0  0  # atno 17321 bound_to 7965
  139.7298  143.9090  152.3015 LP  0  0  0  0  0  0  0  0  0  0  0  0  # atno 17342 bound_to 10162
  139.8875  144.6984  150.8808 LP  0  0  0  0  0  0  0  0  0  0  0  0  # atno 17343 bound_to 10162
  156.1051  130.5998  150.9958 LP  0  0  0  0  0  0  0  0  0  0  0  0  # atno 17370 bound_to 10713
  157.6512  131.0896  150.8047 LP  0  0  0  0  0  0  0  0  0  0  0  0  # atno 17371 bound_to 10713
  140.0246  134.9930  157.0660 LP  0  0  0  0  0  0  0  0  0  0  0  0  # atno 17394 bound_to 11000
  140.4383  134.1707  155.7172 LP  0  0  0  0  0  0  0  0  0  0  0  0  # atno 17395 bound_to 11000

$$$$
