AV-unprocessed.smi:1049|AV-procd|sdf|4610|dock2
  -GOLD-   22720 3103D 1   1.00000     0.00000
 Structure written by MMmdl.
 41 42  0  0  0  0  0  0  0  0  2 V2000
  146.5341  138.3494  151.7185 C   0  0  0  0  0  0  0  0  0  0  0  0
  146.9790  138.7086  153.1428 C   0  0  2  0  0  0  0  0  0  0  0  0
  145.9988  138.1528  154.1993 C   0  0  0  0  0  0  0  0  0  0  0  0
  146.3568  138.6170  155.6239 C   0  0  0  0  0  0  0  0  0  0  0  0
  146.5553  140.1425  155.6706 C   0  0  0  0  0  0  0  0  0  0  0  0
  147.5911  140.5115  154.6903 N   0  0  0  0  0  0  0  0  0  0  0  0
  148.8789  140.8348  154.9709 C   0  0  0  0  0  0  0  0  0  0  0  0
  149.7503  140.9534  154.1087 O   0  0  0  0  0  0  0  0  0  0  0  0
  149.1389  141.0237  156.2754 N   0  0  0  0  0  0  0  0  0  0  0  0
  150.4484  141.3302  156.8427 C   0  0  0  0  0  0  0  0  0  0  0  0
  150.3838  141.7922  158.3144 C   0  0  0  0  0  0  0  0  0  0  0  0
  151.1701  143.0344  158.6185 C   0  0  0  0  0  0  0  0  0  0  0  0
  151.0176  144.2093  157.9950 N   0  3  0  0  0  0  0  0  0  0  0  0
  151.8929  145.1338  158.4936 C   0  0  0  0  0  0  0  0  0  0  0  0
  152.6124  144.4963  159.4697 C   0  0  0  0  0  0  0  0  0  0  0  0
  152.1487  143.2062  159.5250 N   0  0  0  0  0  0  0  0  0  0  0  0
  152.6189  142.1616  160.4410 C   0  0  0  0  0  0  0  0  0  0  0  0
  153.8494  141.7724  160.1081 F   0  0  0  0  0  0  0  0  0  0  0  0
  152.5921  142.5930  161.7009 F   0  0  0  0  0  0  0  0  0  0  0  0
  147.1444  140.2334  153.3192 C   0  0  0  0  0  0  0  0  0  0  0  0
  145.5648  138.7901  151.4829 H   0  0  0  0  0  0  0  0  0  0  0  0
  146.4482  137.2696  151.5941 H   0  0  0  0  0  0  0  0  0  0  0  0
  147.2511  138.7105  150.9804 H   0  0  0  0  0  0  0  0  0  0  0  0
  147.9525  138.2444  153.3096 H   0  0  0  0  0  0  0  0  0  0  0  0
  144.9880  138.4893  153.9638 H   0  0  0  0  0  0  0  0  0  0  0  0
  145.9762  137.0633  154.1580 H   0  0  0  0  0  0  0  0  0  0  0  0
  145.5733  138.3181  156.3208 H   0  0  0  0  0  0  0  0  0  0  0  0
  147.2696  138.1197  155.9530 H   0  0  0  0  0  0  0  0  0  0  0  0
  145.6224  140.6458  155.4122 H   0  0  0  0  0  0  0  0  0  0  0  0
  146.7764  140.4566  156.6905 H   0  0  0  0  0  0  0  0  0  0  0  0
  148.3713  140.9321  156.9252 H   0  0  0  0  0  0  0  0  0  0  0  0
  151.1135  140.4711  156.7434 H   0  0  0  0  0  0  0  0  0  0  0  0
  150.8807  142.1197  156.2291 H   0  0  0  0  0  0  0  0  0  0  0  0
  149.3523  142.0073  158.5963 H   0  0  0  0  0  0  0  0  0  0  0  0
  150.7296  141.0037  158.9819 H   0  0  0  0  0  0  0  0  0  0  0  0
  151.9351  146.1493  158.1274 H   0  0  0  0  0  0  0  0  0  0  0  0
  153.4000  144.8577  160.1148 H   0  0  0  0  0  0  0  0  0  0  0  0
  151.9617  141.2942  160.3712 H   0  0  0  0  0  0  0  0  0  0  0  0
  147.8328  140.6287  152.5705 H   0  0  0  0  0  0  0  0  0  0  0  0
  146.1953  140.7407  153.1385 H   0  0  0  0  0  0  0  0  0  0  0  0
  150.3474  144.3841  157.2565 H   0  0  0  0  0  0  0  0  0  0  0  0
  1  2  1  0  0  0  0
  1 21  1  0  0  0  0
  1 22  1  0  0  0  0
  1 23  1  0  0  0  0
  2 20  1  0  0  0  0
  2  3  1  0  0  0  0
  2 24  1  0  0  0  0
  3  4  1  0  0  0  0
  3 25  1  0  0  0  0
  3 26  1  0  0  0  0
  4  5  1  0  0  0  0
  4 27  1  0  0  0  0
  4 28  1  0  0  0  0
  5  6  1  0  0  0  0
  5 29  1  0  0  0  0
  5 30  1  0  0  0  0
  6  7  1  0  0  0  0
  6 20  1  0  0  0  0
  7  8  2  0  0  0  0
  7  9  1  0  0  0  0
  9 10  1  0  0  0  0
  9 31  1  0  0  0  0
 10 11  1  0  0  0  0
 10 32  1  0  0  0  0
 10 33  1  0  0  0  0
 11 12  1  0  0  0  0
 11 34  1  0  0  0  0
 11 35  1  0  0  0  0
 12 16  1  0  0  0  0
 12 13  2  0  0  0  0
 13 14  1  0  0  0  0
 13 41  1  0  0  0  0
 14 15  2  0  0  0  0
 14 36  1  0  0  0  0
 15 16  1  0  0  0  0
 15 37  1  0  0  0  0
 16 17  1  0  0  0  0
 17 18  1  0  0  0  0
 17 19  1  0  0  0  0
 17 38  1  0  0  0  0
 20 39  1  0  0  0  0
 20 40  1  0  0  0  0
M  CHG  1  13   1
M  END
> <s_m_source_file>
AV-unprocessed.smi

> <i_m_source_file_index>
1049

> <i_lp_mmshare_version>
43012

> <i_f3d_flags>
0

> <s_epik_input>
W0NIM11bQ0BASF0xW0NIMl1bQ0gyXVtDSDJdTihbQ0gyXTEpQyg9TylbTkhdW0NIMl1bQ0gyXWMybltjSF1bY0hdbjJbQ0hdKEYpRg==

> <s_epik_cmdline>
J2VwaWtfcHl0aG9uJywgJy1waCcsICc3LjAnLCAnLXRuJywgJzgnLCAnLW1hJywgJzIwMCcsICctbWV0YWxfYmluZGluZycsICctaW1hZScsICc8aW5maWxlLm1hZT4nLCAnLW9tYWUnLCAnPG91dGZpbGUubWFlPic=

> <r_lp_tautomer_probability>
1

> <r_epik_Ionization_Penalty>
1.09766

> <r_epik_Ionization_Penalty_Charging>
0

> <r_epik_Ionization_Penalty_Neutral>
1.09766

> <r_epik_State_Penalty>
1.15444

> <r_epik_Charging_Adjusted_Penalty>
1.15444

> <i_epik_Tot_Q>
1

> <i_epik_Tot_abs_Q>
1

> <r_epik_Metal_State_Penalty>
1.24204

> <b_epik_Metal_Only>
0

> <s_lp_Force_Field>
OPLS_2005

> <r_lp_Energy>
36.2432

> <b_lp_Chiralities_Consistent>
1

> <s_lp_Variant>
AV-unprocessed.smi:1049-3

> <Gold.Version>
5.8.1

> <Gold.Id.Protein>
6NUR|6NUR_protein|mol2

> <Gold.PLP.Fitness>
52.5676

> <Gold.PLP.PLP>
-44.5290

> <Gold.PLP.part.hbond>
-2.9990

> <Gold.PLP.part.metal>
0.0000

> <Gold.PLP.part.buried>
-2.0928

> <Gold.PLP.part.nonpolar>
-39.8625

> <Gold.PLP.part.repulsive>
0.8219

> <Gold.PLP.ligand.clash>
0.0000

> <Gold.PLP.ligand.torsion>
0.6021

> <Gold.PLP.Chemscore.Hbond>
3.0560

> <Gold.PLP.Chemscore.CHOScore>
0.0000

> <Gold.PLP.Chemscore.Metal>
0.0000

> <Gold.Chemscore.Hbonds>
donor molecule, donor type, donor heavy atom, donor atom, acceptor molecule, acceptor atom, score
      L1  H    13    41       P1  8028  1.37
      P1  H  7989  7998       L1     8  0.50
      P1  H  8011  8017       L1     8  0.28

> <Gold.PLP.Chemscore.Internal.Correction>
0.0749

> <Gold.Rescore>
     Score         DG    S(hbond)    S(metal)    S(lipo)     H(rot)  DE(clash)    DE(int)     intcor
     15.22     -17.58       2.07        0.00      79.35       1.61       1.93       0.43       ----

> <Gold.Chemscore.Fitness>
15.2157

> <Gold.Chemscore.DG>
-17.5796

> <Gold.Chemscore.ZeroCoef>
-5.4800

> <Gold.Chemscore.Hbond>
2.0733

> <Gold.Chemscore.Metal>
0.0000

> <Gold.Chemscore.Lipo>
79.3509

> <Gold.Chemscore.Internal_Hbond>
0.0000

> <Gold.Chemscore.DEClash>
1.9290

> <Gold.Chemscore.DEInternal>
0.4348

> <Gold.Chemscore.Rot>
1.6051

> <Gold.Chemscore.Internal.Correction>
   9.000000E+99

> <Gold.Chemscore.Hbonds>
donor molecule, donor type, donor heavy atom, donor atom, acceptor molecule, acceptor atom, score
      L1  H    13    41       P1  8028  0.47
      P1  H  7989  7998       L1     8  0.49
      P1  H  8011  8017       L1     8  0.27

> <Gold.Chemscore.Hbond.Weighted>
-6.9247

> <Gold.Chemscore.Metal.Weighted>
-0.0000

> <Gold.Chemscore.Lipo.Weighted>
-9.2841

> <Gold.Chemscore.Internal_Hbond.Weighted>
0.0000

> <Gold.Chemscore.DEClash.Weighted>
1.9290

> <Gold.Chemscore.DEInternal.Weighted>
0.4348

> <Gold.Chemscore.Rot.Weighted>
4.1092

> <Gold.Chemscore.Internal.Correction.Weighted>
   9.000000E+99

> <Gold.Protein.RotatedTorsions>
[ 6907 6896 6895 6894 ] final   72.21 input  -60.11 | X-H torsion
[ 7974 7965 7964 7962 ] final -166.56 input  175.53 | X-H torsion
[ 8008 7997 7996 7995 ] final -117.32 input   59.86 | X-H torsion
[ 10167 10162 10161 10158 ] final -178.87 input  -65.29 | X-H torsion
[ 10718 10713 10712 10709 ] final  -74.71 input   66.30 | X-H torsion
[ 10763 10752 10751 10750 ] final   98.87 input  -60.55 | X-H torsion
[ 11005 11000 10999 10996 ] final  -19.38 input  -57.11 | X-H torsion

> <Gold.Protein.ActiveResidues>
 VAL166  LYS551  ARG553  GLY616  TRP617  ASP618  TYR619  PRO620  LYS621  CYS622 
 ASP623  PHE694  ASN695  SER759  ASP760  ASP761  ALA762  ILE779  LEU786  VAL792 
 PHE793  MET794  SER795  GLU796  ALA797  LYS798  CYS799  TRP800  GLU811  SER814 

> <Gold.Protein.RotatedAtoms>
  152.4855  134.4606  159.9603 H   0  0  0  0  0  0  0  0  0  0  0  0  # atno 6907 bound_to 6896
  151.4603  133.3588  159.2816 H   0  0  0  0  0  0  0  0  0  0  0  0  # atno 6908 bound_to 6896
  150.8961  134.8394  159.7388 H   0  0  0  0  0  0  0  0  0  0  0  0  # atno 6909 bound_to 6896
  144.7242  140.2648  143.6259 H   0  0  0  0  0  0  0  0  0  0  0  0  # atno 7974 bound_to 7965
  155.0818  140.0394  157.2641 H   0  0  0  0  0  0  0  0  0  0  0  0  # atno 8008 bound_to 7997
  154.6901  140.2651  155.6797 H   0  0  0  0  0  0  0  0  0  0  0  0  # atno 8009 bound_to 7997
  156.2725  140.2761  156.1476 H   0  0  0  0  0  0  0  0  0  0  0  0  # atno 8010 bound_to 7997
  139.5412  144.2358  152.0899 H   0  0  0  0  0  0  0  0  0  0  0  0  # atno 10167 bound_to 10162
  156.0233  130.4423  150.2933 H   0  0  0  0  0  0  0  0  0  0  0  0  # atno 10718 bound_to 10713
  153.2943  135.4133  155.1195 H   0  0  0  0  0  0  0  0  0  0  0  0  # atno 10763 bound_to 10752
  154.8530  135.3526  154.5938 H   0  0  0  0  0  0  0  0  0  0  0  0  # atno 10764 bound_to 10752
  153.6361  135.7059  153.5316 H   0  0  0  0  0  0  0  0  0  0  0  0  # atno 10765 bound_to 10752
  140.8361  133.7961  155.9810 H   0  0  0  0  0  0  0  0  0  0  0  0  # atno 11005 bound_to 11000
  145.8101  139.1999  143.1998 LP  0  0  0  0  0  0  0  0  0  0  0  0  # atno 17320 bound_to 7965
  146.0603  140.7977  142.9738 LP  0  0  0  0  0  0  0  0  0  0  0  0  # atno 17321 bound_to 7965
  140.1836  144.4820  150.6515 LP  0  0  0  0  0  0  0  0  0  0  0  0  # atno 17342 bound_to 10162
  140.6643  143.2262  151.5781 LP  0  0  0  0  0  0  0  0  0  0  0  0  # atno 17343 bound_to 10162
  157.1036  131.0202  151.3076 LP  0  0  0  0  0  0  0  0  0  0  0  0  # atno 17370 bound_to 10713
  157.4760  130.7737  149.7368 LP  0  0  0  0  0  0  0  0  0  0  0  0  # atno 17371 bound_to 10713
  140.8946  134.2453  157.5076 LP  0  0  0  0  0  0  0  0  0  0  0  0  # atno 17394 bound_to 11000
  139.8704  134.9678  156.4608 LP  0  0  0  0  0  0  0  0  0  0  0  0  # atno 17395 bound_to 11000

$$$$
