AV-unprocessed.smi:912|AV-procd|sdf|4144|dock2
  -GOLD-   22720 2 53D 1   1.00000     0.00000
 Structure written by MMmdl.
 27 27  0  0  0  0  0  0  0  0  2 V2000
  146.6785  138.8123  151.5724 C   0  0  0  0  0  0  0  0  0  0  0  0
  146.8817  137.7867  152.5944 N   0  0  0  0  0  0  0  0  0  0  0  0
  146.7448  138.1822  154.0095 C   0  0  1  0  0  0  0  0  0  0  0  0
  145.2170  138.1936  154.2812 C   0  0  0  0  0  0  0  0  0  0  0  0
  147.4778  137.2043  154.9689 C   0  0  0  0  0  0  0  0  0  0  0  0
  148.1850  136.2117  154.4172 N   0  0  0  0  0  0  0  0  0  0  0  0
  147.4137  137.3412  156.1895 O   0  0  0  0  0  0  0  0  0  0  0  0
  147.3236  139.5903  154.2637 C   0  0  0  0  0  0  0  0  0  0  0  0
  146.4969  140.7020  154.5764 C   0  0  0  0  0  0  0  0  0  0  0  0
  147.0759  141.9685  154.7953 C   0  0  0  0  0  0  0  0  0  0  0  0
  148.4129  142.1236  154.7030 N   0  3  0  0  0  0  0  0  0  0  0  0
  149.2441  141.1046  154.4020 C   0  0  0  0  0  0  0  0  0  0  0  0
  148.7211  139.8163  154.1730 C   0  0  0  0  0  0  0  0  0  0  0  0
  146.9401  138.3977  150.5990 H   0  0  0  0  0  0  0  0  0  0  0  0
  147.3099  139.6852  151.7359 H   0  0  0  0  0  0  0  0  0  0  0  0
  145.6403  139.1371  151.5094 H   0  0  0  0  0  0  0  0  0  0  0  0
  147.8297  137.4601  152.4712 H   0  0  0  0  0  0  0  0  0  0  0  0
  144.9786  138.4619  155.3104 H   0  0  0  0  0  0  0  0  0  0  0  0
  144.7556  137.2217  154.1049 H   0  0  0  0  0  0  0  0  0  0  0  0
  144.7087  138.9136  153.6385 H   0  0  0  0  0  0  0  0  0  0  0  0
  148.6931  135.5679  155.0061 H   0  0  0  0  0  0  0  0  0  0  0  0
  148.2249  136.1232  153.4120 H   0  0  0  0  0  0  0  0  0  0  0  0
  145.4238  140.6079  154.6501 H   0  0  0  0  0  0  0  0  0  0  0  0
  146.5114  142.8569  155.0379 H   0  0  0  0  0  0  0  0  0  0  0  0
  150.2951  141.3486  154.3503 H   0  0  0  0  0  0  0  0  0  0  0  0
  149.3961  139.0116  153.9219 H   0  0  0  0  0  0  0  0  0  0  0  0
  148.8110  143.0494  154.8642 H   0  0  0  0  0  0  0  0  0  0  0  0
  1  2  1  0  0  0  0
  1 14  1  0  0  0  0
  1 15  1  0  0  0  0
  1 16  1  0  0  0  0
  2  3  1  0  0  0  0
  2 17  1  0  0  0  0
  3  4  1  0  0  0  0
  3  5  1  0  0  0  0
  3  8  1  0  0  0  0
  4 18  1  0  0  0  0
  4 19  1  0  0  0  0
  4 20  1  0  0  0  0
  5  6  1  0  0  0  0
  5  7  2  0  0  0  0
  6 21  1  0  0  0  0
  6 22  1  0  0  0  0
  8 13  1  0  0  0  0
  8  9  2  0  0  0  0
  9 10  1  0  0  0  0
  9 23  1  0  0  0  0
 10 11  2  0  0  0  0
 10 24  1  0  0  0  0
 11 12  1  0  0  0  0
 11 27  1  0  0  0  0
 12 13  2  0  0  0  0
 12 25  1  0  0  0  0
 13 26  1  0  0  0  0
M  CHG  1  11   1
M  END
> <s_m_source_file>
AV-unprocessed.smi

> <i_m_source_file_index>
912

> <i_lp_mmshare_version>
43012

> <i_f3d_flags>
0

> <s_epik_input>
W0NIM11bTkhdW0NAQF0oW0NIM10pKEMoPU8pW05IMl0pYzFbY0hdW2NIXW5bY0hdW2NIXTE=

> <s_epik_cmdline>
J2VwaWtfcHl0aG9uJywgJy1waCcsICc3LjAnLCAnLXRuJywgJzgnLCAnLW1hJywgJzIwMCcsICctbWV0YWxfYmluZGluZycsICctaW1hZScsICc8aW5maWxlLm1hZT4nLCAnLW9tYWUnLCAnPG91dGZpbGUubWFlPic=

> <r_epik_Ionization_Penalty>
0.562542

> <r_epik_Ionization_Penalty_Charging>
0.554844

> <r_epik_Ionization_Penalty_Neutral>
0.00769834

> <r_epik_State_Penalty>
1.39075

> <r_epik_Charging_Adjusted_Penalty>
1.94559

> <i_epik_Tot_Q>
1

> <i_epik_Tot_abs_Q>
1

> <r_epik_Metal_State_Penalty>
1.55563

> <b_epik_Metal_Only>
0

> <s_lp_Force_Field>
OPLS_2005

> <r_lp_Energy>
17.994

> <b_lp_Chiralities_Consistent>
1

> <s_lp_Variant>
AV-unprocessed.smi:912-5

> <Gold.Version>
5.8.1

> <Gold.Id.Protein>
6NUR|6NUR_protein|mol2

> <Gold.PLP.Fitness>
29.8229

> <Gold.PLP.PLP>
-18.7320

> <Gold.PLP.part.hbond>
-3.0000

> <Gold.PLP.part.metal>
0.0000

> <Gold.PLP.part.buried>
-0.9145

> <Gold.PLP.part.nonpolar>
-16.0008

> <Gold.PLP.part.repulsive>
0.2108

> <Gold.PLP.ligand.clash>
0.0000

> <Gold.PLP.ligand.torsion>
0.4583

> <Gold.PLP.Chemscore.Hbond>
3.9920

> <Gold.PLP.Chemscore.CHOScore>
0.0000

> <Gold.PLP.Chemscore.Metal>
0.0000

> <Gold.Chemscore.Hbonds>
donor molecule, donor type, donor heavy atom, donor atom, acceptor molecule, acceptor atom, score
      L1  H     2    17       P1  7948  0.99
      L1  H     6    22       P1  7948  1.00
      L1  H    11    27       P1  8028  2.00

> <Gold.PLP.Chemscore.Internal.Correction>
0.0313

> <Gold.Rescore>
     Score         DG    S(hbond)    S(metal)    S(lipo)     H(rot)  DE(clash)    DE(int)     intcor
     15.22     -15.74       2.89        0.00      45.15       1.82       0.08       0.44       ----

> <Gold.Chemscore.Fitness>
15.2247

> <Gold.Chemscore.DG>
-15.7425

> <Gold.Chemscore.ZeroCoef>
-5.4800

> <Gold.Chemscore.Hbond>
2.8881

> <Gold.Chemscore.Metal>
0.0000

> <Gold.Chemscore.Lipo>
45.1472

> <Gold.Chemscore.Internal_Hbond>
0.0000

> <Gold.Chemscore.DEClash>
0.0802

> <Gold.Chemscore.DEInternal>
0.4376

> <Gold.Chemscore.Rot>
1.8226

> <Gold.Chemscore.Internal.Correction>
   9.000000E+99

> <Gold.Chemscore.Hbonds>
donor molecule, donor type, donor heavy atom, donor atom, acceptor molecule, acceptor atom, score
      L1  H     2    17       P1  7948  0.94
      L1  H     6    22       P1  7948  0.98
      L1  H    11    27       P1  8028  0.98

> <Gold.Chemscore.Hbond.Weighted>
-9.6462

> <Gold.Chemscore.Metal.Weighted>
-0.0000

> <Gold.Chemscore.Lipo.Weighted>
-5.2822

> <Gold.Chemscore.Internal_Hbond.Weighted>
0.0000

> <Gold.Chemscore.DEClash.Weighted>
0.0802

> <Gold.Chemscore.DEInternal.Weighted>
0.4376

> <Gold.Chemscore.Rot.Weighted>
4.6659

> <Gold.Chemscore.Internal.Correction.Weighted>
   9.000000E+99

> <Gold.Protein.RotatedTorsions>
[ 6907 6896 6895 6894 ] final -149.02 input  -60.11 | X-H torsion
[ 7974 7965 7964 7962 ] final  -30.19 input  175.53 | X-H torsion
[ 8008 7997 7996 7995 ] final -127.61 input   59.86 | X-H torsion
[ 10167 10162 10161 10158 ] final  -47.74 input  -65.29 | X-H torsion
[ 10718 10713 10712 10709 ] final  -58.58 input   66.30 | X-H torsion
[ 10763 10752 10751 10750 ] final  -70.95 input  -60.55 | X-H torsion
[ 11005 11000 10999 10996 ] final  -76.28 input  -57.11 | X-H torsion

> <Gold.Protein.ActiveResidues>
 VAL166  LYS551  ARG553  GLY616  TRP617  ASP618  TYR619  PRO620  LYS621  CYS622 
 ASP623  PHE694  ASN695  SER759  ASP760  ASP761  ALA762  ILE779  LEU786  VAL792 
 PHE793  MET794  SER795  GLU796  ALA797  LYS798  CYS799  TRP800  GLU811  SER814 

> <Gold.Protein.RotatedAtoms>
  151.1781  133.4742  159.2593 H   0  0  0  0  0  0  0  0  0  0  0  0  # atno 6907 bound_to 6896
  151.1287  135.0118  159.8582 H   0  0  0  0  0  0  0  0  0  0  0  0  # atno 6908 bound_to 6896
  152.5459  134.1685  159.8640 H   0  0  0  0  0  0  0  0  0  0  0  0  # atno 6909 bound_to 6896
  146.1161  140.5509  142.8756 H   0  0  0  0  0  0  0  0  0  0  0  0  # atno 7974 bound_to 7965
  155.2490  140.0431  157.2984 H   0  0  0  0  0  0  0  0  0  0  0  0  # atno 8008 bound_to 7997
  154.5780  140.2393  155.8064 H   0  0  0  0  0  0  0  0  0  0  0  0  # atno 8009 bound_to 7997
  156.2172  140.2981  155.9876 H   0  0  0  0  0  0  0  0  0  0  0  0  # atno 8010 bound_to 7997
  140.6762  143.2771  151.3970 H   0  0  0  0  0  0  0  0  0  0  0  0  # atno 10167 bound_to 10162
  156.1124  130.4173  150.0597 H   0  0  0  0  0  0  0  0  0  0  0  0  # atno 10718 bound_to 10713
  154.4249  135.5977  153.6033 H   0  0  0  0  0  0  0  0  0  0  0  0  # atno 10763 bound_to 10752
  152.9796  135.5961  154.3909 H   0  0  0  0  0  0  0  0  0  0  0  0  # atno 10764 bound_to 10752
  154.3740  135.2841  155.2229 H   0  0  0  0  0  0  0  0  0  0  0  0  # atno 10765 bound_to 10752
  141.1652  133.6978  156.7645 H   0  0  0  0  0  0  0  0  0  0  0  0  # atno 11005 bound_to 11000
  144.7554  140.5295  143.6772 LP  0  0  0  0  0  0  0  0  0  0  0  0  # atno 17320 bound_to 7965
  145.5564  139.1478  143.3366 LP  0  0  0  0  0  0  0  0  0  0  0  0  # atno 17321 bound_to 7965
  139.6055  144.1205  152.2245 LP  0  0  0  0  0  0  0  0  0  0  0  0  # atno 17342 bound_to 10162
  140.0603  144.5862  150.7268 LP  0  0  0  0  0  0  0  0  0  0  0  0  # atno 17343 bound_to 10162
  156.8557  130.9474  151.3622 LP  0  0  0  0  0  0  0  0  0  0  0  0  # atno 17370 bound_to 10713
  157.6306  130.8726  149.9267 LP  0  0  0  0  0  0  0  0  0  0  0  0  # atno 17371 bound_to 10713
  140.2509  134.8541  157.3666 LP  0  0  0  0  0  0  0  0  0  0  0  0  # atno 17394 bound_to 11000
  140.1703  134.4616  155.7836 LP  0  0  0  0  0  0  0  0  0  0  0  0  # atno 17395 bound_to 11000

$$$$
