#       Name:                AV-unprocessed.smi:2734
#       Creating user name   scv26
#       Creation time:       Fri Mar 27 14:58:27 2020


#       File generated by GOLD software.
#

@<TRIPOS>MOLECULE
AV-unprocessed.smi:2734
    46    48     1
SMALL
NO_CHARGES


@<TRIPOS>ATOM
      1 ****        -3.3305   3.3279  -1.4843 C.3            1 S1                 0.0000
      2 ****        -2.7303   2.3148  -0.5254 C.ar           1 S1                 0.0000
      3 ****        -2.3119   2.7440   0.7543 C.ar           1 S1                 0.0000
      4 ****        -1.7444   1.8345   1.6734 C.ar           1 S1                 0.0000
      5 ****        -1.2664   2.0347   2.9571 N.2            1 S1                 0.0000
      6 ****        -0.8627   0.8112   3.2867 C.2            1 S1                 0.0000
      7 ****        -1.0222  -0.1596   2.3670 N.pl3          1 S1                 0.0000
      8 ****        -0.6517  -1.5568   2.5014 C.3            1 S1                 0.0000
      9 ****         0.8286  -1.8155   2.1574 C.3            1 S1                 0.0000
     10 ****         1.0844  -3.1912   2.3542 O.3            1 S1                 0.0000
     11 ****         1.2035  -1.4309   0.7139 C.3            1 S1                 0.0000
     12 ****         2.9722  -1.6744   0.3694 S.3            1 S1                 0.0000
     13 ****         3.0271  -1.1090  -1.3035 C.2            1 S1                 0.0000
     14 ****         1.9950  -0.7172  -2.0425 N.2            1 S1                 0.0000
     15 ****         2.5620  -0.3786  -3.2563 N.2            1 S1                 0.0000
     16 ****         3.8509  -0.5575  -3.2410 N.2            1 S1                 0.0000
     17 ****         4.1629  -1.0221  -2.0067 N.pl3          1 S1                 0.0000
     18 ****         5.5326  -1.3294  -1.6461 C.3            1 S1                 0.0000
     19 ****        -1.6091   0.4724   1.2754 C.ar           1 S1                 0.0000
     20 ****        -2.0238   0.0329   0.0058 C.ar           1 S1                 0.0000
     21 ****        -2.5850   0.9552  -0.9017 C.ar           1 S1                 0.0000
     22 ****        -3.0215   0.4719  -2.2733 C.3            1 S1                 0.0000
     23 ****        -3.3782   4.3209  -1.0362 H              1 S1                 0.0000
     24 ****        -4.3439   3.0379  -1.7626 H              1 S1                 0.0000
     25 ****        -2.7283   3.3982  -2.3904 H              1 S1                 0.0000
     26 ****        -2.4203   3.7797   1.0407 H              1 S1                 0.0000
     27 ****        -0.4219   0.6083   4.2519 H              1 S1                 0.0000
     28 ****        -0.8601  -1.8670   3.5264 H              1 S1                 0.0000
     29 ****        -1.3027  -2.1516   1.8591 H              1 S1                 0.0000
     30 ****         1.4573  -1.2565   2.8516 H              1 S1                 0.0000
     31 ****         1.9985  -3.3531   2.1758 H              1 S1                 0.0000
     32 ****         0.6130  -2.0125   0.0047 H              1 S1                 0.0000
     33 ****         0.9787  -0.3795   0.5360 H              1 S1                 0.0000
     34 ****         5.8348  -0.7131  -0.7991 H              1 S1                 0.0000
     35 ****         6.2031  -1.1329  -2.4836 H              1 S1                 0.0000
     36 ****         5.6110  -2.3808  -1.3689 H              1 S1                 0.0000
     37 ****        -1.9038  -1.0044  -0.2697 H              1 S1                 0.0000
     38 ****        -2.8455  -0.5975  -2.3930 H              1 S1                 0.0000
     39 ****        -2.4671   0.9914  -3.0550 H              1 S1                 0.0000
     40 ****        -4.0860   0.6542  -2.4224 H              1 S1                 0.0000
     41 ****        -1.2333   2.8772   3.4948 LP             1 S1                 0.0000
     42 ****         0.5180  -3.7323   1.7327 LP             1 S1                 0.0000
     43 ****         0.8752  -3.4418   3.2994 LP             1 S1                 0.0000
     44 ****         1.0307  -0.6767  -1.7809 LP             1 S1                 0.0000
     45 ****         2.0483  -0.0398  -4.0446 LP             1 S1                 0.0000
     46 ****         4.4870  -0.3857  -3.9932 LP             1 S1                 0.0000
@<TRIPOS>BOND
    1    1    2 1     
    2    1   23 1     
    3    1   24 1     
    4    1   25 1     
    5    2   21 ar    
    6    2    3 ar    
    7    3    4 ar    
    8    3   26 1     
    9    4   19 ar    
   10    4    5 1     
   11    5    6 2     
   12    6    7 1     
   13    6   27 1     
   14    7    8 1     
   15    7   19 1     
   16    8    9 1     
   17    8   28 1     
   18    8   29 1     
   19    9   10 1     
   20    9   11 1     
   21    9   30 1     
   22   10   31 1     
   23   11   12 1     
   24   11   32 1     
   25   11   33 1     
   26   12   13 1     
   27   13   17 1     
   28   13   14 2     
   29   14   15 1     
   30   15   16 2     
   31   16   17 1     
   32   17   18 1     
   33   18   34 1     
   34   18   35 1     
   35   18   36 1     
   36   19   20 ar    
   37   20   21 ar    
   38   20   37 1     
   39   21   22 1     
   40   22   38 1     
   41   22   39 1     
   42   22   40 1     
   43    5   41 1     
   44   10   42 1     
   45   10   43 1     
   46   14   44 1     
   47   15   45 1     
   48   16   46 1     
@<TRIPOS>SUBSTRUCTURE
      1 S1             1
@<TRIPOS>SET
LONE_PAIRS      STATIC     ATOMS    <user>   **** ""
6 41 42 43 44 45 46
DONOR_HYDROGENS      STATIC     ATOMS    <user>   **** ""
1 31
ATOM$BLUE        STATIC     ATOMS    COLORGROUP SYSTEM
6 41 42 43 44 45 46
ATOM$RED        STATIC     ATOMS    COLORGROUP SYSTEM
1 31
