#       Name:                AV-unprocessed.smi:935
#       Creating user name   scv26
#       Creation time:       Fri Mar 27 02:11:30 2020


#       File generated by GOLD software.
#

@<TRIPOS>MOLECULE
AV-unprocessed.smi:935
    37    38     1
SMALL
NO_CHARGES


@<TRIPOS>ATOM
      1 ****        -4.0106   2.3977  -2.3094 C.3            1 S1                 0.0000
      2 ****        -4.1167   1.8595  -0.8754 C.3            1 S1                 0.0000
      3 ****        -3.8989   2.9417   0.1920 C.3            1 S1                 0.0000
      4 ****        -3.2392   0.6674  -0.6551 C.2            1 S1                 0.0000
      5 ****        -1.9047   0.7063  -0.7184 N.2            1 S1                 0.0000
      6 ****        -1.3150  -0.5373  -0.4724 C.2            1 S1                 0.0000
      7 ****         0.1767  -0.6750  -0.4946 C.3            1 S1                 0.0000
      8 ****         0.8257  -0.1562   0.7994 C.3            1 S1                 0.0000
      9 ****         2.2788  -0.2726   0.7577 N.am           1 S1                 0.0000
     10 ****         2.9705  -1.3961   1.0007 C.2            1 S1                 0.0000
     11 ****         2.4325  -2.4657   1.2909 O.2            1 S1                 0.0000
     12 ****         4.4508  -1.2333   0.8856 C.3            1 S1                 0.0000
     13 ****         5.2482  -2.4096   0.3595 C.3            1 S1                 0.0000
     14 ****         5.3225  -2.0462   1.8214 C.3            1 S1                 0.0000
     15 ****        -2.2295  -1.5291  -0.2202 C.2            1 S1                 0.0000
     16 ****        -3.8658  -0.9352  -0.2830 S.3            1 S1                 0.0000
     17 ****        -4.2532   1.6233  -3.0378 H              1 S1                 0.0000
     18 ****        -3.0032   2.7548  -2.5257 H              1 S1                 0.0000
     19 ****        -4.6985   3.2284  -2.4687 H              1 S1                 0.0000
     20 ****        -5.1430   1.5109  -0.7536 H              1 S1                 0.0000
     21 ****        -4.0618   2.5425   1.1936 H              1 S1                 0.0000
     22 ****        -4.5877   3.7753   0.0529 H              1 S1                 0.0000
     23 ****        -2.8843   3.3394   0.1526 H              1 S1                 0.0000
     24 ****         0.4464  -1.7205  -0.6480 H              1 S1                 0.0000
     25 ****         0.5857  -0.1335  -1.3486 H              1 S1                 0.0000
     26 ****         0.5769   0.8955   0.9447 H              1 S1                 0.0000
     27 ****         0.4313  -0.6904   1.6657 H              1 S1                 0.0000
     28 ****         2.7970   0.5630   0.5279 H              1 S1                 0.0000
     29 ****         4.8122  -0.2406   0.6210 H              1 S1                 0.0000
     30 ****         4.7176  -3.3233   0.0974 H              1 S1                 0.0000
     31 ****         6.1077  -2.1823  -0.2678 H              1 S1                 0.0000
     32 ****         6.2319  -1.5721   2.1849 H              1 S1                 0.0000
     33 ****         4.8407  -2.7186   2.5293 H              1 S1                 0.0000
     34 ****        -2.0401  -2.5692  -0.0001 H              1 S1                 0.0000
     35 ****        -1.3839   1.5359  -0.9200 LP             1 S1                 0.0000
     36 ****         1.4361  -2.5233   1.3542 LP             1 S1                 0.0000
     37 ****         2.9921  -3.2763   1.4633 LP             1 S1                 0.0000
@<TRIPOS>BOND
    1    1    2 1     
    2    1   17 1     
    3    1   18 1     
    4    1   19 1     
    5    2    3 1     
    6    2    4 1     
    7    2   20 1     
    8    3   21 1     
    9    3   22 1     
   10    3   23 1     
   11    4   16 1     
   12    4    5 2     
   13    5    6 1     
   14    6    7 1     
   15    6   15 2     
   16    7    8 1     
   17    7   24 1     
   18    7   25 1     
   19    8    9 1     
   20    8   26 1     
   21    8   27 1     
   22    9   10 am    
   23    9   28 1     
   24   10   11 2     
   25   10   12 1     
   26   12   14 1     
   27   12   13 1     
   28   12   29 1     
   29   13   14 1     
   30   13   30 1     
   31   13   31 1     
   32   14   32 1     
   33   14   33 1     
   34   15   16 1     
   35   15   34 1     
   36    5   35 1     
   37   11   36 1     
   38   11   37 1     
@<TRIPOS>SUBSTRUCTURE
      1 S1             1
@<TRIPOS>SET
LONE_PAIRS      STATIC     ATOMS    <user>   **** ""
3 35 36 37
DONOR_HYDROGENS      STATIC     ATOMS    <user>   **** ""
1 28
ATOM$BLUE        STATIC     ATOMS    COLORGROUP SYSTEM
3 35 36 37
ATOM$RED        STATIC     ATOMS    COLORGROUP SYSTEM
1 28
