AV-unprocessed.smi:812|AV-procd|sdf|3815|dock8
  -GOLD-   22720 1253D 1   1.00000     0.00000
 Structure written by MMmdl.
 38 40  0  0  0  0  0  0  0  0  1 V2000
  155.2696  138.1663  165.1722 C   0  0  0  0  0  0  0  0  0  0  0  0
  154.8981  137.5828  163.8695 N   0  0  0  0  0  0  0  0  0  0  0  0
  154.6617  138.4342  162.8221 C   0  0  0  0  0  0  0  0  0  0  0  0
  154.7360  139.6625  162.8788 O   0  0  0  0  0  0  0  0  0  0  0  0
  154.2959  137.7536  161.5773 C   0  0  0  0  0  0  0  0  0  0  0  0
  154.2033  136.4063  161.4713 C   0  0  0  0  0  0  0  0  0  0  0  0
  153.8393  136.0230  160.1854 N   0  0  0  0  0  0  0  0  0  0  0  0
  153.7273  137.1994  159.5665 C   0  0  0  0  0  0  0  0  0  0  0  0
  153.9817  138.2835  160.3277 N   0  0  0  0  0  0  0  0  0  0  0  0
  153.9292  139.6731  159.9006 C   0  0  0  0  0  0  0  0  0  0  0  0
  152.7367  139.9657  158.9683 C   0  0  2  0  0  0  0  0  0  0  0  0
  153.0366  139.5389  157.6530 O   0  0  0  0  0  0  0  0  0  0  0  0
  152.3437  141.4337  159.0234 C   0  0  0  0  0  0  0  0  0  0  0  0
  151.2662  141.9028  158.2418 C   0  0  0  0  0  0  0  0  0  0  0  0
  150.8885  143.2589  158.2943 C   0  0  0  0  0  0  0  0  0  0  0  0
  151.5844  144.1527  159.1309 C   0  0  0  0  0  0  0  0  0  0  0  0
  151.2208  145.4560  159.1817 F   0  0  0  0  0  0  0  0  0  0  0  0
  152.6575  143.6899  159.9162 C   0  0  0  0  0  0  0  0  0  0  0  0
  153.0357  142.3340  159.8639 C   0  0  0  0  0  0  0  0  0  0  0  0
  154.4705  135.6155  162.6163 N   0  0  0  0  0  0  0  0  0  0  0  0
  154.3606  134.1616  162.4645 C   0  0  0  0  0  0  0  0  0  0  0  0
  154.8133  136.2013  163.8112 C   0  0  0  0  0  0  0  0  0  0  0  0
  155.0398  135.5111  164.8088 O   0  0  0  0  0  0  0  0  0  0  0  0
  155.3549  139.2533  165.1813 H   0  0  0  0  0  0  0  0  0  0  0  0
  156.2350  137.7794  165.5024 H   0  0  0  0  0  0  0  0  0  0  0  0
  154.5278  137.9059  165.9290 H   0  0  0  0  0  0  0  0  0  0  0  0
  153.4469  137.2762  158.5261 H   0  0  0  0  0  0  0  0  0  0  0  0
  153.8872  140.3058  160.7875 H   0  0  0  0  0  0  0  0  0  0  0  0
  154.8673  139.9159  159.3992 H   0  0  0  0  0  0  0  0  0  0  0  0
  151.8796  139.3748  159.2925 H   0  0  0  0  0  0  0  0  0  0  0  0
  152.8370  138.6175  157.5846 H   0  0  0  0  0  0  0  0  0  0  0  0
  150.7236  141.2237  157.6002 H   0  0  0  0  0  0  0  0  0  0  0  0
  150.0637  143.6129  157.6934 H   0  0  0  0  0  0  0  0  0  0  0  0
  153.1901  144.3741  160.5600 H   0  0  0  0  0  0  0  0  0  0  0  0
  153.8572  141.9879  160.4739 H   0  0  0  0  0  0  0  0  0  0  0  0
  154.5707  133.5958  163.3724 H   0  0  0  0  0  0  0  0  0  0  0  0
  155.0555  133.8149  161.6989 H   0  0  0  0  0  0  0  0  0  0  0  0
  153.3523  133.8971  162.1444 H   0  0  0  0  0  0  0  0  0  0  0  0
  1  2  1  0  0  0  0
  1 24  1  0  0  0  0
  1 25  1  0  0  0  0
  1 26  1  0  0  0  0
  2 22  1  0  0  0  0
  2  3  1  0  0  0  0
  3  4  2  0  0  0  0
  3  5  1  0  0  0  0
  5  9  1  0  0  0  0
  5  6  2  0  0  0  0
  6  7  1  0  0  0  0
  6 20  1  0  0  0  0
  7  8  2  0  0  0  0
  8  9  1  0  0  0  0
  8 27  1  0  0  0  0
  9 10  1  0  0  0  0
 10 11  1  0  0  0  0
 10 28  1  0  0  0  0
 10 29  1  0  0  0  0
 11 12  1  0  0  0  0
 11 13  1  0  0  0  0
 11 30  1  0  0  0  0
 12 31  1  0  0  0  0
 13 19  1  0  0  0  0
 13 14  2  0  0  0  0
 14 15  1  0  0  0  0
 14 32  1  0  0  0  0
 15 16  2  0  0  0  0
 15 33  1  0  0  0  0
 16 17  1  0  0  0  0
 16 18  1  0  0  0  0
 18 19  2  0  0  0  0
 18 34  1  0  0  0  0
 19 35  1  0  0  0  0
 20 21  1  0  0  0  0
 20 22  1  0  0  0  0
 21 36  1  0  0  0  0
 21 37  1  0  0  0  0
 21 38  1  0  0  0  0
 22 23  2  0  0  0  0
M  END
> <s_m_source_file>
AV-unprocessed.smi

> <i_m_source_file_index>
812

> <i_lp_mmshare_version>
43012

> <i_f3d_flags>
0

> <s_epik_input>
Tz1jMW4oW0NIM10pYyg9TyluKFtDSDNdKWMoYzEyKW5bY0hdbjJbQ0gyXVtDQEhdKFtPSF0pYzNbY0hdW2NIXWMoRilbY0hdW2NIXTM=

> <s_epik_cmdline>
J2VwaWtfcHl0aG9uJywgJy1waCcsICc3LjAnLCAnLXRuJywgJzgnLCAnLW1hJywgJzIwMCcsICctbWV0YWxfYmluZGluZycsICctaW1hZScsICc8aW5maWxlLm1hZT4nLCAnLW9tYWUnLCAnPG91dGZpbGUubWFlPic=

> <r_lp_tautomer_probability>
1

> <r_epik_Ionization_Penalty>
1.45649e-06

> <r_epik_Ionization_Penalty_Charging>
3.74189e-09

> <r_epik_Ionization_Penalty_Neutral>
1.45275e-06

> <r_epik_State_Penalty>
-0

> <r_epik_Charging_Adjusted_Penalty>
3.74189e-09

> <i_epik_Tot_Q>
0

> <i_epik_Tot_abs_Q>
0

> <r_epik_Metal_State_Penalty>
-0

> <b_epik_Metal_Only>
0

> <s_lp_Force_Field>
OPLS_2005

> <r_lp_Energy>
34.9814

> <b_lp_Chiralities_Consistent>
1

> <s_lp_Variant>
AV-unprocessed.smi:812-1

> <Gold.Version>
5.8.1

> <Gold.Id.Protein>
6NUR|6NUR_protein|mol2

> <Gold.PLP.Fitness>
47.7664

> <Gold.PLP.PLP>
-42.7826

> <Gold.PLP.part.hbond>
-2.0000

> <Gold.PLP.part.metal>
0.0000

> <Gold.PLP.part.buried>
-4.7589

> <Gold.PLP.part.nonpolar>
-35.6012

> <Gold.PLP.part.repulsive>
0.0938

> <Gold.PLP.ligand.clash>
0.0000

> <Gold.PLP.ligand.torsion>
0.5206

> <Gold.PLP.Chemscore.Hbond>
2.0000

> <Gold.PLP.Chemscore.CHOScore>
0.0000

> <Gold.PLP.Chemscore.Metal>
0.0000

> <Gold.Chemscore.Hbonds>
donor molecule, donor type, donor heavy atom, donor atom, acceptor molecule, acceptor atom, score
      P1  H  6896  6908       L1     7  1.00
      P1  H  7997  8010       L1    12  1.00

> <Gold.PLP.Chemscore.Internal.Correction>
0.0249

> <Gold.Rescore>
     Score         DG    S(hbond)    S(metal)    S(lipo)     H(rot)  DE(clash)    DE(int)     intcor
     16.62     -17.40       1.95        0.00      95.25       2.24       0.22       0.57       ----

> <Gold.Chemscore.Fitness>
16.6177

> <Gold.Chemscore.DG>
-17.4035

> <Gold.Chemscore.ZeroCoef>
-5.4800

> <Gold.Chemscore.Hbond>
1.9486

> <Gold.Chemscore.Metal>
0.0000

> <Gold.Chemscore.Lipo>
95.2473

> <Gold.Chemscore.Internal_Hbond>
0.0000

> <Gold.Chemscore.DEClash>
0.2173

> <Gold.Chemscore.DEInternal>
0.5685

> <Gold.Chemscore.Rot>
2.2377

> <Gold.Chemscore.Internal.Correction>
   9.000000E+99

> <Gold.Chemscore.Hbonds>
donor molecule, donor type, donor heavy atom, donor atom, acceptor molecule, acceptor atom, score
      P1  H  6896  6908       L1     7  0.87
      P1  H  7997  8010       L1    12  0.91

> <Gold.Chemscore.Hbond.Weighted>
-6.5082

> <Gold.Chemscore.Metal.Weighted>
-0.0000

> <Gold.Chemscore.Lipo.Weighted>
-11.1439

> <Gold.Chemscore.Internal_Hbond.Weighted>
0.0000

> <Gold.Chemscore.DEClash.Weighted>
0.2173

> <Gold.Chemscore.DEInternal.Weighted>
0.5685

> <Gold.Chemscore.Rot.Weighted>
5.7286

> <Gold.Chemscore.Internal.Correction.Weighted>
   9.000000E+99

> <Gold.Protein.RotatedTorsions>
[ 6907 6896 6895 6894 ] final  -69.69 input  -60.11 | X-H torsion
[ 7974 7965 7964 7962 ] final  -69.16 input  175.53 | X-H torsion
[ 8008 7997 7996 7995 ] final   44.63 input   59.86 | X-H torsion
[ 10167 10162 10161 10158 ] final -177.81 input  -65.29 | X-H torsion
[ 10718 10713 10712 10709 ] final  -72.13 input   66.30 | X-H torsion
[ 10763 10752 10751 10750 ] final   -6.48 input  -60.55 | X-H torsion
[ 11005 11000 10999 10996 ] final   21.14 input  -57.11 | X-H torsion

> <Gold.Protein.ActiveResidues>
 VAL166  LYS551  ARG553  GLY616  TRP617  ASP618  TYR619  PRO620  LYS621  CYS622 
 ASP623  PHE694  ASN695  SER759  ASP760  ASP761  ALA762  ILE779  LEU786  VAL792 
 PHE793  MET794  SER795  GLU796  ALA797  LYS798  CYS799  TRP800  GLU811  SER814 

> <Gold.Protein.RotatedAtoms>
  150.7293  134.5560  159.5817 H   0  0  0  0  0  0  0  0  0  0  0  0  # atno 6907 bound_to 6896
  152.3035  134.7579  160.0361 H   0  0  0  0  0  0  0  0  0  0  0  0  # atno 6908 bound_to 6896
  151.8152  133.3351  159.3604 H   0  0  0  0  0  0  0  0  0  0  0  0  # atno 6909 bound_to 6896
  145.7074  140.9092  143.0699 H   0  0  0  0  0  0  0  0  0  0  0  0  # atno 7974 bound_to 7965
  155.3225  140.3398  155.4241 H   0  0  0  0  0  0  0  0  0  0  0  0  # atno 8008 bound_to 7997
  156.1902  140.1695  156.8144 H   0  0  0  0  0  0  0  0  0  0  0  0  # atno 8009 bound_to 7997
  154.5433  140.0720  156.8530 H   0  0  0  0  0  0  0  0  0  0  0  0  # atno 8010 bound_to 7997
  139.5462  144.2229  152.0992 H   0  0  0  0  0  0  0  0  0  0  0  0  # atno 10167 bound_to 10162
  156.0333  130.4366  150.2548 H   0  0  0  0  0  0  0  0  0  0  0  0  # atno 10718 bound_to 10713
  153.4129  135.7008  153.6347 H   0  0  0  0  0  0  0  0  0  0  0  0  # atno 10763 bound_to 10752
  153.4833  135.3689  155.2454 H   0  0  0  0  0  0  0  0  0  0  0  0  # atno 10764 bound_to 10752
  154.8718  135.4071  154.3484 H   0  0  0  0  0  0  0  0  0  0  0  0  # atno 10765 bound_to 10752
  140.3949  134.1780  155.7663 H   0  0  0  0  0  0  0  0  0  0  0  0  # atno 11005 bound_to 11000
  144.6951  139.9028  143.7459 LP  0  0  0  0  0  0  0  0  0  0  0  0  # atno 17320 bound_to 7965
  146.0743  139.3732  143.0503 LP  0  0  0  0  0  0  0  0  0  0  0  0  # atno 17321 bound_to 7965
  140.1717  144.4930  150.6576 LP  0  0  0  0  0  0  0  0  0  0  0  0  # atno 17342 bound_to 10162
  140.6711  143.2286  151.5623 LP  0  0  0  0  0  0  0  0  0  0  0  0  # atno 17343 bound_to 10162
  157.0649  131.0100  151.3210 LP  0  0  0  0  0  0  0  0  0  0  0  0  # atno 17370 bound_to 10713
  157.5043  130.7899  149.7637 LP  0  0  0  0  0  0  0  0  0  0  0  0  # atno 17371 bound_to 10713
  141.1877  133.8274  157.1020 LP  0  0  0  0  0  0  0  0  0  0  0  0  # atno 17394 bound_to 11000
  140.0379  134.9869  157.0906 LP  0  0  0  0  0  0  0  0  0  0  0  0  # atno 17395 bound_to 11000

$$$$
