#       Name:                AV-unprocessed.smi:243
#       Creating user name   scv26
#       Creation time:       Thu Mar 26 20:49:28 2020


#       File generated by GOLD software.
#

@<TRIPOS>MOLECULE
AV-unprocessed.smi:243
    65    68     1
SMALL
NO_CHARGES


@<TRIPOS>ATOM
      1 ****        -5.3614  -4.6682  -1.5919 C.3            1 S1                 0.0000
      2 ****        -4.5015  -3.9516  -0.5410 C.3            1 S1                 0.0000
      3 ****        -4.7090  -2.4789  -0.5441 N.4            1 S1                 1.0000
      4 ****        -4.3299  -1.8251   0.7341 C.3            1 S1                 0.0000
      5 ****        -2.8040  -1.7207   0.8873 C.3            1 S1                 0.0000
      6 ****        -2.1786  -0.9670  -0.3020 C.3            1 S1                 0.0000
      7 ****        -0.7223  -0.8511  -0.1374 N.pl3          1 S1                 0.0000
      8 ****         0.1181  -2.0389  -0.0141 C.3            1 S1                 0.0000
      9 ****        -0.1353   0.3743  -0.0507 C.ar           1 S1                 0.0000
     10 ****        -0.6732   1.4067  -0.7535 N.ar           1 S1                 0.0000
     11 ****        -0.1258   2.6239  -0.7047 C.ar           1 S1                 0.0000
     12 ****         0.9461   3.0281  -0.0236 N.ar           1 S1                 0.0000
     13 ****         1.4961   2.0025   0.6863 C.ar           1 S1                 0.0000
     14 ****         1.0246   0.6581   0.7318 C.ar           1 S1                 0.0000
     15 ****         1.8331  -0.0881   1.5830 N.2            1 S1                 0.0000
     16 ****         2.7279   0.7602   2.0080 C.2            1 S1                 0.0000
     17 ****         2.6084   2.0371   1.5099 N.pl3          1 S1                 0.0000
     18 ****         3.4603   3.1766   1.8176 C.3            1 S1                 0.0000
     19 ****         4.6225   3.3942   0.8146 C.3            1 S1                 0.0000
     20 ****         4.0913   3.6071  -0.4800 O.3            1 S1                 0.0000
     21 ****         5.6277   2.2422   0.7583 C.3            1 S1                 0.0000
     22 ****         6.7400   2.7171   1.6810 C.3            1 S1                 0.0000
     23 ****         6.8242   4.0953   1.3654 O.3            1 S1                 0.0000
     24 ****         5.5001   4.5962   1.2213 C.3            1 S1                 0.0000
     25 ****        -2.5912  -1.6292  -1.6416 C.3            1 S1                 0.0000
     26 ****        -2.0741  -0.8493  -2.8625 C.3            1 S1                 0.0000
     27 ****        -4.1304  -1.7650  -1.7152 C.3            1 S1                 0.0000
     28 ****        -5.2630  -5.7495  -1.4934 H              1 S1                 0.0000
     29 ****        -5.0673  -4.4101  -2.6088 H              1 S1                 0.0000
     30 ****        -6.4168  -4.4219  -1.4721 H              1 S1                 0.0000
     31 ****        -4.7824  -4.3455   0.4367 H              1 S1                 0.0000
     32 ****        -3.4490  -4.2000  -0.6762 H              1 S1                 0.0000
     33 ****        -4.7659  -0.8253   0.7536 H              1 S1                 0.0000
     34 ****        -4.7649  -2.3608   1.5787 H              1 S1                 0.0000
     35 ****        -2.5677  -1.2022   1.8173 H              1 S1                 0.0000
     36 ****        -2.3765  -2.7197   0.9776 H              1 S1                 0.0000
     37 ****        -2.6257   0.0273  -0.2852 H              1 S1                 0.0000
     38 ****         1.0822  -1.8880  -0.5012 H              1 S1                 0.0000
     39 ****        -0.3473  -2.9092  -0.4745 H              1 S1                 0.0000
     40 ****         0.2912  -2.2733   1.0363 H              1 S1                 0.0000
     41 ****        -0.6163   3.3825  -1.2969 H              1 S1                 0.0000
     42 ****         3.5072   0.4746   2.6997 H              1 S1                 0.0000
     43 ****         2.8316   4.0673   1.8599 H              1 S1                 0.0000
     44 ****         3.8561   3.0387   2.8247 H              1 S1                 0.0000
     45 ****         4.8077   3.7670  -1.0750 H              1 S1                 0.0000
     46 ****         5.2262   1.2727   1.0477 H              1 S1                 0.0000
     47 ****         6.0352   2.1354  -0.2484 H              1 S1                 0.0000
     48 ****         6.4648   2.5904   2.7295 H              1 S1                 0.0000
     49 ****         7.6854   2.2037   1.5039 H              1 S1                 0.0000
     50 ****         5.4853   5.4063   0.4909 H              1 S1                 0.0000
     51 ****         5.1819   5.0154   2.1768 H              1 S1                 0.0000
     52 ****        -2.1620  -2.6290  -1.6956 H              1 S1                 0.0000
     53 ****        -2.4469   0.1753  -2.8657 H              1 S1                 0.0000
     54 ****        -2.3912  -1.3211  -3.7927 H              1 S1                 0.0000
     55 ****        -0.9848  -0.8064  -2.8776 H              1 S1                 0.0000
     56 ****        -4.4268  -2.2524  -2.6434 H              1 S1                 0.0000
     57 ****        -4.5764  -0.7700  -1.7503 H              1 S1                 0.0000
     58 ****        -5.7099  -2.3615  -0.6142 H              1 S1                 0.0000
     59 ****        -1.4876   1.2529  -1.3130 LP             1 S1                 0.0000
     60 ****         1.3011   3.9630  -0.0322 LP             1 S1                 0.0000
     61 ****         1.7475  -1.0566   1.8165 LP             1 S1                 0.0000
     62 ****         3.4798   4.3982  -0.4679 LP             1 S1                 0.0000
     63 ****         3.5832   2.7975  -0.7735 LP             1 S1                 0.0000
     64 ****         7.3280   4.2173   0.5102 LP             1 S1                 0.0000
     65 ****         7.2934   4.5837   2.1012 LP             1 S1                 0.0000
@<TRIPOS>BOND
    1    1    2 1     
    2    1   28 1     
    3    1   29 1     
    4    1   30 1     
    5    2    3 1     
    6    2   31 1     
    7    2   32 1     
    8    3   27 1     
    9    3    4 1     
   10    3   58 1     
   11    4    5 1     
   12    4   33 1     
   13    4   34 1     
   14    5    6 1     
   15    5   35 1     
   16    5   36 1     
   17    6    7 1     
   18    6   25 1     
   19    6   37 1     
   20    7    8 1     
   21    7    9 1     
   22    8   38 1     
   23    8   39 1     
   24    8   40 1     
   25    9   14 ar    
   26    9   10 ar    
   27   10   11 ar    
   28   11   12 ar    
   29   11   41 1     
   30   12   13 ar    
   31   13   17 1     
   32   13   14 ar    
   33   14   15 1     
   34   15   16 2     
   35   16   17 1     
   36   16   42 1     
   37   17   18 1     
   38   18   19 1     
   39   18   43 1     
   40   18   44 1     
   41   19   24 1     
   42   19   20 1     
   43   19   21 1     
   44   20   45 1     
   45   21   22 1     
   46   21   46 1     
   47   21   47 1     
   48   22   23 1     
   49   22   48 1     
   50   22   49 1     
   51   23   24 1     
   52   24   50 1     
   53   24   51 1     
   54   25   26 1     
   55   25   27 1     
   56   25   52 1     
   57   26   53 1     
   58   26   54 1     
   59   26   55 1     
   60   27   56 1     
   61   27   57 1     
   62   10   59 1     
   63   12   60 1     
   64   15   61 1     
   65   20   62 1     
   66   20   63 1     
   67   23   64 1     
   68   23   65 1     
@<TRIPOS>SUBSTRUCTURE
      1 S1             1
@<TRIPOS>SET
LONE_PAIRS      STATIC     ATOMS    <user>   **** ""
7 59 60 61 62 63 64 65
DONOR_HYDROGENS      STATIC     ATOMS    <user>   **** ""
2 58 45
ATOM$BLUE        STATIC     ATOMS    COLORGROUP SYSTEM
7 59 60 61 62 63 64 65
ATOM$RED        STATIC     ATOMS    COLORGROUP SYSTEM
2 58 45
