AV-unprocessed.smi:1527|AV-procd|sdf|6148|dock5
  -GOLD-   22720 6293D 1   1.00000     0.00000
 Structure written by MMmdl.
 30 30  0  0  0  0  0  0  0  0  2 V2000
  152.1703  144.3495  159.7704 C   0  0  0  0  0  0  0  0  0  0  0  0
  152.7383  143.2176  160.6391 C   0  0  0  0  0  0  0  0  0  0  0  0
  153.1793  141.9803  159.8341 C   0  0  1  0  0  0  0  0  0  0  0  0
  153.6649  140.8488  160.7508 C   0  0  0  0  0  0  0  0  0  0  0  0
  152.0777  141.4921  159.0063 N   0  0  0  0  0  0  0  0  0  0  0  0
  152.1573  140.5367  158.0666 C   0  0  0  0  0  0  0  0  0  0  0  0
  153.2024  139.9462  157.7887 O   0  0  0  0  0  0  0  0  0  0  0  0
  150.8408  140.2187  157.3395 C   0  0  0  0  0  0  0  0  0  0  0  0
  150.9534  139.1706  156.3145 N   0  0  0  0  0  0  0  0  0  0  0  0
  151.3762  137.8758  156.8410 N   0  5  0  0  0  0  0  0  0  0  0  0
  151.4940  136.8216  155.9908 C   0  0  0  0  0  0  0  0  0  0  0  0
  151.8284  135.6994  156.3635 O   0  0  0  0  0  0  0  0  0  0  0  0
  151.2136  137.0438  154.5819 C   0  0  0  0  0  0  0  0  0  0  0  0
  150.8487  138.2560  154.1200 C   0  0  0  0  0  0  0  0  0  0  0  0
  150.7064  139.4133  154.9952 C   0  0  0  0  0  0  0  0  0  0  0  0
  150.3834  140.5261  154.5789 O   0  0  0  0  0  0  0  0  0  0  0  0
  151.9221  145.2181  160.3804 H   0  0  0  0  0  0  0  0  0  0  0  0
  151.2616  144.0411  159.2527 H   0  0  0  0  0  0  0  0  0  0  0  0
  152.8925  144.6672  159.0179 H   0  0  0  0  0  0  0  0  0  0  0  0
  153.5931  143.6040  161.1953 H   0  0  0  0  0  0  0  0  0  0  0  0
  151.9967  142.9291  161.3850 H   0  0  0  0  0  0  0  0  0  0  0  0
  154.0209  142.2769  159.2059 H   0  0  0  0  0  0  0  0  0  0  0  0
  154.5042  141.1752  161.3656 H   0  0  0  0  0  0  0  0  0  0  0  0
  153.9988  139.9888  160.1692 H   0  0  0  0  0  0  0  0  0  0  0  0
  152.8730  140.5114  161.4207 H   0  0  0  0  0  0  0  0  0  0  0  0
  151.1766  141.9218  159.1563 H   0  0  0  0  0  0  0  0  0  0  0  0
  150.0921  139.9306  158.0795 H   0  0  0  0  0  0  0  0  0  0  0  0
  150.4675  141.1420  156.8925 H   0  0  0  0  0  0  0  0  0  0  0  0
  151.3023  136.2188  153.8903 H   0  0  0  0  0  0  0  0  0  0  0  0
  150.6513  138.3755  153.0652 H   0  0  0  0  0  0  0  0  0  0  0  0
  1  2  1  0  0  0  0
  1 17  1  0  0  0  0
  1 18  1  0  0  0  0
  1 19  1  0  0  0  0
  2  3  1  0  0  0  0
  2 20  1  0  0  0  0
  2 21  1  0  0  0  0
  3  4  1  0  0  0  0
  3  5  1  0  0  0  0
  3 22  1  0  0  0  0
  4 23  1  0  0  0  0
  4 24  1  0  0  0  0
  4 25  1  0  0  0  0
  5  6  1  0  0  0  0
  5 26  1  0  0  0  0
  6  7  2  0  0  0  0
  6  8  1  0  0  0  0
  8 27  1  0  0  0  0
  8 28  1  0  0  0  0
  8  9  1  0  0  0  0
  9 10  1  0  0  0  0
  9 15  1  0  0  0  0
 10 11  1  0  0  0  0
 11 12  2  0  0  0  0
 11 13  1  0  0  0  0
 13 29  1  0  0  0  0
 13 14  2  0  0  0  0
 14 30  1  0  0  0  0
 14 15  1  0  0  0  0
 15 16  2  0  0  0  0
M  CHG  1  10  -1
M  END
> <s_m_source_file>
AV-unprocessed.smi

> <i_m_source_file_index>
1527

> <i_lp_mmshare_version>
43012

> <i_f3d_flags>
0

> <s_epik_input>
W0NIM11bQ0gyXVtDQEhdKFtDSDNdKVtOSF1DKD1PKVtDSDJdbjFbbkhdYyg9TylbY0hdW2NIXWMxPU8=

> <s_epik_cmdline>
J2VwaWtfcHl0aG9uJywgJy1waCcsICc3LjAnLCAnLXRuJywgJzgnLCAnLW1hJywgJzIwMCcsICctbWV0YWxfYmluZGluZycsICctaW1hZScsICc8aW5maWxlLm1hZT4nLCAnLW9tYWUnLCAnPG91dGZpbGUubWFlPic=

> <r_lp_tautomer_probability>
1

> <r_epik_Ionization_Penalty>
0.0984334

> <r_epik_Ionization_Penalty_Charging>
0.0984334

> <r_epik_Ionization_Penalty_Neutral>
1.93017e-08

> <r_epik_State_Penalty>
0.0346952

> <r_epik_Charging_Adjusted_Penalty>
0.133129

> <i_epik_Tot_Q>
-1

> <i_epik_Tot_abs_Q>
1

> <r_epik_Metal_State_Penalty>
0.0346952

> <b_epik_Metal_Only>
0

> <s_lp_Force_Field>
OPLS_2005

> <r_lp_Energy>
18.954

> <b_lp_Chiralities_Consistent>
1

> <s_lp_Variant>
AV-unprocessed.smi:1527-2

> <Gold.Version>
5.8.1

> <Gold.Id.Protein>
6NUR|6NUR_protein|mol2

> <Gold.PLP.Fitness>
39.4066

> <Gold.PLP.PLP>
-31.1831

> <Gold.PLP.part.hbond>
-3.0000

> <Gold.PLP.part.metal>
0.0000

> <Gold.PLP.part.buried>
-2.4421

> <Gold.PLP.part.nonpolar>
-25.7866

> <Gold.PLP.part.repulsive>
0.2342

> <Gold.PLP.ligand.clash>
0.0000

> <Gold.PLP.ligand.torsion>
0.0615

> <Gold.PLP.Chemscore.Hbond>
2.7776

> <Gold.PLP.Chemscore.CHOScore>
0.0000

> <Gold.PLP.Chemscore.Metal>
0.0000

> <Gold.Chemscore.Hbonds>
donor molecule, donor type, donor heavy atom, donor atom, acceptor molecule, acceptor atom, score
      P1  H  7989  7998       L1    16  0.96
      P1  H  7997  8008       L1     7  1.00
      P1  H 10752 10764       L1    12  0.80

> <Gold.PLP.Chemscore.Internal.Correction>
0.0136

> <Gold.Rescore>
     Score         DG    S(hbond)    S(metal)    S(lipo)     H(rot)  DE(clash)    DE(int)     intcor
     16.04     -16.48       2.50        0.00      65.09       1.94       0.00       0.44       ----

> <Gold.Chemscore.Fitness>
16.0350

> <Gold.Chemscore.DG>
-16.4758

> <Gold.Chemscore.ZeroCoef>
-5.4800

> <Gold.Chemscore.Hbond>
2.5027

> <Gold.Chemscore.Metal>
0.0000

> <Gold.Chemscore.Lipo>
65.0932

> <Gold.Chemscore.Internal_Hbond>
0.0000

> <Gold.Chemscore.DEClash>
0.0045

> <Gold.Chemscore.DEInternal>
0.4362

> <Gold.Chemscore.Rot>
1.9449

> <Gold.Chemscore.Internal.Correction>
   9.000000E+99

> <Gold.Chemscore.Hbonds>
donor molecule, donor type, donor heavy atom, donor atom, acceptor molecule, acceptor atom, score
      P1  H  7989  7998       L1    16  0.37
      P1  H  7997  8008       L1     7  0.95
      P1  H 10752 10764       L1    12  0.12

> <Gold.Chemscore.Hbond.Weighted>
-8.3589

> <Gold.Chemscore.Metal.Weighted>
-0.0000

> <Gold.Chemscore.Lipo.Weighted>
-7.6159

> <Gold.Chemscore.Internal_Hbond.Weighted>
0.0000

> <Gold.Chemscore.DEClash.Weighted>
0.0045

> <Gold.Chemscore.DEInternal.Weighted>
0.4362

> <Gold.Chemscore.Rot.Weighted>
4.9791

> <Gold.Chemscore.Internal.Correction.Weighted>
   9.000000E+99

> <Gold.Protein.RotatedTorsions>
[ 6907 6896 6895 6894 ] final  117.07 input  -60.11 | X-H torsion
[ 7974 7965 7964 7962 ] final -174.09 input  175.53 | X-H torsion
[ 8008 7997 7996 7995 ] final  -67.95 input   59.86 | X-H torsion
[ 10167 10162 10161 10158 ] final -160.07 input  -65.29 | X-H torsion
[ 10718 10713 10712 10709 ] final -105.58 input   66.30 | X-H torsion
[ 10763 10752 10751 10750 ] final  -28.71 input  -60.55 | X-H torsion
[ 11005 11000 10999 10996 ] final   13.30 input  -57.11 | X-H torsion

> <Gold.Protein.ActiveResidues>
 VAL166  LYS551  ARG553  GLY616  TRP617  ASP618  TYR619  PRO620  LYS621  CYS622 
 ASP623  PHE694  ASN695  SER759  ASP760  ASP761  ALA762  ILE779  LEU786  VAL792 
 PHE793  MET794  SER795  GLU796  ALA797  LYS798  CYS799  TRP800  GLU811  SER814 

> <Gold.Protein.RotatedAtoms>
  152.4636  133.7875  159.6883 H   0  0  0  0  0  0  0  0  0  0  0  0  # atno 6907 bound_to 6896
  150.8591  133.7661  159.3005 H   0  0  0  0  0  0  0  0  0  0  0  0  # atno 6908 bound_to 6896
  151.5232  135.1070  159.9936 H   0  0  0  0  0  0  0  0  0  0  0  0  # atno 6909 bound_to 6896
  144.7134  140.1524  143.6383 H   0  0  0  0  0  0  0  0  0  0  0  0  # atno 7974 bound_to 7965
  154.4834  140.0882  156.7431 H   0  0  0  0  0  0  0  0  0  0  0  0  # atno 8008 bound_to 7997
  155.4411  140.3453  155.4272 H   0  0  0  0  0  0  0  0  0  0  0  0  # atno 8009 bound_to 7997
  156.1226  140.1478  156.9171 H   0  0  0  0  0  0  0  0  0  0  0  0  # atno 8010 bound_to 7997
  139.6567  143.9986  152.2198 H   0  0  0  0  0  0  0  0  0  0  0  0  # atno 10167 bound_to 10162
  156.0352  130.5571  150.7560 H   0  0  0  0  0  0  0  0  0  0  0  0  # atno 10718 bound_to 10713
  153.7527  135.6925  153.4942 H   0  0  0  0  0  0  0  0  0  0  0  0  # atno 10763 bound_to 10752
  153.1992  135.4443  155.0244 H   0  0  0  0  0  0  0  0  0  0  0  0  # atno 10764 bound_to 10752
  154.8181  135.3409  154.7047 H   0  0  0  0  0  0  0  0  0  0  0  0  # atno 10765 bound_to 10752
  140.4822  134.0924  155.7753 H   0  0  0  0  0  0  0  0  0  0  0  0  # atno 11005 bound_to 11000
  145.9104  139.2484  143.1441 LP  0  0  0  0  0  0  0  0  0  0  0  0  # atno 17320 bound_to 7965
  145.9721  140.8751  143.0157 LP  0  0  0  0  0  0  0  0  0  0  0  0  # atno 17321 bound_to 7965
  139.9714  144.6491  150.7985 LP  0  0  0  0  0  0  0  0  0  0  0  0  # atno 17342 bound_to 10162
  140.7562  143.3061  151.2958 LP  0  0  0  0  0  0  0  0  0  0  0  0  # atno 17343 bound_to 10162
  157.5092  131.0924  151.0220 LP  0  0  0  0  0  0  0  0  0  0  0  0  # atno 17370 bound_to 10713
  157.0580  130.5814  149.5381 LP  0  0  0  0  0  0  0  0  0  0  0  0  # atno 17371 bound_to 10713
  141.1525  133.8942  157.2061 LP  0  0  0  0  0  0  0  0  0  0  0  0  # atno 17394 bound_to 11000
  139.9819  135.0095  156.9771 LP  0  0  0  0  0  0  0  0  0  0  0  0  # atno 17395 bound_to 11000

$$$$
