AV-unprocessed.smi:1487|AV-procd|sdf|6020|dock3
  -GOLD-   22720 6123D 1   1.00000     0.00000
 Structure written by MMmdl.
 49 51  0  0  0  0  0  0  0  0  3 V2000
  152.2855  143.7794  160.2539 C   0  0  0  0  0  0  0  0  0  0  0  0
  152.0295  142.7896  159.1301 C   0  0  0  0  0  0  0  0  0  0  0  0
  151.0863  143.1285  158.1339 C   0  0  0  0  0  0  0  0  0  0  0  0
  150.8761  142.2035  157.1183 C   0  0  0  0  0  0  0  0  0  0  0  0
  150.0303  142.2417  156.0079 N   0  3  0  0  0  0  0  0  0  0  0  0
  150.1716  141.0943  155.2886 C   0  0  0  0  0  0  0  0  0  0  0  0
  151.0977  140.3234  155.9218 N   0  0  0  0  0  0  0  0  0  0  0  0
  151.6091  138.9911  155.5671 C   0  0  0  0  0  0  0  0  0  0  0  0
  150.7190  138.2575  154.5442 C   0  0  1  0  0  0  0  0  0  0  0  0
  151.4174  137.1463  154.0174 O   0  0  0  0  0  0  0  0  0  0  0  0
  149.4101  137.7542  155.1853 C   0  0  0  0  0  0  0  0  0  0  0  0
  148.3098  137.6056  154.1980 N   0  3  1  0  0  0  0  0  0  0  0  0
  147.1770  136.8053  154.7294 C   0  0  0  0  0  0  0  0  0  0  0  0
  146.1452  136.5128  153.6292 C   0  0  0  0  0  0  0  0  0  0  0  0
  145.6324  137.8135  152.9959 C   0  0  0  0  0  0  0  0  0  0  0  0
  146.7996  138.6926  152.5159 C   0  0  2  0  0  0  0  0  0  0  0  0
  147.4126  138.1205  151.3769 O   0  0  0  0  0  0  0  0  0  0  0  0
  147.8514  138.9005  153.6237 C   0  0  0  0  0  0  0  0  0  0  0  0
  151.5636  140.9749  157.0709 C   0  0  0  0  0  0  0  0  0  0  0  0
  152.4952  140.6251  158.0462 C   0  0  0  0  0  0  0  0  0  0  0  0
  152.7248  141.5537  159.0866 C   0  0  0  0  0  0  0  0  0  0  0  0
  153.7389  141.2012  160.1616 C   0  0  0  0  0  0  0  0  0  0  0  0
  151.7007  144.6907  160.1245 H   0  0  0  0  0  0  0  0  0  0  0  0
  153.3381  144.0618  160.2841 H   0  0  0  0  0  0  0  0  0  0  0  0
  152.0156  143.3433  161.2160 H   0  0  0  0  0  0  0  0  0  0  0  0
  150.5531  144.0677  158.1608 H   0  0  0  0  0  0  0  0  0  0  0  0
  149.6423  140.8418  154.3809 H   0  0  0  0  0  0  0  0  0  0  0  0
  152.6354  139.0833  155.2105 H   0  0  0  0  0  0  0  0  0  0  0  0
  151.6609  138.4142  156.4915 H   0  0  0  0  0  0  0  0  0  0  0  0
  150.5031  138.9410  153.7236 H   0  0  0  0  0  0  0  0  0  0  0  0
  151.0595  136.9413  153.1666 H   0  0  0  0  0  0  0  0  0  0  0  0
  149.6112  136.7931  155.6618 H   0  0  0  0  0  0  0  0  0  0  0  0
  149.0893  138.4249  155.9838 H   0  0  0  0  0  0  0  0  0  0  0  0
  147.5464  135.8591  155.1266 H   0  0  0  0  0  0  0  0  0  0  0  0
  146.7089  137.3379  155.5589 H   0  0  0  0  0  0  0  0  0  0  0  0
  146.5957  135.8806  152.8628 H   0  0  0  0  0  0  0  0  0  0  0  0
  145.3100  135.9468  154.0423 H   0  0  0  0  0  0  0  0  0  0  0  0
  144.9521  137.5937  152.1722 H   0  0  0  0  0  0  0  0  0  0  0  0
  145.0503  138.3642  153.7360 H   0  0  0  0  0  0  0  0  0  0  0  0
  146.4075  139.6624  152.2079 H   0  0  0  0  0  0  0  0  0  0  0  0
  147.7444  137.2656  151.6064 H   0  0  0  0  0  0  0  0  0  0  0  0
  147.4240  139.5087  154.4226 H   0  0  0  0  0  0  0  0  0  0  0  0
  148.6918  139.4657  153.2222 H   0  0  0  0  0  0  0  0  0  0  0  0
  153.0294  139.6871  158.0134 H   0  0  0  0  0  0  0  0  0  0  0  0
  154.1513  140.2032  160.0100 H   0  0  0  0  0  0  0  0  0  0  0  0
  153.2766  141.2226  161.1488 H   0  0  0  0  0  0  0  0  0  0  0  0
  154.5677  141.9095  160.1516 H   0  0  0  0  0  0  0  0  0  0  0  0
  148.6918  137.0670  153.4327 H   0  0  0  0  0  0  0  0  0  0  0  0
  149.4003  142.9937  155.7585 H   0  0  0  0  0  0  0  0  0  0  0  0
  1  2  1  0  0  0  0
  1 23  1  0  0  0  0
  1 24  1  0  0  0  0
  1 25  1  0  0  0  0
  2 21  1  0  0  0  0
  2  3  2  0  0  0  0
  3  4  1  0  0  0  0
  3 26  1  0  0  0  0
  4 19  2  0  0  0  0
  4  5  1  0  0  0  0
  5  6  2  0  0  0  0
  5 49  1  0  0  0  0
  6  7  1  0  0  0  0
  6 27  1  0  0  0  0
  7  8  1  0  0  0  0
  7 19  1  0  0  0  0
  8  9  1  0  0  0  0
  8 28  1  0  0  0  0
  8 29  1  0  0  0  0
  9 10  1  0  0  0  0
  9 11  1  0  0  0  0
  9 30  1  0  0  0  0
 10 31  1  0  0  0  0
 11 12  1  0  0  0  0
 11 32  1  0  0  0  0
 11 33  1  0  0  0  0
 12 18  1  0  0  0  0
 12 13  1  0  0  0  0
 12 48  1  0  0  0  0
 13 14  1  0  0  0  0
 13 34  1  0  0  0  0
 13 35  1  0  0  0  0
 14 15  1  0  0  0  0
 14 36  1  0  0  0  0
 14 37  1  0  0  0  0
 15 16  1  0  0  0  0
 15 38  1  0  0  0  0
 15 39  1  0  0  0  0
 16 17  1  0  0  0  0
 16 18  1  0  0  0  0
 16 40  1  0  0  0  0
 17 41  1  0  0  0  0
 18 42  1  0  0  0  0
 18 43  1  0  0  0  0
 19 20  1  0  0  0  0
 20 21  2  0  0  0  0
 20 44  1  0  0  0  0
 21 22  1  0  0  0  0
 22 45  1  0  0  0  0
 22 46  1  0  0  0  0
 22 47  1  0  0  0  0
M  CHG  1   5   1
M  CHG  1  12   1
M  END
> <s_m_source_file>
AV-unprocessed.smi

> <i_m_source_file_index>
1487

> <i_lp_mmshare_version>
43012

> <i_f3d_flags>
0

> <s_epik_input>
W0NIM11jKFtjSF0xKWMoW0NIM10pW2NIXWMoYzEyKW4oW2NIXW4yKVtDSDJdW0NASF0oW09IXSlbQ0gyXU4zW0NIMl1bQ0gyXVtDSDJdW0NAQEhdKFtPSF0pW0NIMl0z

> <s_epik_cmdline>
J2VwaWtfcHl0aG9uJywgJy1waCcsICc3LjAnLCAnLXRuJywgJzgnLCAnLW1hJywgJzIwMCcsICctbWV0YWxfYmluZGluZycsICctaW1hZScsICc8aW5maWxlLm1hZT4nLCAnLW9tYWUnLCAnPG91dGZpbGUubWFlPic=

> <r_epik_Ionization_Penalty>
1.1857

> <r_epik_Ionization_Penalty_Charging>
1.1857

> <r_epik_Ionization_Penalty_Neutral>
1.75578e-06

> <r_epik_State_Penalty>
1.26953

> <r_epik_Charging_Adjusted_Penalty>
2.45524

> <i_epik_Tot_Q>
2

> <i_epik_Tot_abs_Q>
2

> <r_epik_Metal_State_Penalty>
5.28243

> <b_epik_Metal_Only>
0

> <s_lp_Force_Field>
OPLS_2005

> <r_lp_Energy>
31.2796

> <b_lp_Chiralities_Consistent>
1

> <s_lp_Variant>
AV-unprocessed.smi:1487-14

> <Gold.Version>
5.8.1

> <Gold.Id.Protein>
6NUR|6NUR_protein|mol2

> <Gold.PLP.Fitness>
65.9519

> <Gold.PLP.PLP>
-46.0156

> <Gold.PLP.part.hbond>
-6.4130

> <Gold.PLP.part.metal>
0.0000

> <Gold.PLP.part.buried>
-4.8885

> <Gold.PLP.part.nonpolar>
-35.2174

> <Gold.PLP.part.repulsive>
0.1211

> <Gold.PLP.ligand.clash>
0.0000

> <Gold.PLP.ligand.torsion>
0.6532

> <Gold.PLP.Chemscore.Hbond>
7.0637

> <Gold.PLP.Chemscore.CHOScore>
0.0000

> <Gold.PLP.Chemscore.Metal>
0.0000

> <Gold.Chemscore.Hbonds>
donor molecule, donor type, donor heavy atom, donor atom, acceptor molecule, acceptor atom, score
      L1  H     5    49       P1  8028  2.00
      L1  H    10    31       P1  7949  1.00
      L1  H    12    48       P1  7948  2.00
      L1  H    17    41       P1  7948  1.00
      P1  H  7954  7966       L1    17  0.25
      P1  H 10752 10763       L1    10  0.73

> <Gold.PLP.Chemscore.Internal.Correction>
0.0514

> <Gold.Rescore>
     Score         DG    S(hbond)    S(metal)    S(lipo)     H(rot)  DE(clash)    DE(int)     intcor
     24.38     -25.25       4.00        0.00     114.77       2.74       0.27       0.60       ----

> <Gold.Chemscore.Fitness>
24.3761

> <Gold.Chemscore.DG>
-25.2496

> <Gold.Chemscore.ZeroCoef>
-5.4800

> <Gold.Chemscore.Hbond>
3.9974

> <Gold.Chemscore.Metal>
0.0000

> <Gold.Chemscore.Lipo>
114.7743

> <Gold.Chemscore.Internal_Hbond>
0.0000

> <Gold.Chemscore.DEClash>
0.2711

> <Gold.Chemscore.DEInternal>
0.6024

> <Gold.Chemscore.Rot>
2.7384

> <Gold.Chemscore.Internal.Correction>
   9.000000E+99

> <Gold.Chemscore.Hbonds>
donor molecule, donor type, donor heavy atom, donor atom, acceptor molecule, acceptor atom, score
      L1  H     5    49       P1  8028  0.98
      L1  H    10    31       P1  7949  0.33
      L1  H    12    48       P1  7948  1.00
      L1  H    17    41       P1  7948  0.93
      P1  H 10752 10763       L1    10  0.22

> <Gold.Chemscore.Hbond.Weighted>
-13.3514

> <Gold.Chemscore.Metal.Weighted>
-0.0000

> <Gold.Chemscore.Lipo.Weighted>
-13.4286

> <Gold.Chemscore.Internal_Hbond.Weighted>
0.0000

> <Gold.Chemscore.DEClash.Weighted>
0.2711

> <Gold.Chemscore.DEInternal.Weighted>
0.6024

> <Gold.Chemscore.Rot.Weighted>
7.0103

> <Gold.Chemscore.Internal.Correction.Weighted>
   9.000000E+99

> <Gold.Protein.RotatedTorsions>
[ 6907 6896 6895 6894 ] final  -72.60 input  -60.11 | X-H torsion
[ 7974 7965 7964 7962 ] final   38.00 input  175.53 | X-H torsion
[ 8008 7997 7996 7995 ] final   44.30 input   59.86 | X-H torsion
[ 10167 10162 10161 10158 ] final   22.11 input  -65.29 | X-H torsion
[ 10718 10713 10712 10709 ] final  -52.49 input   66.30 | X-H torsion
[ 10763 10752 10751 10750 ] final   33.71 input  -60.55 | X-H torsion
[ 11005 11000 10999 10996 ] final   -6.34 input  -57.11 | X-H torsion

> <Gold.Protein.ActiveResidues>
 VAL166  LYS551  ARG553  GLY616  TRP617  ASP618  TYR619  PRO620  LYS621  CYS622 
 ASP623  PHE694  ASN695  SER759  ASP760  ASP761  ALA762  ILE779  LEU786  VAL792 
 PHE793  MET794  SER795  GLU796  ALA797  LYS798  CYS799  TRP800  GLU811  SER814 

> <Gold.Protein.RotatedAtoms>
  150.7163  134.5140  159.5620 H   0  0  0  0  0  0  0  0  0  0  0  0  # atno 6907 bound_to 6896
  152.2710  134.7930  160.0423 H   0  0  0  0  0  0  0  0  0  0  0  0  # atno 6908 bound_to 6896
  151.8610  133.3422  159.3740 H   0  0  0  0  0  0  0  0  0  0  0  0  # atno 6909 bound_to 6896
  146.1095  139.5826  142.9361 H   0  0  0  0  0  0  0  0  0  0  0  0  # atno 7974 bound_to 7965
  155.3169  140.3394  155.4242 H   0  0  0  0  0  0  0  0  0  0  0  0  # atno 8008 bound_to 7997
  156.1928  140.1704  156.8096 H   0  0  0  0  0  0  0  0  0  0  0  0  # atno 8009 bound_to 7997
  154.5462  140.0714  156.8577 H   0  0  0  0  0  0  0  0  0  0  0  0  # atno 8010 bound_to 7997
  140.5374  143.9737  150.6499 H   0  0  0  0  0  0  0  0  0  0  0  0  # atno 10167 bound_to 10162
  156.1617  130.4149  149.9782 H   0  0  0  0  0  0  0  0  0  0  0  0  # atno 10718 bound_to 10713
  153.0199  135.6380  154.1554 H   0  0  0  0  0  0  0  0  0  0  0  0  # atno 10763 bound_to 10752
  154.1289  135.2842  155.3192 H   0  0  0  0  0  0  0  0  0  0  0  0  # atno 10764 bound_to 10752
  154.6209  135.5525  153.7636 H   0  0  0  0  0  0  0  0  0  0  0  0  # atno 10765 bound_to 10752
  140.7009  133.8990  155.8683 H   0  0  0  0  0  0  0  0  0  0  0  0  # atno 11005 bound_to 11000
  145.5692  141.0396  143.2183 LP  0  0  0  0  0  0  0  0  0  0  0  0  # atno 17320 bound_to 7965
  144.7499  139.7220  143.7277 LP  0  0  0  0  0  0  0  0  0  0  0  0  # atno 17321 bound_to 7965
  140.3128  143.3187  152.0862 LP  0  0  0  0  0  0  0  0  0  0  0  0  # atno 17342 bound_to 10162
  139.4976  144.6625  151.6432 LP  0  0  0  0  0  0  0  0  0  0  0  0  # atno 17343 bound_to 10162
  156.7609  130.9151  151.3641 LP  0  0  0  0  0  0  0  0  0  0  0  0  # atno 17370 bound_to 10713
  157.6738  130.9075  150.0101 LP  0  0  0  0  0  0  0  0  0  0  0  0  # atno 17371 bound_to 10713
  141.0164  134.0949  157.4167 LP  0  0  0  0  0  0  0  0  0  0  0  0  # atno 17394 bound_to 11000
  139.8897  135.0107  156.6694 LP  0  0  0  0  0  0  0  0  0  0  0  0  # atno 17395 bound_to 11000

$$$$
