AV-unprocessed.smi:1644|AV-procd|sdf|6599|dock8
  -GOLD-   22720 7303D 1   1.00000     0.00000
 Structure written by MMmdl.
 49 51  0  0  0  0  0  0  0  0  3 V2000
  149.5561  130.8680  153.9046 C   0  0  0  0  0  0  0  0  0  0  0  0
  148.8162  132.0721  154.4971 C   0  0  0  0  0  0  0  0  0  0  0  0
  149.7508  133.2781  154.7332 C   0  0  0  0  0  0  0  0  0  0  0  0
  149.0929  134.5458  155.3311 C   0  0  1  0  0  0  0  0  0  0  0  0
  148.5709  134.3057  156.6604 N   0  5  0  0  0  0  0  0  0  0  0  0
  149.1362  135.1966  157.5084 C   0  0  0  0  0  0  0  0  0  0  0  0
  148.9436  135.2824  158.7212 O   0  0  0  0  0  0  0  0  0  0  0  0
  149.9913  136.0111  156.8588 N   0  0  0  0  0  0  0  0  0  0  0  0
  150.8028  137.0551  157.4915 C   0  0  0  0  0  0  0  0  0  0  0  0
  150.4580  138.4514  156.9328 C   0  0  1  0  0  0  0  0  0  0  0  0
  149.3476  138.9736  157.6359 O   0  0  0  0  0  0  0  0  0  0  0  0
  151.6316  139.4391  157.0813 C   0  0  0  0  0  0  0  0  0  0  0  0
  151.1834  140.8360  157.1317 N   0  0  0  0  0  0  0  0  0  0  0  0
  150.4273  141.5521  156.2568 C   0  0  0  0  0  0  0  0  0  0  0  0
  150.3016  142.8119  156.7604 N   0  3  0  0  0  0  0  0  0  0  0  0
  150.9920  142.9008  157.9720 C   0  0  0  0  0  0  0  0  0  0  0  0
  151.1641  143.9651  158.8492 C   0  0  0  0  0  0  0  0  0  0  0  0
  151.9387  143.7278  160.0076 C   0  0  0  0  0  0  0  0  0  0  0  0
  152.1541  144.8722  160.9830 C   0  0  0  0  0  0  0  0  0  0  0  0
  152.5061  142.4512  160.2582 C   0  0  0  0  0  0  0  0  0  0  0  0
  153.3376  142.2056  161.5057 C   0  0  0  0  0  0  0  0  0  0  0  0
  152.3164  141.3810  159.3561 C   0  0  0  0  0  0  0  0  0  0  0  0
  151.5564  141.6347  158.2171 C   0  0  0  0  0  0  0  0  0  0  0  0
  150.0517  135.6963  155.5620 C   0  0  0  0  0  0  0  0  0  0  0  0
  150.7515  136.2124  154.6900 O   0  0  0  0  0  0  0  0  0  0  0  0
  148.8723  130.0355  153.7391 H   0  0  0  0  0  0  0  0  0  0  0  0
  150.3452  130.5240  154.5734 H   0  0  0  0  0  0  0  0  0  0  0  0
  150.0129  131.1191  152.9469 H   0  0  0  0  0  0  0  0  0  0  0  0
  148.0067  132.3551  153.8237 H   0  0  0  0  0  0  0  0  0  0  0  0
  148.3465  131.7677  155.4327 H   0  0  0  0  0  0  0  0  0  0  0  0
  150.5632  132.9664  155.3912 H   0  0  0  0  0  0  0  0  0  0  0  0
  150.2277  133.5461  153.7894 H   0  0  0  0  0  0  0  0  0  0  0  0
  148.3110  134.8899  154.6530 H   0  0  0  0  0  0  0  0  0  0  0  0
  150.7128  137.0303  158.5791 H   0  0  0  0  0  0  0  0  0  0  0  0
  151.8502  136.8237  157.2906 H   0  0  0  0  0  0  0  0  0  0  0  0
  150.1884  138.3768  155.8789 H   0  0  0  0  0  0  0  0  0  0  0  0
  149.3938  138.6776  158.5320 H   0  0  0  0  0  0  0  0  0  0  0  0
  152.2002  139.2331  157.9894 H   0  0  0  0  0  0  0  0  0  0  0  0
  152.3300  139.3432  156.2489 H   0  0  0  0  0  0  0  0  0  0  0  0
  150.0080  141.1891  155.3297 H   0  0  0  0  0  0  0  0  0  0  0  0
  150.7291  144.9341  158.6524 H   0  0  0  0  0  0  0  0  0  0  0  0
  153.2186  145.0679  161.1155 H   0  0  0  0  0  0  0  0  0  0  0  0
  151.7218  144.6318  161.9545 H   0  0  0  0  0  0  0  0  0  0  0  0
  151.6887  145.7925  160.6284 H   0  0  0  0  0  0  0  0  0  0  0  0
  153.6620  141.1663  161.5701 H   0  0  0  0  0  0  0  0  0  0  0  0
  152.7602  142.4295  162.4030 H   0  0  0  0  0  0  0  0  0  0  0  0
  154.2291  142.8332  161.4998 H   0  0  0  0  0  0  0  0  0  0  0  0
  152.7526  140.4099  159.5426 H   0  0  0  0  0  0  0  0  0  0  0  0
  149.7860  143.5549  156.3062 H   0  0  0  0  0  0  0  0  0  0  0  0
  1  2  1  0  0  0  0
  1 26  1  0  0  0  0
  1 27  1  0  0  0  0
  1 28  1  0  0  0  0
  2  3  1  0  0  0  0
  2 29  1  0  0  0  0
  2 30  1  0  0  0  0
  3  4  1  0  0  0  0
  3 31  1  0  0  0  0
  3 32  1  0  0  0  0
  4 24  1  0  0  0  0
  4  5  1  0  0  0  0
  4 33  1  0  0  0  0
  5  6  1  0  0  0  0
  6  7  2  0  0  0  0
  6  8  1  0  0  0  0
  8  9  1  0  0  0  0
  8 24  1  0  0  0  0
  9 10  1  0  0  0  0
  9 34  1  0  0  0  0
  9 35  1  0  0  0  0
 10 11  1  0  0  0  0
 10 12  1  0  0  0  0
 10 36  1  0  0  0  0
 11 37  1  0  0  0  0
 12 13  1  0  0  0  0
 12 38  1  0  0  0  0
 12 39  1  0  0  0  0
 13 23  1  0  0  0  0
 13 14  1  0  0  0  0
 14 15  2  0  0  0  0
 14 40  1  0  0  0  0
 15 16  1  0  0  0  0
 15 49  1  0  0  0  0
 16 23  2  0  0  0  0
 16 17  1  0  0  0  0
 17 18  2  0  0  0  0
 17 41  1  0  0  0  0
 18 19  1  0  0  0  0
 18 20  1  0  0  0  0
 19 42  1  0  0  0  0
 19 43  1  0  0  0  0
 19 44  1  0  0  0  0
 20 21  1  0  0  0  0
 20 22  2  0  0  0  0
 21 45  1  0  0  0  0
 21 46  1  0  0  0  0
 21 47  1  0  0  0  0
 22 23  1  0  0  0  0
 22 48  1  0  0  0  0
 24 25  2  0  0  0  0
M  CHG  1   5  -1
M  CHG  1  15   1
M  END
> <s_m_source_file>
AV-unprocessed.smi

> <i_m_source_file_index>
1644

> <i_lp_mmshare_version>
43012

> <i_f3d_flags>
0

> <s_epik_input>
W0NIM11bQ0gyXVtDSDJdW0NAQEhdMVtOSF1DKD1PKU4oQzE9TylbQ0gyXVtDQEhdKFtPSF0pW0NIMl1uKFtjSF1uMiljKGMyMylbY0hdYyhbQ0gzXSljKFtjSF0zKVtDSDNd

> <s_epik_cmdline>
J2VwaWtfcHl0aG9uJywgJy1waCcsICc3LjAnLCAnLXRuJywgJzgnLCAnLW1hJywgJzIwMCcsICctbWV0YWxfYmluZGluZycsICctaW1hZScsICc8aW5maWxlLm1hZT4nLCAnLW9tYWUnLCAnPG91dGZpbGUubWFlPic=

> <r_lp_tautomer_probability>
1

> <r_epik_Ionization_Penalty>
6.86868

> <r_epik_Ionization_Penalty_Charging>
6.86868

> <r_epik_Ionization_Penalty_Neutral>
5.84798e-07

> <r_epik_State_Penalty>
6.92818

> <r_epik_Charging_Adjusted_Penalty>
13.7969

> <i_epik_Tot_Q>
0

> <i_epik_Tot_abs_Q>
2

> <r_epik_Metal_State_Penalty>
2.98017

> <b_epik_Metal_Only>
1

> <s_lp_Force_Field>
OPLS_2005

> <r_lp_Energy>
22.7733

> <b_lp_Chiralities_Consistent>
1

> <s_lp_Variant>
AV-unprocessed.smi:1644-16

> <Gold.Version>
5.8.1

> <Gold.Id.Protein>
6NUR|6NUR_protein|mol2

> <Gold.PLP.Fitness>
57.6783

> <Gold.PLP.PLP>
-46.8159

> <Gold.PLP.part.hbond>
-3.0000

> <Gold.PLP.part.metal>
0.0000

> <Gold.PLP.part.buried>
-7.1434

> <Gold.PLP.part.nonpolar>
-38.0655

> <Gold.PLP.part.repulsive>
0.2731

> <Gold.PLP.ligand.clash>
0.0000

> <Gold.PLP.ligand.torsion>
0.5984

> <Gold.PLP.Chemscore.Hbond>
3.9840

> <Gold.PLP.Chemscore.CHOScore>
0.0000

> <Gold.PLP.Chemscore.Metal>
0.0000

> <Gold.Chemscore.Hbonds>
donor molecule, donor type, donor heavy atom, donor atom, acceptor molecule, acceptor atom, score
      L1  H    15    49       P1  8028  2.00
      P1  H  6896  6908       L1     7  0.96
      P1  H 10752 10764       L1    25  0.42

> <Gold.PLP.Chemscore.Internal.Correction>
0.1073

> <Gold.Rescore>
     Score         DG    S(hbond)    S(metal)    S(lipo)     H(rot)  DE(clash)    DE(int)     intcor
     21.16     -22.01       2.85        0.00     119.51       2.72       0.31       0.54       ----

> <Gold.Chemscore.Fitness>
21.1589

> <Gold.Chemscore.DG>
-22.0127

> <Gold.Chemscore.ZeroCoef>
-5.4800

> <Gold.Chemscore.Hbond>
2.8518

> <Gold.Chemscore.Metal>
0.0000

> <Gold.Chemscore.Lipo>
119.5084

> <Gold.Chemscore.Internal_Hbond>
0.0000

> <Gold.Chemscore.DEClash>
0.3120

> <Gold.Chemscore.DEInternal>
0.5417

> <Gold.Chemscore.Rot>
2.7245

> <Gold.Chemscore.Internal.Correction>
   9.000000E+99

> <Gold.Chemscore.Hbonds>
donor molecule, donor type, donor heavy atom, donor atom, acceptor molecule, acceptor atom, score
      L1  H    15    49       P1  8028  0.99
      P1  H  6896  6908       L1     7  0.45
      P1  H 10752 10764       L1    25  0.42

> <Gold.Chemscore.Hbond.Weighted>
-9.5250

> <Gold.Chemscore.Metal.Weighted>
-0.0000

> <Gold.Chemscore.Lipo.Weighted>
-13.9825

> <Gold.Chemscore.Internal_Hbond.Weighted>
0.0000

> <Gold.Chemscore.DEClash.Weighted>
0.3120

> <Gold.Chemscore.DEInternal.Weighted>
0.5417

> <Gold.Chemscore.Rot.Weighted>
6.9748

> <Gold.Chemscore.Internal.Correction.Weighted>
   9.000000E+99

> <Gold.Protein.RotatedTorsions>
[ 6907 6896 6895 6894 ] final  172.73 input  -60.11 | X-H torsion
[ 7974 7965 7964 7962 ] final  -36.22 input  175.53 | X-H torsion
[ 8008 7997 7996 7995 ] final -156.98 input   59.86 | X-H torsion
[ 10167 10162 10161 10158 ] final   67.39 input  -65.29 | X-H torsion
[ 10718 10713 10712 10709 ] final  -81.85 input   66.30 | X-H torsion
[ 10763 10752 10751 10750 ] final  -63.70 input  -60.55 | X-H torsion
[ 11005 11000 10999 10996 ] final   18.82 input  -57.11 | X-H torsion

> <Gold.Protein.ActiveResidues>
 VAL166  LYS551  ARG553  GLY616  TRP617  ASP618  TYR619  PRO620  LYS621  CYS622 
 ASP623  PHE694  ASN695  SER759  ASP760  ASP761  ALA762  ILE779  LEU786  VAL792 
 PHE793  MET794  SER795  GLU796  ALA797  LYS798  CYS799  TRP800  GLU811  SER814 

> <Gold.Protein.RotatedAtoms>
  151.7796  133.3348  159.3467 H   0  0  0  0  0  0  0  0  0  0  0  0  # atno 6907 bound_to 6896
  150.7431  134.5943  159.6013 H   0  0  0  0  0  0  0  0  0  0  0  0  # atno 6908 bound_to 6896
  152.3285  134.7291  160.0347 H   0  0  0  0  0  0  0  0  0  0  0  0  # atno 6909 bound_to 6896
  146.0680  140.6253  142.8966 H   0  0  0  0  0  0  0  0  0  0  0  0  # atno 7974 bound_to 7965
  155.7255  140.0795  157.2312 H   0  0  0  0  0  0  0  0  0  0  0  0  # atno 8008 bound_to 7997
  154.4039  140.1605  156.2504 H   0  0  0  0  0  0  0  0  0  0  0  0  # atno 8009 bound_to 7997
  155.9157  140.3401  155.6136 H   0  0  0  0  0  0  0  0  0  0  0  0  # atno 8010 bound_to 7997
  140.0900  144.4996  150.7105 H   0  0  0  0  0  0  0  0  0  0  0  0  # atno 10167 bound_to 10162
  156.0043  130.4616  150.4015 H   0  0  0  0  0  0  0  0  0  0  0  0  # atno 10718 bound_to 10713
  154.3191  135.6200  153.5499 H   0  0  0  0  0  0  0  0  0  0  0  0  # atno 10763 bound_to 10752
  152.9822  135.5719  154.5091 H   0  0  0  0  0  0  0  0  0  0  0  0  # atno 10764 bound_to 10752
  154.4755  135.2861  155.1587 H   0  0  0  0  0  0  0  0  0  0  0  0  # atno 10765 bound_to 10752
  140.4206  134.1523  155.7672 H   0  0  0  0  0  0  0  0  0  0  0  0  # atno 11005 bound_to 11000
  144.7214  140.4385  143.7005 LP  0  0  0  0  0  0  0  0  0  0  0  0  # atno 17320 bound_to 7965
  145.6443  139.1555  143.2898 LP  0  0  0  0  0  0  0  0  0  0  0  0  # atno 17321 bound_to 7965
  140.7033  143.2450  151.4799 LP  0  0  0  0  0  0  0  0  0  0  0  0  # atno 17342 bound_to 10162
  139.5730  144.1884  152.1863 LP  0  0  0  0  0  0  0  0  0  0  0  0  # atno 17343 bound_to 10162
  157.2084  131.0454  151.2613 LP  0  0  0  0  0  0  0  0  0  0  0  0  # atno 17370 bound_to 10713
  157.3912  130.7283  149.6698 LP  0  0  0  0  0  0  0  0  0  0  0  0  # atno 17371 bound_to 10713
  141.1785  133.8463  157.1338 LP  0  0  0  0  0  0  0  0  0  0  0  0  # atno 17394 bound_to 11000
  140.0203  134.9949  157.0578 LP  0  0  0  0  0  0  0  0  0  0  0  0  # atno 17395 bound_to 11000

$$$$
