#       Name:                AV-unprocessed.smi:2528
#       Creating user name   scv26
#       Creation time:       Fri Mar 27 13:59:04 2020


#       File generated by GOLD software.
#

@<TRIPOS>MOLECULE
AV-unprocessed.smi:2528
    49    51     1
SMALL
NO_CHARGES


@<TRIPOS>ATOM
      1 ****        -0.2346   2.0076  -2.2399 O.2            1 S1                 0.0000
      2 ****        -0.7400   0.8964  -2.3992 C.2            1 S1                 0.0000
      3 ****        -0.0235  -0.2329  -2.4959 N.am           1 S1                 0.0000
      4 ****         1.4334  -0.3132  -2.4239 C.3            1 S1                 0.0000
      5 ****         1.9691  -0.3783  -0.9784 C.3            1 S1                 0.0000
      6 ****         1.3350  -1.4995  -0.1292 C.3            1 S1                 0.0000
      7 ****         1.8823  -1.4820   1.2469 N.4            1 S1                 1.0000
      8 ****         1.3256  -2.5704   2.0896 C.3            1 S1                 0.0000
      9 ****         1.9795  -2.5825   3.4802 C.3            1 S1                 0.0000
     10 ****         1.8180  -1.2215   4.1686 C.3            1 S1                 0.0000
     11 ****         2.3755  -0.1101   3.2694 C.3            1 S1                 0.0000
     12 ****         1.7272  -0.1392   1.8705 C.3            1 S1                 0.0000
     13 ****         2.3372   0.9385   0.9529 C.3            1 S1                 0.0000
     14 ****         1.7464   0.8729  -0.3380 O.3            1 S1                 0.0000
     15 ****        -2.0577   0.6480  -2.4987 N.am           1 S1                 0.0000
     16 ****        -3.1327   1.5729  -2.4162 C.ar           1 S1                 0.0000
     17 ****        -4.4183   1.0151  -2.6002 C.ar           1 S1                 0.0000
     18 ****        -5.5511   1.8496  -2.5354 C.ar           1 S1                 0.0000
     19 ****        -5.3690   3.2218  -2.2872 C.ar           1 S1                 0.0000
     20 ****        -4.0557   3.6957  -2.1135 C.ar           1 S1                 0.0000
     21 ****        -2.9687   2.8978  -2.1747 N.ar           1 S1                 0.0000
     22 ****        -0.5207  -1.1007  -2.6335 H              1 S1                 0.0000
     23 ****         1.7351  -1.2138  -2.9592 H              1 S1                 0.0000
     24 ****         1.8875   0.5223  -2.9594 H              1 S1                 0.0000
     25 ****         3.0465  -0.5436  -1.0371 H              1 S1                 0.0000
     26 ****         0.2514  -1.3810  -0.0808 H              1 S1                 0.0000
     27 ****         1.5321  -2.4690  -0.5884 H              1 S1                 0.0000
     28 ****         0.2459  -2.4438   2.1849 H              1 S1                 0.0000
     29 ****         1.4906  -3.5311   1.6003 H              1 S1                 0.0000
     30 ****         1.5364  -3.3665   4.0949 H              1 S1                 0.0000
     31 ****         3.0391  -2.8240   3.3861 H              1 S1                 0.0000
     32 ****         0.7636  -1.0351   4.3766 H              1 S1                 0.0000
     33 ****         2.3317  -1.2217   5.1305 H              1 S1                 0.0000
     34 ****         2.2080   0.8600   3.7389 H              1 S1                 0.0000
     35 ****         3.4565  -0.2263   3.1791 H              1 S1                 0.0000
     36 ****         0.6595   0.0635   1.9760 H              1 S1                 0.0000
     37 ****         2.1566   1.9310   1.3662 H              1 S1                 0.0000
     38 ****         3.4192   0.8208   0.8727 H              1 S1                 0.0000
     39 ****        -2.3244  -0.3135  -2.6483 H              1 S1                 0.0000
     40 ****        -4.5412  -0.0411  -2.7913 H              1 S1                 0.0000
     41 ****        -6.5418   1.4428  -2.6746 H              1 S1                 0.0000
     42 ****        -6.2130   3.8933  -2.2309 H              1 S1                 0.0000
     43 ****        -3.8723   4.7423  -1.9204 H              1 S1                 0.0000
     44 ****         2.8747  -1.6523   1.1683 H              1 S1                 0.0000
     45 ****         0.7591   2.1005  -2.1761 LP             1 S1                 0.0000
     46 ****        -0.8177   2.8174  -2.1742 LP             1 S1                 0.0000
     47 ****         0.7608   1.0152  -0.2468 LP             1 S1                 0.0000
     48 ****         2.1366   1.5975  -0.9060 LP             1 S1                 0.0000
     49 ****        -2.0534   3.2787  -2.0436 LP             1 S1                 0.0000
@<TRIPOS>BOND
    1    1    2 2     
    2    2    3 am    
    3    2   15 am    
    4    3    4 1     
    5    3   22 1     
    6    4    5 1     
    7    4   23 1     
    8    4   24 1     
    9    5   14 1     
   10    5    6 1     
   11    5   25 1     
   12    6    7 1     
   13    6   26 1     
   14    6   27 1     
   15    7   12 1     
   16    7    8 1     
   17    7   44 1     
   18    8    9 1     
   19    8   28 1     
   20    8   29 1     
   21    9   10 1     
   22    9   30 1     
   23    9   31 1     
   24   10   11 1     
   25   10   32 1     
   26   10   33 1     
   27   11   12 1     
   28   11   34 1     
   29   11   35 1     
   30   12   13 1     
   31   12   36 1     
   32   13   14 1     
   33   13   37 1     
   34   13   38 1     
   35   15   16 1     
   36   15   39 1     
   37   16   21 ar    
   38   16   17 ar    
   39   17   18 ar    
   40   17   40 1     
   41   18   19 ar    
   42   18   41 1     
   43   19   20 ar    
   44   19   42 1     
   45   20   21 ar    
   46   20   43 1     
   47    1   45 1     
   48    1   46 1     
   49   14   47 1     
   50   14   48 1     
   51   21   49 1     
@<TRIPOS>SUBSTRUCTURE
      1 S1             1
@<TRIPOS>SET
LONE_PAIRS      STATIC     ATOMS    <user>   **** ""
5 45 46 47 48 49
DONOR_HYDROGENS      STATIC     ATOMS    <user>   **** ""
3 22 44 39
ATOM$BLUE        STATIC     ATOMS    COLORGROUP SYSTEM
5 45 46 47 48 49
ATOM$RED        STATIC     ATOMS    COLORGROUP SYSTEM
3 22 44 39
