AV-unprocessed.smi:81|AV-procd|sdf|793|dock3
  -GOLD-   2262017173D 1   1.00000     0.00000
 Structure written by MMmdl.
 64 67  0  0  0  0  0  0  0  0  2 V2000
  151.1191  144.0812  158.8331 C   0  0  0  0  0  0  0  0  0  0  0  0
  150.1501  142.9932  158.3418 C   0  0  0  0  0  0  0  0  0  0  0  0
  148.8520  143.0193  159.1606 C   0  0  0  0  0  0  0  0  0  0  0  0
  150.7912  141.5868  158.3932 C   0  0  0  0  0  0  0  0  0  0  0  0
  150.1470  140.5928  157.5272 N   0  0  0  0  0  0  0  0  0  0  0  0
  150.1156  139.3256  158.0079 C   0  0  0  0  0  0  0  0  0  0  0  0
  151.3001  138.7641  158.3568 N   0  0  0  0  0  0  0  0  0  0  0  0
  151.3398  137.5090  158.8121 C   0  0  0  0  0  0  0  0  0  0  0  0
  150.3318  136.6523  158.9835 N   0  0  0  0  0  0  0  0  0  0  0  0
  149.1401  137.2029  158.6116 C   0  0  0  0  0  0  0  0  0  0  0  0
  148.9435  138.5232  158.1183 C   0  0  0  0  0  0  0  0  0  0  0  0
  147.5951  138.7319  157.8604 N   0  0  0  0  0  0  0  0  0  0  0  0
  147.0285  137.6018  158.1819 C   0  0  0  0  0  0  0  0  0  0  0  0
  147.8858  136.6138  158.6177 N   0  0  0  0  0  0  0  0  0  0  0  0
  147.5468  135.2638  159.0587 C   0  0  0  0  0  0  0  0  0  0  0  0
  146.6877  135.1719  160.3503 C   0  0  2  0  0  0  0  0  0  0  0  0
  145.4704  135.8581  160.1120 O   0  0  0  0  0  0  0  0  0  0  0  0
  147.3593  135.8294  161.5455 C   0  0  0  0  0  0  0  0  0  0  0  0
  146.6038  135.2274  162.7220 C   0  0  0  0  0  0  0  0  0  0  0  0
  146.3342  133.8903  162.3247 O   0  0  0  0  0  0  0  0  0  0  0  0
  146.3374  133.7641  160.9005 C   0  0  2  0  0  0  0  0  0  0  0  0
  147.3539  132.6487  160.6070 C   0  0  0  0  0  0  0  0  0  0  0  0
  150.2837  140.7897  156.0736 C   0  0  2  0  0  0  0  0  0  0  0  0
  149.2405  141.7285  155.4217 C   0  0  0  0  0  0  0  0  0  0  0  0
  147.9585  141.0167  154.9470 C   0  0  0  0  0  0  0  0  0  0  0  0
  148.2778  139.8553  154.0849 N   0  3  2  0  0  0  0  0  0  0  0  0
  147.0664  139.2439  153.4976 C   0  0  0  0  0  0  0  0  0  0  0  0
  149.1208  138.8641  154.7927 C   0  0  0  0  0  0  0  0  0  0  0  0
  150.4508  139.4889  155.2525 C   0  0  0  0  0  0  0  0  0  0  0  0
  151.4274  143.9012  159.8634 H   0  0  0  0  0  0  0  0  0  0  0  0
  150.6550  145.0668  158.7922 H   0  0  0  0  0  0  0  0  0  0  0  0
  152.0192  144.1206  158.2194 H   0  0  0  0  0  0  0  0  0  0  0  0
  149.8733  143.2284  157.3139 H   0  0  0  0  0  0  0  0  0  0  0  0
  149.0419  142.8082  160.2135 H   0  0  0  0  0  0  0  0  0  0  0  0
  148.1421  142.2769  158.7944 H   0  0  0  0  0  0  0  0  0  0  0  0
  148.3673  143.9940  159.0982 H   0  0  0  0  0  0  0  0  0  0  0  0
  151.8407  141.6716  158.1092 H   0  0  0  0  0  0  0  0  0  0  0  0
  150.7955  141.2231  159.4200 H   0  0  0  0  0  0  0  0  0  0  0  0
  152.3197  137.1364  159.0727 H   0  0  0  0  0  0  0  0  0  0  0  0
  145.9597  137.4691  158.1075 H   0  0  0  0  0  0  0  0  0  0  0  0
  147.0270  134.7606  158.2431 H   0  0  0  0  0  0  0  0  0  0  0  0
  148.4796  134.7148  159.1936 H   0  0  0  0  0  0  0  0  0  0  0  0
  144.8764  135.2676  159.6737 H   0  0  0  0  0  0  0  0  0  0  0  0
  148.4075  135.5320  161.6006 H   0  0  0  0  0  0  0  0  0  0  0  0
  147.3225  136.9194  161.5258 H   0  0  0  0  0  0  0  0  0  0  0  0
  147.1743  135.2613  163.6503 H   0  0  0  0  0  0  0  0  0  0  0  0
  145.6594  135.7488  162.8838 H   0  0  0  0  0  0  0  0  0  0  0  0
  145.3523  133.4394  160.5609 H   0  0  0  0  0  0  0  0  0  0  0  0
  147.3342  132.3474  159.5624 H   0  0  0  0  0  0  0  0  0  0  0  0
  147.1240  131.7577  161.1916 H   0  0  0  0  0  0  0  0  0  0  0  0
  148.3698  132.9541  160.8585 H   0  0  0  0  0  0  0  0  0  0  0  0
  151.2324  141.3206  155.9854 H   0  0  0  0  0  0  0  0  0  0  0  0
  148.9985  142.5586  156.0860 H   0  0  0  0  0  0  0  0  0  0  0  0
  149.7041  142.1847  154.5461 H   0  0  0  0  0  0  0  0  0  0  0  0
  147.3516  140.6825  155.7872 H   0  0  0  0  0  0  0  0  0  0  0  0
  147.3453  141.7245  154.3881 H   0  0  0  0  0  0  0  0  0  0  0  0
  146.4166  138.8394  154.2749 H   0  0  0  0  0  0  0  0  0  0  0  0
  147.3333  138.4338  152.8181 H   0  0  0  0  0  0  0  0  0  0  0  0
  146.5004  139.9815  152.9280 H   0  0  0  0  0  0  0  0  0  0  0  0
  148.5642  138.4540  155.6327 H   0  0  0  0  0  0  0  0  0  0  0  0
  149.3329  138.0274  154.1261 H   0  0  0  0  0  0  0  0  0  0  0  0
  151.0276  139.7294  154.3586 H   0  0  0  0  0  0  0  0  0  0  0  0
  151.0468  138.7538  155.7932 H   0  0  0  0  0  0  0  0  0  0  0  0
  148.8267  140.2066  153.3130 H   0  0  0  0  0  0  0  0  0  0  0  0
  1  2  1  0  0  0  0
  1 30  1  0  0  0  0
  1 31  1  0  0  0  0
  1 32  1  0  0  0  0
  2  3  1  0  0  0  0
  2  4  1  0  0  0  0
  2 33  1  0  0  0  0
  3 34  1  0  0  0  0
  3 35  1  0  0  0  0
  3 36  1  0  0  0  0
  4  5  1  0  0  0  0
  4 37  1  0  0  0  0
  4 38  1  0  0  0  0
  5  6  1  0  0  0  0
  5 23  1  0  0  0  0
  6 11  1  0  0  0  0
  6  7  2  0  0  0  0
  7  8  1  0  0  0  0
  8  9  2  0  0  0  0
  8 39  1  0  0  0  0
  9 10  1  0  0  0  0
 10 14  1  0  0  0  0
 10 11  2  0  0  0  0
 11 12  1  0  0  0  0
 12 13  2  0  0  0  0
 13 14  1  0  0  0  0
 13 40  1  0  0  0  0
 14 15  1  0  0  0  0
 15 16  1  0  0  0  0
 15 41  1  0  0  0  0
 15 42  1  0  0  0  0
 16 21  1  0  0  0  0
 16 17  1  0  0  0  0
 16 18  1  0  0  0  0
 17 43  1  0  0  0  0
 18 19  1  0  0  0  0
 18 44  1  0  0  0  0
 18 45  1  0  0  0  0
 19 20  1  0  0  0  0
 19 46  1  0  0  0  0
 19 47  1  0  0  0  0
 20 21  1  0  0  0  0
 21 22  1  0  0  0  0
 21 48  1  0  0  0  0
 22 49  1  0  0  0  0
 22 50  1  0  0  0  0
 22 51  1  0  0  0  0
 23 29  1  0  0  0  0
 23 24  1  0  0  0  0
 23 52  1  0  0  0  0
 24 25  1  0  0  0  0
 24 53  1  0  0  0  0
 24 54  1  0  0  0  0
 25 26  1  0  0  0  0
 25 55  1  0  0  0  0
 25 56  1  0  0  0  0
 26 27  1  0  0  0  0
 26 28  1  0  0  0  0
 26 64  1  0  0  0  0
 27 57  1  0  0  0  0
 27 58  1  0  0  0  0
 27 59  1  0  0  0  0
 28 29  1  0  0  0  0
 28 60  1  0  0  0  0
 28 61  1  0  0  0  0
 29 62  1  0  0  0  0
 29 63  1  0  0  0  0
M  CHG  1  26   1
M  END
> <s_m_source_file>
AV-unprocessed.smi

> <i_m_source_file_index>
81

> <i_lp_mmshare_version>
43012

> <i_f3d_flags>
0

> <s_epik_input>
W0NIMl0xW0NIMl1OKFtDSDNdKVtDSDJdW0NIMl1bQ0hdMU4oW0NIMl1bQ0hdKFtDSDNdKVtDSDNdKWMobltjSF1uMiljKGMyMyluW2NIXW4zW0NIMl1bQ0BAXTQoW09IXSlbQ0gyXVtDSDJdT1tDQEhdNFtDSDNd

> <s_epik_cmdline>
J2VwaWtfcHl0aG9uJywgJy1waCcsICc3LjAnLCAnLXRuJywgJzgnLCAnLW1hJywgJzIwMCcsICctbWV0YWxfYmluZGluZycsICctaW1hZScsICc8aW5maWxlLm1hZT4nLCAnLW9tYWUnLCAnPG91dGZpbGUubWFlPic=

> <r_lp_tautomer_probability>
1

> <r_epik_Ionization_Penalty>
0.00272708

> <r_epik_Ionization_Penalty_Charging>
0.00158983

> <r_epik_Ionization_Penalty_Neutral>
0.00113725

> <r_epik_State_Penalty>
-0

> <r_epik_Charging_Adjusted_Penalty>
0.00158983

> <i_epik_Tot_Q>
1

> <i_epik_Tot_abs_Q>
1

> <r_epik_Metal_State_Penalty>
-0

> <b_epik_Metal_Only>
0

> <s_lp_Force_Field>
OPLS_2005

> <r_lp_Energy>
52.2974

> <b_lp_Chiralities_Consistent>
1

> <s_lp_Variant>
AV-unprocessed.smi:81-8

> <Gold.Version>
5.8.1

> <Gold.Id.Protein>
6NUR|6NUR_protein|mol2

> <Gold.PLP.Fitness>
54.7181

> <Gold.PLP.PLP>
-51.0930

> <Gold.PLP.part.hbond>
-2.0000

> <Gold.PLP.part.metal>
0.0000

> <Gold.PLP.part.buried>
-6.4630

> <Gold.PLP.part.nonpolar>
-42.7147

> <Gold.PLP.part.repulsive>
0.0766

> <Gold.PLP.ligand.clash>
0.0000

> <Gold.PLP.ligand.torsion>
2.0421

> <Gold.PLP.Chemscore.Hbond>
2.0000

> <Gold.PLP.Chemscore.CHOScore>
0.0000

> <Gold.PLP.Chemscore.Metal>
0.0000

> <Gold.Chemscore.Hbonds>
donor molecule, donor type, donor heavy atom, donor atom, acceptor molecule, acceptor atom, score
      L1  H    26    64       P1  7957  0.34
      P1  H  6896  6907       L1     9  1.00

> <Gold.PLP.Chemscore.Internal.Correction>
1.7093

> <Gold.Rescore>
     Score         DG    S(hbond)    S(metal)    S(lipo)     H(rot)  DE(clash)    DE(int)     intcor
     16.46     -19.49       1.96        0.00     114.41       2.32       0.28       2.75       ----

> <Gold.Chemscore.Fitness>
16.4583

> <Gold.Chemscore.DG>
-19.4912

> <Gold.Chemscore.ZeroCoef>
-5.4800

> <Gold.Chemscore.Hbond>
1.9624

> <Gold.Chemscore.Metal>
0.0000

> <Gold.Chemscore.Lipo>
114.4134

> <Gold.Chemscore.Internal_Hbond>
0.0000

> <Gold.Chemscore.DEClash>
0.2849

> <Gold.Chemscore.DEInternal>
2.7480

> <Gold.Chemscore.Rot>
2.3163

> <Gold.Chemscore.Internal.Correction>
   9.000000E+99

> <Gold.Chemscore.Hbonds>
donor molecule, donor type, donor heavy atom, donor atom, acceptor molecule, acceptor atom, score
      L1  H    26    64       P1  7957  0.32
      P1  H  6896  6907       L1     9  0.32

> <Gold.Chemscore.Hbond.Weighted>
-6.5546

> <Gold.Chemscore.Metal.Weighted>
-0.0000

> <Gold.Chemscore.Lipo.Weighted>
-13.3864

> <Gold.Chemscore.Internal_Hbond.Weighted>
0.0000

> <Gold.Chemscore.DEClash.Weighted>
0.2849

> <Gold.Chemscore.DEInternal.Weighted>
2.7480

> <Gold.Chemscore.Rot.Weighted>
5.9297

> <Gold.Chemscore.Internal.Correction.Weighted>
   9.000000E+99

> <Gold.Protein.RotatedTorsions>
[ 6907 6896 6895 6894 ] final  -19.11 input  -60.11 | X-H torsion
[ 7974 7965 7964 7962 ] final    6.38 input  175.53 | X-H torsion
[ 8008 7997 7996 7995 ] final -107.94 input   59.86 | X-H torsion
[ 10167 10162 10161 10158 ] final  170.82 input  -65.29 | X-H torsion
[ 10718 10713 10712 10709 ] final  106.91 input   66.30 | X-H torsion
[ 10763 10752 10751 10750 ] final   59.52 input  -60.55 | X-H torsion
[ 11005 11000 10999 10996 ] final   82.28 input  -57.11 | X-H torsion

> <Gold.Protein.ActiveResidues>
 VAL166  LYS551  ARG553  GLY616  TRP617  ASP618  TYR619  PRO620  LYS621  CYS622 
 ASP623  PHE694  ASN695  SER759  ASP760  ASP761  ALA762  ILE779  LEU786  VAL792 
 PHE793  MET794  SER795  GLU796  ALA797  LYS798  CYS799  TRP800  GLU811  SER814 

> <Gold.Protein.RotatedAtoms>
  151.2680  135.0675  159.9123 H   0  0  0  0  0  0  0  0  0  0  0  0  # atno 6907 bound_to 6896
  152.5355  134.0160  159.7970 H   0  0  0  0  0  0  0  0  0  0  0  0  # atno 6908 bound_to 6896
  151.0394  133.5669  159.2683 H   0  0  0  0  0  0  0  0  0  0  0  0  # atno 6909 bound_to 6896
  146.2435  140.0242  142.8395 H   0  0  0  0  0  0  0  0  0  0  0  0  # atno 7974 bound_to 7965
  154.9369  140.0403  157.2076 H   0  0  0  0  0  0  0  0  0  0  0  0  # atno 8008 bound_to 7997
  154.8107  140.2867  155.5833 H   0  0  0  0  0  0  0  0  0  0  0  0  # atno 8009 bound_to 7997
  156.2971  140.2537  156.2994 H   0  0  0  0  0  0  0  0  0  0  0  0  # atno 8010 bound_to 7997
  139.5029  144.3554  151.9879 H   0  0  0  0  0  0  0  0  0  0  0  0  # atno 10167 bound_to 10162
  157.6649  131.0861  150.6078 H   0  0  0  0  0  0  0  0  0  0  0  0  # atno 10718 bound_to 10713
  152.9896  135.5569  154.5726 H   0  0  0  0  0  0  0  0  0  0  0  0  # atno 10763 bound_to 10752
  154.5123  135.2803  155.1334 H   0  0  0  0  0  0  0  0  0  0  0  0  # atno 10764 bound_to 10752
  154.2721  135.6361  153.5367 H   0  0  0  0  0  0  0  0  0  0  0  0  # atno 10765 bound_to 10752
  139.9069  134.8060  156.2154 H   0  0  0  0  0  0  0  0  0  0  0  0  # atno 11005 bound_to 11000
  145.1213  140.9464  143.4598 LP  0  0  0  0  0  0  0  0  0  0  0  0  # atno 17320 bound_to 7965
  145.0478  139.3206  143.5944 LP  0  0  0  0  0  0  0  0  0  0  0  0  # atno 17321 bound_to 7965
  140.2991  144.3667  150.6065 LP  0  0  0  0  0  0  0  0  0  0  0  0  # atno 17342 bound_to 10162
  140.5887  143.2169  151.7293 LP  0  0  0  0  0  0  0  0  0  0  0  0  # atno 17343 bound_to 10162
  156.6379  130.4450  149.5763 LP  0  0  0  0  0  0  0  0  0  0  0  0  # atno 17370 bound_to 10713
  156.2232  130.6749  151.1389 LP  0  0  0  0  0  0  0  0  0  0  0  0  # atno 17371 bound_to 10713
  141.0439  133.6923  156.1648 LP  0  0  0  0  0  0  0  0  0  0  0  0  # atno 17394 bound_to 11000
  140.6913  134.4663  157.5588 LP  0  0  0  0  0  0  0  0  0  0  0  0  # atno 17395 bound_to 11000

$$$$
