AV-unprocessed.smi:842|AV-procd|sdf|3919|dock2
  -GOLD-   22720 1383D 1   1.00000     0.00000
 Structure written by MMmdl.
 43 44  0  0  0  0  0  0  0  0  2 V2000
  145.3358  136.1002  153.5669 C   0  0  0  0  0  0  0  0  0  0  0  0
  145.0771  137.5077  153.0085 C   0  0  0  0  0  0  0  0  0  0  0  0
  146.0329  137.9105  151.8674 C   0  0  2  0  0  0  0  0  0  0  0  0
  146.1620  136.7835  150.8198 C   0  0  0  0  0  0  0  0  0  0  0  0
  144.8915  136.4225  150.3204 O   0  0  0  0  0  0  0  0  0  0  0  0
  147.3467  138.2199  152.4311 N   0  0  0  0  0  0  0  0  0  0  0  0
  147.5913  139.1675  153.3473 C   0  0  0  0  0  0  0  0  0  0  0  0
  146.7205  139.8980  153.8182 O   0  0  0  0  0  0  0  0  0  0  0  0
  148.8978  139.2143  153.6609 N   0  0  0  0  0  0  0  0  0  0  0  0
  149.5590  140.0675  154.5862 C   0  0  0  0  0  0  0  0  0  0  0  0
  150.7702  139.6110  155.1499 C   0  0  0  0  0  0  0  0  0  0  0  0
  151.4591  140.4168  156.0795 C   0  0  0  0  0  0  0  0  0  0  0  0
  150.9191  141.6726  156.4427 C   0  0  0  0  0  0  0  0  0  0  0  0
  151.5250  142.5530  157.3500 N   0  0  0  0  0  0  0  0  0  0  0  0
  151.8919  143.8515  156.8115 C   0  0  0  0  0  0  0  0  0  0  0  0
  152.1585  144.7306  158.0340 C   0  0  0  0  0  0  0  0  0  0  0  0
  151.3320  144.0946  159.1577 C   0  0  0  0  0  0  0  0  0  0  0  0
  150.7424  142.8189  158.5457 C   0  0  0  0  0  0  0  0  0  0  0  0
  149.7530  142.0699  155.8896 N   0  3  0  0  0  0  0  0  0  0  0  0
  149.0623  141.3296  154.9958 C   0  0  0  0  0  0  0  0  0  0  0  0
  144.6730  135.8904  154.4065 H   0  0  0  0  0  0  0  0  0  0  0  0
  146.3619  136.0014  153.9220 H   0  0  0  0  0  0  0  0  0  0  0  0
  145.1652  135.3302  152.8144 H   0  0  0  0  0  0  0  0  0  0  0  0
  144.0430  137.5772  152.6684 H   0  0  0  0  0  0  0  0  0  0  0  0
  145.1750  138.2222  153.8267 H   0  0  0  0  0  0  0  0  0  0  0  0
  145.6060  138.7982  151.3955 H   0  0  0  0  0  0  0  0  0  0  0  0
  146.8256  137.0629  150.0004 H   0  0  0  0  0  0  0  0  0  0  0  0
  146.5845  135.8865  151.2738 H   0  0  0  0  0  0  0  0  0  0  0  0
  144.5267  137.1620  149.8587 H   0  0  0  0  0  0  0  0  0  0  0  0
  148.1227  137.6668  152.0980 H   0  0  0  0  0  0  0  0  0  0  0  0
  149.4981  138.5902  153.1419 H   0  0  0  0  0  0  0  0  0  0  0  0
  151.1763  138.6501  154.8687 H   0  0  0  0  0  0  0  0  0  0  0  0
  152.3910  140.0704  156.5016 H   0  0  0  0  0  0  0  0  0  0  0  0
  152.7715  143.7778  156.1710 H   0  0  0  0  0  0  0  0  0  0  0  0
  151.0769  144.2702  156.2204 H   0  0  0  0  0  0  0  0  0  0  0  0
  153.2174  144.6990  158.2937 H   0  0  0  0  0  0  0  0  0  0  0  0
  151.8912  145.7722  157.8543 H   0  0  0  0  0  0  0  0  0  0  0  0
  151.9737  143.8555  160.0066 H   0  0  0  0  0  0  0  0  0  0  0  0
  150.5451  144.7601  159.5141 H   0  0  0  0  0  0  0  0  0  0  0  0
  149.6931  142.9741  158.2903 H   0  0  0  0  0  0  0  0  0  0  0  0
  150.7976  141.9806  159.2410 H   0  0  0  0  0  0  0  0  0  0  0  0
  148.1406  141.7785  154.6584 H   0  0  0  0  0  0  0  0  0  0  0  0
  149.3714  142.9760  156.1627 H   0  0  0  0  0  0  0  0  0  0  0  0
  1  2  1  0  0  0  0
  1 21  1  0  0  0  0
  1 22  1  0  0  0  0
  1 23  1  0  0  0  0
  2  3  1  0  0  0  0
  2 24  1  0  0  0  0
  2 25  1  0  0  0  0
  3  4  1  0  0  0  0
  3  6  1  0  0  0  0
  3 26  1  0  0  0  0
  4  5  1  0  0  0  0
  4 27  1  0  0  0  0
  4 28  1  0  0  0  0
  5 29  1  0  0  0  0
  6  7  1  0  0  0  0
  6 30  1  0  0  0  0
  7  8  2  0  0  0  0
  7  9  1  0  0  0  0
  9 10  1  0  0  0  0
  9 31  1  0  0  0  0
 10 20  1  0  0  0  0
 10 11  2  0  0  0  0
 11 12  1  0  0  0  0
 11 32  1  0  0  0  0
 12 13  2  0  0  0  0
 12 33  1  0  0  0  0
 13 14  1  0  0  0  0
 13 19  1  0  0  0  0
 14 18  1  0  0  0  0
 14 15  1  0  0  0  0
 15 16  1  0  0  0  0
 15 34  1  0  0  0  0
 15 35  1  0  0  0  0
 16 17  1  0  0  0  0
 16 36  1  0  0  0  0
 16 37  1  0  0  0  0
 17 18  1  0  0  0  0
 17 38  1  0  0  0  0
 17 39  1  0  0  0  0
 18 40  1  0  0  0  0
 18 41  1  0  0  0  0
 19 20  2  0  0  0  0
 19 43  1  0  0  0  0
 20 42  1  0  0  0  0
M  CHG  1  19   1
M  END
> <s_m_source_file>
AV-unprocessed.smi

> <i_m_source_file_index>
842

> <i_lp_mmshare_version>
43012

> <i_f3d_flags>
0

> <s_epik_input>
W0NIM11bQ0gyXVtDQEhdKFtDSDJdW09IXSlbTkhdQyg9TylbTkhdYzFbY0hdW2NIXWMobltjSF0xKU4yW0NIMl1bQ0gyXVtDSDJdW0NIMl0y

> <s_epik_cmdline>
J2VwaWtfcHl0aG9uJywgJy1waCcsICc3LjAnLCAnLXRuJywgJzgnLCAnLW1hJywgJzIwMCcsICctbWV0YWxfYmluZGluZycsICctaW1hZScsICc8aW5maWxlLm1hZT4nLCAnLW9tYWUnLCAnPG91dGZpbGUubWFlPic=

> <r_lp_tautomer_probability>
0.999994

> <r_epik_Ionization_Penalty>
1.10848

> <r_epik_Ionization_Penalty_Charging>
1.10846

> <r_epik_Ionization_Penalty_Neutral>
2.01032e-05

> <r_epik_State_Penalty>
1.16624

> <r_epik_Charging_Adjusted_Penalty>
2.2747

> <i_epik_Tot_Q>
1

> <i_epik_Tot_abs_Q>
1

> <r_epik_Metal_State_Penalty>
1.25257

> <b_epik_Metal_Only>
0

> <s_lp_Force_Field>
OPLS_2005

> <r_lp_Energy>
41.2931

> <b_lp_Chiralities_Consistent>
1

> <s_lp_Variant>
AV-unprocessed.smi:842-3

> <Gold.Version>
5.8.1

> <Gold.Id.Protein>
6NUR|6NUR_protein|mol2

> <Gold.PLP.Fitness>
47.1356

> <Gold.PLP.PLP>
-35.5732

> <Gold.PLP.part.hbond>
-4.5907

> <Gold.PLP.part.metal>
0.0000

> <Gold.PLP.part.buried>
-0.5499

> <Gold.PLP.part.nonpolar>
-31.4614

> <Gold.PLP.part.repulsive>
0.5014

> <Gold.PLP.ligand.clash>
0.0000

> <Gold.PLP.ligand.torsion>
0.2410

> <Gold.PLP.Chemscore.Hbond>
4.0000

> <Gold.PLP.Chemscore.CHOScore>
0.0000

> <Gold.PLP.Chemscore.Metal>
0.0000

> <Gold.Chemscore.Hbonds>
donor molecule, donor type, donor heavy atom, donor atom, acceptor molecule, acceptor atom, score
      L1  H     5    29       P1 10171  1.00
      L1  H     6    30       P1  7948  1.00
      L1  H    19    43       P1  8028  1.92

> <Gold.PLP.Chemscore.Internal.Correction>
0.0444

> <Gold.Rescore>
     Score         DG    S(hbond)    S(metal)    S(lipo)     H(rot)  DE(clash)    DE(int)     intcor
     17.18     -20.46       2.92        0.00      94.44       2.27       1.78       1.49       ----

> <Gold.Chemscore.Fitness>
17.1846

> <Gold.Chemscore.DG>
-20.4611

> <Gold.Chemscore.ZeroCoef>
-5.4800

> <Gold.Chemscore.Hbond>
2.9159

> <Gold.Chemscore.Metal>
0.0000

> <Gold.Chemscore.Lipo>
94.4433

> <Gold.Chemscore.Internal_Hbond>
0.0000

> <Gold.Chemscore.DEClash>
1.7822

> <Gold.Chemscore.DEInternal>
1.4943

> <Gold.Chemscore.Rot>
2.2687

> <Gold.Chemscore.Internal.Correction>
   9.000000E+99

> <Gold.Chemscore.Hbonds>
donor molecule, donor type, donor heavy atom, donor atom, acceptor molecule, acceptor atom, score
      L1  H     5    29       P1 10171  0.93
      L1  H     6    30       P1  7948  0.98
      L1  H    19    43       P1  8028  0.92

> <Gold.Chemscore.Hbond.Weighted>
-9.7390

> <Gold.Chemscore.Metal.Weighted>
-0.0000

> <Gold.Chemscore.Lipo.Weighted>
-11.0499

> <Gold.Chemscore.Internal_Hbond.Weighted>
0.0000

> <Gold.Chemscore.DEClash.Weighted>
1.7822

> <Gold.Chemscore.DEInternal.Weighted>
1.4943

> <Gold.Chemscore.Rot.Weighted>
5.8078

> <Gold.Chemscore.Internal.Correction.Weighted>
   9.000000E+99

> <Gold.Protein.RotatedTorsions>
[ 6907 6896 6895 6894 ] final   31.55 input  -60.11 | X-H torsion
[ 7974 7965 7964 7962 ] final  168.28 input  175.53 | X-H torsion
[ 8008 7997 7996 7995 ] final  -21.24 input   59.86 | X-H torsion
[ 10167 10162 10161 10158 ] final  140.12 input  -65.29 | X-H torsion
[ 10718 10713 10712 10709 ] final   51.30 input   66.30 | X-H torsion
[ 10763 10752 10751 10750 ] final  -94.43 input  -60.55 | X-H torsion
[ 11005 11000 10999 10996 ] final -113.09 input  -57.11 | X-H torsion

> <Gold.Protein.ActiveResidues>
 VAL166  LYS551  ARG553  GLY616  TRP617  ASP618  TYR619  PRO620  LYS621  CYS622 
 ASP623  PHE694  ASN695  SER759  ASP760  ASP761  ALA762  ILE779  LEU786  VAL792 
 PHE793  MET794  SER795  GLU796  ALA797  LYS798  CYS799  TRP800  GLU811  SER814 

> <Gold.Protein.RotatedAtoms>
  152.0619  134.9589  160.0574 H   0  0  0  0  0  0  0  0  0  0  0  0  # atno 6907 bound_to 6896
  152.0949  133.4215  159.4569 H   0  0  0  0  0  0  0  0  0  0  0  0  # atno 6908 bound_to 6896
  150.6838  134.2747  159.4646 H   0  0  0  0  0  0  0  0  0  0  0  0  # atno 6909 bound_to 6896
  144.7394  139.8885  143.6401 H   0  0  0  0  0  0  0  0  0  0  0  0  # atno 7974 bound_to 7965
  154.4718  140.2040  155.9976 H   0  0  0  0  0  0  0  0  0  0  0  0  # atno 8008 bound_to 7997
  156.1023  140.3242  155.7929 H   0  0  0  0  0  0  0  0  0  0  0  0  # atno 8009 bound_to 7997
  155.4776  140.0536  157.2962 H   0  0  0  0  0  0  0  0  0  0  0  0  # atno 8010 bound_to 7997
  139.5058  144.6254  151.5951 H   0  0  0  0  0  0  0  0  0  0  0  0  # atno 10167 bound_to 10162
  157.4968  130.8411  149.8268 H   0  0  0  0  0  0  0  0  0  0  0  0  # atno 10718 bound_to 10713
  154.7054  135.5158  153.8588 H   0  0  0  0  0  0  0  0  0  0  0  0  # atno 10763 bound_to 10752
  153.0737  135.6609  154.0200 H   0  0  0  0  0  0  0  0  0  0  0  0  # atno 10764 bound_to 10752
  154.0052  135.3007  155.3378 H   0  0  0  0  0  0  0  0  0  0  0  0  # atno 10765 bound_to 10752
  141.0635  133.9496  157.2622 H   0  0  0  0  0  0  0  0  0  0  0  0  # atno 11005 bound_to 11000
  146.1159  139.4170  143.0258 LP  0  0  0  0  0  0  0  0  0  0  0  0  # atno 17320 bound_to 7965
  145.7375  141.0020  143.1319 LP  0  0  0  0  0  0  0  0  0  0  0  0  # atno 17321 bound_to 7965
  140.5969  143.9680  150.6360 LP  0  0  0  0  0  0  0  0  0  0  0  0  # atno 17342 bound_to 10162
  140.2879  143.3344  152.1090 LP  0  0  0  0  0  0  0  0  0  0  0  0  # atno 17343 bound_to 10162
  156.0205  130.3797  150.1977 LP  0  0  0  0  0  0  0  0  0  0  0  0  # atno 17370 bound_to 10713
  157.0166  130.9967  151.3351 LP  0  0  0  0  0  0  0  0  0  0  0  0  # atno 17371 bound_to 10713
  139.9455  135.0185  156.8838 LP  0  0  0  0  0  0  0  0  0  0  0  0  # atno 17394 bound_to 11000
  140.5820  134.0343  155.7467 LP  0  0  0  0  0  0  0  0  0  0  0  0  # atno 17395 bound_to 11000

$$$$
