AV-unprocessed.smi:15|AV-procd|sdf|85|dock10
  -GOLD-   2262015223D 1   1.00000     0.00000
 Structure written by MMmdl.
 53 56  0  0  0  0  0  0  0  0  1 V2000
  148.2088  128.2848  157.1013 C   0  0  0  0  0  0  0  0  0  0  0  0
  149.6510  128.3685  156.5760 C   0  0  0  0  0  0  0  0  0  0  0  0
  149.8598  129.4598  155.6237 N   0  0  0  0  0  0  0  0  0  0  0  0
  151.2391  129.7686  155.2564 C   0  0  0  0  0  0  0  0  0  0  0  0
  152.0429  130.3391  156.4354 C   0  0  2  0  0  0  0  0  0  0  0  0
  151.5493  131.6985  156.9306 C   0  0  0  0  0  0  0  0  0  0  0  0
  152.7913  132.3324  157.5383 C   0  0  0  0  0  0  0  0  0  0  0  0
  153.9441  131.4618  157.0297 C   0  0  0  0  0  0  0  0  0  0  0  0
  153.3701  130.6311  156.0301 O   0  0  0  0  0  0  0  0  0  0  0  0
  149.0420  129.4494  154.5486 C   0  0  0  0  0  0  0  0  0  0  0  0
  149.1146  128.3755  153.7248 N   0  0  0  0  0  0  0  0  0  0  0  0
  148.3314  128.3111  152.6439 C   0  0  0  0  0  0  0  0  0  0  0  0
  147.4230  129.1913  152.2166 N   0  0  0  0  0  0  0  0  0  0  0  0
  147.3410  130.2667  153.0521 C   0  0  0  0  0  0  0  0  0  0  0  0
  148.1080  130.4753  154.2325 C   0  0  0  0  0  0  0  0  0  0  0  0
  147.7490  131.6790  154.8263 N   0  0  0  0  0  0  0  0  0  0  0  0
  146.8257  132.1581  154.0377 C   0  0  0  0  0  0  0  0  0  0  0  0
  146.5145  131.3722  152.9506 N   0  0  0  0  0  0  0  0  0  0  0  0
  145.5297  131.6620  151.9188 C   0  0  0  0  0  0  0  0  0  0  0  0
  145.8020  132.9881  151.1613 C   0  0  2  0  0  0  0  0  0  0  0  0
  147.1758  133.0116  150.8096 O   0  0  0  0  0  0  0  0  0  0  0  0
  145.5083  134.2378  151.9852 C   0  0  0  0  0  0  0  0  0  0  0  0
  145.1870  135.2769  150.9221 C   0  0  0  0  0  0  0  0  0  0  0  0
  144.4288  134.5339  149.9836 O   0  0  0  0  0  0  0  0  0  0  0  0
  144.9823  133.2250  149.8614 C   0  0  2  0  0  0  0  0  0  0  0  0
  143.8162  132.2597  149.5961 C   0  0  0  0  0  0  0  0  0  0  0  0
  148.1199  127.5021  157.8546 H   0  0  0  0  0  0  0  0  0  0  0  0
  147.4993  128.0538  156.3062 H   0  0  0  0  0  0  0  0  0  0  0  0
  147.9046  129.2249  157.5622 H   0  0  0  0  0  0  0  0  0  0  0  0
  150.3199  128.5087  157.4243 H   0  0  0  0  0  0  0  0  0  0  0  0
  149.9365  127.4199  156.1212 H   0  0  0  0  0  0  0  0  0  0  0  0
  151.7177  128.8569  154.8964 H   0  0  0  0  0  0  0  0  0  0  0  0
  151.2679  130.4776  154.4266 H   0  0  0  0  0  0  0  0  0  0  0  0
  152.0872  129.6288  157.2625 H   0  0  0  0  0  0  0  0  0  0  0  0
  151.2050  132.3035  156.0906 H   0  0  0  0  0  0  0  0  0  0  0  0
  150.7255  131.6108  157.6397 H   0  0  0  0  0  0  0  0  0  0  0  0
  152.8955  133.3679  157.2128 H   0  0  0  0  0  0  0  0  0  0  0  0
  152.7545  132.3248  158.6282 H   0  0  0  0  0  0  0  0  0  0  0  0
  154.7680  132.0506  156.6262 H   0  0  0  0  0  0  0  0  0  0  0  0
  154.3347  130.8362  157.8338 H   0  0  0  0  0  0  0  0  0  0  0  0
  148.4496  127.4279  152.0335 H   0  0  0  0  0  0  0  0  0  0  0  0
  146.3379  133.1025  154.2313 H   0  0  0  0  0  0  0  0  0  0  0  0
  145.5109  130.8227  151.2223 H   0  0  0  0  0  0  0  0  0  0  0  0
  144.5504  131.6877  152.3970 H   0  0  0  0  0  0  0  0  0  0  0  0
  147.4979  132.1232  150.8039 H   0  0  0  0  0  0  0  0  0  0  0  0
  144.6212  134.0816  152.6001 H   0  0  0  0  0  0  0  0  0  0  0  0
  146.3239  134.5345  152.6464 H   0  0  0  0  0  0  0  0  0  0  0  0
  144.6241  136.1240  151.3145 H   0  0  0  0  0  0  0  0  0  0  0  0
  146.0960  135.6519  150.4493 H   0  0  0  0  0  0  0  0  0  0  0  0
  145.6384  133.2191  148.9889 H   0  0  0  0  0  0  0  0  0  0  0  0
  144.1652  131.2338  149.4791 H   0  0  0  0  0  0  0  0  0  0  0  0
  143.2938  132.5320  148.6788 H   0  0  0  0  0  0  0  0  0  0  0  0
  143.0862  132.2831  150.4055 H   0  0  0  0  0  0  0  0  0  0  0  0
  1  2  1  0  0  0  0
  1 27  1  0  0  0  0
  1 28  1  0  0  0  0
  1 29  1  0  0  0  0
  2  3  1  0  0  0  0
  2 30  1  0  0  0  0
  2 31  1  0  0  0  0
  3  4  1  0  0  0  0
  3 10  1  0  0  0  0
  4  5  1  0  0  0  0
  4 32  1  0  0  0  0
  4 33  1  0  0  0  0
  5  9  1  0  0  0  0
  5  6  1  0  0  0  0
  5 34  1  0  0  0  0
  6  7  1  0  0  0  0
  6 35  1  0  0  0  0
  6 36  1  0  0  0  0
  7  8  1  0  0  0  0
  7 37  1  0  0  0  0
  7 38  1  0  0  0  0
  8  9  1  0  0  0  0
  8 39  1  0  0  0  0
  8 40  1  0  0  0  0
 10 15  1  0  0  0  0
 10 11  2  0  0  0  0
 11 12  1  0  0  0  0
 12 13  2  0  0  0  0
 12 41  1  0  0  0  0
 13 14  1  0  0  0  0
 14 18  1  0  0  0  0
 14 15  2  0  0  0  0
 15 16  1  0  0  0  0
 16 17  2  0  0  0  0
 17 18  1  0  0  0  0
 17 42  1  0  0  0  0
 18 19  1  0  0  0  0
 19 20  1  0  0  0  0
 19 43  1  0  0  0  0
 19 44  1  0  0  0  0
 20 25  1  0  0  0  0
 20 21  1  0  0  0  0
 20 22  1  0  0  0  0
 21 45  1  0  0  0  0
 22 23  1  0  0  0  0
 22 46  1  0  0  0  0
 22 47  1  0  0  0  0
 23 24  1  0  0  0  0
 23 48  1  0  0  0  0
 23 49  1  0  0  0  0
 24 25  1  0  0  0  0
 25 26  1  0  0  0  0
 25 50  1  0  0  0  0
 26 51  1  0  0  0  0
 26 52  1  0  0  0  0
 26 53  1  0  0  0  0
M  END
> <s_m_source_file>
AV-unprocessed.smi

> <i_m_source_file_index>
15

> <i_lp_mmshare_version>
43012

> <i_f3d_flags>
0

> <s_epik_input>
TzFbQ0gyXVtDSDJdW0NIMl1bQ0BIXTFbQ0gyXU4oW0NIMl1bQ0gzXSljKG5bY0hdbjIpYyhjMjMpbltjSF1uM1tDSDJdW0NAQF00KFtPSF0pW0NIMl1bQ0gyXU9bQ0BIXTRbQ0gzXQ==

> <s_epik_cmdline>
J2VwaWtfcHl0aG9uJywgJy1waCcsICc3LjAnLCAnLXRuJywgJzgnLCAnLW1hJywgJzIwMCcsICctbWV0YWxfYmluZGluZycsICctaW1hZScsICc8aW5maWxlLm1hZT4nLCAnLW9tYWUnLCAnPG91dGZpbGUubWFlPic=

> <r_lp_tautomer_probability>
1

> <r_epik_Ionization_Penalty>
0.00360814

> <r_epik_Ionization_Penalty_Charging>
0

> <r_epik_Ionization_Penalty_Neutral>
0.00360814

> <r_epik_State_Penalty>
0.00237482

> <r_epik_Charging_Adjusted_Penalty>
0.00237482

> <i_epik_Tot_Q>
0

> <i_epik_Tot_abs_Q>
0

> <r_epik_Metal_State_Penalty>
-0

> <b_epik_Metal_Only>
0

> <s_lp_Force_Field>
OPLS_2005

> <r_lp_Energy>
47.4065

> <b_lp_Chiralities_Consistent>
1

> <s_lp_Variant>
AV-unprocessed.smi:15-7

> <Gold.Version>
5.8.1

> <Gold.Id.Protein>
6NUR|6NUR_protein|mol2

> <Gold.PLP.Fitness>
37.3018

> <Gold.PLP.PLP>
-35.0463

> <Gold.PLP.part.hbond>
-1.0000

> <Gold.PLP.part.metal>
0.0000

> <Gold.PLP.part.buried>
-4.9865

> <Gold.PLP.part.nonpolar>
-30.1707

> <Gold.PLP.part.repulsive>
1.8832

> <Gold.PLP.ligand.clash>
0.0000

> <Gold.PLP.ligand.torsion>
0.4929

> <Gold.PLP.Chemscore.Hbond>
0.8800

> <Gold.PLP.Chemscore.CHOScore>
0.0000

> <Gold.PLP.Chemscore.Metal>
0.0000

> <Gold.Chemscore.Hbonds>
donor molecule, donor type, donor heavy atom, donor atom, acceptor molecule, acceptor atom, score
      L1  H    21    45       P1 10747  0.93

> <Gold.PLP.Chemscore.Internal.Correction>
0.6013

> <Gold.Rescore>
     Score         DG    S(hbond)    S(metal)    S(lipo)     H(rot)  DE(clash)    DE(int)     intcor
      8.89      -9.77       0.77        0.00      73.98       2.71       0.19       0.69       ----

> <Gold.Chemscore.Fitness>
8.8935

> <Gold.Chemscore.DG>
-9.7719

> <Gold.Chemscore.ZeroCoef>
-5.4800

> <Gold.Chemscore.Hbond>
0.7685

> <Gold.Chemscore.Metal>
0.0000

> <Gold.Chemscore.Lipo>
73.9819

> <Gold.Chemscore.Internal_Hbond>
0.0000

> <Gold.Chemscore.DEClash>
0.1918

> <Gold.Chemscore.DEInternal>
0.6866

> <Gold.Chemscore.Rot>
2.7074

> <Gold.Chemscore.Internal.Correction>
   9.000000E+99

> <Gold.Chemscore.Hbonds>
donor molecule, donor type, donor heavy atom, donor atom, acceptor molecule, acceptor atom, score
      L1  H    21    45       P1 10747  0.87

> <Gold.Chemscore.Hbond.Weighted>
-2.5669

> <Gold.Chemscore.Metal.Weighted>
-0.0000

> <Gold.Chemscore.Lipo.Weighted>
-8.6559

> <Gold.Chemscore.Internal_Hbond.Weighted>
0.0000

> <Gold.Chemscore.DEClash.Weighted>
0.1918

> <Gold.Chemscore.DEInternal.Weighted>
0.6866

> <Gold.Chemscore.Rot.Weighted>
6.9308

> <Gold.Chemscore.Internal.Correction.Weighted>
   9.000000E+99

> <Gold.Protein.RotatedTorsions>
[ 6907 6896 6895 6894 ] final -147.77 input  -60.11 | X-H torsion
[ 7974 7965 7964 7962 ] final   22.57 input  175.53 | X-H torsion
[ 8008 7997 7996 7995 ] final   44.79 input   59.86 | X-H torsion
[ 10167 10162 10161 10158 ] final  109.65 input  -65.29 | X-H torsion
[ 10718 10713 10712 10709 ] final -134.84 input   66.30 | X-H torsion
[ 10763 10752 10751 10750 ] final -175.32 input  -60.55 | X-H torsion
[ 11005 11000 10999 10996 ] final   87.53 input  -57.11 | X-H torsion

> <Gold.Protein.ActiveResidues>
 VAL166  LYS551  ARG553  GLY616  TRP617  ASP618  TYR619  PRO620  LYS621  CYS622 
 ASP623  PHE694  ASN695  SER759  ASP760  ASP761  ALA762  ILE779  LEU786  VAL792 
 PHE793  MET794  SER795  GLU796  ALA797  LYS798  CYS799  TRP800  GLU811  SER814 

> <Gold.Protein.RotatedAtoms>
  151.1603  133.4849  159.2594 H   0  0  0  0  0  0  0  0  0  0  0  0  # atno 6907 bound_to 6896
  151.1461  135.0204  159.8657 H   0  0  0  0  0  0  0  0  0  0  0  0  # atno 6908 bound_to 6896
  152.5463  134.1492  159.8564 H   0  0  0  0  0  0  0  0  0  0  0  0  # atno 6909 bound_to 6896
  146.2023  139.7867  142.8752 H   0  0  0  0  0  0  0  0  0  0  0  0  # atno 7974 bound_to 7965
  155.3251  140.3399  155.4240 H   0  0  0  0  0  0  0  0  0  0  0  0  # atno 8008 bound_to 7997
  156.1890  140.1690  156.8167 H   0  0  0  0  0  0  0  0  0  0  0  0  # atno 8009 bound_to 7997
  154.5419  140.0723  156.8508 H   0  0  0  0  0  0  0  0  0  0  0  0  # atno 8010 bound_to 7997
  139.6749  144.7123  151.1619 H   0  0  0  0  0  0  0  0  0  0  0  0  # atno 10167 bound_to 10162
  156.2598  130.7203  151.1133 H   0  0  0  0  0  0  0  0  0  0  0  0  # atno 10718 bound_to 10713
  154.5857  135.2840  155.0687 H   0  0  0  0  0  0  0  0  0  0  0  0  # atno 10763 bound_to 10752
  154.2006  135.6425  153.5090 H   0  0  0  0  0  0  0  0  0  0  0  0  # atno 10764 bound_to 10752
  153.0103  135.5468  154.6526 H   0  0  0  0  0  0  0  0  0  0  0  0  # atno 10765 bound_to 10752
  139.8917  134.8428  156.2873 H   0  0  0  0  0  0  0  0  0  0  0  0  # atno 11005 bound_to 11000
  145.3441  141.0294  143.3376 LP  0  0  0  0  0  0  0  0  0  0  0  0  # atno 17320 bound_to 7965
  144.8711  139.5036  143.6767 LP  0  0  0  0  0  0  0  0  0  0  0  0  # atno 17321 bound_to 7965
  140.7632  143.5787  150.8918 LP  0  0  0  0  0  0  0  0  0  0  0  0  # atno 17342 bound_to 10162
  139.9455  143.6333  152.3043 LP  0  0  0  0  0  0  0  0  0  0  0  0  # atno 17343 bound_to 10162
  157.7246  131.0658  150.5988 LP  0  0  0  0  0  0  0  0  0  0  0  0  # atno 17370 bound_to 10713
  156.6074  130.4371  149.5872 LP  0  0  0  0  0  0  0  0  0  0  0  0  # atno 17371 bound_to 10713
  140.9999  133.7157  156.0945 LP  0  0  0  0  0  0  0  0  0  0  0  0  # atno 17394 bound_to 11000
  140.7511  134.4043  157.5541 LP  0  0  0  0  0  0  0  0  0  0  0  0  # atno 17395 bound_to 11000

$$$$
