AV-unprocessed.smi:1263|AV-procd|sdf|5311|dock1
  -GOLD-   22720 4433D 1   1.00000     0.00000
 Structure written by MMmdl.
 44 46  0  0  0  0  0  0  0  0  2 V2000
  152.1209  138.1037  154.4499 C   0  0  0  0  0  0  0  0  0  0  0  0
  150.7305  138.1691  154.1520 O   0  0  0  0  0  0  0  0  0  0  0  0
  150.0526  139.3431  154.4212 C   0  0  0  0  0  0  0  0  0  0  0  0
  150.7228  140.3473  155.0403 N   0  0  0  0  0  0  0  0  0  0  0  0
  150.0609  141.4909  155.3108 C   0  0  0  0  0  0  0  0  0  0  0  0
  148.7064  141.6915  154.9881 C   0  0  0  0  0  0  0  0  0  0  0  0
  148.0094  140.6523  154.3445 C   0  0  0  0  0  0  0  0  0  0  0  0
  148.6945  139.4507  154.0400 C   0  0  0  0  0  0  0  0  0  0  0  0
  148.0842  138.3307  153.4100 N   0  0  0  0  0  0  0  0  0  0  0  0
  146.7958  138.1550  153.0706 C   0  0  0  0  0  0  0  0  0  0  0  0
  145.8953  138.9781  153.2335 O   0  0  0  0  0  0  0  0  0  0  0  0
  146.6046  136.9552  152.5033 N   0  0  0  0  0  0  0  0  0  0  0  0
  145.3276  136.4555  152.0015 C   0  0  2  0  0  0  0  0  0  0  0  0
  144.8539  135.2365  152.8160 C   0  0  0  0  0  0  0  0  0  0  0  0
  143.5643  134.6367  152.2242 C   0  0  0  0  0  0  0  0  0  0  0  0
  143.7159  134.2902  150.7877 N   0  3  2  0  0  0  0  0  0  0  0  0
  144.5258  133.0700  150.5619 C   0  0  0  0  0  0  0  0  0  0  0  0
  144.2642  132.4043  149.2309 C   0  0  0  0  0  0  0  0  0  0  0  0
  143.7049  131.8031  150.5010 C   0  0  0  0  0  0  0  0  0  0  0  0
  144.1622  135.4524  149.9774 C   0  0  0  0  0  0  0  0  0  0  0  0
  145.4655  136.0704  150.5188 C   0  0  0  0  0  0  0  0  0  0  0  0
  152.4997  137.1152  154.1900 H   0  0  0  0  0  0  0  0  0  0  0  0
  152.3095  138.2609  155.5129 H   0  0  0  0  0  0  0  0  0  0  0  0
  152.6871  138.8365  153.8732 H   0  0  0  0  0  0  0  0  0  0  0  0
  150.6266  142.2670  155.8047 H   0  0  0  0  0  0  0  0  0  0  0  0
  148.2116  142.6197  155.2328 H   0  0  0  0  0  0  0  0  0  0  0  0
  146.9651  140.7929  154.1134 H   0  0  0  0  0  0  0  0  0  0  0  0
  148.7208  137.5983  153.1313 H   0  0  0  0  0  0  0  0  0  0  0  0
  147.4039  136.3462  152.4041 H   0  0  0  0  0  0  0  0  0  0  0  0
  144.5803  137.2477  152.0802 H   0  0  0  0  0  0  0  0  0  0  0  0
  145.6373  134.4779  152.8428 H   0  0  0  0  0  0  0  0  0  0  0  0
  144.6749  135.5239  153.8527 H   0  0  0  0  0  0  0  0  0  0  0  0
  143.2604  133.7548  152.7890 H   0  0  0  0  0  0  0  0  0  0  0  0
  142.7516  135.3577  152.3200 H   0  0  0  0  0  0  0  0  0  0  0  0
  145.5244  133.0548  150.9935 H   0  0  0  0  0  0  0  0  0  0  0  0
  143.5613  132.8759  148.5463 H   0  0  0  0  0  0  0  0  0  0  0  0
  145.0956  131.8852  148.7581 H   0  0  0  0  0  0  0  0  0  0  0  0
  144.1675  130.8880  150.8654 H   0  0  0  0  0  0  0  0  0  0  0  0
  142.6302  131.8757  150.6593 H   0  0  0  0  0  0  0  0  0  0  0  0
  144.2868  135.1543  148.9358 H   0  0  0  0  0  0  0  0  0  0  0  0
  143.3713  136.2034  149.9885 H   0  0  0  0  0  0  0  0  0  0  0  0
  145.7235  136.9504  149.9287 H   0  0  0  0  0  0  0  0  0  0  0  0
  146.2883  135.3660  150.3903 H   0  0  0  0  0  0  0  0  0  0  0  0
  142.7900  134.0580  150.4568 H   0  0  0  0  0  0  0  0  0  0  0  0
  1  2  1  0  0  0  0
  1 22  1  0  0  0  0
  1 23  1  0  0  0  0
  1 24  1  0  0  0  0
  2  3  1  0  0  0  0
  3  8  1  0  0  0  0
  3  4  2  0  0  0  0
  4  5  1  0  0  0  0
  5  6  2  0  0  0  0
  5 25  1  0  0  0  0
  6  7  1  0  0  0  0
  6 26  1  0  0  0  0
  7  8  2  0  0  0  0
  7 27  1  0  0  0  0
  8  9  1  0  0  0  0
  9 10  1  0  0  0  0
  9 28  1  0  0  0  0
 10 11  2  0  0  0  0
 10 12  1  0  0  0  0
 12 13  1  0  0  0  0
 12 29  1  0  0  0  0
 13 21  1  0  0  0  0
 13 14  1  0  0  0  0
 13 30  1  0  0  0  0
 14 15  1  0  0  0  0
 14 31  1  0  0  0  0
 14 32  1  0  0  0  0
 15 16  1  0  0  0  0
 15 33  1  0  0  0  0
 15 34  1  0  0  0  0
 16 17  1  0  0  0  0
 16 20  1  0  0  0  0
 16 44  1  0  0  0  0
 17 19  1  0  0  0  0
 17 18  1  0  0  0  0
 17 35  1  0  0  0  0
 18 19  1  0  0  0  0
 18 36  1  0  0  0  0
 18 37  1  0  0  0  0
 19 38  1  0  0  0  0
 19 39  1  0  0  0  0
 20 21  1  0  0  0  0
 20 40  1  0  0  0  0
 20 41  1  0  0  0  0
 21 42  1  0  0  0  0
 21 43  1  0  0  0  0
M  CHG  1  16   1
M  END
> <s_m_source_file>
AV-unprocessed.smi

> <i_m_source_file_index>
1263

> <i_lp_mmshare_version>
43012

> <i_f3d_flags>
0

> <s_epik_input>
W0NIM11PYzFuW2NIXVtjSF1bY0hdYzFbTkhdQyg9TylbTkhdW0NIXTJbQ0gyXVtDSDJdTihbQ0gyXVtDSDJdMilbQ0hdM1tDSDJdW0NIMl0z

> <s_epik_cmdline>
J2VwaWtfcHl0aG9uJywgJy1waCcsICc3LjAnLCAnLXRuJywgJzgnLCAnLW1hJywgJzIwMCcsICctbWV0YWxfYmluZGluZycsICctaW1hZScsICc8aW5maWxlLm1hZT4nLCAnLW9tYWUnLCAnPG91dGZpbGUubWFlPic=

> <r_lp_tautomer_probability>
1

> <r_epik_Ionization_Penalty>
0.115628

> <r_epik_Ionization_Penalty_Charging>
0.115549

> <r_epik_Ionization_Penalty_Neutral>
7.89431e-05

> <r_epik_State_Penalty>
0.105184

> <r_epik_Charging_Adjusted_Penalty>
0.220733

> <i_epik_Tot_Q>
1

> <i_epik_Tot_abs_Q>
1

> <r_epik_Metal_State_Penalty>
0.105186

> <b_epik_Metal_Only>
0

> <s_lp_Force_Field>
OPLS_2005

> <r_lp_Energy>
30.2009

> <b_lp_Chiralities_Consistent>
1

> <s_lp_Variant>
AV-unprocessed.smi:1263-2

> <Gold.Version>
5.8.1

> <Gold.Id.Protein>
6NUR|6NUR_protein|mol2

> <Gold.PLP.Fitness>
48.7750

> <Gold.PLP.PLP>
-35.3526

> <Gold.PLP.part.hbond>
-4.4344

> <Gold.PLP.part.metal>
0.0000

> <Gold.PLP.part.buried>
0.2861

> <Gold.PLP.part.nonpolar>
-33.2427

> <Gold.PLP.part.repulsive>
2.7119

> <Gold.PLP.ligand.clash>
0.0000

> <Gold.PLP.ligand.torsion>
0.6900

> <Gold.PLP.Chemscore.Hbond>
4.5085

> <Gold.PLP.Chemscore.CHOScore>
0.0000

> <Gold.PLP.Chemscore.Metal>
0.0000

> <Gold.Chemscore.Hbonds>
donor molecule, donor type, donor heavy atom, donor atom, acceptor molecule, acceptor atom, score
      L1  H     9    28       P1  7948  0.86
      L1  H    12    29       P1  7948  0.90
      L1  H    16    44       P1 10186  2.00
      P1  H  7989  7998       L1     4  0.67

> <Gold.PLP.Chemscore.Internal.Correction>
1.2769

> <Gold.Rescore>
     Score         DG    S(hbond)    S(metal)    S(lipo)     H(rot)  DE(clash)    DE(int)     intcor
     18.15     -21.72       2.68        0.00      93.57       1.43       1.67       1.89       ----

> <Gold.Chemscore.Fitness>
18.1490

> <Gold.Chemscore.DG>
-21.7153

> <Gold.Chemscore.ZeroCoef>
-5.4800

> <Gold.Chemscore.Hbond>
2.6805

> <Gold.Chemscore.Metal>
0.0000

> <Gold.Chemscore.Lipo>
93.5712

> <Gold.Chemscore.Internal_Hbond>
0.0000

> <Gold.Chemscore.DEClash>
1.6716

> <Gold.Chemscore.DEInternal>
1.8947

> <Gold.Chemscore.Rot>
1.4318

> <Gold.Chemscore.Internal.Correction>
   9.000000E+99

> <Gold.Chemscore.Hbonds>
donor molecule, donor type, donor heavy atom, donor atom, acceptor molecule, acceptor atom, score
      L1  H     9    28       P1  7948  0.85
      L1  H    12    29       P1  7948  0.88
      L1  H    16    44       P1 10186  0.81
      P1  H  7989  7998       L1     4  0.02

> <Gold.Chemscore.Hbond.Weighted>
-8.9528

> <Gold.Chemscore.Metal.Weighted>
-0.0000

> <Gold.Chemscore.Lipo.Weighted>
-10.9478

> <Gold.Chemscore.Internal_Hbond.Weighted>
0.0000

> <Gold.Chemscore.DEClash.Weighted>
1.6716

> <Gold.Chemscore.DEInternal.Weighted>
1.8947

> <Gold.Chemscore.Rot.Weighted>
3.6653

> <Gold.Chemscore.Internal.Correction.Weighted>
   9.000000E+99

> <Gold.Protein.RotatedTorsions>
[ 6907 6896 6895 6894 ] final  106.69 input  -60.11 | X-H torsion
[ 7974 7965 7964 7962 ] final  122.82 input  175.53 | X-H torsion
[ 8008 7997 7996 7995 ] final  142.75 input   59.86 | X-H torsion
[ 10167 10162 10161 10158 ] final  -64.98 input  -65.29 | X-H torsion
[ 10718 10713 10712 10709 ] final   24.15 input   66.30 | X-H torsion
[ 10763 10752 10751 10750 ] final   26.92 input  -60.55 | X-H torsion
[ 11005 11000 10999 10996 ] final  -30.29 input  -57.11 | X-H torsion

> <Gold.Protein.ActiveResidues>
 VAL166  LYS551  ARG553  GLY616  TRP617  ASP618  TYR619  PRO620  LYS621  CYS622 
 ASP623  PHE694  ASN695  SER759  ASP760  ASP761  ALA762  ILE779  LEU786  VAL792 
 PHE793  MET794  SER795  GLU796  ALA797  LYS798  CYS799  TRP800  GLU811  SER814 

> <Gold.Protein.RotatedAtoms>
  152.5184  133.9344  159.7596 H   0  0  0  0  0  0  0  0  0  0  0  0  # atno 6907 bound_to 6896
  150.9688  133.6358  159.2748 H   0  0  0  0  0  0  0  0  0  0  0  0  # atno 6908 bound_to 6896
  151.3577  135.0903  159.9477 H   0  0  0  0  0  0  0  0  0  0  0  0  # atno 6909 bound_to 6896
  145.1031  139.3504  143.4801 H   0  0  0  0  0  0  0  0  0  0  0  0  # atno 7974 bound_to 7965
  156.2943  140.2280  156.4779 H   0  0  0  0  0  0  0  0  0  0  0  0  # atno 8008 bound_to 7997
  154.7878  140.0456  157.1199 H   0  0  0  0  0  0  0  0  0  0  0  0  # atno 8009 bound_to 7997
  154.9681  140.3063  155.5004 H   0  0  0  0  0  0  0  0  0  0  0  0  # atno 8010 bound_to 7997
  140.5762  143.2322  151.6436 H   0  0  0  0  0  0  0  0  0  0  0  0  # atno 10167 bound_to 10162
  157.1759  130.6780  149.6095 H   0  0  0  0  0  0  0  0  0  0  0  0  # atno 10718 bound_to 10713
  153.0590  135.6549  154.0507 H   0  0  0  0  0  0  0  0  0  0  0  0  # atno 10763 bound_to 10752
  154.0179  135.2922  155.3386 H   0  0  0  0  0  0  0  0  0  0  0  0  # atno 10764 bound_to 10752
  154.6920  135.5279  153.8473 H   0  0  0  0  0  0  0  0  0  0  0  0  # atno 10765 bound_to 10752
  140.9370  133.7302  156.1019 H   0  0  0  0  0  0  0  0  0  0  0  0  # atno 11005 bound_to 11000
  146.3529  140.0917  142.8612 LP  0  0  0  0  0  0  0  0  0  0  0  0  # atno 17320 bound_to 7965
  145.0932  140.9298  143.4756 LP  0  0  0  0  0  0  0  0  0  0  0  0  # atno 17321 bound_to 7965
  139.5144  144.3411  152.0739 LP  0  0  0  0  0  0  0  0  0  0  0  0  # atno 17342 bound_to 10162
  140.2555  144.4123  150.6205 LP  0  0  0  0  0  0  0  0  0  0  0  0  # atno 17343 bound_to 10162
  155.9731  130.4663  150.6285 LP  0  0  0  0  0  0  0  0  0  0  0  0  # atno 17370 bound_to 10713
  157.3999  131.0808  151.1318 LP  0  0  0  0  0  0  0  0  0  0  0  0  # atno 17371 bound_to 10713
  140.7786  134.3751  157.5492 LP  0  0  0  0  0  0  0  0  0  0  0  0  # atno 17394 bound_to 11000
  139.8810  134.9067  156.2929 LP  0  0  0  0  0  0  0  0  0  0  0  0  # atno 17395 bound_to 11000

$$$$
