#       Name:                AV-unprocessed.smi:2059
#       Creating user name   scv26
#       Creation time:       Fri Mar 27 11:02:05 2020


#       File generated by GOLD software.
#

@<TRIPOS>MOLECULE
AV-unprocessed.smi:2059
    35    36     1
SMALL
NO_CHARGES


@<TRIPOS>ATOM
      1 ****        -3.8427  -3.0485  -0.6905 C.3            1 S1                 0.0000
      2 ****        -2.5004  -2.8577  -0.0713 C.2            1 S1                 0.0000
      3 ****        -1.2321  -2.8993  -0.5765 C.2            1 S1                 0.0000
      4 ****        -0.4208  -2.6267   0.5583 C.2            1 S1                 0.0000
      5 ****         0.9225  -2.5646   0.5678 N.pl3          1 S1                -1.0000
      6 ****         1.6093  -1.4169   0.3236 C.2            1 S1                 0.0000
      7 ****         2.8380  -1.3593   0.2933 O.2            1 S1                 0.0000
      8 ****         0.8998  -0.2923   0.1075 N.am           1 S1                 0.0000
      9 ****         1.4463   1.0300  -0.1794 C.3            1 S1                 0.0000
     10 ****         0.3622   1.9556  -0.7613 C.3            1 S1                 0.0000
     11 ****         0.8709   3.4011  -0.7100 C.3            1 S1                 0.0000
     12 ****         1.9603   3.5029   0.7606 S.o2           1 S1                 0.0000
     13 ****         3.2898   3.9679   0.3368 O.2            1 S1                 0.0000
     14 ****         1.2423   4.1661   1.8597 O.2            1 S1                 0.0000
     15 ****         2.0147   1.7002   1.0821 C.3            1 S1                 0.0000
     16 ****        -1.1332  -2.4479   1.6583 N.2            1 S1                 0.0000
     17 ****        -2.4685  -2.5887   1.2618 O.3            1 S1                 0.0000
     18 ****        -3.9952  -4.0927  -0.9632 H              1 S1                 0.0000
     19 ****        -3.9409  -2.4452  -1.5930 H              1 S1                 0.0000
     20 ****        -4.6379  -2.7590  -0.0033 H              1 S1                 0.0000
     21 ****        -0.9308  -3.0926  -1.5950 H              1 S1                 0.0000
     22 ****        -0.1063  -0.3684   0.1446 H              1 S1                 0.0000
     23 ****         2.2433   0.9420  -0.9201 H              1 S1                 0.0000
     24 ****         0.0812   1.6652  -1.7742 H              1 S1                 0.0000
     25 ****        -0.5376   1.8824  -0.1487 H              1 S1                 0.0000
     26 ****         1.4732   3.6288  -1.5895 H              1 S1                 0.0000
     27 ****         0.0670   4.1336  -0.6377 H              1 S1                 0.0000
     28 ****         1.3896   1.4969   1.9522 H              1 S1                 0.0000
     29 ****         3.0346   1.3873   1.3060 H              1 S1                 0.0000
     30 ****         1.4386  -3.3986   0.7629 LP             1 S1                 0.0000
     31 ****         3.3813  -2.1835   0.4530 LP             1 S1                 0.0000
     32 ****         3.2934  -0.4883   0.1090 LP             1 S1                 0.0000
     33 ****        -0.7908  -2.2535   2.5776 LP             1 S1                 0.0000
     34 ****        -2.8923  -3.3403   1.7672 LP             1 S1                 0.0000
     35 ****        -2.9656  -1.7409   1.4462 LP             1 S1                 0.0000
@<TRIPOS>BOND
    1    1    2 1     
    2    1   18 1     
    3    1   19 1     
    4    1   20 1     
    5    2   17 1     
    6    2    3 2     
    7    3    4 1     
    8    3   21 1     
    9    4    5 1     
   10    4   16 2     
   11    5    6 1     
   12    6    7 2     
   13    6    8 am    
   14    8    9 1     
   15    8   22 1     
   16    9   15 1     
   17    9   10 1     
   18    9   23 1     
   19   10   11 1     
   20   10   24 1     
   21   10   25 1     
   22   11   12 1     
   23   11   26 1     
   24   11   27 1     
   25   12   13 2     
   26   12   14 2     
   27   12   15 1     
   28   15   28 1     
   29   15   29 1     
   30   16   17 1     
   31    5   30 1     
   32    7   31 1     
   33    7   32 1     
   34   16   33 1     
   35   17   34 1     
   36   17   35 1     
@<TRIPOS>SUBSTRUCTURE
      1 S1             1
@<TRIPOS>SET
LONE_PAIRS      STATIC     ATOMS    <user>   **** ""
8 30 31 32 13 14 33 34 35
DONOR_HYDROGENS      STATIC     ATOMS    <user>   **** ""
1 22
ATOM$BLUE        STATIC     ATOMS    COLORGROUP SYSTEM
8 30 31 32 13 14 33 34 35
ATOM$RED        STATIC     ATOMS    COLORGROUP SYSTEM
1 22
