AV-unprocessed.smi:1586|AV-procd|sdf|6375|dock10
  -GOLD-   22720 7 03D 1   1.00000     0.00000
 Structure written by MMmdl.
 47 48  0  0  0  0  0  0  0  0  2 V2000
  143.7877  132.4238  150.0705 C   0  0  0  0  0  0  0  0  0  0  0  0
  144.4343  132.7674  151.4201 C   0  0  0  0  0  0  0  0  0  0  0  0
  145.8689  133.0338  151.2895 N   0  0  0  0  0  0  0  0  0  0  0  0
  146.1536  134.1003  150.3296 C   0  0  0  0  0  0  0  0  0  0  0  0
  145.7339  135.4902  150.8544 C   0  0  0  0  0  0  0  0  0  0  0  0
  146.4155  135.8073  152.1404 N   0  3  0  0  0  0  0  0  0  0  0  0
  146.1319  137.1641  152.7119 C   0  0  2  0  0  0  0  0  0  0  0  0
  144.6371  137.4011  153.0376 C   0  0  0  0  0  0  0  0  0  0  0  0
  146.6489  138.2689  151.7520 C   0  0  0  0  0  0  0  0  0  0  0  0
  147.8984  138.8774  152.1997 N   0  0  0  0  0  0  0  0  0  0  0  0
  148.1197  139.3382  153.4392 C   0  0  0  0  0  0  0  0  0  0  0  0
  147.2773  139.2938  154.3365 O   0  0  0  0  0  0  0  0  0  0  0  0
  149.3577  139.8464  153.5610 N   0  0  0  0  0  0  0  0  0  0  0  0
  149.9401  140.4315  154.7143 C   0  0  0  0  0  0  0  0  0  0  0  0
  149.2402  141.4102  155.4686 C   0  0  0  0  0  0  0  0  0  0  0  0
  150.1180  141.7108  156.4720 C   0  0  0  0  0  0  0  0  0  0  0  0
  150.0559  142.6497  157.6276 C   0  0  0  0  0  0  0  0  0  0  0  0
  151.2565  140.9777  156.3408 O   0  0  0  0  0  0  0  0  0  0  0  0
  151.1363  140.1589  155.2118 N   0  0  0  0  0  0  0  0  0  0  0  0
  146.1493  134.7133  153.1148 C   0  0  0  0  0  0  0  0  0  0  0  0
  146.5630  133.3423  152.5424 C   0  0  0  0  0  0  0  0  0  0  0  0
  142.7041  132.3636  150.1728 H   0  0  0  0  0  0  0  0  0  0  0  0
  144.1270  131.4623  149.6864 H   0  0  0  0  0  0  0  0  0  0  0  0
  144.0053  133.1857  149.3214 H   0  0  0  0  0  0  0  0  0  0  0  0
  143.9524  133.6680  151.8030 H   0  0  0  0  0  0  0  0  0  0  0  0
  144.2330  131.9798  152.1449 H   0  0  0  0  0  0  0  0  0  0  0  0
  147.2234  134.0993  150.1161 H   0  0  0  0  0  0  0  0  0  0  0  0
  145.6546  133.8860  149.3838 H   0  0  0  0  0  0  0  0  0  0  0  0
  146.0143  136.2118  150.0879 H   0  0  0  0  0  0  0  0  0  0  0  0
  144.6519  135.5571  150.9752 H   0  0  0  0  0  0  0  0  0  0  0  0
  146.6710  137.2356  153.6579 H   0  0  0  0  0  0  0  0  0  0  0  0
  144.4634  138.4044  153.4263 H   0  0  0  0  0  0  0  0  0  0  0  0
  144.2729  136.7216  153.8082 H   0  0  0  0  0  0  0  0  0  0  0  0
  144.0117  137.2826  152.1522 H   0  0  0  0  0  0  0  0  0  0  0  0
  146.8024  137.8949  150.7403 H   0  0  0  0  0  0  0  0  0  0  0  0
  145.9037  139.0606  151.6683 H   0  0  0  0  0  0  0  0  0  0  0  0
  148.6427  138.9501  151.5213 H   0  0  0  0  0  0  0  0  0  0  0  0
  149.9461  139.8156  152.7418 H   0  0  0  0  0  0  0  0  0  0  0  0
  148.2571  141.8254  155.3046 H   0  0  0  0  0  0  0  0  0  0  0  0
  149.1441  143.2463  157.5972 H   0  0  0  0  0  0  0  0  0  0  0  0
  150.9063  143.3317  157.6180 H   0  0  0  0  0  0  0  0  0  0  0  0
  150.0708  142.1030  158.5706 H   0  0  0  0  0  0  0  0  0  0  0  0
  146.7098  134.8725  154.0338 H   0  0  0  0  0  0  0  0  0  0  0  0
  145.0970  134.7144  153.4008 H   0  0  0  0  0  0  0  0  0  0  0  0
  146.3907  132.5570  153.2776 H   0  0  0  0  0  0  0  0  0  0  0  0
  147.6371  133.3396  152.3517 H   0  0  0  0  0  0  0  0  0  0  0  0
  147.4043  135.7861  151.9367 H   0  0  0  0  0  0  0  0  0  0  0  0
  1  2  1  0  0  0  0
  1 22  1  0  0  0  0
  1 23  1  0  0  0  0
  1 24  1  0  0  0  0
  2  3  1  0  0  0  0
  2 25  1  0  0  0  0
  2 26  1  0  0  0  0
  3 21  1  0  0  0  0
  3  4  1  0  0  0  0
  4  5  1  0  0  0  0
  4 27  1  0  0  0  0
  4 28  1  0  0  0  0
  5  6  1  0  0  0  0
  5 29  1  0  0  0  0
  5 30  1  0  0  0  0
  6  7  1  0  0  0  0
  6 20  1  0  0  0  0
  6 47  1  0  0  0  0
  7  8  1  0  0  0  0
  7  9  1  0  0  0  0
  7 31  1  0  0  0  0
  8 32  1  0  0  0  0
  8 33  1  0  0  0  0
  8 34  1  0  0  0  0
  9 10  1  0  0  0  0
  9 35  1  0  0  0  0
  9 36  1  0  0  0  0
 10 11  1  0  0  0  0
 10 37  1  0  0  0  0
 11 12  2  0  0  0  0
 11 13  1  0  0  0  0
 13 14  1  0  0  0  0
 13 38  1  0  0  0  0
 14 19  2  0  0  0  0
 14 15  1  0  0  0  0
 15 16  2  0  0  0  0
 15 39  1  0  0  0  0
 16 17  1  0  0  0  0
 16 18  1  0  0  0  0
 17 40  1  0  0  0  0
 17 41  1  0  0  0  0
 17 42  1  0  0  0  0
 18 19  1  0  0  0  0
 20 21  1  0  0  0  0
 20 43  1  0  0  0  0
 20 44  1  0  0  0  0
 21 45  1  0  0  0  0
 21 46  1  0  0  0  0
M  CHG  1   6   1
M  END
> <s_m_source_file>
AV-unprocessed.smi

> <i_m_source_file_index>
1586

> <i_lp_mmshare_version>
43012

> <i_f3d_flags>
0

> <s_epik_input>
W0NIM11bQ0gyXU4xW0NIMl1bQ0gyXU4oW0NIMl1bQ0gyXTEpW0NASF0oW0NIM10pW0NIMl1bTkhdQyg9TylbTkhdYzJbY0hdYyhbQ0gzXSlvbjI=

> <s_epik_cmdline>
J2VwaWtfcHl0aG9uJywgJy1waCcsICc3LjAnLCAnLXRuJywgJzgnLCAnLW1hJywgJzIwMCcsICctbWV0YWxfYmluZGluZycsICctaW1hZScsICc8aW5maWxlLm1hZT4nLCAnLW9tYWUnLCAnPG91dGZpbGUubWFlPic=

> <r_epik_Ionization_Penalty>
0.153363

> <r_epik_Ionization_Penalty_Charging>
0.151842

> <r_epik_Ionization_Penalty_Neutral>
0.00152029

> <r_epik_State_Penalty>
0.985235

> <r_epik_Charging_Adjusted_Penalty>
1.13708

> <i_epik_Tot_Q>
1

> <i_epik_Tot_abs_Q>
1

> <r_epik_Metal_State_Penalty>
0.996168

> <b_epik_Metal_Only>
0

> <s_lp_Force_Field>
OPLS_2005

> <r_lp_Energy>
18.9403

> <b_lp_Chiralities_Consistent>
1

> <s_lp_Variant>
AV-unprocessed.smi:1586-3

> <Gold.Version>
5.8.1

> <Gold.Id.Protein>
6NUR|6NUR_protein|mol2

> <Gold.PLP.Fitness>
45.7394

> <Gold.PLP.PLP>
-33.1538

> <Gold.PLP.part.hbond>
-4.8492

> <Gold.PLP.part.metal>
0.0000

> <Gold.PLP.part.buried>
-4.6998

> <Gold.PLP.part.nonpolar>
-23.8523

> <Gold.PLP.part.repulsive>
0.4985

> <Gold.PLP.ligand.clash>
0.0000

> <Gold.PLP.ligand.torsion>
1.1583

> <Gold.PLP.Chemscore.Hbond>
4.9440

> <Gold.PLP.Chemscore.CHOScore>
0.0000

> <Gold.PLP.Chemscore.Metal>
0.0000

> <Gold.Chemscore.Hbonds>
donor molecule, donor type, donor heavy atom, donor atom, acceptor molecule, acceptor atom, score
      L1  H     6    47       P1  7948  2.00
      L1  H    10    37       P1  7957  0.57
      L1  H    13    38       P1  7957  0.66

> <Gold.PLP.Chemscore.Internal.Correction>
0.0702

> <Gold.Rescore>
     Score         DG    S(hbond)    S(metal)    S(lipo)     H(rot)  DE(clash)    DE(int)     intcor
     16.03     -18.52       2.98        0.00      64.92       1.76       0.06       2.44       ----

> <Gold.Chemscore.Fitness>
16.0264

> <Gold.Chemscore.DG>
-18.5220

> <Gold.Chemscore.ZeroCoef>
-5.4800

> <Gold.Chemscore.Hbond>
2.9823

> <Gold.Chemscore.Metal>
0.0000

> <Gold.Chemscore.Lipo>
64.9244

> <Gold.Chemscore.Internal_Hbond>
0.0000

> <Gold.Chemscore.DEClash>
0.0595

> <Gold.Chemscore.DEInternal>
2.4362

> <Gold.Chemscore.Rot>
1.7637

> <Gold.Chemscore.Internal.Correction>
   9.000000E+99

> <Gold.Chemscore.Hbonds>
donor molecule, donor type, donor heavy atom, donor atom, acceptor molecule, acceptor atom, score
      L1  H     6    47       P1  7948  0.98
      L1  H    10    37       P1  7957  0.28
      L1  H    13    38       P1  7957  0.64

> <Gold.Chemscore.Hbond.Weighted>
-9.9608

> <Gold.Chemscore.Metal.Weighted>
-0.0000

> <Gold.Chemscore.Lipo.Weighted>
-7.5962

> <Gold.Chemscore.Internal_Hbond.Weighted>
0.0000

> <Gold.Chemscore.DEClash.Weighted>
0.0595

> <Gold.Chemscore.DEInternal.Weighted>
2.4362

> <Gold.Chemscore.Rot.Weighted>
4.5150

> <Gold.Chemscore.Internal.Correction.Weighted>
   9.000000E+99

> <Gold.Protein.RotatedTorsions>
[ 6907 6896 6895 6894 ] final   77.80 input  -60.11 | X-H torsion
[ 7974 7965 7964 7962 ] final   64.73 input  175.53 | X-H torsion
[ 8008 7997 7996 7995 ] final  -36.65 input   59.86 | X-H torsion
[ 10167 10162 10161 10158 ] final  -23.03 input  -65.29 | X-H torsion
[ 10718 10713 10712 10709 ] final  -26.23 input   66.30 | X-H torsion
[ 10763 10752 10751 10750 ] final  171.35 input  -60.55 | X-H torsion
[ 11005 11000 10999 10996 ] final  107.77 input  -57.11 | X-H torsion

> <Gold.Protein.ActiveResidues>
 VAL166  LYS551  ARG553  GLY616  TRP617  ASP618  TYR619  PRO620  LYS621  CYS622 
 ASP623  PHE694  ASN695  SER759  ASP760  ASP761  ALA762  ILE779  LEU786  VAL792 
 PHE793  MET794  SER795  GLU796  ALA797  LYS798  CYS799  TRP800  GLU811  SER814 

> <Gold.Protein.RotatedAtoms>
  152.5133  134.3761  159.9334 H   0  0  0  0  0  0  0  0  0  0  0  0  # atno 6907 bound_to 6896
  151.3717  133.3846  159.2708 H   0  0  0  0  0  0  0  0  0  0  0  0  # atno 6908 bound_to 6896
  150.9573  134.8985  159.7767 H   0  0  0  0  0  0  0  0  0  0  0  0  # atno 6909 bound_to 6896
  145.8468  139.3229  143.0899 H   0  0  0  0  0  0  0  0  0  0  0  0  # atno 7974 bound_to 7965
  154.4069  140.1625  156.2408 H   0  0  0  0  0  0  0  0  0  0  0  0  # atno 8008 bound_to 7997
  155.9203  140.3421  155.6145 H   0  0  0  0  0  0  0  0  0  0  0  0  # atno 8009 bound_to 7997
  155.7230  140.0771  157.2313 H   0  0  0  0  0  0  0  0  0  0  0  0  # atno 8010 bound_to 7997
  140.7287  143.4481  151.0557 H   0  0  0  0  0  0  0  0  0  0  0  0  # atno 10167 bound_to 10162
  156.4539  130.4489  149.6972 H   0  0  0  0  0  0  0  0  0  0  0  0  # atno 10718 bound_to 10713
  154.4107  135.2756  155.2038 H   0  0  0  0  0  0  0  0  0  0  0  0  # atno 10763 bound_to 10752
  154.4025  135.6041  153.5909 H   0  0  0  0  0  0  0  0  0  0  0  0  # atno 10764 bound_to 10752
  152.9831  135.5930  154.4388 H   0  0  0  0  0  0  0  0  0  0  0  0  # atno 10765 bound_to 10752
  139.8833  134.9411  156.5870 H   0  0  0  0  0  0  0  0  0  0  0  0  # atno 11005 bound_to 11000
  145.9403  140.8984  143.0311 LP  0  0  0  0  0  0  0  0  0  0  0  0  # atno 17320 bound_to 7965
  144.6731  140.1539  143.7428 LP  0  0  0  0  0  0  0  0  0  0  0  0  # atno 17321 bound_to 7965
  139.8154  143.7893  152.3174 LP  0  0  0  0  0  0  0  0  0  0  0  0  # atno 17342 bound_to 10162
  139.7957  144.7393  150.9893 LP  0  0  0  0  0  0  0  0  0  0  0  0  # atno 17343 bound_to 10162
  156.3787  130.7568  151.2559 LP  0  0  0  0  0  0  0  0  0  0  0  0  # atno 17370 bound_to 10713
  157.7501  131.0302  150.4126 LP  0  0  0  0  0  0  0  0  0  0  0  0  # atno 17371 bound_to 10713
  140.7984  133.8525  155.8706 LP  0  0  0  0  0  0  0  0  0  0  0  0  # atno 17394 bound_to 11000
  140.9614  134.1650  157.4650 LP  0  0  0  0  0  0  0  0  0  0  0  0  # atno 17395 bound_to 11000

$$$$
