AV-unprocessed.smi:2489|AV-procd|sdf|9798|dock3
  -GOLD-   2272013433D 1   1.00000     0.00000
 Structure written by MMmdl.
 33 34  0  0  0  0  0  0  0  0  1 V2000
  151.7939  145.6897  160.1586 C   0  0  0  0  0  0  0  0  0  0  0  0
  151.4313  144.8692  159.0579 O   0  0  0  0  0  0  0  0  0  0  0  0
  151.8958  143.5720  159.0420 C   0  0  0  0  0  0  0  0  0  0  0  0
  152.6905  142.9922  160.0591 C   0  0  0  0  0  0  0  0  0  0  0  0
  153.0947  141.6526  159.9118 C   0  0  0  0  0  0  0  0  0  0  0  0
  152.7634  140.8910  158.8496 N   0  0  0  0  0  0  0  0  0  0  0  0
  152.0032  141.4298  157.8656 C   0  0  0  0  0  0  0  0  0  0  0  0
  151.5993  140.7207  156.7037 N   0  0  0  0  0  0  0  0  0  0  0  0
  152.1362  139.6053  156.1723 C   0  0  0  0  0  0  0  0  0  0  0  0
  153.1198  139.0230  156.6305 O   0  0  0  0  0  0  0  0  0  0  0  0
  151.4699  139.0648  154.8940 C   0  0  1  0  0  0  0  0  0  0  0  0
  150.6768  137.7610  155.1184 C   0  0  0  0  0  0  0  0  0  0  0  0
  149.2793  138.0865  154.6227 C   0  0  0  0  0  0  0  0  0  0  0  0
  149.2129  139.5998  154.7865 C   0  0  2  0  0  0  0  0  0  0  0  0
  148.1498  140.2819  153.9194 C   0  0  0  0  0  0  0  0  0  0  0  0
  150.5153  140.0046  154.3935 O   0  0  0  0  0  0  0  0  0  0  0  0
  151.5551  142.7676  157.9354 C   0  0  0  0  0  0  0  0  0  0  0  0
  151.3557  146.6793  160.0299 H   0  0  0  0  0  0  0  0  0  0  0  0
  152.8758  145.8142  160.2237 H   0  0  0  0  0  0  0  0  0  0  0  0
  151.4198  145.2832  161.0992 H   0  0  0  0  0  0  0  0  0  0  0  0
  152.9951  143.5393  160.9382 H   0  0  0  0  0  0  0  0  0  0  0  0
  153.7019  141.1790  160.6688 H   0  0  0  0  0  0  0  0  0  0  0  0
  150.7962  141.0960  156.2202 H   0  0  0  0  0  0  0  0  0  0  0  0
  152.2414  138.9220  154.1370 H   0  0  0  0  0  0  0  0  0  0  0  0
  151.1090  136.9195  154.5763 H   0  0  0  0  0  0  0  0  0  0  0  0
  150.6338  137.4828  156.1727 H   0  0  0  0  0  0  0  0  0  0  0  0
  149.1904  137.8157  153.5695 H   0  0  0  0  0  0  0  0  0  0  0  0
  148.4980  137.5633  155.1748 H   0  0  0  0  0  0  0  0  0  0  0  0
  149.0639  139.8566  155.8369 H   0  0  0  0  0  0  0  0  0  0  0  0
  147.1488  139.9503  154.1955 H   0  0  0  0  0  0  0  0  0  0  0  0
  148.2979  140.0592  152.8622 H   0  0  0  0  0  0  0  0  0  0  0  0
  148.1873  141.3647  154.0398 H   0  0  0  0  0  0  0  0  0  0  0  0
  150.9492  143.1820  157.1425 H   0  0  0  0  0  0  0  0  0  0  0  0
  1  2  1  0  0  0  0
  1 18  1  0  0  0  0
  1 19  1  0  0  0  0
  1 20  1  0  0  0  0
  2  3  1  0  0  0  0
  3 17  1  0  0  0  0
  3  4  2  0  0  0  0
  4  5  1  0  0  0  0
  4 21  1  0  0  0  0
  5  6  2  0  0  0  0
  5 22  1  0  0  0  0
  6  7  1  0  0  0  0
  7  8  1  0  0  0  0
  7 17  2  0  0  0  0
  8  9  1  0  0  0  0
  8 23  1  0  0  0  0
  9 10  2  0  0  0  0
  9 11  1  0  0  0  0
 11 16  1  0  0  0  0
 11 12  1  0  0  0  0
 11 24  1  0  0  0  0
 12 13  1  0  0  0  0
 12 25  1  0  0  0  0
 12 26  1  0  0  0  0
 13 14  1  0  0  0  0
 13 27  1  0  0  0  0
 13 28  1  0  0  0  0
 14 15  1  0  0  0  0
 14 16  1  0  0  0  0
 14 29  1  0  0  0  0
 15 30  1  0  0  0  0
 15 31  1  0  0  0  0
 15 32  1  0  0  0  0
 17 33  1  0  0  0  0
M  END
> <s_m_source_file>
AV-unprocessed.smi

> <i_m_source_file_index>
2489

> <i_lp_mmshare_version>
43012

> <i_f3d_flags>
0

> <s_epik_input>
W0NIM11PYzFbY0hdW2NIXW5jKFtjSF0xKVtOSF1DKD1PKVtDQEBIXTJbQ0gyXVtDSDJdW0NASF0oTzIpW0NIM10=

> <s_epik_cmdline>
J2VwaWtfcHl0aG9uJywgJy1waCcsICc3LjAnLCAnLXRuJywgJzgnLCAnLW1hJywgJzIwMCcsICctbWV0YWxfYmluZGluZycsICctaW1hZScsICc8aW5maWxlLm1hZT4nLCAnLW9tYWUnLCAnPG91dGZpbGUubWFlPic=

> <r_epik_Ionization_Penalty>
0.0871917

> <r_epik_Ionization_Penalty_Charging>
0

> <r_epik_Ionization_Penalty_Neutral>
0.0871917

> <r_epik_State_Penalty>
0.146479

> <r_epik_Charging_Adjusted_Penalty>
0.146479

> <i_epik_Tot_Q>
0

> <i_epik_Tot_abs_Q>
0

> <r_epik_Metal_State_Penalty>
0.067489

> <b_epik_Metal_Only>
0

> <s_lp_Force_Field>
OPLS_2005

> <r_lp_Energy>
22.8638

> <b_lp_Chiralities_Consistent>
1

> <s_lp_Variant>
AV-unprocessed.smi:2489-4

> <Gold.Version>
5.8.1

> <Gold.Id.Protein>
6NUR|6NUR_protein|mol2

> <Gold.PLP.Fitness>
40.7455

> <Gold.PLP.PLP>
-35.3589

> <Gold.PLP.part.hbond>
-2.0000

> <Gold.PLP.part.metal>
0.0000

> <Gold.PLP.part.buried>
-4.8527

> <Gold.PLP.part.nonpolar>
-28.6716

> <Gold.PLP.part.repulsive>
0.3267

> <Gold.PLP.ligand.clash>
0.0000

> <Gold.PLP.ligand.torsion>
0.3104

> <Gold.PLP.Chemscore.Hbond>
2.0000

> <Gold.PLP.Chemscore.CHOScore>
0.0000

> <Gold.PLP.Chemscore.Metal>
0.0000

> <Gold.Chemscore.Hbonds>
donor molecule, donor type, donor heavy atom, donor atom, acceptor molecule, acceptor atom, score
      P1  H  7989  7998       L1    16  0.75
      P1  H  7997  8009       L1    10  1.00

> <Gold.PLP.Chemscore.Internal.Correction>
0.0074

> <Gold.Rescore>
     Score         DG    S(hbond)    S(metal)    S(lipo)     H(rot)  DE(clash)    DE(int)     intcor
     15.50     -17.33       1.47        0.00      86.14       1.23       0.21       1.61       ----

> <Gold.Chemscore.Fitness>
15.5003

> <Gold.Chemscore.DG>
-17.3257

> <Gold.Chemscore.ZeroCoef>
-5.4800

> <Gold.Chemscore.Hbond>
1.4692

> <Gold.Chemscore.Metal>
0.0000

> <Gold.Chemscore.Lipo>
86.1367

> <Gold.Chemscore.Internal_Hbond>
0.0000

> <Gold.Chemscore.DEClash>
0.2135

> <Gold.Chemscore.DEInternal>
1.6119

> <Gold.Chemscore.Rot>
1.2264

> <Gold.Chemscore.Internal.Correction>
   9.000000E+99

> <Gold.Chemscore.Hbonds>
donor molecule, donor type, donor heavy atom, donor atom, acceptor molecule, acceptor atom, score
      P1  H  7989  7998       L1    16  0.09
      P1  H  7997  8009       L1    10  0.76

> <Gold.Chemscore.Hbond.Weighted>
-4.9072

> <Gold.Chemscore.Metal.Weighted>
-0.0000

> <Gold.Chemscore.Lipo.Weighted>
-10.0780

> <Gold.Chemscore.Internal_Hbond.Weighted>
0.0000

> <Gold.Chemscore.DEClash.Weighted>
0.2135

> <Gold.Chemscore.DEInternal.Weighted>
1.6119

> <Gold.Chemscore.Rot.Weighted>
3.1396

> <Gold.Chemscore.Internal.Correction.Weighted>
   9.000000E+99

> <Gold.Protein.RotatedTorsions>
[ 6907 6896 6895 6894 ] final   17.85 input  -60.11 | X-H torsion
[ 7974 7965 7964 7962 ] final  132.98 input  175.53 | X-H torsion
[ 8008 7997 7996 7995 ] final  171.76 input   59.86 | X-H torsion
[ 10167 10162 10161 10158 ] final  -58.30 input  -65.29 | X-H torsion
[ 10718 10713 10712 10709 ] final -167.08 input   66.30 | X-H torsion
[ 10763 10752 10751 10750 ] final   10.25 input  -60.55 | X-H torsion
[ 11005 11000 10999 10996 ] final  -74.15 input  -57.11 | X-H torsion

> <Gold.Protein.ActiveResidues>
 VAL166  LYS551  ARG553  GLY616  TRP617  ASP618  TYR619  PRO620  LYS621  CYS622 
 ASP623  PHE694  ASN695  SER759  ASP760  ASP761  ALA762  ILE779  LEU786  VAL792 
 PHE793  MET794  SER795  GLU796  ALA797  LYS798  CYS799  TRP800  GLU811  SER814 

> <Gold.Protein.RotatedAtoms>
  151.8561  135.0540  160.0464 H   0  0  0  0  0  0  0  0  0  0  0  0  # atno 6907 bound_to 6896
  152.2699  133.5368  159.5441 H   0  0  0  0  0  0  0  0  0  0  0  0  # atno 6908 bound_to 6896
  150.7147  134.0629  159.3880 H   0  0  0  0  0  0  0  0  0  0  0  0  # atno 6909 bound_to 6896
  144.9912  139.4405  143.5338 H   0  0  0  0  0  0  0  0  0  0  0  0  # atno 7974 bound_to 7965
  156.1240  140.1503  156.9163 H   0  0  0  0  0  0  0  0  0  0  0  0  # atno 8008 bound_to 7997
  154.4857  140.0866  156.7523 H   0  0  0  0  0  0  0  0  0  0  0  0  # atno 8009 bound_to 7997
  155.4377  140.3429  155.4289 H   0  0  0  0  0  0  0  0  0  0  0  0  # atno 8010 bound_to 7997
  140.6205  143.2418  151.5491 H   0  0  0  0  0  0  0  0  0  0  0  0  # atno 10167 bound_to 10162
  156.6772  130.9107  151.3052 H   0  0  0  0  0  0  0  0  0  0  0  0  # atno 10718 bound_to 10713
  153.2053  135.6861  153.8181 H   0  0  0  0  0  0  0  0  0  0  0  0  # atno 10763 bound_to 10752
  153.7433  135.3235  155.3309 H   0  0  0  0  0  0  0  0  0  0  0  0  # atno 10764 bound_to 10752
  154.8193  135.4663  154.0837 H   0  0  0  0  0  0  0  0  0  0  0  0  # atno 10765 bound_to 10752
  141.1631  133.6902  156.7321 H   0  0  0  0  0  0  0  0  0  0  0  0  # atno 11005 bound_to 11000
  146.3431  139.9244  142.8762 LP  0  0  0  0  0  0  0  0  0  0  0  0  # atno 17320 bound_to 7965
  145.2283  140.9963  143.4005 LP  0  0  0  0  0  0  0  0  0  0  0  0  # atno 17321 bound_to 7965
  139.5435  144.2584  152.1397 LP  0  0  0  0  0  0  0  0  0  0  0  0  # atno 17342 bound_to 10162
  140.1803  144.4851  150.6532 LP  0  0  0  0  0  0  0  0  0  0  0  0  # atno 17343 bound_to 10162
  157.7056  130.9382  150.0922 LP  0  0  0  0  0  0  0  0  0  0  0  0  # atno 17370 bound_to 10713
  156.1894  130.3654  149.8929 LP  0  0  0  0  0  0  0  0  0  0  0  0  # atno 17371 bound_to 10713
  140.2737  134.8371  157.3871 LP  0  0  0  0  0  0  0  0  0  0  0  0  # atno 17394 bound_to 11000
  140.1497  134.4865  155.7970 LP  0  0  0  0  0  0  0  0  0  0  0  0  # atno 17395 bound_to 11000

$$$$
