#       Name:                AV-unprocessed.smi:992
#       Creating user name   scv26
#       Creation time:       Fri Mar 27 02:23:38 2020


#       File generated by GOLD software.
#

@<TRIPOS>MOLECULE
AV-unprocessed.smi:992
    36    37     1
SMALL
NO_CHARGES


@<TRIPOS>ATOM
      1 ****        -2.9579  -1.4203   2.1623 C.3            1 S1                 0.0000
      2 ****        -2.3537  -0.7596   0.9189 C.3            1 S1                 0.0000
      3 ****        -0.8175  -0.6982   0.9889 C.3            1 S1                 0.0000
      4 ****        -0.2957   0.0278  -0.1601 N.3            1 S1                 0.0000
      5 ****         1.1025   0.0007  -0.2432 C.ar           1 S1                 0.0000
      6 ****         1.9537   0.5734   0.7311 C.ar           1 S1                 0.0000
      7 ****         3.3515   0.4920   0.5615 C.ar           1 S1                 0.0000
      8 ****         3.8725  -0.1585  -0.5769 C.ar           1 S1                 0.0000
      9 ****         5.2493  -0.2559  -0.7689 N.pl3          1 S1                 0.0000
     10 ****         2.9792  -0.7100  -1.5181 C.ar           1 S1                 0.0000
     11 ****         1.6467  -0.6109  -1.3188 N.pl3          1 S1                 1.0000
     12 ****        -0.8507   1.3708  -0.2670 C.3            1 S1                 0.0000
     13 ****        -2.3918   1.3256  -0.2879 C.3            1 S1                 0.0000
     14 ****        -2.9769   0.8344  -1.6241 C.3            1 S1                 0.0000
     15 ****        -2.8755   0.5661   0.8234 O.3            1 S1                 0.0000
     16 ****        -2.5954  -2.4419   2.2791 H              1 S1                 0.0000
     17 ****        -4.0453  -1.4597   2.0927 H              1 S1                 0.0000
     18 ****        -2.7021  -0.8683   3.0673 H              1 S1                 0.0000
     19 ****        -2.6583  -1.3389   0.0470 H              1 S1                 0.0000
     20 ****        -0.5062  -0.2032   1.9098 H              1 S1                 0.0000
     21 ****        -0.4021  -1.7067   1.0077 H              1 S1                 0.0000
     22 ****         1.5458   1.0691   1.5997 H              1 S1                 0.0000
     23 ****         4.0126   0.9241   1.2987 H              1 S1                 0.0000
     24 ****         5.9045   0.1325  -0.1052 H              1 S1                 0.0000
     25 ****         5.6396  -0.6767  -1.6002 H              1 S1                 0.0000
     26 ****         3.2845  -1.2246  -2.4179 H              1 S1                 0.0000
     27 ****        -0.5186   1.9646   0.5858 H              1 S1                 0.0000
     28 ****        -0.4730   1.8635  -1.1642 H              1 S1                 0.0000
     29 ****        -2.7548   2.3433  -0.1417 H              1 S1                 0.0000
     30 ****        -2.6940   1.5021  -2.4381 H              1 S1                 0.0000
     31 ****        -4.0661   0.8085  -1.5841 H              1 S1                 0.0000
     32 ****        -2.6283  -0.1634  -1.8887 H              1 S1                 0.0000
     33 ****         1.0212  -1.0192  -2.0137 H              1 S1                 0.0000
     34 ****        -0.6140  -0.4687  -0.9677 LP             1 S1                 0.0000
     35 ****        -2.6357   1.0554   1.6619 LP             1 S1                 0.0000
     36 ****        -3.8706   0.5034   0.7471 LP             1 S1                 0.0000
@<TRIPOS>BOND
    1    1    2 1     
    2    1   16 1     
    3    1   17 1     
    4    1   18 1     
    5    2   15 1     
    6    2    3 1     
    7    2   19 1     
    8    3    4 1     
    9    3   20 1     
   10    3   21 1     
   11    4    5 1     
   12    4   12 1     
   13    5   11 ar    
   14    5    6 ar    
   15    6    7 ar    
   16    6   22 1     
   17    7    8 ar    
   18    7   23 1     
   19    8    9 1     
   20    8   10 ar    
   21    9   24 1     
   22    9   25 1     
   23   10   11 ar    
   24   10   26 1     
   25   11   33 1     
   26   12   13 1     
   27   12   27 1     
   28   12   28 1     
   29   13   14 1     
   30   13   15 1     
   31   13   29 1     
   32   14   30 1     
   33   14   31 1     
   34   14   32 1     
   35    4   34 1     
   36   15   35 1     
   37   15   36 1     
@<TRIPOS>SUBSTRUCTURE
      1 S1             1
@<TRIPOS>SET
LONE_PAIRS      STATIC     ATOMS    <user>   **** ""
3 34 35 36
DONOR_HYDROGENS      STATIC     ATOMS    <user>   **** ""
3 24 25 33
ATOM$BLUE        STATIC     ATOMS    COLORGROUP SYSTEM
3 34 35 36
ATOM$RED        STATIC     ATOMS    COLORGROUP SYSTEM
3 24 25 33
