AV-unprocessed.smi:2061|AV-procd|sdf|8367|dock3
  -GOLD-   2272011 43D 1   1.00000     0.00000
 Structure written by MMmdl.
 46 47  0  0  0  0  0  0  0  0  2 V2000
  144.0084  132.4424  149.7592 C   0  0  0  0  0  0  0  0  0  0  0  0
  144.4222  133.5934  150.6105 C   0  0  0  0  0  0  0  0  0  0  0  0
  145.6064  134.2580  150.7642 C   0  0  0  0  0  0  0  0  0  0  0  0
  145.2942  135.2467  151.7350 C   0  0  0  0  0  0  0  0  0  0  0  0
  146.2802  136.1619  152.1834 N   0  0  0  0  0  0  0  0  0  0  0  0
  146.1278  137.1613  153.0686 C   0  0  0  0  0  0  0  0  0  0  0  0
  145.0716  137.4657  153.6234 O   0  0  0  0  0  0  0  0  0  0  0  0
  147.2870  137.7978  153.2901 N   0  0  0  0  0  0  0  0  0  0  0  0
  147.4667  138.9073  154.2224 C   0  0  0  0  0  0  0  0  0  0  0  0
  148.1222  140.1571  153.5714 C   0  0  1  0  0  0  0  0  0  0  0  0
  147.1766  141.3780  153.6939 C   0  0  0  0  0  0  0  0  0  0  0  0
  149.4842  140.4040  154.1513 N   0  3  1  0  0  0  0  0  0  0  0  0
  149.4430  141.2249  155.3925 C   0  0  0  0  0  0  0  0  0  0  0  0
  150.8620  141.5327  155.9045 C   0  0  1  0  0  0  0  0  0  0  0  0
  150.8446  142.3287  157.2142 C   0  0  0  0  0  0  0  0  0  0  0  0
  151.5407  140.3075  156.1421 O   0  0  0  0  0  0  0  0  0  0  0  0
  151.6914  139.5397  154.9562 C   0  0  1  0  0  0  0  0  0  0  0  0
  152.5132  138.2926  155.3009 C   0  0  0  0  0  0  0  0  0  0  0  0
  150.3004  139.1823  154.3973 C   0  0  0  0  0  0  0  0  0  0  0  0
  144.0338  135.1917  152.1370 N   0  0  0  0  0  0  0  0  0  0  0  0
  143.4683  134.1317  151.4181 O   0  0  0  0  0  0  0  0  0  0  0  0
  144.8473  132.0731  149.1691 H   0  0  0  0  0  0  0  0  0  0  0  0
  143.2149  132.7362  149.0718 H   0  0  0  0  0  0  0  0  0  0  0  0
  143.6389  131.6205  150.3727 H   0  0  0  0  0  0  0  0  0  0  0  0
  146.5429  134.0642  150.2627 H   0  0  0  0  0  0  0  0  0  0  0  0
  147.2055  136.0283  151.8031 H   0  0  0  0  0  0  0  0  0  0  0  0
  148.1056  137.4871  152.7875 H   0  0  0  0  0  0  0  0  0  0  0  0
  146.4858  139.1716  154.6189 H   0  0  0  0  0  0  0  0  0  0  0  0
  148.0429  138.5325  155.0670 H   0  0  0  0  0  0  0  0  0  0  0  0
  148.2552  139.9683  152.5049 H   0  0  0  0  0  0  0  0  0  0  0  0
  146.1821  141.1639  153.3033 H   0  0  0  0  0  0  0  0  0  0  0  0
  147.5335  142.2326  153.1190 H   0  0  0  0  0  0  0  0  0  0  0  0
  147.0589  141.6883  154.7327 H   0  0  0  0  0  0  0  0  0  0  0  0
  148.9319  142.1704  155.2234 H   0  0  0  0  0  0  0  0  0  0  0  0
  148.8761  140.6940  156.1594 H   0  0  0  0  0  0  0  0  0  0  0  0
  151.4075  142.1105  155.1559 H   0  0  0  0  0  0  0  0  0  0  0  0
  150.3420  143.2877  157.0847 H   0  0  0  0  0  0  0  0  0  0  0  0
  151.8586  142.5300  157.5607 H   0  0  0  0  0  0  0  0  0  0  0  0
  150.3256  141.7824  158.0025 H   0  0  0  0  0  0  0  0  0  0  0  0
  152.2439  140.1237  154.2178 H   0  0  0  0  0  0  0  0  0  0  0  0
  152.6699  137.6682  154.4209 H   0  0  0  0  0  0  0  0  0  0  0  0
  152.0133  137.6863  156.0569 H   0  0  0  0  0  0  0  0  0  0  0  0
  153.4936  138.5678  155.6909 H   0  0  0  0  0  0  0  0  0  0  0  0
  149.7701  138.5249  155.0889 H   0  0  0  0  0  0  0  0  0  0  0  0
  150.4570  138.6288  153.4722 H   0  0  0  0  0  0  0  0  0  0  0  0
  149.9917  140.9396  153.4617 H   0  0  0  0  0  0  0  0  0  0  0  0
  1  2  1  0  0  0  0
  1 22  1  0  0  0  0
  1 23  1  0  0  0  0
  1 24  1  0  0  0  0
  2 21  1  0  0  0  0
  2  3  2  0  0  0  0
  3  4  1  0  0  0  0
  3 25  1  0  0  0  0
  4  5  1  0  0  0  0
  4 20  2  0  0  0  0
  5  6  1  0  0  0  0
  5 26  1  0  0  0  0
  6  7  2  0  0  0  0
  6  8  1  0  0  0  0
  8  9  1  0  0  0  0
  8 27  1  0  0  0  0
  9 10  1  0  0  0  0
  9 28  1  0  0  0  0
  9 29  1  0  0  0  0
 10 11  1  0  0  0  0
 10 12  1  0  0  0  0
 10 30  1  0  0  0  0
 11 31  1  0  0  0  0
 11 32  1  0  0  0  0
 11 33  1  0  0  0  0
 12 19  1  0  0  0  0
 12 13  1  0  0  0  0
 12 46  1  0  0  0  0
 13 14  1  0  0  0  0
 13 34  1  0  0  0  0
 13 35  1  0  0  0  0
 14 15  1  0  0  0  0
 14 16  1  0  0  0  0
 14 36  1  0  0  0  0
 15 37  1  0  0  0  0
 15 38  1  0  0  0  0
 15 39  1  0  0  0  0
 16 17  1  0  0  0  0
 17 18  1  0  0  0  0
 17 19  1  0  0  0  0
 17 40  1  0  0  0  0
 18 41  1  0  0  0  0
 18 42  1  0  0  0  0
 18 43  1  0  0  0  0
 19 44  1  0  0  0  0
 19 45  1  0  0  0  0
 20 21  1  0  0  0  0
M  CHG  1  12   1
M  END
> <s_m_source_file>
AV-unprocessed.smi

> <i_m_source_file_index>
2061

> <i_lp_mmshare_version>
43012

> <i_f3d_flags>
0

> <s_epik_input>
W0NIM11jMVtjSF1jKG5vMSlbTkhdQyg9TylbTkhdW0NIMl1bQ0BIXShbQ0gzXSlOMltDSDJdW0NAQEhdKFtDSDNdKU9bQ0BASF0oW0NIM10pW0NIMl0y

> <s_epik_cmdline>
J2VwaWtfcHl0aG9uJywgJy1waCcsICc3LjAnLCAnLXRuJywgJzgnLCAnLW1hJywgJzIwMCcsICctbWV0YWxfYmluZGluZycsICctaW1hZScsICc8aW5maWxlLm1hZT4nLCAnLW9tYWUnLCAnPG91dGZpbGUubWFlPic=

> <r_epik_Ionization_Penalty>
0.707076

> <r_epik_Ionization_Penalty_Charging>
0.707039

> <r_epik_Ionization_Penalty_Neutral>
3.6548e-05

> <r_epik_State_Penalty>
0.730276

> <r_epik_Charging_Adjusted_Penalty>
1.43732

> <i_epik_Tot_Q>
1

> <i_epik_Tot_abs_Q>
1

> <r_epik_Metal_State_Penalty>
0.743132

> <b_epik_Metal_Only>
0

> <s_lp_Force_Field>
OPLS_2005

> <r_lp_Energy>
16.4142

> <b_lp_Chiralities_Consistent>
1

> <s_lp_Variant>
AV-unprocessed.smi:2061-8

> <Gold.Version>
5.8.1

> <Gold.Id.Protein>
6NUR|6NUR_protein|mol2

> <Gold.PLP.Fitness>
39.6815

> <Gold.PLP.PLP>
-35.9832

> <Gold.PLP.part.hbond>
-3.0000

> <Gold.PLP.part.metal>
0.0000

> <Gold.PLP.part.buried>
-1.7719

> <Gold.PLP.part.nonpolar>
-30.9678

> <Gold.PLP.part.repulsive>
1.0431

> <Gold.PLP.ligand.clash>
0.0000

> <Gold.PLP.ligand.torsion>
1.1861

> <Gold.PLP.Chemscore.Hbond>
2.0000

> <Gold.PLP.Chemscore.CHOScore>
0.0000

> <Gold.PLP.Chemscore.Metal>
0.0000

> <Gold.Chemscore.Hbonds>
donor molecule, donor type, donor heavy atom, donor atom, acceptor molecule, acceptor atom, score
      L1  H     5    26       P1  7948  1.00
      L1  H     8    27       P1  7948  1.00

> <Gold.PLP.Chemscore.Internal.Correction>
0.0705

> <Gold.Rescore>
     Score         DG    S(hbond)    S(metal)    S(lipo)     H(rot)  DE(clash)    DE(int)     intcor
     15.11     -17.57       1.96        0.00      82.14       1.58       0.02       2.44       ----

> <Gold.Chemscore.Fitness>
15.1084

> <Gold.Chemscore.DG>
-17.5706

> <Gold.Chemscore.ZeroCoef>
-5.4800

> <Gold.Chemscore.Hbond>
1.9562

> <Gold.Chemscore.Metal>
0.0000

> <Gold.Chemscore.Lipo>
82.1412

> <Gold.Chemscore.Internal_Hbond>
0.0000

> <Gold.Chemscore.DEClash>
0.0185

> <Gold.Chemscore.DEInternal>
2.4438

> <Gold.Chemscore.Rot>
1.5834

> <Gold.Chemscore.Internal.Correction>
   9.000000E+99

> <Gold.Chemscore.Hbonds>
donor molecule, donor type, donor heavy atom, donor atom, acceptor molecule, acceptor atom, score
      L1  H     5    26       P1  7948  0.98
      L1  H     8    27       P1  7948  0.95

> <Gold.Chemscore.Hbond.Weighted>
-6.5336

> <Gold.Chemscore.Metal.Weighted>
-0.0000

> <Gold.Chemscore.Lipo.Weighted>
-9.6105

> <Gold.Chemscore.Internal_Hbond.Weighted>
0.0000

> <Gold.Chemscore.DEClash.Weighted>
0.0185

> <Gold.Chemscore.DEInternal.Weighted>
2.4438

> <Gold.Chemscore.Rot.Weighted>
4.0535

> <Gold.Chemscore.Internal.Correction.Weighted>
   9.000000E+99

> <Gold.Protein.RotatedTorsions>
[ 6907 6896 6895 6894 ] final  -26.76 input  -60.11 | X-H torsion
[ 7974 7965 7964 7962 ] final -154.74 input  175.53 | X-H torsion
[ 8008 7997 7996 7995 ] final -160.06 input   59.86 | X-H torsion
[ 10167 10162 10161 10158 ] final  -19.15 input  -65.29 | X-H torsion
[ 10718 10713 10712 10709 ] final  158.97 input   66.30 | X-H torsion
[ 10763 10752 10751 10750 ] final  -38.31 input  -60.55 | X-H torsion
[ 11005 11000 10999 10996 ] final  125.93 input  -57.11 | X-H torsion

> <Gold.Protein.ActiveResidues>
 VAL166  LYS551  ARG553  GLY616  TRP617  ASP618  TYR619  PRO620  LYS621  CYS622 
 ASP623  PHE694  ASN695  SER759  ASP760  ASP761  ALA762  ILE779  LEU786  VAL792 
 PHE793  MET794  SER795  GLU796  ALA797  LYS798  CYS799  TRP800  GLU811  SER814 

> <Gold.Protein.RotatedAtoms>
  151.1564  135.0252  159.8690 H   0  0  0  0  0  0  0  0  0  0  0  0  # atno 6907 bound_to 6896
  152.5452  134.1329  159.8457 H   0  0  0  0  0  0  0  0  0  0  0  0  # atno 6908 bound_to 6896
  151.1420  133.4919  159.2629 H   0  0  0  0  0  0  0  0  0  0  0  0  # atno 6909 bound_to 6896
  144.7674  140.4346  143.5932 H   0  0  0  0  0  0  0  0  0  0  0  0  # atno 7974 bound_to 7965
  155.7718  140.0853  157.2104 H   0  0  0  0  0  0  0  0  0  0  0  0  # atno 8008 bound_to 7997
  154.3996  140.1524  156.3008 H   0  0  0  0  0  0  0  0  0  0  0  0  # atno 8009 bound_to 7997
  155.8740  140.3424  155.5843 H   0  0  0  0  0  0  0  0  0  0  0  0  # atno 8010 bound_to 7997
  140.7266  143.4847  151.0071 H   0  0  0  0  0  0  0  0  0  0  0  0  # atno 10167 bound_to 10162
  157.1706  131.0609  151.2185 H   0  0  0  0  0  0  0  0  0  0  0  0  # atno 10718 bound_to 10713
  153.9107  135.6793  153.4751 H   0  0  0  0  0  0  0  0  0  0  0  0  # atno 10763 bound_to 10752
  153.1080  135.4796  154.8983 H   0  0  0  0  0  0  0  0  0  0  0  0  # atno 10764 bound_to 10752
  154.7528  135.3189  154.8480 H   0  0  0  0  0  0  0  0  0  0  0  0  # atno 10765 bound_to 10752
  139.9431  134.9633  156.8631 H   0  0  0  0  0  0  0  0  0  0  0  0  # atno 11005 bound_to 11000
  145.6427  139.1552  143.2906 LP  0  0  0  0  0  0  0  0  0  0  0  0  # atno 17320 bound_to 7965
  146.1794  140.6522  142.9196 LP  0  0  0  0  0  0  0  0  0  0  0  0  # atno 17321 bound_to 7965
  139.8547  143.7392  152.3176 LP  0  0  0  0  0  0  0  0  0  0  0  0  # atno 17342 bound_to 10162
  139.7586  144.7513  151.0397 LP  0  0  0  0  0  0  0  0  0  0  0  0  # atno 17343 bound_to 10162
  157.4047  130.7352  149.6793 LP  0  0  0  0  0  0  0  0  0  0  0  0  # atno 17370 bound_to 10713
  155.9739  130.4111  150.3965 LP  0  0  0  0  0  0  0  0  0  0  0  0  # atno 17371 bound_to 10713
  140.5903  134.0268  155.7497 LP  0  0  0  0  0  0  0  0  0  0  0  0  # atno 17394 bound_to 11000
  141.1072  133.9675  157.2975 LP  0  0  0  0  0  0  0  0  0  0  0  0  # atno 17395 bound_to 11000

$$$$
