AV-unprocessed.smi:1218|AV-procd|sdf|5107|dock1
  -GOLD-   22720 4163D 1   1.00000     0.00000
 Structure written by MMmdl.
 45 46  0  0  0  0  0  0  0  0  2 V2000
  145.8265  135.2450  151.0229 C   0  0  0  0  0  0  0  0  0  0  0  0
  146.0128  133.9148  151.7681 C   0  0  0  0  0  0  0  0  0  0  0  0
  144.7292  133.0714  151.6887 C   0  0  0  0  0  0  0  0  0  0  0  0
  146.4470  134.1685  153.2282 C   0  0  0  0  0  0  0  0  0  0  0  0
  147.9244  134.2341  153.3994 N   0  3  2  0  0  0  0  0  0  0  0  0
  148.6224  132.9927  152.9863 C   0  0  0  0  0  0  0  0  0  0  0  0
  148.4917  131.9000  154.0618 C   0  0  0  0  0  0  0  0  0  0  0  0
  148.9995  132.3930  155.2947 O   0  0  0  0  0  0  0  0  0  0  0  0
  148.2715  133.5166  155.7813 C   0  0  1  0  0  0  0  0  0  0  0  0
  148.8505  133.9308  157.1464 C   0  0  0  0  0  0  0  0  0  0  0  0
  147.9583  134.8335  157.8663 N   0  0  0  0  0  0  0  0  0  0  0  0
  148.3461  135.8993  158.5833 C   0  0  0  0  0  0  0  0  0  0  0  0
  149.5250  136.2290  158.7173 O   0  0  0  0  0  0  0  0  0  0  0  0
  147.2286  136.7071  159.2519 C   0  0  0  0  0  0  0  0  0  0  0  0
  147.0416  136.3343  160.6446 N   0  0  0  0  0  0  0  0  0  0  0  0
  146.7664  135.0885  161.1707 C   0  0  0  0  0  0  0  0  0  0  0  0
  146.6856  135.2281  162.5265 C   0  0  0  0  0  0  0  0  0  0  0  0
  146.9329  136.6132  162.7389 C   0  0  0  0  0  0  0  0  0  0  0  0
  147.1485  137.2719  161.6116 N   0  0  0  0  0  0  0  0  0  0  0  0
  148.3831  134.6598  154.7474 C   0  0  0  0  0  0  0  0  0  0  0  0
  145.0435  135.8510  151.4800 H   0  0  0  0  0  0  0  0  0  0  0  0
  145.5510  135.0771  149.9812 H   0  0  0  0  0  0  0  0  0  0  0  0
  146.7458  135.8317  151.0272 H   0  0  0  0  0  0  0  0  0  0  0  0
  146.8011  133.3741  151.2456 H   0  0  0  0  0  0  0  0  0  0  0  0
  143.8984  133.5639  152.1951 H   0  0  0  0  0  0  0  0  0  0  0  0
  144.8650  132.0911  152.1461 H   0  0  0  0  0  0  0  0  0  0  0  0
  144.4336  132.9063  150.6521 H   0  0  0  0  0  0  0  0  0  0  0  0
  145.9866  135.0808  153.6070 H   0  0  0  0  0  0  0  0  0  0  0  0
  146.0504  133.3586  153.8425 H   0  0  0  0  0  0  0  0  0  0  0  0
  148.2501  132.6400  152.0239 H   0  0  0  0  0  0  0  0  0  0  0  0
  149.6776  133.2254  152.8379 H   0  0  0  0  0  0  0  0  0  0  0  0
  147.4563  131.5772  154.1798 H   0  0  0  0  0  0  0  0  0  0  0  0
  149.0669  131.0202  153.7728 H   0  0  0  0  0  0  0  0  0  0  0  0
  147.2256  133.2390  155.9197 H   0  0  0  0  0  0  0  0  0  0  0  0
  149.0868  133.0529  157.7502 H   0  0  0  0  0  0  0  0  0  0  0  0
  149.7909  134.4620  156.9972 H   0  0  0  0  0  0  0  0  0  0  0  0
  146.9693  134.6366  157.8108 H   0  0  0  0  0  0  0  0  0  0  0  0
  147.4531  137.7739  159.2117 H   0  0  0  0  0  0  0  0  0  0  0  0
  146.2980  136.5533  158.7033 H   0  0  0  0  0  0  0  0  0  0  0  0
  146.6500  134.2174  160.5427 H   0  0  0  0  0  0  0  0  0  0  0  0
  146.4816  134.4584  163.2558 H   0  0  0  0  0  0  0  0  0  0  0  0
  146.9637  137.1554  163.6725 H   0  0  0  0  0  0  0  0  0  0  0  0
  149.4268  134.9661  154.6632 H   0  0  0  0  0  0  0  0  0  0  0  0
  147.8400  135.5404  155.0875 H   0  0  0  0  0  0  0  0  0  0  0  0
  148.2292  134.9477  152.7526 H   0  0  0  0  0  0  0  0  0  0  0  0
  1  2  1  0  0  0  0
  1 21  1  0  0  0  0
  1 22  1  0  0  0  0
  1 23  1  0  0  0  0
  2  3  1  0  0  0  0
  2  4  1  0  0  0  0
  2 24  1  0  0  0  0
  3 25  1  0  0  0  0
  3 26  1  0  0  0  0
  3 27  1  0  0  0  0
  4  5  1  0  0  0  0
  4 28  1  0  0  0  0
  4 29  1  0  0  0  0
  5 20  1  0  0  0  0
  5  6  1  0  0  0  0
  5 45  1  0  0  0  0
  6  7  1  0  0  0  0
  6 30  1  0  0  0  0
  6 31  1  0  0  0  0
  7  8  1  0  0  0  0
  7 32  1  0  0  0  0
  7 33  1  0  0  0  0
  8  9  1  0  0  0  0
  9 10  1  0  0  0  0
  9 20  1  0  0  0  0
  9 34  1  0  0  0  0
 10 11  1  0  0  0  0
 10 35  1  0  0  0  0
 10 36  1  0  0  0  0
 11 12  1  0  0  0  0
 11 37  1  0  0  0  0
 12 13  2  0  0  0  0
 12 14  1  0  0  0  0
 14 15  1  0  0  0  0
 14 38  1  0  0  0  0
 14 39  1  0  0  0  0
 15 19  1  0  0  0  0
 15 16  1  0  0  0  0
 16 17  2  0  0  0  0
 16 40  1  0  0  0  0
 17 18  1  0  0  0  0
 17 41  1  0  0  0  0
 18 19  2  0  0  0  0
 18 42  1  0  0  0  0
 20 43  1  0  0  0  0
 20 44  1  0  0  0  0
M  CHG  1   5   1
M  END
> <s_m_source_file>
AV-unprocessed.smi

> <i_m_source_file_index>
1218

> <i_lp_mmshare_version>
43012

> <i_f3d_flags>
0

> <s_epik_input>
W0NIM11bQ0hdKFtDSDNdKVtDSDJdTjFbQ0gyXVtDSDJdT1tDQEhdKFtDSDJdMSlbQ0gyXVtOSF1DKD1PKVtDSDJdbjJbY0hdW2NIXVtjSF1uMg==

> <s_epik_cmdline>
J2VwaWtfcHl0aG9uJywgJy1waCcsICc3LjAnLCAnLXRuJywgJzgnLCAnLW1hJywgJzIwMCcsICctbWV0YWxfYmluZGluZycsICctaW1hZScsICc8aW5maWxlLm1hZT4nLCAnLW9tYWUnLCAnPG91dGZpbGUubWFlPic=

> <r_lp_tautomer_probability>
1

> <r_epik_Ionization_Penalty>
0.0995066

> <r_epik_Ionization_Penalty_Charging>
0.0994921

> <r_epik_Ionization_Penalty_Neutral>
1.44634e-05

> <r_epik_State_Penalty>
0.0895432

> <r_epik_Charging_Adjusted_Penalty>
0.189035

> <i_epik_Tot_Q>
1

> <i_epik_Tot_abs_Q>
1

> <r_epik_Metal_State_Penalty>
0.0895432

> <b_epik_Metal_Only>
0

> <s_lp_Force_Field>
OPLS_2005

> <r_lp_Energy>
22.0385

> <b_lp_Chiralities_Consistent>
1

> <s_lp_Variant>
AV-unprocessed.smi:1218-2

> <Gold.Version>
5.8.1

> <Gold.Id.Protein>
6NUR|6NUR_protein|mol2

> <Gold.PLP.Fitness>
48.3745

> <Gold.PLP.PLP>
-35.8769

> <Gold.PLP.part.hbond>
-4.0000

> <Gold.PLP.part.metal>
0.0000

> <Gold.PLP.part.buried>
-4.3532

> <Gold.PLP.part.nonpolar>
-26.4224

> <Gold.PLP.part.repulsive>
0.0667

> <Gold.PLP.ligand.clash>
0.0000

> <Gold.PLP.ligand.torsion>
1.0038

> <Gold.PLP.Chemscore.Hbond>
4.7137

> <Gold.PLP.Chemscore.CHOScore>
0.0000

> <Gold.PLP.Chemscore.Metal>
0.0000

> <Gold.Chemscore.Hbonds>
donor molecule, donor type, donor heavy atom, donor atom, acceptor molecule, acceptor atom, score
      L1  H     5    45       P1  7948  2.00
      P1  H  6896  6908       L1    13  0.59
      P1  H  6931  6943       L1    19  0.60
      P1  H  6934  6947       L1    19  0.93

> <Gold.PLP.Chemscore.Internal.Correction>
0.3642

> <Gold.Rescore>
     Score         DG    S(hbond)    S(metal)    S(lipo)     H(rot)  DE(clash)    DE(int)     intcor
     17.11     -18.01       2.81        0.00      69.84       1.96       0.01       0.90       ----

> <Gold.Chemscore.Fitness>
17.1088

> <Gold.Chemscore.DG>
-18.0140

> <Gold.Chemscore.ZeroCoef>
-5.4800

> <Gold.Chemscore.Hbond>
2.8102

> <Gold.Chemscore.Metal>
0.0000

> <Gold.Chemscore.Lipo>
69.8423

> <Gold.Chemscore.Internal_Hbond>
0.0000

> <Gold.Chemscore.DEClash>
0.0089

> <Gold.Chemscore.DEInternal>
0.8963

> <Gold.Chemscore.Rot>
1.9624

> <Gold.Chemscore.Internal.Correction>
   9.000000E+99

> <Gold.Chemscore.Hbonds>
donor molecule, donor type, donor heavy atom, donor atom, acceptor molecule, acceptor atom, score
      L1  H     5    45       P1  7948  0.78
      P1  H  6896  6908       L1    13  0.55
      P1  H  6931  6943       L1    19  0.28
      P1  H  6934  6947       L1    19  0.80

> <Gold.Chemscore.Hbond.Weighted>
-9.3862

> <Gold.Chemscore.Metal.Weighted>
-0.0000

> <Gold.Chemscore.Lipo.Weighted>
-8.1715

> <Gold.Chemscore.Internal_Hbond.Weighted>
0.0000

> <Gold.Chemscore.DEClash.Weighted>
0.0089

> <Gold.Chemscore.DEInternal.Weighted>
0.8963

> <Gold.Chemscore.Rot.Weighted>
5.0237

> <Gold.Chemscore.Internal.Correction.Weighted>
   9.000000E+99

> <Gold.Protein.RotatedTorsions>
[ 6907 6896 6895 6894 ] final -154.94 input  -60.11 | X-H torsion
[ 7974 7965 7964 7962 ] final   -7.36 input  175.53 | X-H torsion
[ 8008 7997 7996 7995 ] final  -37.66 input   59.86 | X-H torsion
[ 10167 10162 10161 10158 ] final  167.30 input  -65.29 | X-H torsion
[ 10718 10713 10712 10709 ] final  -19.64 input   66.30 | X-H torsion
[ 10763 10752 10751 10750 ] final   32.98 input  -60.55 | X-H torsion
[ 11005 11000 10999 10996 ] final  -49.35 input  -57.11 | X-H torsion

> <Gold.Protein.ActiveResidues>
 VAL166  LYS551  ARG553  GLY616  TRP617  ASP618  TYR619  PRO620  LYS621  CYS622 
 ASP623  PHE694  ASN695  SER759  ASP760  ASP761  ALA762  ILE779  LEU786  VAL792 
 PHE793  MET794  SER795  GLU796  ALA797  LYS798  CYS799  TRP800  GLU811  SER814 

> <Gold.Protein.RotatedAtoms>
  151.2651  133.4283  159.2617 H   0  0  0  0  0  0  0  0  0  0  0  0  # atno 6907 bound_to 6896
  151.0496  134.9664  159.8214 H   0  0  0  0  0  0  0  0  0  0  0  0  # atno 6908 bound_to 6896
  152.5380  134.2605  159.8986 H   0  0  0  0  0  0  0  0  0  0  0  0  # atno 6909 bound_to 6896
  146.2309  140.2307  142.8340 H   0  0  0  0  0  0  0  0  0  0  0  0  # atno 7974 bound_to 7965
  154.4049  140.1598  156.2573 H   0  0  0  0  0  0  0  0  0  0  0  0  # atno 8008 bound_to 7997
  155.9067  140.3430  155.6045 H   0  0  0  0  0  0  0  0  0  0  0  0  # atno 8009 bound_to 7997
  155.7384  140.0789  157.2247 H   0  0  0  0  0  0  0  0  0  0  0  0  # atno 8010 bound_to 7997
  139.4942  144.3936  151.9489 H   0  0  0  0  0  0  0  0  0  0  0  0  # atno 10167 bound_to 10162
  156.5429  130.4682  149.6490 H   0  0  0  0  0  0  0  0  0  0  0  0  # atno 10718 bound_to 10713
  153.0235  135.6399  154.1439 H   0  0  0  0  0  0  0  0  0  0  0  0  # atno 10763 bound_to 10752
  154.1171  135.2849  155.3219 H   0  0  0  0  0  0  0  0  0  0  0  0  # atno 10764 bound_to 10752
  154.6290  135.5499  153.7722 H   0  0  0  0  0  0  0  0  0  0  0  0  # atno 10765 bound_to 10752
  141.0754  133.6667  156.3573 H   0  0  0  0  0  0  0  0  0  0  0  0  # atno 11005 bound_to 11000
  144.9560  140.8227  143.5543 LP  0  0  0  0  0  0  0  0  0  0  0  0  # atno 17320 bound_to 7965
  145.2273  139.2131  143.5061 LP  0  0  0  0  0  0  0  0  0  0  0  0  # atno 17321 bound_to 7965
  140.3374  144.3244  150.5974 LP  0  0  0  0  0  0  0  0  0  0  0  0  # atno 17342 bound_to 10162
  140.5595  143.2194  151.7790 LP  0  0  0  0  0  0  0  0  0  0  0  0  # atno 17343 bound_to 10162
  156.2955  130.7148  151.2007 LP  0  0  0  0  0  0  0  0  0  0  0  0  # atno 17370 bound_to 10713
  157.7402  131.0520  150.5182 LP  0  0  0  0  0  0  0  0  0  0  0  0  # atno 17371 bound_to 10713
  140.5584  134.5958  157.5427 LP  0  0  0  0  0  0  0  0  0  0  0  0  # atno 17394 bound_to 11000
  139.9567  134.7523  156.0327 LP  0  0  0  0  0  0  0  0  0  0  0  0  # atno 17395 bound_to 11000

$$$$
