#       Name:                AV-unprocessed.smi:2226
#       Creating user name   scv26
#       Creation time:       Fri Mar 27 12:21:33 2020


#       File generated by GOLD software.
#

@<TRIPOS>MOLECULE
AV-unprocessed.smi:2226
    45    47     1
SMALL
NO_CHARGES


@<TRIPOS>ATOM
      1 ****        -4.0676  -1.1920  -0.4170 C.3            1 S1                 0.0000
      2 ****        -2.6859  -1.7295  -0.4126 N.4            1 S1                 1.0000
      3 ****        -1.9118  -1.4476   0.8198 C.3            1 S1                 0.0000
      4 ****        -0.6928  -2.3963   0.8795 C.3            1 S1                 0.0000
      5 ****         0.1818  -2.3656  -0.3881 C.3            1 S1                 0.0000
      6 ****        -0.6563  -2.3303  -1.6807 C.3            1 S1                 0.0000
      7 ****        -1.8801  -1.3874  -1.6090 C.3            1 S1                 0.0000
      8 ****        -1.5499   0.1260  -1.6568 C.3            1 S1                 0.0000
      9 ****        -1.0382   0.7505  -0.3345 C.3            1 S1                 0.0000
     10 ****         0.4158   0.9077  -0.3410 N.am           1 S1                 0.0000
     11 ****         1.1126   1.7742   0.4111 C.2            1 S1                 0.0000
     12 ****         0.5953   2.5404   1.2243 O.2            1 S1                 0.0000
     13 ****         2.4296   1.6972   0.1659 N.am           1 S1                 0.0000
     14 ****         3.4321   2.4650   0.8021 C.2            1 S1                 0.0000
     15 ****         4.7318   2.3686   0.5271 N.pl3          1 S1                 1.0000
     16 ****         5.4178   3.2488   1.3269 C.2            1 S1                 0.0000
     17 ****         4.4656   3.8766   2.0936 C.2            1 S1                 0.0000
     18 ****         3.2118   3.3946   1.7748 O.3            1 S1                 0.0000
     19 ****        -1.5763   0.0595   0.9484 C.3            1 S1                 0.0000
     20 ****        -4.0885  -0.1029  -0.3854 H              1 S1                 0.0000
     21 ****        -4.6223  -1.5647   0.4443 H              1 S1                 0.0000
     22 ****        -4.5975  -1.5138  -1.3137 H              1 S1                 0.0000
     23 ****        -2.5411  -1.7096   1.6717 H              1 S1                 0.0000
     24 ****        -0.0849  -2.1827   1.7594 H              1 S1                 0.0000
     25 ****        -1.0611  -3.4146   1.0130 H              1 S1                 0.0000
     26 ****         0.8628  -1.5223  -0.3549 H              1 S1                 0.0000
     27 ****         0.8326  -3.2405  -0.4012 H              1 S1                 0.0000
     28 ****        -0.0238  -2.0727  -2.5307 H              1 S1                 0.0000
     29 ****        -1.0182  -3.3407  -1.8763 H              1 S1                 0.0000
     30 ****        -2.4852  -1.6106  -2.4889 H              1 S1                 0.0000
     31 ****        -0.8616   0.3364  -2.4766 H              1 S1                 0.0000
     32 ****        -2.4665   0.6501  -1.9304 H              1 S1                 0.0000
     33 ****        -1.4226   1.7727  -0.3234 H              1 S1                 0.0000
     34 ****         0.9279   0.3199  -0.9828 H              1 S1                 0.0000
     35 ****         5.1801   1.7631  -0.1490 H              1 S1                 0.0000
     36 ****         6.4933   3.3389   1.2726 H              1 S1                 0.0000
     37 ****         4.5065   4.6369   2.8601 H              1 S1                 0.0000
     38 ****        -2.4962   0.5738   1.2286 H              1 S1                 0.0000
     39 ****        -0.9089   0.2210   1.7957 H              1 S1                 0.0000
     40 ****        -2.8014  -2.7328  -0.4389 H              1 S1                 0.0000
     41 ****         2.7419   1.0349  -0.5286 H              1 S1                 0.0000
     42 ****        -0.3965   2.5386   1.3522 LP             1 S1                 0.0000
     43 ****         1.1669   3.1645   1.7570 LP             1 S1                 0.0000
     44 ****         2.7828   2.9733   2.5739 LP             1 S1                 0.0000
     45 ****         2.6280   4.1309   1.4326 LP             1 S1                 0.0000
@<TRIPOS>BOND
    1    1    2 1     
    2    1   20 1     
    3    1   21 1     
    4    1   22 1     
    5    2    7 1     
    6    2    3 1     
    7    2   40 1     
    8    3   19 1     
    9    3    4 1     
   10    3   23 1     
   11    4    5 1     
   12    4   24 1     
   13    4   25 1     
   14    5    6 1     
   15    5   26 1     
   16    5   27 1     
   17    6    7 1     
   18    6   28 1     
   19    6   29 1     
   20    7    8 1     
   21    7   30 1     
   22    8    9 1     
   23    8   31 1     
   24    8   32 1     
   25    9   10 1     
   26    9   19 1     
   27    9   33 1     
   28   10   34 1     
   29   10   11 am    
   30   11   13 am    
   31   11   12 2     
   32   13   14 1     
   33   13   41 1     
   34   14   18 1     
   35   14   15 2     
   36   15   35 1     
   37   15   16 1     
   38   16   36 1     
   39   16   17 2     
   40   17   37 1     
   41   17   18 1     
   42   19   38 1     
   43   19   39 1     
   44   12   42 1     
   45   12   43 1     
   46   18   44 1     
   47   18   45 1     
@<TRIPOS>SUBSTRUCTURE
      1 S1             1
@<TRIPOS>SET
LONE_PAIRS      STATIC     ATOMS    <user>   **** ""
4 42 43 44 45
DONOR_HYDROGENS      STATIC     ATOMS    <user>   **** ""
4 40 34 41 35
ATOM$BLUE        STATIC     ATOMS    COLORGROUP SYSTEM
4 42 43 44 45
ATOM$RED        STATIC     ATOMS    COLORGROUP SYSTEM
4 40 34 41 35
