AV-unprocessed.smi:1958|AV-procd|sdf|7911|dock2
  -GOLD-   2272010 73D 1   1.00000     0.00000
 Structure written by MMmdl.
 47 48  0  0  0  0  0  0  0  0  3 V2000
  151.3208  144.9905  159.7050 C   0  0  0  0  0  0  0  0  0  0  0  0
  152.5994  144.3899  159.5966 O   0  0  0  0  0  0  0  0  0  0  0  0
  152.5729  143.0021  159.8841 C   0  0  0  0  0  0  0  0  0  0  0  0
  153.8648  142.3603  159.3560 C   0  0  0  0  0  0  0  0  0  0  0  0
  154.1138  141.0572  159.9804 N   0  0  0  0  0  0  0  0  0  0  0  0
  154.8011  141.1294  161.1800 N   0  0  0  0  0  0  0  0  0  0  0  0
  155.0892  140.0514  161.8364 C   0  0  0  0  0  0  0  0  0  0  0  0
  155.8420  140.1061  163.1297 C   0  0  0  0  0  0  0  0  0  0  0  0
  156.1776  139.0176  163.6149 O   0  0  0  0  0  0  0  0  0  0  0  0
  156.1071  141.3363  163.6658 N   0  5  0  0  0  0  0  0  0  0  0  0
  156.4228  141.5994  165.0707 C   0  0  0  0  0  0  0  0  0  0  0  0
  156.0582  143.0598  165.4569 C   0  0  1  0  0  0  0  0  0  0  0  0
  154.7586  143.5856  164.7963 C   0  0  0  0  0  0  0  0  0  0  0  0
  156.0658  143.2307  166.9432 N   0  3  0  0  0  0  0  0  0  0  0  0
  155.8352  144.6310  167.3780 C   0  0  0  0  0  0  0  0  0  0  0  0
  156.0359  144.7588  168.8975 C   0  0  0  0  0  0  0  0  0  0  0  0
  155.1754  143.8532  169.5772 O   0  0  0  0  0  0  0  0  0  0  0  0
  155.4449  142.5001  169.2310 C   0  0  0  0  0  0  0  0  0  0  0  0
  155.2042  142.3008  167.7262 C   0  0  0  0  0  0  0  0  0  0  0  0
  154.6905  138.7473  161.3248 C   0  0  0  0  0  0  0  0  0  0  0  0
  154.0154  138.6934  160.1558 C   0  0  0  0  0  0  0  0  0  0  0  0
  153.6791  139.8996  159.3989 C   0  0  0  0  0  0  0  0  0  0  0  0
  153.0590  139.8759  158.3359 O   0  0  0  0  0  0  0  0  0  0  0  0
  151.3957  146.0546  159.4813 H   0  0  0  0  0  0  0  0  0  0  0  0
  150.9196  144.8857  160.7137 H   0  0  0  0  0  0  0  0  0  0  0  0
  150.6165  144.5475  158.9997 H   0  0  0  0  0  0  0  0  0  0  0  0
  152.4892  142.8457  160.9608 H   0  0  0  0  0  0  0  0  0  0  0  0
  151.7008  142.5431  159.4153 H   0  0  0  0  0  0  0  0  0  0  0  0
  153.8154  142.2581  158.2706 H   0  0  0  0  0  0  0  0  0  0  0  0
  154.7057  143.0301  159.5461 H   0  0  0  0  0  0  0  0  0  0  0  0
  155.8904  140.9141  165.7305 H   0  0  0  0  0  0  0  0  0  0  0  0
  157.4801  141.4309  165.2822 H   0  0  0  0  0  0  0  0  0  0  0  0
  156.8718  143.6790  165.0754 H   0  0  0  0  0  0  0  0  0  0  0  0
  154.8349  143.6023  163.7076 H   0  0  0  0  0  0  0  0  0  0  0  0
  154.5527  144.6102  165.1060 H   0  0  0  0  0  0  0  0  0  0  0  0
  153.8832  142.9848  165.0494 H   0  0  0  0  0  0  0  0  0  0  0  0
  156.5270  145.3028  166.8682 H   0  0  0  0  0  0  0  0  0  0  0  0
  154.8256  144.9405  167.1042 H   0  0  0  0  0  0  0  0  0  0  0  0
  157.0745  144.5642  169.1700 H   0  0  0  0  0  0  0  0  0  0  0  0
  155.8075  145.7739  169.2221 H   0  0  0  0  0  0  0  0  0  0  0  0
  156.4684  142.2364  169.5023 H   0  0  0  0  0  0  0  0  0  0  0  0
  154.7849  141.8507  169.8065 H   0  0  0  0  0  0  0  0  0  0  0  0
  154.1519  142.4837  167.5055 H   0  0  0  0  0  0  0  0  0  0  0  0
  155.4129  141.2645  167.4594 H   0  0  0  0  0  0  0  0  0  0  0  0
  154.9207  137.8361  161.8571 H   0  0  0  0  0  0  0  0  0  0  0  0
  153.7142  137.7321  159.7668 H   0  0  0  0  0  0  0  0  0  0  0  0
  157.0166  143.0244  167.2153 H   0  0  0  0  0  0  0  0  0  0  0  0
  1  2  1  0  0  0  0
  1 24  1  0  0  0  0
  1 25  1  0  0  0  0
  1 26  1  0  0  0  0
  2  3  1  0  0  0  0
  3  4  1  0  0  0  0
  3 27  1  0  0  0  0
  3 28  1  0  0  0  0
  4  5  1  0  0  0  0
  4 29  1  0  0  0  0
  4 30  1  0  0  0  0
  5 22  1  0  0  0  0
  5  6  1  0  0  0  0
  6  7  2  0  0  0  0
  7  8  1  0  0  0  0
  7 20  1  0  0  0  0
  8  9  2  0  0  0  0
  8 10  1  0  0  0  0
 10 11  1  0  0  0  0
 11 12  1  0  0  0  0
 11 31  1  0  0  0  0
 11 32  1  0  0  0  0
 12 13  1  0  0  0  0
 12 14  1  0  0  0  0
 12 33  1  0  0  0  0
 13 34  1  0  0  0  0
 13 35  1  0  0  0  0
 13 36  1  0  0  0  0
 14 19  1  0  0  0  0
 14 15  1  0  0  0  0
 14 47  1  0  0  0  0
 15 16  1  0  0  0  0
 15 37  1  0  0  0  0
 15 38  1  0  0  0  0
 16 17  1  0  0  0  0
 16 39  1  0  0  0  0
 16 40  1  0  0  0  0
 17 18  1  0  0  0  0
 18 19  1  0  0  0  0
 18 41  1  0  0  0  0
 18 42  1  0  0  0  0
 19 43  1  0  0  0  0
 19 44  1  0  0  0  0
 20 21  2  0  0  0  0
 20 45  1  0  0  0  0
 21 22  1  0  0  0  0
 21 46  1  0  0  0  0
 22 23  2  0  0  0  0
M  CHG  1  10  -1
M  CHG  1  14   1
M  END
> <s_m_source_file>
AV-unprocessed.smi

> <i_m_source_file_index>
1958

> <i_lp_mmshare_version>
43012

> <i_f3d_flags>
0

> <s_epik_input>
W0NIM11PW0NIMl1bQ0gyXW4xbmMoW2NIXVtjSF1jMT1PKUMoPU8pW05IXVtDSDJdW0NASF0oW0NIM10pTjJbQ0gyXVtDSDJdT1tDSDJdW0NIMl0y

> <s_epik_cmdline>
J2VwaWtfcHl0aG9uJywgJy1waCcsICc3LjAnLCAnLXRuJywgJzgnLCAnLW1hJywgJzIwMCcsICctbWV0YWxfYmluZGluZycsICctaW1hZScsICc8aW5maWxlLm1hZT4nLCAnLW9tYWUnLCAnPG91dGZpbGUubWFlPic=

> <r_lp_tautomer_probability>
1

> <r_epik_Ionization_Penalty>
6.89388

> <r_epik_Ionization_Penalty_Charging>
6.89388

> <r_epik_Ionization_Penalty_Neutral>
1.08445e-11

> <r_epik_State_Penalty>
7.53214

> <r_epik_Charging_Adjusted_Penalty>
14.426

> <i_epik_Tot_Q>
0

> <i_epik_Tot_abs_Q>
2

> <r_epik_Metal_State_Penalty>
3.44743

> <b_epik_Metal_Only>
1

> <s_lp_Force_Field>
OPLS_2005

> <r_lp_Energy>
43.2643

> <b_lp_Chiralities_Consistent>
1

> <s_lp_Variant>
AV-unprocessed.smi:1958-6

> <Gold.Version>
5.8.1

> <Gold.Id.Protein>
6NUR|6NUR_protein|mol2

> <Gold.PLP.Fitness>
42.8428

> <Gold.PLP.PLP>
-42.0461

> <Gold.PLP.part.hbond>
-2.7298

> <Gold.PLP.part.metal>
0.0000

> <Gold.PLP.part.buried>
-5.9264

> <Gold.PLP.part.nonpolar>
-33.1505

> <Gold.PLP.part.repulsive>
0.6905

> <Gold.PLP.ligand.clash>
0.0000

> <Gold.PLP.ligand.torsion>
1.0279

> <Gold.PLP.Chemscore.Hbond>
0.7800

> <Gold.PLP.Chemscore.CHOScore>
0.0000

> <Gold.PLP.Chemscore.Metal>
0.0000

> <Gold.Chemscore.Hbonds>
donor molecule, donor type, donor heavy atom, donor atom, acceptor molecule, acceptor atom, score
      P1  H  7997  8009       L1    23  0.79

> <Gold.PLP.Chemscore.Internal.Correction>
0.5125

> <Gold.Rescore>
     Score         DG    S(hbond)    S(metal)    S(lipo)     H(rot)  DE(clash)    DE(int)     intcor
      9.69     -14.55       0.85        0.00      98.44       2.07       3.54       1.32       ----

> <Gold.Chemscore.Fitness>
9.6855

> <Gold.Chemscore.DG>
-14.5462

> <Gold.Chemscore.ZeroCoef>
-5.4800

> <Gold.Chemscore.Hbond>
0.8506

> <Gold.Chemscore.Metal>
0.0000

> <Gold.Chemscore.Lipo>
98.4403

> <Gold.Chemscore.Internal_Hbond>
0.0000

> <Gold.Chemscore.DEClash>
3.5422

> <Gold.Chemscore.DEInternal>
1.3185

> <Gold.Chemscore.Rot>
2.0673

> <Gold.Chemscore.Internal.Correction>
   9.000000E+99

> <Gold.Chemscore.Hbonds>
donor molecule, donor type, donor heavy atom, donor atom, acceptor molecule, acceptor atom, score
      P1  H  7997  8009       L1    23  0.11

> <Gold.Chemscore.Hbond.Weighted>
-2.8410

> <Gold.Chemscore.Metal.Weighted>
-0.0000

> <Gold.Chemscore.Lipo.Weighted>
-11.5175

> <Gold.Chemscore.Internal_Hbond.Weighted>
0.0000

> <Gold.Chemscore.DEClash.Weighted>
3.5422

> <Gold.Chemscore.DEInternal.Weighted>
1.3185

> <Gold.Chemscore.Rot.Weighted>
5.2923

> <Gold.Chemscore.Internal.Correction.Weighted>
   9.000000E+99

> <Gold.Protein.RotatedTorsions>
[ 6907 6896 6895 6894 ] final -151.37 input  -60.11 | X-H torsion
[ 7974 7965 7964 7962 ] final   -6.48 input  175.53 | X-H torsion
[ 8008 7997 7996 7995 ] final  145.71 input   59.86 | X-H torsion
[ 10167 10162 10161 10158 ] final   51.38 input  -65.29 | X-H torsion
[ 10718 10713 10712 10709 ] final   11.32 input   66.30 | X-H torsion
[ 10763 10752 10751 10750 ] final -123.62 input  -60.55 | X-H torsion
[ 11005 11000 10999 10996 ] final -118.38 input  -57.11 | X-H torsion

> <Gold.Protein.ActiveResidues>
 VAL166  LYS551  ARG553  GLY616  TRP617  ASP618  TYR619  PRO620  LYS621  CYS622 
 ASP623  PHE694  ASN695  SER759  ASP760  ASP761  ALA762  ILE779  LEU786  VAL792 
 PHE793  MET794  SER795  GLU796  ALA797  LYS798  CYS799  TRP800  GLU811  SER814 

> <Gold.Protein.RotatedAtoms>
  151.2122  133.4549  159.2598 H   0  0  0  0  0  0  0  0  0  0  0  0  # atno 6907 bound_to 6896
  151.0966  134.9947  159.8438 H   0  0  0  0  0  0  0  0  0  0  0  0  # atno 6908 bound_to 6896
  152.5439  134.2051  159.8781 H   0  0  0  0  0  0  0  0  0  0  0  0  # atno 6909 bound_to 6896
  146.2330  140.2177  142.8336 H   0  0  0  0  0  0  0  0  0  0  0  0  # atno 7974 bound_to 7965
  156.2876  140.2202  156.5259 H   0  0  0  0  0  0  0  0  0  0  0  0  # atno 8008 bound_to 7997
  154.7489  140.0482  157.0898 H   0  0  0  0  0  0  0  0  0  0  0  0  # atno 8009 bound_to 7997
  155.0135  140.3115  155.4824 H   0  0  0  0  0  0  0  0  0  0  0  0  # atno 8010 bound_to 7997
  140.2626  144.3356  150.6313 H   0  0  0  0  0  0  0  0  0  0  0  0  # atno 10167 bound_to 10162
  156.9939  130.6053  149.5689 H   0  0  0  0  0  0  0  0  0  0  0  0  # atno 10718 bound_to 10713
  154.8710  135.4092  154.2972 H   0  0  0  0  0  0  0  0  0  0  0  0  # atno 10763 bound_to 10752
  153.3838  135.7012  153.6551 H   0  0  0  0  0  0  0  0  0  0  0  0  # atno 10764 bound_to 10752
  153.5362  135.3657  155.2669 H   0  0  0  0  0  0  0  0  0  0  0  0  # atno 10765 bound_to 10752
  141.0290  134.0010  157.3172 H   0  0  0  0  0  0  0  0  0  0  0  0  # atno 11005 bound_to 11000
  144.9656  140.8319  143.5486 LP  0  0  0  0  0  0  0  0  0  0  0  0  # atno 17320 bound_to 7965
  145.2153  139.2185  143.5121 LP  0  0  0  0  0  0  0  0  0  0  0  0  # atno 17321 bound_to 7965
  140.5954  143.2167  151.7174 LP  0  0  0  0  0  0  0  0  0  0  0  0  # atno 17342 bound_to 10162
  139.5012  144.3875  152.0313 LP  0  0  0  0  0  0  0  0  0  0  0  0  # atno 17343 bound_to 10162
  156.0196  130.5291  150.8238 LP  0  0  0  0  0  0  0  0  0  0  0  0  # atno 17370 bound_to 10713
  157.5439  131.0941  150.9790 LP  0  0  0  0  0  0  0  0  0  0  0  0  # atno 17371 bound_to 10713
  139.9195  135.0199  156.8009 LP  0  0  0  0  0  0  0  0  0  0  0  0  # atno 17394 bound_to 11000
  140.6441  133.9791  155.7722 LP  0  0  0  0  0  0  0  0  0  0  0  0  # atno 17395 bound_to 11000

$$$$
