#       Name:                AV-unprocessed.smi:109
#       Creating user name   scv26
#       Creation time:       Thu Mar 26 18:07:42 2020


#       File generated by GOLD software.
#

@<TRIPOS>MOLECULE
AV-unprocessed.smi:109
    71    74     1
SMALL
NO_CHARGES


@<TRIPOS>ATOM
      1 ****        -1.9697   3.0577  -4.2133 O.3            1 S1                 0.0000
      2 ****        -1.5086   2.6960  -2.9294 C.3            1 S1                 0.0000
      3 ****        -2.7027   2.3481  -2.0244 C.3            1 S1                 0.0000
      4 ****        -2.3156   1.9981  -0.5660 C.3            1 S1                 0.0000
      5 ****        -1.4562   0.8122  -0.5613 N.pl3          1 S1                 0.0000
      6 ****        -0.1244   0.8931  -0.3442 C.ar           1 S1                 0.0000
      7 ****         0.5281   2.0845  -0.3563 N.ar           1 S1                 0.0000
      8 ****         1.8480   2.1270  -0.1519 C.ar           1 S1                 0.0000
      9 ****         2.6890   1.1170   0.0831 N.ar           1 S1                 0.0000
     10 ****         2.0367  -0.0817   0.1033 C.ar           1 S1                 0.0000
     11 ****         0.6431  -0.2752  -0.1040 C.ar           1 S1                 0.0000
     12 ****         0.3392  -1.6267  -0.0198 N.2            1 S1                 0.0000
     13 ****         1.4903  -2.1941   0.2211 C.2            1 S1                 0.0000
     14 ****         2.5675  -1.3351   0.3232 N.pl3          1 S1                 0.0000
     15 ****         4.0229  -1.6300   0.5553 C.3            1 S1                 0.0000
     16 ****         4.5972  -1.9484  -0.6712 O.3            1 S1                 0.0000
     17 ****         4.4485  -3.3404  -0.9088 C.3            1 S1                 0.0000
     18 ****         5.4817  -3.7943  -1.9508 C.3            1 S1                 0.0000
     19 ****         5.2330  -5.1281  -2.3396 O.3            1 S1                 0.0000
     20 ****         4.6184  -3.9680   0.4860 C.3            1 S1                 0.0000
     21 ****         3.7566  -5.0800   0.6273 O.3            1 S1                 0.0000
     22 ****         4.2242  -2.8544   1.4638 C.3            1 S1                 0.0000
     23 ****         5.2558  -2.6241   2.4018 O.3            1 S1                 0.0000
     24 ****        -3.5453   1.7501   0.3555 C.3            1 S1                 0.0000
     25 ****        -4.4964   2.9708   0.4390 C.3            1 S1                 0.0000
     26 ****        -5.6899   2.7250   1.3773 C.3            1 S1                 0.0000
     27 ****        -5.2281   2.3235   2.7833 C.3            1 S1                 0.0000
     28 ****        -4.3070   1.0999   2.7187 C.3            1 S1                 0.0000
     29 ****        -3.1093   1.3558   1.7910 C.3            1 S1                 0.0000
     30 ****         4.4311  -0.7056   0.9655 H              1 S1                 0.0000
     31 ****         3.4405  -3.5041  -1.2934 H              1 S1                 0.0000
     32 ****         5.6511  -4.2823   0.6464 H              1 S1                 0.0000
     33 ****         3.3117  -3.0713   2.0208 H              1 S1                 0.0000
     34 ****        -2.4217   2.3178  -4.5888 H              1 S1                 0.0000
     35 ****        -0.8293   1.8498  -3.0322 H              1 S1                 0.0000
     36 ****        -0.9389   3.5262  -2.5112 H              1 S1                 0.0000
     37 ****        -3.3654   3.2115  -2.0361 H              1 S1                 0.0000
     38 ****        -3.2670   1.5230  -2.4612 H              1 S1                 0.0000
     39 ****        -1.7851   2.8534  -0.1477 H              1 S1                 0.0000
     40 ****        -1.9440  -0.0719  -0.5817 H              1 S1                 0.0000
     41 ****         2.2934   3.1106  -0.1801 H              1 S1                 0.0000
     42 ****         1.5743  -3.2649   0.3282 H              1 S1                 0.0000
     43 ****         5.4174  -3.1646  -2.8385 H              1 S1                 0.0000
     44 ****         6.4974  -3.7047  -1.5645 H              1 S1                 0.0000
     45 ****         5.8641  -5.3720  -2.9993 H              1 S1                 0.0000
     46 ****         2.8722  -4.8023   0.4461 H              1 S1                 0.0000
     47 ****         6.0494  -2.4201   1.9308 H              1 S1                 0.0000
     48 ****        -4.1130   0.9159  -0.0604 H              1 S1                 0.0000
     49 ****        -3.9409   3.8465   0.7777 H              1 S1                 0.0000
     50 ****        -4.9002   3.2195  -0.5407 H              1 S1                 0.0000
     51 ****        -6.3077   3.6217   1.4331 H              1 S1                 0.0000
     52 ****        -6.3230   1.9393   0.9630 H              1 S1                 0.0000
     53 ****        -4.7015   3.1567   3.2504 H              1 S1                 0.0000
     54 ****        -6.0920   2.1087   3.4131 H              1 S1                 0.0000
     55 ****        -3.9543   0.8479   3.7192 H              1 S1                 0.0000
     56 ****        -4.8683   0.2355   2.3616 H              1 S1                 0.0000
     57 ****        -2.4948   0.4556   1.7776 H              1 S1                 0.0000
     58 ****        -2.4851   2.1445   2.2136 H              1 S1                 0.0000
     59 ****        -1.1937   3.3083  -4.7922 LP             1 S1                 0.0000
     60 ****        -2.5957   3.8341  -4.1406 LP             1 S1                 0.0000
     61 ****         0.0203   2.9306  -0.5183 LP             1 S1                 0.0000
     62 ****         3.6728   1.2252   0.2263 LP             1 S1                 0.0000
     63 ****        -0.5542  -2.0645  -0.1203 LP             1 S1                 0.0000
     64 ****         5.5692  -1.7135  -0.6565 LP             1 S1                 0.0000
     65 ****         4.1411  -1.4344  -1.3977 LP             1 S1                 0.0000
     66 ****         4.3086  -5.2034  -2.7134 LP             1 S1                 0.0000
     67 ****         5.3226  -5.7322  -1.5478 LP             1 S1                 0.0000
     68 ****         3.8138  -5.4336   1.5609 LP             1 S1                 0.0000
     69 ****         4.0232  -5.7965  -0.0174 LP             1 S1                 0.0000
     70 ****         5.3949  -3.4433   2.9582 LP             1 S1                 0.0000
     71 ****         5.0084  -1.8571   2.9939 LP             1 S1                 0.0000
@<TRIPOS>BOND
    1    1    2 1     
    2    1   34 1     
    3    2    3 1     
    4    2   35 1     
    5    2   36 1     
    6    3    4 1     
    7    3   37 1     
    8    3   38 1     
    9    4    5 1     
   10    4   24 1     
   11    4   39 1     
   12    5    6 1     
   13    5   40 1     
   14    6   11 ar    
   15    6    7 ar    
   16    7    8 ar    
   17    8    9 ar    
   18    8   41 1     
   19    9   10 ar    
   20   10   14 1     
   21   10   11 ar    
   22   11   12 1     
   23   12   13 2     
   24   13   14 1     
   25   13   42 1     
   26   14   15 1     
   27   15   30 1     
   28   15   22 1     
   29   15   16 1     
   30   16   17 1     
   31   17   31 1     
   32   17   18 1     
   33   17   20 1     
   34   18   19 1     
   35   18   43 1     
   36   18   44 1     
   37   19   45 1     
   38   20   32 1     
   39   20   21 1     
   40   20   22 1     
   41   21   46 1     
   42   22   33 1     
   43   22   23 1     
   44   23   47 1     
   45   24   29 1     
   46   24   25 1     
   47   24   48 1     
   48   25   26 1     
   49   25   49 1     
   50   25   50 1     
   51   26   27 1     
   52   26   51 1     
   53   26   52 1     
   54   27   28 1     
   55   27   53 1     
   56   27   54 1     
   57   28   29 1     
   58   28   55 1     
   59   28   56 1     
   60   29   57 1     
   61   29   58 1     
   62    1   59 1     
   63    1   60 1     
   64    7   61 1     
   65    9   62 1     
   66   12   63 1     
   67   16   64 1     
   68   16   65 1     
   69   19   66 1     
   70   19   67 1     
   71   21   68 1     
   72   21   69 1     
   73   23   70 1     
   74   23   71 1     
@<TRIPOS>SUBSTRUCTURE
      1 S1             1
@<TRIPOS>SET
LONE_PAIRS      STATIC     ATOMS    <user>   **** ""
13 59 60 61 62 63 64 65 66 67 68 69 70 71
DONOR_HYDROGENS      STATIC     ATOMS    <user>   **** ""
5 34 40 45 46 47
ATOM$BLUE        STATIC     ATOMS    COLORGROUP SYSTEM
13 59 60 61 62 63 64 65 66 67 68 69 70 71
ATOM$RED        STATIC     ATOMS    COLORGROUP SYSTEM
5 34 40 45 46 47
