AV-unprocessed.smi:2030|AV-procd|sdf|8227|dock1
  -GOLD-   2272010493D 1   1.00000     0.00000
 Structure written by MMmdl.
 35 36  0  0  0  0  0  0  0  0  3 V2000
  153.0335  138.4391  154.3843 C   0  0  0  0  0  0  0  0  0  0  0  0
  151.6200  138.0770  154.2866 N   0  0  0  0  0  0  0  0  0  0  0  0
  151.3643  136.7618  154.6146 N   0  0  0  0  0  0  0  0  0  0  0  0
  150.1633  136.3142  154.8128 C   0  0  0  0  0  0  0  0  0  0  0  0
  149.9639  134.8859  155.2008 C   0  0  0  0  0  0  0  0  0  0  0  0
  150.9873  134.2871  155.5535 O   0  0  0  0  0  0  0  0  0  0  0  0
  148.7052  134.3588  155.1289 N   0  5  0  0  0  0  0  0  0  0  0  0
  148.3838  132.9946  154.7100 C   0  0  0  0  0  0  0  0  0  0  0  0
  148.5300  132.8679  153.1779 C   0  0  0  0  0  0  0  0  0  0  0  0
  147.2115  132.7176  152.4249 C   0  0  0  0  0  0  0  0  0  0  0  0
  146.4130  131.5564  152.5384 C   0  0  0  0  0  0  0  0  0  0  0  0
  145.1992  131.4780  151.8255 C   0  0  0  0  0  0  0  0  0  0  0  0
  144.8090  132.5574  151.0063 C   0  0  0  0  0  0  0  0  0  0  0  0
  145.6442  133.6898  150.9214 C   0  0  0  0  0  0  0  0  0  0  0  0
  146.7991  133.7280  151.6211 N   0  3  0  0  0  0  0  0  0  0  0  0
  148.9707  137.2455  154.6936 C   0  0  0  0  0  0  0  0  0  0  0  0
  149.2499  138.4259  153.7439 C   0  0  0  0  0  0  0  0  0  0  0  0
  150.6735  138.9684  153.8957 C   0  0  0  0  0  0  0  0  0  0  0  0
  150.9004  140.1515  153.6424 O   0  0  0  0  0  0  0  0  0  0  0  0
  153.2546  139.4499  154.0396 H   0  0  0  0  0  0  0  0  0  0  0  0
  153.6387  137.7550  153.7879 H   0  0  0  0  0  0  0  0  0  0  0  0
  153.3662  138.3638  155.4201 H   0  0  0  0  0  0  0  0  0  0  0  0
  149.0307  132.2556  155.1849 H   0  0  0  0  0  0  0  0  0  0  0  0
  147.3655  132.7237  154.9895 H   0  0  0  0  0  0  0  0  0  0  0  0
  149.0448  133.7496  152.7946 H   0  0  0  0  0  0  0  0  0  0  0  0
  149.1740  132.0208  152.9376 H   0  0  0  0  0  0  0  0  0  0  0  0
  146.7220  130.7425  153.1784 H   0  0  0  0  0  0  0  0  0  0  0  0
  144.5745  130.6010  151.9088 H   0  0  0  0  0  0  0  0  0  0  0  0
  143.8818  132.5181  150.4538 H   0  0  0  0  0  0  0  0  0  0  0  0
  145.4242  134.5614  150.3227 H   0  0  0  0  0  0  0  0  0  0  0  0
  148.0972  136.7102  154.3201 H   0  0  0  0  0  0  0  0  0  0  0  0
  148.7048  137.6178  155.6836 H   0  0  0  0  0  0  0  0  0  0  0  0
  149.1337  138.0987  152.7101 H   0  0  0  0  0  0  0  0  0  0  0  0
  148.5233  139.2229  153.9053 H   0  0  0  0  0  0  0  0  0  0  0  0
  147.3847  134.5602  151.5511 H   0  0  0  0  0  0  0  0  0  0  0  0
  1  2  1  0  0  0  0
  1 20  1  0  0  0  0
  1 21  1  0  0  0  0
  1 22  1  0  0  0  0
  2 18  1  0  0  0  0
  2  3  1  0  0  0  0
  3  4  2  0  0  0  0
  4  5  1  0  0  0  0
  4 16  1  0  0  0  0
  5  6  2  0  0  0  0
  5  7  1  0  0  0  0
  7  8  1  0  0  0  0
  8  9  1  0  0  0  0
  8 23  1  0  0  0  0
  8 24  1  0  0  0  0
  9 10  1  0  0  0  0
  9 25  1  0  0  0  0
  9 26  1  0  0  0  0
 10 15  1  0  0  0  0
 10 11  2  0  0  0  0
 11 12  1  0  0  0  0
 11 27  1  0  0  0  0
 12 13  2  0  0  0  0
 12 28  1  0  0  0  0
 13 14  1  0  0  0  0
 13 29  1  0  0  0  0
 14 15  2  0  0  0  0
 14 30  1  0  0  0  0
 15 35  1  0  0  0  0
 16 17  1  0  0  0  0
 16 31  1  0  0  0  0
 16 32  1  0  0  0  0
 17 18  1  0  0  0  0
 17 33  1  0  0  0  0
 17 34  1  0  0  0  0
 18 19  2  0  0  0  0
M  CHG  1   7  -1
M  CHG  1  15   1
M  END
> <s_m_source_file>
AV-unprocessed.smi

> <i_m_source_file_index>
2030

> <i_lp_mmshare_version>
43012

> <i_f3d_flags>
0

> <s_epik_input>
Tz1DMVtDSDJdW0NIMl1DKD1OTjFbQ0gzXSlDKD1PKVtOSF1bQ0gyXVtDSDJdYzJbY0hdW2NIXVtjSF1bY0hdbjI=

> <s_epik_cmdline>
J2VwaWtfcHl0aG9uJywgJy1waCcsICc3LjAnLCAnLXRuJywgJzgnLCAnLW1hJywgJzIwMCcsICctbWV0YWxfYmluZGluZycsICctaW1hZScsICc8aW5maWxlLm1hZT4nLCAnLW9tYWUnLCAnPG91dGZpbGUubWFlPic=

> <r_epik_Ionization_Penalty>
6.31213

> <r_epik_Ionization_Penalty_Charging>
6.31213

> <r_epik_Ionization_Penalty_Neutral>
3.33061e-09

> <r_epik_State_Penalty>
7.27833

> <r_epik_Charging_Adjusted_Penalty>
13.5905

> <i_epik_Tot_Q>
0

> <i_epik_Tot_abs_Q>
2

> <r_epik_Metal_State_Penalty>
3.36613

> <b_epik_Metal_Only>
1

> <s_epik_Chemistry_Notes>
This compound has an imine and may undergo hydrolysis.

> <s_lp_Force_Field>
OPLS_2005

> <r_lp_Energy>
24.6461

> <b_lp_Chiralities_Consistent>
1

> <s_lp_Variant>
AV-unprocessed.smi:2030-4

> <Gold.Version>
5.8.1

> <Gold.Id.Protein>
6NUR|6NUR_protein|mol2

> <Gold.PLP.Fitness>
43.7418

> <Gold.PLP.PLP>
-33.3819

> <Gold.PLP.part.hbond>
-3.1379

> <Gold.PLP.part.metal>
0.0000

> <Gold.PLP.part.buried>
-4.2073

> <Gold.PLP.part.nonpolar>
-27.0457

> <Gold.PLP.part.repulsive>
0.3577

> <Gold.PLP.ligand.clash>
0.0000

> <Gold.PLP.ligand.torsion>
0.8693

> <Gold.PLP.Chemscore.Hbond>
3.9913

> <Gold.PLP.Chemscore.CHOScore>
0.0000

> <Gold.PLP.Chemscore.Metal>
0.0000

> <Gold.Chemscore.Hbonds>
donor molecule, donor type, donor heavy atom, donor atom, acceptor molecule, acceptor atom, score
      L1  H    15    35       P1  7948  0.88
      P1  H 10752 10764       L1     3  1.00

> <Gold.PLP.Chemscore.Internal.Correction>
0.1247

> <Gold.Rescore>
     Score         DG    S(hbond)    S(metal)    S(lipo)     H(rot)  DE(clash)    DE(int)     intcor
     16.45     -17.44       2.51        0.00      62.95       1.49       0.24       0.76       ----

> <Gold.Chemscore.Fitness>
16.4470

> <Gold.Chemscore.DG>
-17.4419

> <Gold.Chemscore.ZeroCoef>
-5.4800

> <Gold.Chemscore.Hbond>
2.5149

> <Gold.Chemscore.Metal>
0.0000

> <Gold.Chemscore.Lipo>
62.9475

> <Gold.Chemscore.Internal_Hbond>
0.0000

> <Gold.Chemscore.DEClash>
0.2396

> <Gold.Chemscore.DEInternal>
0.7553

> <Gold.Chemscore.Rot>
1.4854

> <Gold.Chemscore.Internal.Correction>
   9.000000E+99

> <Gold.Chemscore.Hbonds>
donor molecule, donor type, donor heavy atom, donor atom, acceptor molecule, acceptor atom, score
      L1  H    15    35       P1  7948  0.17
      P1  H 10752 10764       L1     3  0.78

> <Gold.Chemscore.Hbond.Weighted>
-8.3997

> <Gold.Chemscore.Metal.Weighted>
-0.0000

> <Gold.Chemscore.Lipo.Weighted>
-7.3649

> <Gold.Chemscore.Internal_Hbond.Weighted>
0.0000

> <Gold.Chemscore.DEClash.Weighted>
0.2396

> <Gold.Chemscore.DEInternal.Weighted>
0.7553

> <Gold.Chemscore.Rot.Weighted>
3.8026

> <Gold.Chemscore.Internal.Correction.Weighted>
   9.000000E+99

> <Gold.Protein.RotatedTorsions>
[ 6907 6896 6895 6894 ] final  -14.75 input  -60.11 | X-H torsion
[ 7974 7965 7964 7962 ] final -125.65 input  175.53 | X-H torsion
[ 8008 7997 7996 7995 ] final   87.19 input   59.86 | X-H torsion
[ 10167 10162 10161 10158 ] final  -67.22 input  -65.29 | X-H torsion
[ 10718 10713 10712 10709 ] final   49.00 input   66.30 | X-H torsion
[ 10763 10752 10751 10750 ] final  -74.89 input  -60.55 | X-H torsion
[ 11005 11000 10999 10996 ] final -148.22 input  -57.11 | X-H torsion

> <Gold.Protein.ActiveResidues>
 VAL166  LYS551  ARG553  GLY616  TRP617  ASP618  TYR619  PRO620  LYS621  CYS622 
 ASP623  PHE694  ASN695  SER759  ASP760  ASP761  ALA762  ILE779  LEU786  VAL792 
 PHE793  MET794  SER795  GLU796  ALA797  LYS798  CYS799  TRP800  GLU811  SER814 

> <Gold.Protein.RotatedAtoms>
  151.3346  135.0849  159.9349 H   0  0  0  0  0  0  0  0  0  0  0  0  # atno 6907 bound_to 6896
  152.5226  133.9508  159.7681 H   0  0  0  0  0  0  0  0  0  0  0  0  # atno 6908 bound_to 6896
  150.9854  133.6150  159.2746 H   0  0  0  0  0  0  0  0  0  0  0  0  # atno 6909 bound_to 6896
  144.9954  140.7771  143.4528 H   0  0  0  0  0  0  0  0  0  0  0  0  # atno 7974 bound_to 7965
  155.9723  140.3384  155.6586 H   0  0  0  0  0  0  0  0  0  0  0  0  # atno 8008 bound_to 7997
  155.6659  140.0721  157.2556 H   0  0  0  0  0  0  0  0  0  0  0  0  # atno 8009 bound_to 7997
  154.4169  140.1700  156.1814 H   0  0  0  0  0  0  0  0  0  0  0  0  # atno 8010 bound_to 7997
  140.5599  143.2312  151.6748 H   0  0  0  0  0  0  0  0  0  0  0  0  # atno 10167 bound_to 10162
  157.4743  130.8275  149.8022 H   0  0  0  0  0  0  0  0  0  0  0  0  # atno 10718 bound_to 10713
  154.4791  135.5849  153.6377 H   0  0  0  0  0  0  0  0  0  0  0  0  # atno 10763 bound_to 10752
  152.9845  135.6085  154.3269 H   0  0  0  0  0  0  0  0  0  0  0  0  # atno 10764 bound_to 10752
  154.3158  135.2844  155.2523 H   0  0  0  0  0  0  0  0  0  0  0  0  # atno 10765 bound_to 10752
  140.7636  134.3270  157.5095 H   0  0  0  0  0  0  0  0  0  0  0  0  # atno 11005 bound_to 11000
  145.2227  139.2151  143.5084 LP  0  0  0  0  0  0  0  0  0  0  0  0  # atno 17320 bound_to 7965
  146.3441  140.2088  142.8590 LP  0  0  0  0  0  0  0  0  0  0  0  0  # atno 17321 bound_to 7965
  139.5065  144.3678  152.0499 LP  0  0  0  0  0  0  0  0  0  0  0  0  # atno 17342 bound_to 10162
  140.2804  144.3866  150.6121 LP  0  0  0  0  0  0  0  0  0  0  0  0  # atno 17343 bound_to 10162
  156.0089  130.3842  150.2333 LP  0  0  0  0  0  0  0  0  0  0  0  0  # atno 17370 bound_to 10713
  157.0517  131.0064  151.3251 LP  0  0  0  0  0  0  0  0  0  0  0  0  # atno 17371 bound_to 10713
  139.8767  134.9217  156.3282 LP  0  0  0  0  0  0  0  0  0  0  0  0  # atno 17394 bound_to 11000
  140.9640  133.7370  156.0441 LP  0  0  0  0  0  0  0  0  0  0  0  0  # atno 17395 bound_to 11000

$$$$
