AV-unprocessed.smi:1495|AV-procd|sdf|6054|dock5
  -GOLD-   22720 6173D 1   1.00000     0.00000
 Structure written by MMmdl.
 40 41  0  0  0  0  0  0  0  0  1 V2000
  147.4306  139.7701  153.7905 C   0  0  0  0  0  0  0  0  0  0  0  0
  148.7485  140.4744  154.1346 C   0  0  0  0  0  0  0  0  0  0  0  0
  149.7669  139.5439  154.8113 C   0  0  1  0  0  0  0  0  0  0  0  0
  149.9305  138.2166  154.0465 C   0  0  0  0  0  0  0  0  0  0  0  0
  150.9411  137.4030  154.7369 N   0  0  0  0  0  0  0  0  0  0  0  0
  150.7591  136.1686  155.2648 C   0  0  0  0  0  0  0  0  0  0  0  0
  151.4681  135.7038  156.1579 O   0  0  0  0  0  0  0  0  0  0  0  0
  149.6915  135.5162  154.7779 N   0  0  0  0  0  0  0  0  0  0  0  0
  149.2902  134.1515  155.1034 C   0  0  0  0  0  0  0  0  0  0  0  0
  149.4235  133.2237  153.8824 C   0  0  0  0  0  0  0  0  0  0  0  0
  148.0977  132.7677  153.3434 C   0  0  0  0  0  0  0  0  0  0  0  0
  147.1342  133.5498  152.7562 C   0  0  0  0  0  0  0  0  0  0  0  0
  145.7271  132.6241  152.3127 S   0  0  0  0  0  0  0  0  0  0  0  0
  146.5158  131.1824  152.9416 C   0  0  0  0  0  0  0  0  0  0  0  0
  145.8864  129.8318  152.9294 C   0  0  0  0  0  0  0  0  0  0  0  0
  147.7318  131.4214  153.4388 N   0  0  0  0  0  0  0  0  0  0  0  0
  152.2330  138.0917  154.7498 C   0  0  0  0  0  0  0  0  0  0  0  0
  152.0545  139.4339  155.4826 C   0  0  0  0  0  0  0  0  0  0  0  0
  151.0334  140.2019  154.8493 O   0  0  0  0  0  0  0  0  0  0  0  0
  146.7394  140.4579  153.3032 H   0  0  0  0  0  0  0  0  0  0  0  0
  146.9405  139.3859  154.6855 H   0  0  0  0  0  0  0  0  0  0  0  0
  147.5982  138.9320  153.1135 H   0  0  0  0  0  0  0  0  0  0  0  0
  149.1795  140.8742  153.2160 H   0  0  0  0  0  0  0  0  0  0  0  0
  148.5479  141.3320  154.7778 H   0  0  0  0  0  0  0  0  0  0  0  0
  149.4363  139.3365  155.8309 H   0  0  0  0  0  0  0  0  0  0  0  0
  148.9644  137.7222  153.9422 H   0  0  0  0  0  0  0  0  0  0  0  0
  150.2690  138.4103  153.0273 H   0  0  0  0  0  0  0  0  0  0  0  0
  149.1393  135.9887  154.0767 H   0  0  0  0  0  0  0  0  0  0  0  0
  149.8551  133.7500  155.9458 H   0  0  0  0  0  0  0  0  0  0  0  0
  148.2483  134.1856  155.4229 H   0  0  0  0  0  0  0  0  0  0  0  0
  149.9772  133.7455  153.1008 H   0  0  0  0  0  0  0  0  0  0  0  0
  150.0352  132.3618  154.1513 H   0  0  0  0  0  0  0  0  0  0  0  0
  147.1626  134.6132  152.5695 H   0  0  0  0  0  0  0  0  0  0  0  0
  146.6194  129.0755  152.6468 H   0  0  0  0  0  0  0  0  0  0  0  0
  145.0639  129.8039  152.2144 H   0  0  0  0  0  0  0  0  0  0  0  0
  145.4981  129.5928  153.9197 H   0  0  0  0  0  0  0  0  0  0  0  0
  153.0155  137.5128  155.2424 H   0  0  0  0  0  0  0  0  0  0  0  0
  152.5693  138.2575  153.7255 H   0  0  0  0  0  0  0  0  0  0  0  0
  151.8000  139.2724  156.5313 H   0  0  0  0  0  0  0  0  0  0  0  0
  152.9851  140.0012  155.4635 H   0  0  0  0  0  0  0  0  0  0  0  0
  1  2  1  0  0  0  0
  1 20  1  0  0  0  0
  1 21  1  0  0  0  0
  1 22  1  0  0  0  0
  2  3  1  0  0  0  0
  2 23  1  0  0  0  0
  2 24  1  0  0  0  0
  3 19  1  0  0  0  0
  3  4  1  0  0  0  0
  3 25  1  0  0  0  0
  4  5  1  0  0  0  0
  4 26  1  0  0  0  0
  4 27  1  0  0  0  0
  5  6  1  0  0  0  0
  5 17  1  0  0  0  0
  6  7  2  0  0  0  0
  6  8  1  0  0  0  0
  8  9  1  0  0  0  0
  8 28  1  0  0  0  0
  9 10  1  0  0  0  0
  9 29  1  0  0  0  0
  9 30  1  0  0  0  0
 10 11  1  0  0  0  0
 10 31  1  0  0  0  0
 10 32  1  0  0  0  0
 11 16  1  0  0  0  0
 11 12  2  0  0  0  0
 12 13  1  0  0  0  0
 12 33  1  0  0  0  0
 13 14  1  0  0  0  0
 14 15  1  0  0  0  0
 14 16  2  0  0  0  0
 15 34  1  0  0  0  0
 15 35  1  0  0  0  0
 15 36  1  0  0  0  0
 17 18  1  0  0  0  0
 17 37  1  0  0  0  0
 17 38  1  0  0  0  0
 18 19  1  0  0  0  0
 18 39  1  0  0  0  0
 18 40  1  0  0  0  0
M  END
> <s_m_source_file>
AV-unprocessed.smi

> <i_m_source_file_index>
1495

> <i_lp_mmshare_version>
43012

> <i_f3d_flags>
0

> <s_epik_input>
W0NIM11bQ0gyXVtDQEBIXTFbQ0gyXU4oW0NIMl1bQ0gyXU8xKUMoPU8pW05IXVtDSDJdW0NIMl1jMltjSF1zYyhuMilbQ0gzXQ==

> <s_epik_cmdline>
J2VwaWtfcHl0aG9uJywgJy1waCcsICc3LjAnLCAnLXRuJywgJzgnLCAnLW1hJywgJzIwMCcsICctbWV0YWxfYmluZGluZycsICctaW1hZScsICc8aW5maWxlLm1hZT4nLCAnLW9tYWUnLCAnPG91dGZpbGUubWFlPic=

> <r_epik_Ionization_Penalty>
0.00206013

> <r_epik_Ionization_Penalty_Charging>
0

> <r_epik_Ionization_Penalty_Neutral>
0.00206013

> <r_epik_State_Penalty>
0.00138662

> <r_epik_Charging_Adjusted_Penalty>
0.00138662

> <i_epik_Tot_Q>
0

> <i_epik_Tot_abs_Q>
0

> <r_epik_Metal_State_Penalty>
-0

> <b_epik_Metal_Only>
0

> <s_lp_Force_Field>
OPLS_2005

> <r_lp_Energy>
24.1464

> <b_lp_Chiralities_Consistent>
1

> <s_lp_Variant>
AV-unprocessed.smi:1495-2

> <Gold.Version>
5.8.1

> <Gold.Id.Protein>
6NUR|6NUR_protein|mol2

> <Gold.PLP.Fitness>
47.4082

> <Gold.PLP.PLP>
-37.4821

> <Gold.PLP.part.hbond>
-3.0000

> <Gold.PLP.part.metal>
0.0000

> <Gold.PLP.part.buried>
-1.7246

> <Gold.PLP.part.nonpolar>
-33.7697

> <Gold.PLP.part.repulsive>
1.1771

> <Gold.PLP.ligand.clash>
0.0000

> <Gold.PLP.ligand.torsion>
0.7010

> <Gold.PLP.Chemscore.Hbond>
2.7680

> <Gold.PLP.Chemscore.CHOScore>
1.0000

> <Gold.PLP.Chemscore.Metal>
0.0000

> <Gold.Chemscore.Hbonds>
donor molecule, donor type, donor heavy atom, donor atom, acceptor molecule, acceptor atom, score
      L1  H     8    28       P1  7948  0.43
      P1  H  7989  7998       L1    19  1.00
      P1  H 10752 10763       L1     7  0.80
      L1  C    12    33       P1  7948  1.00

> <Gold.PLP.Chemscore.Internal.Correction>
0.0241

> <Gold.Rescore>
     Score         DG    S(hbond)    S(metal)    S(lipo)     H(rot)  DE(clash)    DE(int)     intcor
     17.24     -18.02       1.86        0.00      85.16       1.42       0.20       0.58       ----

> <Gold.Chemscore.Fitness>
17.2412

> <Gold.Chemscore.DG>
-18.0216

> <Gold.Chemscore.ZeroCoef>
-5.4800

> <Gold.Chemscore.Hbond>
1.8614

> <Gold.Chemscore.Metal>
0.0000

> <Gold.Chemscore.Lipo>
85.1573

> <Gold.Chemscore.Internal_Hbond>
0.0000

> <Gold.Chemscore.DEClash>
0.1966

> <Gold.Chemscore.DEInternal>
0.5838

> <Gold.Chemscore.Rot>
1.4214

> <Gold.Chemscore.Internal.Correction>
   9.000000E+99

> <Gold.Chemscore.Hbonds>
donor molecule, donor type, donor heavy atom, donor atom, acceptor molecule, acceptor atom, score
      L1  H     8    28       P1  7948  0.39
      P1  H  7989  7998       L1    19  0.68
      P1  H 10752 10763       L1     7  0.11

> <Gold.Chemscore.Hbond.Weighted>
-6.2170

> <Gold.Chemscore.Metal.Weighted>
-0.0000

> <Gold.Chemscore.Lipo.Weighted>
-9.9634

> <Gold.Chemscore.Internal_Hbond.Weighted>
0.0000

> <Gold.Chemscore.DEClash.Weighted>
0.1966

> <Gold.Chemscore.DEInternal.Weighted>
0.5838

> <Gold.Chemscore.Rot.Weighted>
3.6388

> <Gold.Chemscore.Internal.Correction.Weighted>
   9.000000E+99

> <Gold.Protein.RotatedTorsions>
[ 6907 6896 6895 6894 ] final -129.65 input  -60.11 | X-H torsion
[ 7974 7965 7964 7962 ] final  -97.16 input  175.53 | X-H torsion
[ 8008 7997 7996 7995 ] final  -56.23 input   59.86 | X-H torsion
[ 10167 10162 10161 10158 ] final  -33.05 input  -65.29 | X-H torsion
[ 10718 10713 10712 10709 ] final  106.66 input   66.30 | X-H torsion
[ 10763 10752 10751 10750 ] final   86.83 input  -60.55 | X-H torsion
[ 11005 11000 10999 10996 ] final -166.92 input  -57.11 | X-H torsion

> <Gold.Protein.ActiveResidues>
 VAL166  LYS551  ARG553  GLY616  TRP617  ASP618  TYR619  PRO620  LYS621  CYS622 
 ASP623  PHE694  ASN695  SER759  ASP760  ASP761  ALA762  ILE779  LEU786  VAL792 
 PHE793  MET794  SER795  GLU796  ALA797  LYS798  CYS799  TRP800  GLU811  SER814 

> <Gold.Protein.RotatedAtoms>
  150.9310  133.6766  159.2810 H   0  0  0  0  0  0  0  0  0  0  0  0  # atno 6907 bound_to 6896
  151.4188  135.0994  159.9617 H   0  0  0  0  0  0  0  0  0  0  0  0  # atno 6908 bound_to 6896
  152.5026  133.8767  159.7380 H   0  0  0  0  0  0  0  0  0  0  0  0  # atno 6909 bound_to 6896
  145.3374  140.9453  143.2627 H   0  0  0  0  0  0  0  0  0  0  0  0  # atno 7974 bound_to 7965
  154.4223  140.1134  156.5604 H   0  0  0  0  0  0  0  0  0  0  0  0  # atno 8008 bound_to 7997
  155.6317  140.3495  155.4666 H   0  0  0  0  0  0  0  0  0  0  0  0  # atno 8009 bound_to 7997
  155.9942  140.1186  157.0599 H   0  0  0  0  0  0  0  0  0  0  0  0  # atno 8010 bound_to 7997
  140.7211  143.3649  151.1891 H   0  0  0  0  0  0  0  0  0  0  0  0  # atno 10167 bound_to 10162
  157.6659  131.0856  150.6041 H   0  0  0  0  0  0  0  0  0  0  0  0  # atno 10718 bound_to 10713
  153.1609  135.4566  154.9770 H   0  0  0  0  0  0  0  0  0  0  0  0  # atno 10763 bound_to 10752
  154.7896  135.3216  154.7809 H   0  0  0  0  0  0  0  0  0  0  0  0  # atno 10764 bound_to 10752
  153.8299  135.6939  153.4870 H   0  0  0  0  0  0  0  0  0  0  0  0  # atno 10765 bound_to 10752
  140.5591  134.5351  157.5139 H   0  0  0  0  0  0  0  0  0  0  0  0  # atno 11005 bound_to 11000
  144.8817  139.4895  143.6720 LP  0  0  0  0  0  0  0  0  0  0  0  0  # atno 17320 bound_to 7965
  146.3021  139.7460  142.9083 LP  0  0  0  0  0  0  0  0  0  0  0  0  # atno 17321 bound_to 7965
  139.7208  143.9226  152.2984 LP  0  0  0  0  0  0  0  0  0  0  0  0  # atno 17342 bound_to 10162
  139.8982  144.6927  150.8694 LP  0  0  0  0  0  0  0  0  0  0  0  0  # atno 17343 bound_to 10162
  156.6341  130.4440  149.5776 LP  0  0  0  0  0  0  0  0  0  0  0  0  # atno 17370 bound_to 10713
  156.2259  130.6765  151.1415 LP  0  0  0  0  0  0  0  0  0  0  0  0  # atno 17371 bound_to 10713
  139.9417  134.7775  156.0663 LP  0  0  0  0  0  0  0  0  0  0  0  0  # atno 17394 bound_to 11000
  141.1125  133.6638  156.3014 LP  0  0  0  0  0  0  0  0  0  0  0  0  # atno 17395 bound_to 11000

$$$$
