#       Name:                AV-unprocessed.smi:656
#       Creating user name   scv26
#       Creation time:       Fri Mar 27 00:15:46 2020


#       File generated by GOLD software.
#

@<TRIPOS>MOLECULE
AV-unprocessed.smi:656
    45    46     1
SMALL
NO_CHARGES


@<TRIPOS>ATOM
      1 ****        -4.5636   2.3170  -2.8062 C.3            1 S1                 0.0000
      2 ****        -3.0398   2.2399  -2.6617 C.3            1 S1                 0.0000
      3 ****        -2.5673   0.8518  -2.1954 C.3            1 S1                 0.0000
      4 ****        -1.0872   0.7358  -2.1511 N.4            1 S1                 1.0000
      5 ****        -0.6368  -0.6789  -2.2173 C.3            1 S1                 0.0000
      6 ****         0.8976  -0.7792  -2.3021 C.3            1 S1                 0.0000
      7 ****         1.5891  -0.0448  -1.1409 C.3            1 S1                 0.0000
      8 ****         1.3932  -0.7718   0.1135 N.am           1 S1                 0.0000
      9 ****         2.1239  -0.6094   1.2265 C.2            1 S1                 0.0000
     10 ****         3.0516   0.1948   1.3165 O.2            1 S1                 0.0000
     11 ****         1.7081  -1.4310   2.2059 N.am           1 S1                 0.0000
     12 ****         2.2056  -1.5325   3.5317 C.ar           1 S1                 0.0000
     13 ****         1.5833  -2.5098   4.3375 C.ar           1 S1                 0.0000
     14 ****         2.0236  -2.6593   5.6637 C.ar           1 S1                 0.0000
     15 ****         3.0616  -1.8162   6.0958 C.ar           1 S1                 0.0000
     16 ****         3.6293  -0.8936   5.2890 N.ar           1 S1                 0.0000
     17 ****         3.2050  -0.7570   4.0279 N.ar           1 S1                 0.0000
     18 ****         1.0593   1.4005  -1.0609 C.3            1 S1                 0.0000
     19 ****        -0.4773   1.4494  -0.9974 C.3            1 S1                 0.0000
     20 ****        -4.8726   3.3096  -3.1349 H              1 S1                 0.0000
     21 ****        -5.0602   2.1113  -1.8575 H              1 S1                 0.0000
     22 ****        -4.9282   1.5963  -3.5388 H              1 S1                 0.0000
     23 ****        -2.5775   2.4816  -3.6196 H              1 S1                 0.0000
     24 ****        -2.7210   3.0106  -1.9607 H              1 S1                 0.0000
     25 ****        -2.9892   0.6053  -1.2197 H              1 S1                 0.0000
     26 ****        -2.9607   0.1130  -2.8953 H              1 S1                 0.0000
     27 ****        -1.0061  -1.2201  -1.3447 H              1 S1                 0.0000
     28 ****        -1.0710  -1.1622  -3.0934 H              1 S1                 0.0000
     29 ****         1.2047  -1.8256  -2.3251 H              1 S1                 0.0000
     30 ****         1.2300  -0.3463  -3.2466 H              1 S1                 0.0000
     31 ****         2.6608  -0.0175  -1.3468 H              1 S1                 0.0000
     32 ****         0.6560  -1.4612   0.1302 H              1 S1                 0.0000
     33 ****         0.9434  -2.0501   1.9817 H              1 S1                 0.0000
     34 ****         0.7878  -3.1312   3.9526 H              1 S1                 0.0000
     35 ****         1.5826  -3.3913   6.3239 H              1 S1                 0.0000
     36 ****         3.4433  -1.8813   7.1039 H              1 S1                 0.0000
     37 ****         1.4852   1.9222  -0.2031 H              1 S1                 0.0000
     38 ****         1.3953   1.9513  -1.9404 H              1 S1                 0.0000
     39 ****        -0.7897   2.4928  -0.9881 H              1 S1                 0.0000
     40 ****        -0.8312   1.0087  -0.0641 H              1 S1                 0.0000
     41 ****        -0.7408   1.1800  -2.9895 H              1 S1                 0.0000
     42 ****         3.2935   0.7687   0.5341 LP             1 S1                 0.0000
     43 ****         3.5633   0.2741   2.1720 LP             1 S1                 0.0000
     44 ****         4.3665  -0.3129   5.6344 LP             1 S1                 0.0000
     45 ****         3.6316  -0.0708   3.4388 LP             1 S1                 0.0000
@<TRIPOS>BOND
    1    1    2 1     
    2    1   20 1     
    3    1   21 1     
    4    1   22 1     
    5    2    3 1     
    6    2   23 1     
    7    2   24 1     
    8    3    4 1     
    9    3   25 1     
   10    3   26 1     
   11    4   19 1     
   12    4    5 1     
   13    4   41 1     
   14    5    6 1     
   15    5   27 1     
   16    5   28 1     
   17    6    7 1     
   18    6   29 1     
   19    6   30 1     
   20    7    8 1     
   21    7   18 1     
   22    7   31 1     
   23    8    9 am    
   24    8   32 1     
   25    9   10 2     
   26    9   11 am    
   27   11   12 1     
   28   11   33 1     
   29   12   17 ar    
   30   12   13 ar    
   31   13   14 ar    
   32   13   34 1     
   33   14   15 ar    
   34   14   35 1     
   35   15   16 ar    
   36   15   36 1     
   37   16   17 ar    
   38   18   19 1     
   39   18   37 1     
   40   18   38 1     
   41   19   39 1     
   42   19   40 1     
   43   10   42 1     
   44   10   43 1     
   45   16   44 1     
   46   17   45 1     
@<TRIPOS>SUBSTRUCTURE
      1 S1             1
@<TRIPOS>SET
LONE_PAIRS      STATIC     ATOMS    <user>   **** ""
4 42 43 44 45
DONOR_HYDROGENS      STATIC     ATOMS    <user>   **** ""
3 41 32 33
ATOM$BLUE        STATIC     ATOMS    COLORGROUP SYSTEM
4 42 43 44 45
ATOM$RED        STATIC     ATOMS    COLORGROUP SYSTEM
3 41 32 33
