AV-unprocessed.smi:1420|AV-procd|sdf|5788|dock9
  -GOLD-   22720 5433D 1   1.00000     0.00000
 Structure written by MMmdl.
 39 40  0  0  0  0  0  0  0  0  2 V2000
  149.5326  132.3467  154.9073 C   0  0  0  0  0  0  0  0  0  0  0  0
  149.5461  133.7231  154.2028 C   0  0  2  0  0  0  0  0  0  0  0  0
  149.7397  134.8593  155.2471 C   0  0  0  0  0  0  0  0  0  0  0  0
  150.1381  136.1294  154.6472 N   0  0  0  0  0  0  0  0  0  0  0  0
  150.9604  137.0267  155.2135 C   0  0  0  0  0  0  0  0  0  0  0  0
  151.4682  136.8728  156.3240 O   0  0  0  0  0  0  0  0  0  0  0  0
  151.2482  138.2946  154.4081 C   0  0  0  0  0  0  0  0  0  0  0  0
  151.0438  139.4869  155.2115 N   0  0  0  0  0  0  0  0  0  0  0  0
  151.3894  139.7012  156.5299 C   0  0  0  0  0  0  0  0  0  0  0  0
  151.0043  140.9716  156.8494 C   0  0  0  0  0  0  0  0  0  0  0  0
  150.4244  141.4623  155.6460 C   0  0  0  0  0  0  0  0  0  0  0  0
  150.4504  140.5723  154.6671 N   0  0  0  0  0  0  0  0  0  0  0  0
  148.3173  133.8841  153.3570 N   0  3  0  0  0  0  0  0  0  0  0  0
  148.0261  132.7600  152.4243 C   0  0  0  0  0  0  0  0  0  0  0  0
  146.7626  133.0395  151.5914 C   0  0  0  0  0  0  0  0  0  0  0  0
  145.6598  133.2861  152.4504 O   0  0  0  0  0  0  0  0  0  0  0  0
  145.8815  134.4281  153.2636 C   0  0  0  0  0  0  0  0  0  0  0  0
  147.1030  134.1851  154.1644 C   0  0  0  0  0  0  0  0  0  0  0  0
  150.4281  132.1895  155.5084 H   0  0  0  0  0  0  0  0  0  0  0  0
  149.4994  131.5151  154.2060 H   0  0  0  0  0  0  0  0  0  0  0  0
  148.6725  132.2546  155.5711 H   0  0  0  0  0  0  0  0  0  0  0  0
  150.4059  133.7542  153.5318 H   0  0  0  0  0  0  0  0  0  0  0  0
  148.8247  135.0445  155.8112 H   0  0  0  0  0  0  0  0  0  0  0  0
  150.5045  134.5770  155.9714 H   0  0  0  0  0  0  0  0  0  0  0  0
  149.7724  136.3383  153.7288 H   0  0  0  0  0  0  0  0  0  0  0  0
  152.2734  138.2751  154.0345 H   0  0  0  0  0  0  0  0  0  0  0  0
  150.5910  138.3426  153.5385 H   0  0  0  0  0  0  0  0  0  0  0  0
  151.8762  138.9404  157.1227 H   0  0  0  0  0  0  0  0  0  0  0  0
  151.1191  141.4740  157.7984 H   0  0  0  0  0  0  0  0  0  0  0  0
  149.9891  142.4323  155.4558 H   0  0  0  0  0  0  0  0  0  0  0  0
  148.8472  132.6138  151.7235 H   0  0  0  0  0  0  0  0  0  0  0  0
  147.9061  131.8350  152.9907 H   0  0  0  0  0  0  0  0  0  0  0  0
  146.9166  133.8889  150.9239 H   0  0  0  0  0  0  0  0  0  0  0  0
  146.5322  132.1801  150.9613 H   0  0  0  0  0  0  0  0  0  0  0  0
  146.0216  135.3157  152.6441 H   0  0  0  0  0  0  0  0  0  0  0  0
  144.9949  134.6027  153.8735 H   0  0  0  0  0  0  0  0  0  0  0  0
  146.8998  133.3534  154.8411 H   0  0  0  0  0  0  0  0  0  0  0  0
  147.2500  135.0669  154.7849 H   0  0  0  0  0  0  0  0  0  0  0  0
  148.4850  134.6883  152.7694 H   0  0  0  0  0  0  0  0  0  0  0  0
  1  2  1  0  0  0  0
  1 19  1  0  0  0  0
  1 20  1  0  0  0  0
  1 21  1  0  0  0  0
  2  3  1  0  0  0  0
  2 13  1  0  0  0  0
  2 22  1  0  0  0  0
  3  4  1  0  0  0  0
  3 23  1  0  0  0  0
  3 24  1  0  0  0  0
  4  5  1  0  0  0  0
  4 25  1  0  0  0  0
  5  6  2  0  0  0  0
  5  7  1  0  0  0  0
  7  8  1  0  0  0  0
  7 26  1  0  0  0  0
  7 27  1  0  0  0  0
  8 12  1  0  0  0  0
  8  9  1  0  0  0  0
  9 10  2  0  0  0  0
  9 28  1  0  0  0  0
 10 11  1  0  0  0  0
 10 29  1  0  0  0  0
 11 12  2  0  0  0  0
 11 30  1  0  0  0  0
 13 18  1  0  0  0  0
 13 14  1  0  0  0  0
 13 39  1  0  0  0  0
 14 15  1  0  0  0  0
 14 31  1  0  0  0  0
 14 32  1  0  0  0  0
 15 16  1  0  0  0  0
 15 33  1  0  0  0  0
 15 34  1  0  0  0  0
 16 17  1  0  0  0  0
 17 18  1  0  0  0  0
 17 35  1  0  0  0  0
 17 36  1  0  0  0  0
 18 37  1  0  0  0  0
 18 38  1  0  0  0  0
M  CHG  1  13   1
M  END
> <s_m_source_file>
AV-unprocessed.smi

> <i_m_source_file_index>
1420

> <i_lp_mmshare_version>
43012

> <i_f3d_flags>
0

> <s_epik_input>
W0NIMl0xW0NIMl1PW0NIMl1bQ0gyXU4xW0NASF0oW0NIM10pW0NIMl1bTkhdQyg9TylbQ0gyXW4yW2NIXVtjSF1bY0hdbjI=

> <s_epik_cmdline>
J2VwaWtfcHl0aG9uJywgJy1waCcsICc3LjAnLCAnLXRuJywgJzgnLCAnLW1hJywgJzIwMCcsICctbWV0YWxfYmluZGluZycsICctaW1hZScsICc8aW5maWxlLm1hZT4nLCAnLW9tYWUnLCAnPG91dGZpbGUubWFlPic=

> <r_lp_tautomer_probability>
1

> <r_epik_Ionization_Penalty>
0.748405

> <r_epik_Ionization_Penalty_Charging>
0.748396

> <r_epik_Ionization_Penalty_Neutral>
8.56978e-06

> <r_epik_State_Penalty>
0.775162

> <r_epik_Charging_Adjusted_Penalty>
1.52356

> <i_epik_Tot_Q>
1

> <i_epik_Tot_abs_Q>
1

> <r_epik_Metal_State_Penalty>
0.775167

> <b_epik_Metal_Only>
0

> <s_lp_Force_Field>
OPLS_2005

> <r_lp_Energy>
20.6517

> <b_lp_Chiralities_Consistent>
1

> <s_lp_Variant>
AV-unprocessed.smi:1420-3

> <Gold.Version>
5.8.1

> <Gold.Id.Protein>
6NUR|6NUR_protein|mol2

> <Gold.PLP.Fitness>
43.6733

> <Gold.PLP.PLP>
-30.5556

> <Gold.PLP.part.hbond>
-3.0000

> <Gold.PLP.part.metal>
0.0000

> <Gold.PLP.part.buried>
-1.8118

> <Gold.PLP.part.nonpolar>
-25.4525

> <Gold.PLP.part.repulsive>
0.2563

> <Gold.PLP.ligand.clash>
0.0000

> <Gold.PLP.ligand.torsion>
0.7690

> <Gold.PLP.Chemscore.Hbond>
3.8640

> <Gold.PLP.Chemscore.CHOScore>
0.9993

> <Gold.PLP.Chemscore.Metal>
0.0000

> <Gold.Chemscore.Hbonds>
donor molecule, donor type, donor heavy atom, donor atom, acceptor molecule, acceptor atom, score
      L1  H     4    25       P1  7948  1.00
      L1  H    13    39       P1  7948  2.00
      P1  H  7989  7998       L1    12  0.82
      L1  C    11    30       P1  8028  0.96

> <Gold.PLP.Chemscore.Internal.Correction>
0.0658

> <Gold.Rescore>
     Score         DG    S(hbond)    S(metal)    S(lipo)     H(rot)  DE(clash)    DE(int)     intcor
     13.53     -15.50       2.57        0.00      54.93       1.94       0.00       1.97       ----

> <Gold.Chemscore.Fitness>
13.5260

> <Gold.Chemscore.DG>
-15.5019

> <Gold.Chemscore.ZeroCoef>
-5.4800

> <Gold.Chemscore.Hbond>
2.5659

> <Gold.Chemscore.Metal>
0.0000

> <Gold.Chemscore.Lipo>
54.9333

> <Gold.Chemscore.Internal_Hbond>
0.0000

> <Gold.Chemscore.DEClash>
0.0015

> <Gold.Chemscore.DEInternal>
1.9744

> <Gold.Chemscore.Rot>
1.9435

> <Gold.Chemscore.Internal.Correction>
   9.000000E+99

> <Gold.Chemscore.Hbonds>
donor molecule, donor type, donor heavy atom, donor atom, acceptor molecule, acceptor atom, score
      L1  H     4    25       P1  7948  0.33
      L1  H    13    39       P1  7948  0.26
      P1  H  7989  7998       L1    12  0.12

> <Gold.Chemscore.Hbond.Weighted>
-8.5702

> <Gold.Chemscore.Metal.Weighted>
-0.0000

> <Gold.Chemscore.Lipo.Weighted>
-6.4272

> <Gold.Chemscore.Internal_Hbond.Weighted>
0.0000

> <Gold.Chemscore.DEClash.Weighted>
0.0015

> <Gold.Chemscore.DEInternal.Weighted>
1.9744

> <Gold.Chemscore.Rot.Weighted>
4.9754

> <Gold.Chemscore.Internal.Correction.Weighted>
   9.000000E+99

> <Gold.Protein.RotatedTorsions>
[ 6907 6896 6895 6894 ] final  121.13 input  -60.11 | X-H torsion
[ 7974 7965 7964 7962 ] final -179.73 input  175.53 | X-H torsion
[ 8008 7997 7996 7995 ] final  165.66 input   59.86 | X-H torsion
[ 10167 10162 10161 10158 ] final  -99.69 input  -65.29 | X-H torsion
[ 10718 10713 10712 10709 ] final -126.10 input   66.30 | X-H torsion
[ 10763 10752 10751 10750 ] final  -55.91 input  -60.55 | X-H torsion
[ 11005 11000 10999 10996 ] final   63.03 input  -57.11 | X-H torsion

> <Gold.Protein.ActiveResidues>
 VAL166  LYS551  ARG553  GLY616  TRP617  ASP618  TYR619  PRO620  LYS621  CYS622 
 ASP623  PHE694  ASN695  SER759  ASP760  ASP761  ALA762  ILE779  LEU786  VAL792 
 PHE793  MET794  SER795  GLU796  ALA797  LYS798  CYS799  TRP800  GLU811  SER814 

> <Gold.Protein.RotatedAtoms>
  152.4345  133.7337  159.6601 H   0  0  0  0  0  0  0  0  0  0  0  0  # atno 6907 bound_to 6896
  150.8228  133.8213  159.3138 H   0  0  0  0  0  0  0  0  0  0  0  0  # atno 6908 bound_to 6896
  151.5891  135.1056  160.0086 H   0  0  0  0  0  0  0  0  0  0  0  0  # atno 6909 bound_to 6896
  144.7139  140.0673  143.6430 H   0  0  0  0  0  0  0  0  0  0  0  0  # atno 7974 bound_to 7965
  156.1783  140.1664  156.8322 H   0  0  0  0  0  0  0  0  0  0  0  0  # atno 8008 bound_to 7997
  154.5331  140.0752  156.8413 H   0  0  0  0  0  0  0  0  0  0  0  0  # atno 8009 bound_to 7997
  155.3366  140.3382  155.4241 H   0  0  0  0  0  0  0  0  0  0  0  0  # atno 8010 bound_to 7997
  140.2598  143.3415  152.0637 H   0  0  0  0  0  0  0  0  0  0  0  0  # atno 10167 bound_to 10162
  156.1734  130.6683  151.0210 H   0  0  0  0  0  0  0  0  0  0  0  0  # atno 10718 bound_to 10713
  154.1982  135.6415  153.5079 H   0  0  0  0  0  0  0  0  0  0  0  0  # atno 10763 bound_to 10752
  153.0018  135.5445  154.6343 H   0  0  0  0  0  0  0  0  0  0  0  0  # atno 10764 bound_to 10752
  154.5749  135.2920  155.0763 H   0  0  0  0  0  0  0  0  0  0  0  0  # atno 10765 bound_to 10752
  140.0052  134.6381  155.9867 H   0  0  0  0  0  0  0  0  0  0  0  0  # atno 11005 bound_to 11000
  145.9813  139.2943  143.1040 LP  0  0  0  0  0  0  0  0  0  0  0  0  # atno 17320 bound_to 7965
  145.9007  140.9244  143.0504 LP  0  0  0  0  0  0  0  0  0  0  0  0  # atno 17321 bound_to 7965
  139.5020  144.6726  151.6206 LP  0  0  0  0  0  0  0  0  0  0  0  0  # atno 17342 bound_to 10162
  140.5975  143.9669  150.6364 LP  0  0  0  0  0  0  0  0  0  0  0  0  # atno 17343 bound_to 10162
  157.6819  131.0836  150.7347 LP  0  0  0  0  0  0  0  0  0  0  0  0  # atno 17370 bound_to 10713
  156.7406  130.4738  149.5478 LP  0  0  0  0  0  0  0  0  0  0  0  0  # atno 17371 bound_to 10713
  141.1671  133.6537  156.4520 LP  0  0  0  0  0  0  0  0  0  0  0  0  # atno 17394 bound_to 11000
  140.4654  134.6802  157.5105 LP  0  0  0  0  0  0  0  0  0  0  0  0  # atno 17395 bound_to 11000

$$$$
