#       Name:                AV-unprocessed.smi:1427
#       Creating user name   scv26
#       Creation time:       Fri Mar 27 05:46:29 2020


#       File generated by GOLD software.
#

@<TRIPOS>MOLECULE
AV-unprocessed.smi:1427
    38    39     1
SMALL
NO_CHARGES


@<TRIPOS>ATOM
      1 ****         0.4919  -2.6592  -2.4867 C.3            1 S1                 0.0000
      2 ****         0.5381  -1.9349  -1.1345 C.3            1 S1                 0.0000
      3 ****         1.9911  -1.6821  -0.6797 C.3            1 S1                 0.0000
      4 ****         2.0674  -1.0985   0.6487 N.pl3          1 S1                 0.0000
      5 ****         1.8774  -1.7153   1.8671 C.2            1 S1                 0.0000
      6 ****         2.0312  -0.7625   2.8330 C.2            1 S1                 0.0000
      7 ****         2.3200   0.4209   2.0976 C.2            1 S1                 0.0000
      8 ****         2.3451   0.2161   0.7907 N.2            1 S1                 0.0000
      9 ****        -0.1978  -0.6756  -1.2413 N.am           1 S1                 0.0000
     10 ****        -1.0679  -0.1982  -0.3371 C.2            1 S1                 0.0000
     11 ****        -1.3683  -0.7979   0.6965 O.2            1 S1                 0.0000
     12 ****        -1.6565   1.1865  -0.6400 C.3            1 S1                 0.0000
     13 ****        -0.8073   2.3061   0.0019 C.3            1 S1                 0.0000
     14 ****        -1.8083   3.2954   0.6122 C.3            1 S1                 0.0000
     15 ****        -3.0980   2.4955   0.6487 C.2            1 S1                 0.0000
     16 ****        -4.1114   2.8684   1.2349 O.2            1 S1                 0.0000
     17 ****        -2.9653   1.3569  -0.0297 N.am           1 S1                 0.0000
     18 ****         1.0007  -3.6221  -2.4325 H              1 S1                 0.0000
     19 ****         0.9734  -2.0723  -3.2699 H              1 S1                 0.0000
     20 ****        -0.5365  -2.8490  -2.7959 H              1 S1                 0.0000
     21 ****         0.0559  -2.5880  -0.4048 H              1 S1                 0.0000
     22 ****         2.5448  -2.6215  -0.6617 H              1 S1                 0.0000
     23 ****         2.5076  -1.0318  -1.3880 H              1 S1                 0.0000
     24 ****         1.6441  -2.7671   1.9437 H              1 S1                 0.0000
     25 ****         1.9475  -0.8904   3.9018 H              1 S1                 0.0000
     26 ****         2.5108   1.4159   2.4717 H              1 S1                 0.0000
     27 ****        -0.0052  -0.1069  -2.0532 H              1 S1                 0.0000
     28 ****        -1.7542   1.3385  -1.7164 H              1 S1                 0.0000
     29 ****        -0.1579   1.9226   0.7916 H              1 S1                 0.0000
     30 ****        -0.1637   2.7888  -0.7344 H              1 S1                 0.0000
     31 ****        -1.5104   3.6238   1.6085 H              1 S1                 0.0000
     32 ****        -1.9431   4.1714  -0.0228 H              1 S1                 0.0000
     33 ****        -3.6966   0.6667  -0.1208 H              1 S1                 0.0000
     34 ****         2.5285   0.8844   0.0698 LP             1 S1                 0.0000
     35 ****        -0.9572  -1.6874   0.8959 LP             1 S1                 0.0000
     36 ****        -2.0231  -0.3951   1.3360 LP             1 S1                 0.0000
     37 ****        -4.1144   3.7416   1.7222 LP             1 S1                 0.0000
     38 ****        -4.9331   2.2986   1.2247 LP             1 S1                 0.0000
@<TRIPOS>BOND
    1    1    2 1     
    2    1   18 1     
    3    1   19 1     
    4    1   20 1     
    5    2    3 1     
    6    2    9 1     
    7    2   21 1     
    8    3    4 1     
    9    3   22 1     
   10    3   23 1     
   11    4    8 1     
   12    4    5 1     
   13    5    6 2     
   14    5   24 1     
   15    6    7 1     
   16    6   25 1     
   17    7    8 2     
   18    7   26 1     
   19    9   10 am    
   20    9   27 1     
   21   10   11 2     
   22   10   12 1     
   23   12   17 1     
   24   12   13 1     
   25   12   28 1     
   26   13   14 1     
   27   13   29 1     
   28   13   30 1     
   29   14   15 1     
   30   14   31 1     
   31   14   32 1     
   32   15   16 2     
   33   15   17 am    
   34   17   33 1     
   35    8   34 1     
   36   11   35 1     
   37   11   36 1     
   38   16   37 1     
   39   16   38 1     
@<TRIPOS>SUBSTRUCTURE
      1 S1             1
@<TRIPOS>SET
LONE_PAIRS      STATIC     ATOMS    <user>   **** ""
5 34 35 36 37 38
DONOR_HYDROGENS      STATIC     ATOMS    <user>   **** ""
2 27 33
ATOM$BLUE        STATIC     ATOMS    COLORGROUP SYSTEM
5 34 35 36 37 38
ATOM$RED        STATIC     ATOMS    COLORGROUP SYSTEM
2 27 33
