AV-unprocessed.smi:1757|AV-procd|sdf|7076|dock5
  -GOLD-   22720 8293D 1   1.00000     0.00000
 Structure written by MMmdl.
 40 41  0  0  0  0  0  0  0  0  2 V2000
  147.2724  137.3746  154.5076 C   0  0  0  0  0  0  0  0  0  0  0  0
  148.7264  137.1053  154.5278 N   0  3  2  0  0  0  0  0  0  0  0  0
  149.1218  136.2166  155.6486 C   0  0  0  0  0  0  0  0  0  0  0  0
  150.6139  135.8469  155.5620 C   0  0  0  0  0  0  0  0  0  0  0  0
  151.5170  137.0920  155.4944 C   0  0  2  0  0  0  0  0  0  0  0  0
  151.5428  137.7826  156.7846 N   0  0  0  0  0  0  0  0  0  0  0  0
  152.0182  139.0163  157.0106 C   0  0  0  0  0  0  0  0  0  0  0  0
  152.4928  139.7327  156.1301 O   0  0  0  0  0  0  0  0  0  0  0  0
  151.9207  139.3330  158.3150 N   0  0  0  0  0  0  0  0  0  0  0  0
  152.2911  140.5187  158.9718 C   0  0  0  0  0  0  0  0  0  0  0  0
  151.6510  141.7104  158.8434 C   0  0  0  0  0  0  0  0  0  0  0  0
  152.0858  142.8988  159.5602 C   0  0  0  0  0  0  0  0  0  0  0  0
  151.3903  144.2425  159.4101 C   0  0  0  0  0  0  0  0  0  0  0  0
  151.8777  144.8970  158.3562 F   0  0  0  0  0  0  0  0  0  0  0  0
  150.0836  144.0658  159.2155 F   0  0  0  0  0  0  0  0  0  0  0  0
  151.5536  145.0069  160.4900 F   0  0  0  0  0  0  0  0  0  0  0  0
  153.1512  142.7565  160.3688 C   0  0  0  0  0  0  0  0  0  0  0  0
  153.8065  141.5320  160.5158 N   0  0  0  0  0  0  0  0  0  0  0  0
  153.4483  140.3975  159.8742 C   0  0  0  0  0  0  0  0  0  0  0  0
  154.0744  139.3543  160.0595 O   0  0  0  0  0  0  0  0  0  0  0  0
  151.0347  138.0370  154.3789 C   0  0  0  0  0  0  0  0  0  0  0  0
  149.5322  138.3512  154.4954 C   0  0  0  0  0  0  0  0  0  0  0  0
  154.5960  141.5062  161.1449 H   0  0  0  0  0  0  0  0  0  0  0  0
  146.9633  137.9258  155.3967 H   0  0  0  0  0  0  0  0  0  0  0  0
  146.7079  136.4423  154.4691 H   0  0  0  0  0  0  0  0  0  0  0  0
  147.0022  137.9617  153.6292 H   0  0  0  0  0  0  0  0  0  0  0  0
  148.9059  136.7069  156.5993 H   0  0  0  0  0  0  0  0  0  0  0  0
  148.5222  135.3060  155.6207 H   0  0  0  0  0  0  0  0  0  0  0  0
  150.8955  135.2200  156.4090 H   0  0  0  0  0  0  0  0  0  0  0  0
  150.7767  135.2398  154.6706 H   0  0  0  0  0  0  0  0  0  0  0  0
  152.5241  136.7596  155.2374 H   0  0  0  0  0  0  0  0  0  0  0  0
  151.1766  137.2741  157.5758 H   0  0  0  0  0  0  0  0  0  0  0  0
  151.5740  138.6095  158.9278 H   0  0  0  0  0  0  0  0  0  0  0  0
  150.7828  141.8039  158.2124 H   0  0  0  0  0  0  0  0  0  0  0  0
  153.5770  143.5580  160.9548 H   0  0  0  0  0  0  0  0  0  0  0  0
  151.6142  138.9610  154.3885 H   0  0  0  0  0  0  0  0  0  0  0  0
  151.2249  137.5714  153.4111 H   0  0  0  0  0  0  0  0  0  0  0  0
  149.2241  138.9627  153.6464 H   0  0  0  0  0  0  0  0  0  0  0  0
  149.3356  138.9381  155.3941 H   0  0  0  0  0  0  0  0  0  0  0  0
  148.9357  136.6042  153.6758 H   0  0  0  0  0  0  0  0  0  0  0  0
  1  2  1  0  0  0  0
  1 24  1  0  0  0  0
  1 25  1  0  0  0  0
  1 26  1  0  0  0  0
  2 22  1  0  0  0  0
  2  3  1  0  0  0  0
  2 40  1  0  0  0  0
  3  4  1  0  0  0  0
  3 27  1  0  0  0  0
  3 28  1  0  0  0  0
  4  5  1  0  0  0  0
  4 29  1  0  0  0  0
  4 30  1  0  0  0  0
  5  6  1  0  0  0  0
  5 21  1  0  0  0  0
  5 31  1  0  0  0  0
  6  7  1  0  0  0  0
  6 32  1  0  0  0  0
  7  8  2  0  0  0  0
  7  9  1  0  0  0  0
  9 10  1  0  0  0  0
  9 33  1  0  0  0  0
 10 19  1  0  0  0  0
 10 11  2  0  0  0  0
 11 12  1  0  0  0  0
 11 34  1  0  0  0  0
 12 13  1  0  0  0  0
 12 17  2  0  0  0  0
 13 14  1  0  0  0  0
 13 15  1  0  0  0  0
 13 16  1  0  0  0  0
 17 18  1  0  0  0  0
 17 35  1  0  0  0  0
 18 23  1  0  0  0  0
 18 19  1  0  0  0  0
 19 20  2  0  0  0  0
 21 22  1  0  0  0  0
 21 36  1  0  0  0  0
 21 37  1  0  0  0  0
 22 38  1  0  0  0  0
 22 39  1  0  0  0  0
M  CHG  1   2   1
M  END
> <s_m_source_file>
AV-unprocessed.smi

> <i_m_source_file_index>
1757

> <i_lp_mmshare_version>
43012

> <i_f3d_flags>
0

> <s_epik_input>
W0NIM11OMVtDSDJdW0NIMl1bQ0hdKFtDSDJdW0NIMl0xKVtOSF1DKD1PKVtOSF1jMltjSF1jKEMoRikoRilGKVtjSF1bbkhdYzI9Tw==

> <s_epik_cmdline>
J2VwaWtfcHl0aG9uJywgJy1waCcsICc3LjAnLCAnLXRuJywgJzgnLCAnLW1hJywgJzIwMCcsICctbWV0YWxfYmluZGluZycsICctaW1hZScsICc8aW5maWxlLm1hZT4nLCAnLW9tYWUnLCAnPG91dGZpbGUubWFlPic=

> <r_lp_tautomer_probability>
1

> <r_epik_Ionization_Penalty>
0.00859077

> <r_epik_Ionization_Penalty_Charging>
0.00857233

> <r_epik_Ionization_Penalty_Neutral>
1.84472e-05

> <r_epik_State_Penalty>
-0

> <r_epik_Charging_Adjusted_Penalty>
0.00857233

> <i_epik_Tot_Q>
1

> <i_epik_Tot_abs_Q>
1

> <r_epik_Metal_State_Penalty>
0.377538

> <b_epik_Metal_Only>
0

> <s_lp_Force_Field>
OPLS_2005

> <r_lp_Energy>
26.4268

> <b_lp_Chiralities_Consistent>
1

> <s_lp_Variant>
AV-unprocessed.smi:1757-2

> <Gold.Version>
5.8.1

> <Gold.Id.Protein>
6NUR|6NUR_protein|mol2

> <Gold.PLP.Fitness>
49.0268

> <Gold.PLP.PLP>
-43.8481

> <Gold.PLP.part.hbond>
-2.0000

> <Gold.PLP.part.metal>
0.0000

> <Gold.PLP.part.buried>
-6.4178

> <Gold.PLP.part.nonpolar>
-35.6926

> <Gold.PLP.part.repulsive>
0.1730

> <Gold.PLP.ligand.clash>
0.0000

> <Gold.PLP.ligand.torsion>
1.9148

> <Gold.PLP.Chemscore.Hbond>
3.0000

> <Gold.PLP.Chemscore.CHOScore>
0.0000

> <Gold.PLP.Chemscore.Metal>
0.0000

> <Gold.Chemscore.Hbonds>
donor molecule, donor type, donor heavy atom, donor atom, acceptor molecule, acceptor atom, score
      L1  H     2    40       P1  7948  2.00
      P1  H  7997  8008       L1     8  1.00

> <Gold.PLP.Chemscore.Internal.Correction>
0.0082

> <Gold.Rescore>
     Score         DG    S(hbond)    S(metal)    S(lipo)     H(rot)  DE(clash)    DE(int)     intcor
     17.40     -18.89       1.99        0.00      79.64       1.00       0.71       0.78       ----

> <Gold.Chemscore.Fitness>
17.3980

> <Gold.Chemscore.DG>
-18.8885

> <Gold.Chemscore.ZeroCoef>
-5.4800

> <Gold.Chemscore.Hbond>
1.9912

> <Gold.Chemscore.Metal>
0.0000

> <Gold.Chemscore.Lipo>
79.6389

> <Gold.Chemscore.Internal_Hbond>
0.0000

> <Gold.Chemscore.DEClash>
0.7084

> <Gold.Chemscore.DEInternal>
0.7821

> <Gold.Chemscore.Rot>
1.0000

> <Gold.Chemscore.Internal.Correction>
   9.000000E+99

> <Gold.Chemscore.Hbonds>
donor molecule, donor type, donor heavy atom, donor atom, acceptor molecule, acceptor atom, score
      L1  H     2    40       P1  7948  0.99
      P1  H  7997  8008       L1     8  0.74

> <Gold.Chemscore.Hbond.Weighted>
-6.6507

> <Gold.Chemscore.Metal.Weighted>
-0.0000

> <Gold.Chemscore.Lipo.Weighted>
-9.3178

> <Gold.Chemscore.Internal_Hbond.Weighted>
0.0000

> <Gold.Chemscore.DEClash.Weighted>
0.7084

> <Gold.Chemscore.DEInternal.Weighted>
0.7821

> <Gold.Chemscore.Rot.Weighted>
2.5600

> <Gold.Chemscore.Internal.Correction.Weighted>
   9.000000E+99

> <Gold.Protein.RotatedTorsions>
[ 6907 6896 6895 6894 ] final -148.99 input  -60.11 | X-H torsion
[ 7974 7965 7964 7962 ] final   22.30 input  175.53 | X-H torsion
[ 8008 7997 7996 7995 ] final  -53.81 input   59.86 | X-H torsion
[ 10167 10162 10161 10158 ] final   77.06 input  -65.29 | X-H torsion
[ 10718 10713 10712 10709 ] final  -65.88 input   66.30 | X-H torsion
[ 10763 10752 10751 10750 ] final   94.94 input  -60.55 | X-H torsion
[ 11005 11000 10999 10996 ] final  -83.56 input  -57.11 | X-H torsion

> <Gold.Protein.ActiveResidues>
 VAL166  LYS551  ARG553  GLY616  TRP617  ASP618  TYR619  PRO620  LYS621  CYS622 
 ASP623  PHE694  ASN695  SER759  ASP760  ASP761  ALA762  ILE779  LEU786  VAL792 
 PHE793  MET794  SER795  GLU796  ALA797  LYS798  CYS799  TRP800  GLU811  SER814 

> <Gold.Protein.RotatedAtoms>
  151.1777  133.4744  159.2593 H   0  0  0  0  0  0  0  0  0  0  0  0  # atno 6907 bound_to 6896
  151.1290  135.0120  159.8584 H   0  0  0  0  0  0  0  0  0  0  0  0  # atno 6908 bound_to 6896
  152.5459  134.1682  159.8639 H   0  0  0  0  0  0  0  0  0  0  0  0  # atno 6909 bound_to 6896
  146.2035  139.7905  142.8744 H   0  0  0  0  0  0  0  0  0  0  0  0  # atno 7974 bound_to 7965
  154.4144  140.1191  156.5214 H   0  0  0  0  0  0  0  0  0  0  0  0  # atno 8008 bound_to 7997
  155.6699  140.3496  155.4795 H   0  0  0  0  0  0  0  0  0  0  0  0  # atno 8009 bound_to 7997
  155.9642  140.1129  157.0859 H   0  0  0  0  0  0  0  0  0  0  0  0  # atno 8010 bound_to 7997
  139.9855  144.5795  150.7863 H   0  0  0  0  0  0  0  0  0  0  0  0  # atno 10167 bound_to 10162
  156.0644  130.4254  150.1628 H   0  0  0  0  0  0  0  0  0  0  0  0  # atno 10718 bound_to 10713
  153.2474  135.4272  155.0762 H   0  0  0  0  0  0  0  0  0  0  0  0  # atno 10763 bound_to 10752
  154.8367  135.3417  154.6562 H   0  0  0  0  0  0  0  0  0  0  0  0  # atno 10764 bound_to 10752
  153.6984  135.7030  153.5127 H   0  0  0  0  0  0  0  0  0  0  0  0  # atno 10765 bound_to 10752
  141.1657  133.7300  156.8738 H   0  0  0  0  0  0  0  0  0  0  0  0  # atno 11005 bound_to 11000
  145.3403  141.0286  143.3396 LP  0  0  0  0  0  0  0  0  0  0  0  0  # atno 17320 bound_to 7965
  144.8737  139.5002  143.6756 LP  0  0  0  0  0  0  0  0  0  0  0  0  # atno 17321 bound_to 7965
  140.7473  143.2905  151.3344 LP  0  0  0  0  0  0  0  0  0  0  0  0  # atno 17342 bound_to 10162
  139.6378  144.0597  152.2530 LP  0  0  0  0  0  0  0  0  0  0  0  0  # atno 17343 bound_to 10162
  156.9691  130.9829  151.3463 LP  0  0  0  0  0  0  0  0  0  0  0  0  # atno 17370 bound_to 10713
  157.5675  130.8288  149.8347 LP  0  0  0  0  0  0  0  0  0  0  0  0  # atno 17371 bound_to 10713
  140.1763  134.9065  157.2894 LP  0  0  0  0  0  0  0  0  0  0  0  0  # atno 17394 bound_to 11000
  140.2445  134.3756  155.7467 LP  0  0  0  0  0  0  0  0  0  0  0  0  # atno 17395 bound_to 11000

$$$$
