AV-unprocessed.smi:47|AV-procd|sdf|438|dock8
  -GOLD-   2262016303D 1   1.00000     0.00000
 Structure written by MMmdl.
 31 33  0  0  0  0  0  0  0  0  1 V2000
  152.3231  136.1726  156.1853 O   0  0  0  0  0  0  0  0  0  0  0  0
  151.5658  137.3633  156.1450 C   0  0  2  0  0  0  0  0  0  0  0  0
  150.4909  137.3327  155.0665 C   0  0  0  0  0  0  0  0  0  0  0  0
  150.1593  138.7328  154.8451 N   0  0  0  0  0  0  0  0  0  0  0  0
  151.3767  139.5220  155.0691 C   0  0  1  0  0  0  0  0  0  0  0  0
  151.1253  140.7504  155.8892 C   0  0  0  0  0  0  0  0  0  0  0  0
  150.3534  141.7296  155.4288 N   0  0  0  0  0  0  0  0  0  0  0  0
  150.4356  142.6379  156.4226 N   0  0  0  0  0  0  0  0  0  0  0  0
  151.2396  142.1915  157.3961 C   0  0  0  0  0  0  0  0  0  0  0  0
  151.5621  142.9308  158.6185 C   0  0  0  0  0  0  0  0  0  0  0  0
  152.1725  142.2757  159.7133 C   0  0  0  0  0  0  0  0  0  0  0  0
  152.4781  142.9857  160.8908 C   0  0  0  0  0  0  0  0  0  0  0  0
  152.1775  144.3574  160.9859 C   0  0  0  0  0  0  0  0  0  0  0  0
  151.5720  145.0190  159.9015 C   0  0  0  0  0  0  0  0  0  0  0  0
  151.2658  144.3099  158.7238 C   0  0  0  0  0  0  0  0  0  0  0  0
  151.7162  140.9823  157.1004 N   0  0  0  0  0  0  0  0  0  0  0  0
  152.3930  138.5809  155.7439 C   0  0  0  0  0  0  0  0  0  0  0  0
  151.1057  137.5339  157.1197 H   0  0  0  0  0  0  0  0  0  0  0  0
  151.7828  139.8331  154.1055 H   0  0  0  0  0  0  0  0  0  0  0  0
  149.9527  143.5242  156.3942 H   0  0  0  0  0  0  0  0  0  0  0  0
  152.1497  135.7344  157.0046 H   0  0  0  0  0  0  0  0  0  0  0  0
  150.8955  136.9027  154.1491 H   0  0  0  0  0  0  0  0  0  0  0  0
  149.6183  136.7468  155.3558 H   0  0  0  0  0  0  0  0  0  0  0  0
  149.8423  138.8495  153.8882 H   0  0  0  0  0  0  0  0  0  0  0  0
  152.4111  141.2235  159.6627 H   0  0  0  0  0  0  0  0  0  0  0  0
  152.9430  142.4768  161.7223 H   0  0  0  0  0  0  0  0  0  0  0  0
  152.4114  144.9015  161.8891 H   0  0  0  0  0  0  0  0  0  0  0  0
  151.3408  146.0717  159.9724 H   0  0  0  0  0  0  0  0  0  0  0  0
  150.8005  144.8370  157.9038 H   0  0  0  0  0  0  0  0  0  0  0  0
  152.9162  139.0306  156.5891 H   0  0  0  0  0  0  0  0  0  0  0  0
  153.1474  138.2913  155.0106 H   0  0  0  0  0  0  0  0  0  0  0  0
  1  2  1  0  0  0  0
  1 21  1  0  0  0  0
  2 18  1  0  0  0  0
  2 17  1  0  0  0  0
  2  3  1  0  0  0  0
  3  4  1  0  0  0  0
  3 22  1  0  0  0  0
  3 23  1  0  0  0  0
  4  5  1  0  0  0  0
  4 24  1  0  0  0  0
  5 19  1  0  0  0  0
  5  6  1  0  0  0  0
  5 17  1  0  0  0  0
  6 16  1  0  0  0  0
  6  7  2  0  0  0  0
  7  8  1  0  0  0  0
  8 20  1  0  0  0  0
  8  9  1  0  0  0  0
  9 10  1  0  0  0  0
  9 16  2  0  0  0  0
 10 15  1  0  0  0  0
 10 11  2  0  0  0  0
 11 12  1  0  0  0  0
 11 25  1  0  0  0  0
 12 13  2  0  0  0  0
 12 26  1  0  0  0  0
 13 14  1  0  0  0  0
 13 27  1  0  0  0  0
 14 15  2  0  0  0  0
 14 28  1  0  0  0  0
 15 29  1  0  0  0  0
 17 30  1  0  0  0  0
 17 31  1  0  0  0  0
M  END
> <s_m_source_file>
AV-unprocessed.smi

> <i_m_source_file_index>
47

> <i_lp_mmshare_version>
43012

> <i_f3d_flags>
0

> <s_epik_input>
W09IXVtDQEhdMVtDSDJdW05IXVtDQEBIXShbQ0gyXTEpYzJuW25IXWMobjIpLWMzW2NIXVtjSF1bY0hdW2NIXVtjSF0z

> <s_epik_cmdline>
J2VwaWtfcHl0aG9uJywgJy1waCcsICc3LjAnLCAnLXRuJywgJzgnLCAnLW1hJywgJzIwMCcsICctbWV0YWxfYmluZGluZycsICctaW1hZScsICc8aW5maWxlLm1hZT4nLCAnLW9tYWUnLCAnPG91dGZpbGUubWFlPic=

> <r_epik_Ionization_Penalty>
1.65981

> <r_epik_Ionization_Penalty_Charging>
0

> <r_epik_Ionization_Penalty_Neutral>
1.65981

> <r_epik_State_Penalty>
2.0492

> <r_epik_Charging_Adjusted_Penalty>
2.0492

> <i_epik_Tot_Q>
0

> <i_epik_Tot_abs_Q>
0

> <r_epik_Metal_State_Penalty>
2.54641

> <b_epik_Metal_Only>
0

> <s_lp_Force_Field>
OPLS_2005

> <r_lp_Energy>
25.8544

> <b_lp_Chiralities_Consistent>
1

> <s_lp_Variant>
AV-unprocessed.smi:47-16

> <Gold.Version>
5.8.1

> <Gold.Id.Protein>
6NUR|6NUR_protein|mol2

> <Gold.PLP.Fitness>
42.4196

> <Gold.PLP.PLP>
-36.6343

> <Gold.PLP.part.hbond>
-2.7079

> <Gold.PLP.part.metal>
0.0000

> <Gold.PLP.part.buried>
-3.0113

> <Gold.PLP.part.nonpolar>
-30.5218

> <Gold.PLP.part.repulsive>
0.1923

> <Gold.PLP.ligand.clash>
0.0000

> <Gold.PLP.ligand.torsion>
0.1153

> <Gold.PLP.Chemscore.Hbond>
2.0000

> <Gold.PLP.Chemscore.CHOScore>
0.0000

> <Gold.PLP.Chemscore.Metal>
0.0000

> <Gold.Chemscore.Hbonds>
donor molecule, donor type, donor heavy atom, donor atom, acceptor molecule, acceptor atom, score
      L1  H     8    20       P1  8028  1.00
      P1  H 10752 10764       L1     1  1.00

> <Gold.PLP.Chemscore.Internal.Correction>
0.0159

> <Gold.Rescore>
     Score         DG    S(hbond)    S(metal)    S(lipo)     H(rot)  DE(clash)    DE(int)     intcor
     18.85     -18.88       1.98        0.00      90.49       1.48       0.02       0.02       ----

> <Gold.Chemscore.Fitness>
18.8462

> <Gold.Chemscore.DG>
-18.8835

> <Gold.Chemscore.ZeroCoef>
-5.4800

> <Gold.Chemscore.Hbond>
1.9764

> <Gold.Chemscore.Metal>
0.0000

> <Gold.Chemscore.Lipo>
90.4932

> <Gold.Chemscore.Internal_Hbond>
0.0000

> <Gold.Chemscore.DEClash>
0.0178

> <Gold.Chemscore.DEInternal>
0.0195

> <Gold.Chemscore.Rot>
1.4786

> <Gold.Chemscore.Internal.Correction>
   9.000000E+99

> <Gold.Chemscore.Hbonds>
donor molecule, donor type, donor heavy atom, donor atom, acceptor molecule, acceptor atom, score
      L1  H     8    20       P1  8028  0.98
      P1  H 10752 10764       L1     1  0.89

> <Gold.Chemscore.Hbond.Weighted>
-6.6011

> <Gold.Chemscore.Metal.Weighted>
-0.0000

> <Gold.Chemscore.Lipo.Weighted>
-10.5877

> <Gold.Chemscore.Internal_Hbond.Weighted>
0.0000

> <Gold.Chemscore.DEClash.Weighted>
0.0178

> <Gold.Chemscore.DEInternal.Weighted>
0.0195

> <Gold.Chemscore.Rot.Weighted>
3.7853

> <Gold.Chemscore.Internal.Correction.Weighted>
   9.000000E+99

> <Gold.Protein.RotatedTorsions>
[ 6907 6896 6895 6894 ] final  -21.04 input  -60.11 | X-H torsion
[ 7974 7965 7964 7962 ] final  -57.79 input  175.53 | X-H torsion
[ 8008 7997 7996 7995 ] final    1.88 input   59.86 | X-H torsion
[ 10167 10162 10161 10158 ] final  -61.04 input  -65.29 | X-H torsion
[ 10718 10713 10712 10709 ] final -131.61 input   66.30 | X-H torsion
[ 10763 10752 10751 10750 ] final  -16.22 input  -60.55 | X-H torsion
[ 11005 11000 10999 10996 ] final -149.26 input  -57.11 | X-H torsion

> <Gold.Protein.ActiveResidues>
 VAL166  LYS551  ARG553  GLY616  TRP617  ASP618  TYR619  PRO620  LYS621  CYS622 
 ASP623  PHE694  ASN695  SER759  ASP760  ASP761  ALA762  ILE779  LEU786  VAL792 
 PHE793  MET794  SER795  GLU796  ALA797  LYS798  CYS799  TRP800  GLU811  SER814 

> <Gold.Protein.RotatedAtoms>
  151.2392  135.0582  159.9017 H   0  0  0  0  0  0  0  0  0  0  0  0  # atno 6907 bound_to 6896
  152.5395  134.0453  159.8096 H   0  0  0  0  0  0  0  0  0  0  0  0  # atno 6908 bound_to 6896
  151.0644  133.5468  159.2663 H   0  0  0  0  0  0  0  0  0  0  0  0  # atno 6909 bound_to 6896
  145.8469  140.8379  143.0005 H   0  0  0  0  0  0  0  0  0  0  0  0  # atno 7974 bound_to 7965
  154.6850  140.2641  155.6870 H   0  0  0  0  0  0  0  0  0  0  0  0  # atno 8008 bound_to 7997
  156.2711  140.2802  156.1330 H   0  0  0  0  0  0  0  0  0  0  0  0  # atno 8009 bound_to 7997
  155.0978  140.0374  157.2678 H   0  0  0  0  0  0  0  0  0  0  0  0  # atno 8010 bound_to 7997
  140.6032  143.2366  151.5881 H   0  0  0  0  0  0  0  0  0  0  0  0  # atno 10167 bound_to 10162
  156.2261  130.7009  151.0808 H   0  0  0  0  0  0  0  0  0  0  0  0  # atno 10718 bound_to 10713
  153.5553  135.7011  153.5572 H   0  0  0  0  0  0  0  0  0  0  0  0  # atno 10763 bound_to 10752
  153.3478  135.4003  155.1622 H   0  0  0  0  0  0  0  0  0  0  0  0  # atno 10764 bound_to 10752
  154.8655  135.3758  154.5067 H   0  0  0  0  0  0  0  0  0  0  0  0  # atno 10765 bound_to 10752
  140.7526  134.3389  157.5122 H   0  0  0  0  0  0  0  0  0  0  0  0  # atno 11005 bound_to 11000
  144.6731  140.0896  143.7466 LP  0  0  0  0  0  0  0  0  0  0  0  0  # atno 17320 bound_to 7965
  145.9401  139.2663  143.1273 LP  0  0  0  0  0  0  0  0  0  0  0  0  # atno 17321 bound_to 7965
  139.5306  144.2928  152.1138 LP  0  0  0  0  0  0  0  0  0  0  0  0  # atno 17342 bound_to 10162
  140.2112  144.4560  150.6385 LP  0  0  0  0  0  0  0  0  0  0  0  0  # atno 17343 bound_to 10162
  157.7111  131.0733  150.6497 LP  0  0  0  0  0  0  0  0  0  0  0  0  # atno 17370 bound_to 10713
  156.6562  130.4499  149.5703 LP  0  0  0  0  0  0  0  0  0  0  0  0  # atno 17371 bound_to 10713
  139.8785  134.9151  156.3124 LP  0  0  0  0  0  0  0  0  0  0  0  0  # atno 17394 bound_to 11000
  140.9737  133.7311  156.0571 LP  0  0  0  0  0  0  0  0  0  0  0  0  # atno 17395 bound_to 11000

$$$$
