AV-unprocessed.smi:1457|AV-procd|sdf|5920|dock1
  -GOLD-   22720 6 03D 1   1.00000     0.00000
 Structure written by MMmdl.
 36 37  0  0  0  0  0  0  0  0  2 V2000
  143.8019  143.1393  154.4937 C   0  0  0  0  0  0  0  0  0  0  0  0
  144.8368  142.1048  154.2794 N   0  3  2  0  0  0  0  0  0  0  0  0
  145.2543  141.4528  155.5457 C   0  0  0  0  0  0  0  0  0  0  0  0
  146.2322  140.2941  155.2769 C   0  0  0  0  0  0  0  0  0  0  0  0
  147.4543  140.7468  154.4581 C   0  0  2  0  0  0  0  0  0  0  0  0
  148.3346  141.5929  155.2652 N   0  0  0  0  0  0  0  0  0  0  0  0
  149.0680  141.1924  156.3140 C   0  0  0  0  0  0  0  0  0  0  0  0
  149.0828  140.0363  156.7353 O   0  0  0  0  0  0  0  0  0  0  0  0
  149.7541  142.2195  156.8439 N   0  0  0  0  0  0  0  0  0  0  0  0
  150.6767  142.2013  157.9247 C   0  0  0  0  0  0  0  0  0  0  0  0
  151.5708  143.2577  158.2255 C   0  0  0  0  0  0  0  0  0  0  0  0
  152.4197  143.1324  159.3418 C   0  0  0  0  0  0  0  0  0  0  0  0
  152.3405  141.9610  160.1195 C   0  0  0  0  0  0  0  0  0  0  0  0
  151.4853  140.9517  159.8519 N   0  0  0  0  0  0  0  0  0  0  0  0
  150.6733  141.0794  158.7808 C   0  0  0  0  0  0  0  0  0  0  0  0
  146.9952  141.4893  153.1901 C   0  0  0  0  0  0  0  0  0  0  0  0
  145.9964  142.6172  153.5075 C   0  0  0  0  0  0  0  0  0  0  0  0
  144.1863  143.9587  155.1027 H   0  0  0  0  0  0  0  0  0  0  0  0
  142.9330  142.7161  154.9990 H   0  0  0  0  0  0  0  0  0  0  0  0
  143.4647  143.5499  153.5414 H   0  0  0  0  0  0  0  0  0  0  0  0
  145.7124  142.1915  156.2055 H   0  0  0  0  0  0  0  0  0  0  0  0
  144.3750  141.0695  156.0650 H   0  0  0  0  0  0  0  0  0  0  0  0
  146.5524  139.8462  156.2185 H   0  0  0  0  0  0  0  0  0  0  0  0
  145.7090  139.5080  154.7310 H   0  0  0  0  0  0  0  0  0  0  0  0
  147.9961  139.8539  154.1418 H   0  0  0  0  0  0  0  0  0  0  0  0
  148.3888  142.5665  155.0042 H   0  0  0  0  0  0  0  0  0  0  0  0
  149.5655  143.1312  156.4537 H   0  0  0  0  0  0  0  0  0  0  0  0
  151.6115  144.1615  157.6378 H   0  0  0  0  0  0  0  0  0  0  0  0
  153.1124  143.9200  159.5995 H   0  0  0  0  0  0  0  0  0  0  0  0
  152.9763  141.8348  160.9833 H   0  0  0  0  0  0  0  0  0  0  0  0
  149.9992  140.2546  158.6004 H   0  0  0  0  0  0  0  0  0  0  0  0
  147.8563  141.8898  152.6533 H   0  0  0  0  0  0  0  0  0  0  0  0
  146.5220  140.7771  152.5127 H   0  0  0  0  0  0  0  0  0  0  0  0
  145.6453  143.0611  152.5752 H   0  0  0  0  0  0  0  0  0  0  0  0
  146.4886  143.4124  154.0696 H   0  0  0  0  0  0  0  0  0  0  0  0
  144.4082  141.3861  153.7132 H   0  0  0  0  0  0  0  0  0  0  0  0
  1  2  1  0  0  0  0
  1 18  1  0  0  0  0
  1 19  1  0  0  0  0
  1 20  1  0  0  0  0
  2 17  1  0  0  0  0
  2  3  1  0  0  0  0
  2 36  1  0  0  0  0
  3  4  1  0  0  0  0
  3 21  1  0  0  0  0
  3 22  1  0  0  0  0
  4  5  1  0  0  0  0
  4 23  1  0  0  0  0
  4 24  1  0  0  0  0
  5  6  1  0  0  0  0
  5 16  1  0  0  0  0
  5 25  1  0  0  0  0
  6  7  1  0  0  0  0
  6 26  1  0  0  0  0
  7  8  2  0  0  0  0
  7  9  1  0  0  0  0
  9 10  1  0  0  0  0
  9 27  1  0  0  0  0
 10 15  1  0  0  0  0
 10 11  2  0  0  0  0
 11 12  1  0  0  0  0
 11 28  1  0  0  0  0
 12 13  2  0  0  0  0
 12 29  1  0  0  0  0
 13 14  1  0  0  0  0
 13 30  1  0  0  0  0
 14 15  2  0  0  0  0
 15 31  1  0  0  0  0
 16 17  1  0  0  0  0
 16 32  1  0  0  0  0
 16 33  1  0  0  0  0
 17 34  1  0  0  0  0
 17 35  1  0  0  0  0
M  CHG  1   2   1
M  END
> <s_m_source_file>
AV-unprocessed.smi

> <i_m_source_file_index>
1457

> <i_lp_mmshare_version>
43012

> <i_f3d_flags>
0

> <s_epik_input>
W0NIM11OMVtDSDJdW0NIMl1bQ0hdKFtDSDJdW0NIMl0xKVtOSF1DKD1PKVtOSF1jMltjSF1bY0hdW2NIXW5bY0hdMg==

> <s_epik_cmdline>
J2VwaWtfcHl0aG9uJywgJy1waCcsICc3LjAnLCAnLXRuJywgJzgnLCAnLW1hJywgJzIwMCcsICctbWV0YWxfYmluZGluZycsICctaW1hZScsICc8aW5maWxlLm1hZT4nLCAnLW9tYWUnLCAnPG91dGZpbGUubWFlPic=

> <r_lp_tautomer_probability>
1

> <r_epik_Ionization_Penalty>
0.00766642

> <r_epik_Ionization_Penalty_Charging>
0.00366825

> <r_epik_Ionization_Penalty_Neutral>
0.00399817

> <r_epik_State_Penalty>
-0

> <r_epik_Charging_Adjusted_Penalty>
0.00366825

> <i_epik_Tot_Q>
1

> <i_epik_Tot_abs_Q>
1

> <r_epik_Metal_State_Penalty>
-0

> <b_epik_Metal_Only>
0

> <s_lp_Force_Field>
OPLS_2005

> <r_lp_Energy>
18.514

> <b_lp_Chiralities_Consistent>
1

> <s_lp_Variant>
AV-unprocessed.smi:1457-2

> <Gold.Version>
5.8.1

> <Gold.Id.Protein>
6NUR|6NUR_protein|mol2

> <Gold.PLP.Fitness>
43.3109

> <Gold.PLP.PLP>
-31.6728

> <Gold.PLP.part.hbond>
-3.0000

> <Gold.PLP.part.metal>
0.0000

> <Gold.PLP.part.buried>
-5.1281

> <Gold.PLP.part.nonpolar>
-24.8329

> <Gold.PLP.part.repulsive>
0.2325

> <Gold.PLP.ligand.clash>
0.0000

> <Gold.PLP.ligand.torsion>
0.1445

> <Gold.PLP.Chemscore.Hbond>
3.9745

> <Gold.PLP.Chemscore.CHOScore>
0.0000

> <Gold.PLP.Chemscore.Metal>
0.0000

> <Gold.Chemscore.Hbonds>
donor molecule, donor type, donor heavy atom, donor atom, acceptor molecule, acceptor atom, score
      L1  H     2    36       P1 10175  1.80
      L1  H     6    26       P1  8028  0.34
      L1  H     9    27       P1  8028  1.00

> <Gold.PLP.Chemscore.Internal.Correction>
0.0037

> <Gold.Rescore>
     Score         DG    S(hbond)    S(metal)    S(lipo)     H(rot)  DE(clash)    DE(int)     intcor
     19.06     -21.56       2.72        0.00      81.65       1.00       1.00       1.51       ----

> <Gold.Chemscore.Fitness>
19.0593

> <Gold.Chemscore.DG>
-21.5637

> <Gold.Chemscore.ZeroCoef>
-5.4800

> <Gold.Chemscore.Hbond>
2.7217

> <Gold.Chemscore.Metal>
0.0000

> <Gold.Chemscore.Lipo>
81.6500

> <Gold.Chemscore.Internal_Hbond>
0.0000

> <Gold.Chemscore.DEClash>
0.9981

> <Gold.Chemscore.DEInternal>
1.5063

> <Gold.Chemscore.Rot>
1.0000

> <Gold.Chemscore.Internal.Correction>
   9.000000E+99

> <Gold.Chemscore.Hbonds>
donor molecule, donor type, donor heavy atom, donor atom, acceptor molecule, acceptor atom, score
      L1  H     2    36       P1 10175  0.18
      L1  H     6    26       P1  8028  0.32
      L1  H     9    27       P1  8028  1.00

> <Gold.Chemscore.Hbond.Weighted>
-9.0906

> <Gold.Chemscore.Metal.Weighted>
-0.0000

> <Gold.Chemscore.Lipo.Weighted>
-9.5530

> <Gold.Chemscore.Internal_Hbond.Weighted>
0.0000

> <Gold.Chemscore.DEClash.Weighted>
0.9981

> <Gold.Chemscore.DEInternal.Weighted>
1.5063

> <Gold.Chemscore.Rot.Weighted>
2.5600

> <Gold.Chemscore.Internal.Correction.Weighted>
   9.000000E+99

> <Gold.Protein.RotatedTorsions>
[ 6907 6896 6895 6894 ] final  145.53 input  -60.11 | X-H torsion
[ 7974 7965 7964 7962 ] final -148.36 input  175.53 | X-H torsion
[ 8008 7997 7996 7995 ] final   68.38 input   59.86 | X-H torsion
[ 10167 10162 10161 10158 ] final  -56.06 input  -65.29 | X-H torsion
[ 10718 10713 10712 10709 ] final  -41.96 input   66.30 | X-H torsion
[ 10763 10752 10751 10750 ] final   11.90 input  -60.55 | X-H torsion
[ 11005 11000 10999 10996 ] final  -98.00 input  -57.11 | X-H torsion

> <Gold.Protein.ActiveResidues>
 VAL166  LYS551  ARG553  GLY616  TRP617  ASP618  TYR619  PRO620  LYS621  CYS622 
 ASP623  PHE694  ASN695  SER759  ASP760  ASP761  ALA762  ILE779  LEU786  VAL792 
 PHE793  MET794  SER795  GLU796  ALA797  LYS798  CYS799  TRP800  GLU811  SER814 

> <Gold.Protein.RotatedAtoms>
  152.1797  133.4699  159.4951 H   0  0  0  0  0  0  0  0  0  0  0  0  # atno 6907 bound_to 6896
  150.6932  134.1849  159.4272 H   0  0  0  0  0  0  0  0  0  0  0  0  # atno 6908 bound_to 6896
  151.9759  135.0053  160.0606 H   0  0  0  0  0  0  0  0  0  0  0  0  # atno 6909 bound_to 6896
  144.8034  140.5207  143.5691 H   0  0  0  0  0  0  0  0  0  0  0  0  # atno 7974 bound_to 7965
  155.7074  140.3495  155.4959 H   0  0  0  0  0  0  0  0  0  0  0  0  # atno 8008 bound_to 7997
  155.9386  140.1097  157.1096 H   0  0  0  0  0  0  0  0  0  0  0  0  # atno 8009 bound_to 7997
  154.4098  140.1217  156.4883 H   0  0  0  0  0  0  0  0  0  0  0  0  # atno 8010 bound_to 7997
  140.6339  143.2472  151.5169 H   0  0  0  0  0  0  0  0  0  0  0  0  # atno 10167 bound_to 10162
  156.2648  130.4200  149.8503 H   0  0  0  0  0  0  0  0  0  0  0  0  # atno 10718 bound_to 10713
  153.1878  135.6837  153.8392 H   0  0  0  0  0  0  0  0  0  0  0  0  # atno 10763 bound_to 10752
  153.7702  135.3197  155.3352 H   0  0  0  0  0  0  0  0  0  0  0  0  # atno 10764 bound_to 10752
  154.8099  135.4724  154.0586 H   0  0  0  0  0  0  0  0  0  0  0  0  # atno 10765 bound_to 10752
  141.1360  133.8213  157.0782 H   0  0  0  0  0  0  0  0  0  0  0  0  # atno 11005 bound_to 11000
  145.5496  139.1476  143.3401 LP  0  0  0  0  0  0  0  0  0  0  0  0  # atno 17320 bound_to 7965
  146.2321  140.5634  142.8971 LP  0  0  0  0  0  0  0  0  0  0  0  0  # atno 17321 bound_to 7965
  139.5551  144.2297  152.1598 LP  0  0  0  0  0  0  0  0  0  0  0  0  # atno 17342 bound_to 10162
  140.1548  144.5081  150.6666 LP  0  0  0  0  0  0  0  0  0  0  0  0  # atno 17343 bound_to 10162
  156.6005  130.8544  151.3430 LP  0  0  0  0  0  0  0  0  0  0  0  0  # atno 17370 bound_to 10713
  157.7263  130.9628  150.1651 LP  0  0  0  0  0  0  0  0  0  0  0  0  # atno 17371 bound_to 10713
  140.0468  134.9826  157.1064 LP  0  0  0  0  0  0  0  0  0  0  0  0  # atno 17394 bound_to 11000
  140.4050  134.2042  155.7163 LP  0  0  0  0  0  0  0  0  0  0  0  0  # atno 17395 bound_to 11000

$$$$
