AV-unprocessed.smi:1986|AV-procd|sdf|8048|dock4
  -GOLD-   2272010243D 1   1.00000     0.00000
 Structure written by MMmdl.
 47 48  0  0  0  0  0  0  0  0  3 V2000
  150.3983  133.7311  155.8932 C   0  0  0  0  0  0  0  0  0  0  0  0
  149.5584  134.8569  155.2640 C   0  0  0  0  0  0  0  0  0  0  0  0
  148.1969  134.4283  154.6375 C   0  0  1  0  0  0  0  0  0  0  0  0
  148.4402  133.3406  153.5578 C   0  0  0  0  0  0  0  0  0  0  0  0
  147.2896  133.7852  155.7285 C   0  0  0  0  0  0  0  0  0  0  0  0
  146.9816  134.7390  156.7889 N   0  0  0  0  0  0  0  0  0  0  0  0
  147.7318  135.0197  157.8644 C   0  0  0  0  0  0  0  0  0  0  0  0
  148.8674  134.5781  158.0345 O   0  0  0  0  0  0  0  0  0  0  0  0
  147.0788  135.8991  158.9420 C   0  0  0  0  0  0  0  0  0  0  0  0
  146.8892  135.2022  160.2265 N   0  0  0  0  0  0  0  0  0  0  0  0
  146.3307  133.8581  160.1030 N   0  5  0  0  0  0  0  0  0  0  0  0
  146.0827  133.1383  161.2292 C   0  0  0  0  0  0  0  0  0  0  0  0
  145.6008  132.0088  161.2049 O   0  0  0  0  0  0  0  0  0  0  0  0
  146.4263  133.7318  162.5104 C   0  0  0  0  0  0  0  0  0  0  0  0
  146.9839  134.9556  162.5915 C   0  0  0  0  0  0  0  0  0  0  0  0
  147.2603  135.7654  161.4118 C   0  0  0  0  0  0  0  0  0  0  0  0
  147.7906  136.8738  161.4780 O   0  0  0  0  0  0  0  0  0  0  0  0
  147.4878  135.6098  154.0159 N   0  3  0  0  0  0  0  0  0  0  0  0
  146.0894  135.3572  153.5656 C   0  0  0  0  0  0  0  0  0  0  0  0
  145.5529  136.5553  152.7671 C   0  0  0  0  0  0  0  0  0  0  0  0
  145.6106  137.7240  153.5719 O   0  0  0  0  0  0  0  0  0  0  0  0
  146.9450  138.0384  153.9426 C   0  0  0  0  0  0  0  0  0  0  0  0
  147.5436  136.8913  154.7750 C   0  0  0  0  0  0  0  0  0  0  0  0
  151.3206  134.1356  156.3105 H   0  0  0  0  0  0  0  0  0  0  0  0
  150.6843  132.9769  155.1605 H   0  0  0  0  0  0  0  0  0  0  0  0
  149.8705  133.2332  156.7059 H   0  0  0  0  0  0  0  0  0  0  0  0
  149.3915  135.6038  156.0398 H   0  0  0  0  0  0  0  0  0  0  0  0
  150.1764  135.3433  154.5100 H   0  0  0  0  0  0  0  0  0  0  0  0
  148.7261  132.3867  154.0018 H   0  0  0  0  0  0  0  0  0  0  0  0
  149.2421  133.6130  152.8716 H   0  0  0  0  0  0  0  0  0  0  0  0
  147.5436  133.1534  152.9657 H   0  0  0  0  0  0  0  0  0  0  0  0
  146.3718  133.3973  155.2849 H   0  0  0  0  0  0  0  0  0  0  0  0
  147.7716  132.9197  156.1823 H   0  0  0  0  0  0  0  0  0  0  0  0
  146.0756  135.1846  156.7485 H   0  0  0  0  0  0  0  0  0  0  0  0
  147.6809  136.7978  159.0879 H   0  0  0  0  0  0  0  0  0  0  0  0
  146.1192  136.2500  158.5586 H   0  0  0  0  0  0  0  0  0  0  0  0
  146.2378  133.1758  163.4169 H   0  0  0  0  0  0  0  0  0  0  0  0
  147.2283  135.3555  163.5643 H   0  0  0  0  0  0  0  0  0  0  0  0
  146.0265  134.4742  152.9324 H   0  0  0  0  0  0  0  0  0  0  0  0
  145.4403  135.1857  154.4245 H   0  0  0  0  0  0  0  0  0  0  0  0
  146.1196  136.6974  151.8472 H   0  0  0  0  0  0  0  0  0  0  0  0
  144.5172  136.3793  152.4768 H   0  0  0  0  0  0  0  0  0  0  0  0
  147.5464  138.2295  153.0534 H   0  0  0  0  0  0  0  0  0  0  0  0
  146.9391  138.9603  154.5242 H   0  0  0  0  0  0  0  0  0  0  0  0
  146.9965  136.7988  155.7133 H   0  0  0  0  0  0  0  0  0  0  0  0
  148.5664  137.1688  155.0225 H   0  0  0  0  0  0  0  0  0  0  0  0
  148.0074  135.7923  153.1684 H   0  0  0  0  0  0  0  0  0  0  0  0
  1  2  1  0  0  0  0
  1 24  1  0  0  0  0
  1 25  1  0  0  0  0
  1 26  1  0  0  0  0
  2  3  1  0  0  0  0
  2 27  1  0  0  0  0
  2 28  1  0  0  0  0
  3  4  1  0  0  0  0
  3  5  1  0  0  0  0
  3 18  1  0  0  0  0
  4 29  1  0  0  0  0
  4 30  1  0  0  0  0
  4 31  1  0  0  0  0
  5  6  1  0  0  0  0
  5 32  1  0  0  0  0
  5 33  1  0  0  0  0
  6  7  1  0  0  0  0
  6 34  1  0  0  0  0
  7  8  2  0  0  0  0
  7  9  1  0  0  0  0
  9 35  1  0  0  0  0
  9 36  1  0  0  0  0
  9 10  1  0  0  0  0
 10 11  1  0  0  0  0
 10 16  1  0  0  0  0
 11 12  1  0  0  0  0
 12 13  2  0  0  0  0
 12 14  1  0  0  0  0
 14 37  1  0  0  0  0
 14 15  2  0  0  0  0
 15 38  1  0  0  0  0
 15 16  1  0  0  0  0
 16 17  2  0  0  0  0
 18 23  1  0  0  0  0
 18 19  1  0  0  0  0
 18 47  1  0  0  0  0
 19 20  1  0  0  0  0
 19 39  1  0  0  0  0
 19 40  1  0  0  0  0
 20 21  1  0  0  0  0
 20 41  1  0  0  0  0
 20 42  1  0  0  0  0
 21 22  1  0  0  0  0
 22 23  1  0  0  0  0
 22 43  1  0  0  0  0
 22 44  1  0  0  0  0
 23 45  1  0  0  0  0
 23 46  1  0  0  0  0
M  CHG  1  11  -1
M  CHG  1  18   1
M  END
> <s_m_source_file>
AV-unprocessed.smi

> <i_m_source_file_index>
1986

> <i_lp_mmshare_version>
43012

> <i_f3d_flags>
0

> <s_epik_input>
W0NIMl0xW0NIMl1PW0NIMl1bQ0gyXU4xW0NAQF0oW0NIM10pKFtDSDJdW0NIM10pW0NIMl1bTkhdQyg9TylbQ0gyXW4yW25IXWMoPU8pW2NIXVtjSF1jMj1P

> <s_epik_cmdline>
J2VwaWtfcHl0aG9uJywgJy1waCcsICc3LjAnLCAnLXRuJywgJzgnLCAnLW1hJywgJzIwMCcsICctbWV0YWxfYmluZGluZycsICctaW1hZScsICc8aW5maWxlLm1hZT4nLCAnLW9tYWUnLCAnPG91dGZpbGUubWFlPic=

> <r_lp_tautomer_probability>
1

> <r_epik_Ionization_Penalty>
0.604767

> <r_epik_Ionization_Penalty_Charging>
0.604766

> <r_epik_Ionization_Penalty_Neutral>
8.70177e-08

> <r_epik_State_Penalty>
0.54579

> <r_epik_Charging_Adjusted_Penalty>
1.15056

> <i_epik_Tot_Q>
0

> <i_epik_Tot_abs_Q>
2

> <r_epik_Metal_State_Penalty>
0.54579

> <b_epik_Metal_Only>
0

> <s_lp_Force_Field>
OPLS_2005

> <r_lp_Energy>
39.3648

> <b_lp_Chiralities_Consistent>
1

> <s_lp_Variant>
AV-unprocessed.smi:1986-3

> <Gold.Version>
5.8.1

> <Gold.Id.Protein>
6NUR|6NUR_protein|mol2

> <Gold.PLP.Fitness>
43.8399

> <Gold.PLP.PLP>
-30.5902

> <Gold.PLP.part.hbond>
-4.0000

> <Gold.PLP.part.metal>
0.0000

> <Gold.PLP.part.buried>
-3.7256

> <Gold.PLP.part.nonpolar>
-24.0103

> <Gold.PLP.part.repulsive>
0.1470

> <Gold.PLP.ligand.clash>
0.0000

> <Gold.PLP.ligand.torsion>
0.6724

> <Gold.PLP.Chemscore.Hbond>
4.7920

> <Gold.PLP.Chemscore.CHOScore>
0.0000

> <Gold.PLP.Chemscore.Metal>
0.0000

> <Gold.Chemscore.Hbonds>
donor molecule, donor type, donor heavy atom, donor atom, acceptor molecule, acceptor atom, score
      L1  H    18    47       P1  7948  2.00
      P1  H  6896  6909       L1     8  0.37
      P1  H  6931  6943       L1    17  1.00
      P1  H  6934  6947       L1    17  0.27

> <Gold.PLP.Chemscore.Internal.Correction>
0.2185

> <Gold.Rescore>
     Score         DG    S(hbond)    S(metal)    S(lipo)     H(rot)  DE(clash)    DE(int)     intcor
     15.94     -17.83       3.77        0.00      52.62       2.50       0.02       1.86       ----

> <Gold.Chemscore.Fitness>
15.9430

> <Gold.Chemscore.DG>
-17.8257

> <Gold.Chemscore.ZeroCoef>
-5.4800

> <Gold.Chemscore.Hbond>
3.7672

> <Gold.Chemscore.Metal>
0.0000

> <Gold.Chemscore.Lipo>
52.6172

> <Gold.Chemscore.Internal_Hbond>
0.0000

> <Gold.Chemscore.DEClash>
0.0234

> <Gold.Chemscore.DEInternal>
1.8592

> <Gold.Chemscore.Rot>
2.4973

> <Gold.Chemscore.Internal.Correction>
   9.000000E+99

> <Gold.Chemscore.Hbonds>
donor molecule, donor type, donor heavy atom, donor atom, acceptor molecule, acceptor atom, score
      L1  H    18    47       P1  7948  1.00
      P1  H  6896  6909       L1     8  0.37
      P1  H  6931  6943       L1    17  0.99
      P1  H  6934  6947       L1    17  0.28

> <Gold.Chemscore.Hbond.Weighted>
-12.5825

> <Gold.Chemscore.Metal.Weighted>
-0.0000

> <Gold.Chemscore.Lipo.Weighted>
-6.1562

> <Gold.Chemscore.Internal_Hbond.Weighted>
0.0000

> <Gold.Chemscore.DEClash.Weighted>
0.0234

> <Gold.Chemscore.DEInternal.Weighted>
1.8592

> <Gold.Chemscore.Rot.Weighted>
6.3930

> <Gold.Chemscore.Internal.Correction.Weighted>
   9.000000E+99

> <Gold.Protein.RotatedTorsions>
[ 6907 6896 6895 6894 ] final   38.66 input  -60.11 | X-H torsion
[ 7974 7965 7964 7962 ] final -145.82 input  175.53 | X-H torsion
[ 8008 7997 7996 7995 ] final   61.04 input   59.86 | X-H torsion
[ 10167 10162 10161 10158 ] final  -27.70 input  -65.29 | X-H torsion
[ 10718 10713 10712 10709 ] final -122.14 input   66.30 | X-H torsion
[ 10763 10752 10751 10750 ] final   58.05 input  -60.55 | X-H torsion
[ 11005 11000 10999 10996 ] final   49.51 input  -57.11 | X-H torsion

> <Gold.Protein.ActiveResidues>
 VAL166  LYS551  ARG553  GLY616  TRP617  ASP618  TYR619  PRO620  LYS621  CYS622 
 ASP623  PHE694  ASN695  SER759  ASP760  ASP761  ALA762  ILE779  LEU786  VAL792 
 PHE793  MET794  SER795  GLU796  ALA797  LYS798  CYS799  TRP800  GLU811  SER814 

> <Gold.Protein.RotatedAtoms>
  152.1593  134.8925  160.0542 H   0  0  0  0  0  0  0  0  0  0  0  0  # atno 6907 bound_to 6896
  151.9926  133.3791  159.4158 H   0  0  0  0  0  0  0  0  0  0  0  0  # atno 6908 bound_to 6896
  150.6886  134.3842  159.5091 H   0  0  0  0  0  0  0  0  0  0  0  0  # atno 6909 bound_to 6896
  144.8201  140.5535  143.5584 H   0  0  0  0  0  0  0  0  0  0  0  0  # atno 7974 bound_to 7965
  155.5919  140.3493  155.4569 H   0  0  0  0  0  0  0  0  0  0  0  0  # atno 8008 bound_to 7997
  156.0294  140.1271  157.0298 H   0  0  0  0  0  0  0  0  0  0  0  0  # atno 8009 bound_to 7997
  154.4346  140.1046  156.6064 H   0  0  0  0  0  0  0  0  0  0  0  0  # atno 8010 bound_to 7997
  140.7275  143.4071  151.1167 H   0  0  0  0  0  0  0  0  0  0  0  0  # atno 10167 bound_to 10162
  156.1394  130.6454  150.9747 H   0  0  0  0  0  0  0  0  0  0  0  0  # atno 10718 bound_to 10713
  152.9862  135.5620  154.5489 H   0  0  0  0  0  0  0  0  0  0  0  0  # atno 10763 bound_to 10752
  154.4930  135.2793  155.1483 H   0  0  0  0  0  0  0  0  0  0  0  0  # atno 10764 bound_to 10752
  154.2945  135.6319  153.5452 H   0  0  0  0  0  0  0  0  0  0  0  0  # atno 10765 bound_to 10752
  140.1097  134.4971  155.8689 H   0  0  0  0  0  0  0  0  0  0  0  0  # atno 11005 bound_to 11000
  145.5124  139.1479  143.3597 LP  0  0  0  0  0  0  0  0  0  0  0  0  # atno 17320 bound_to 7965
  146.2506  140.5265  142.8895 LP  0  0  0  0  0  0  0  0  0  0  0  0  # atno 17321 bound_to 7965
  139.7699  143.8509  152.3118 LP  0  0  0  0  0  0  0  0  0  0  0  0  # atno 17342 bound_to 10162
  139.8424  144.7203  150.9314 LP  0  0  0  0  0  0  0  0  0  0  0  0  # atno 17343 bound_to 10162
  157.6562  131.0889  150.7942 LP  0  0  0  0  0  0  0  0  0  0  0  0  # atno 17370 bound_to 10713
  156.8019  130.4924  149.5368 LP  0  0  0  0  0  0  0  0  0  0  0  0  # atno 17371 bound_to 10713
  141.2127  133.6723  156.6680 LP  0  0  0  0  0  0  0  0  0  0  0  0  # atno 17394 bound_to 11000
  140.3108  134.8088  157.4174 LP  0  0  0  0  0  0  0  0  0  0  0  0  # atno 17395 bound_to 11000

$$$$
