AV-unprocessed.smi:3255|AV-procd|sdf|12459|dock1
  -GOLD-   2272018353D 1   1.00000     0.00000
 Structure written by MMmdl.
 39 40  0  0  0  0  0  0  0  0  2 V2000
  151.9297  138.2217  154.8450 C   0  0  0  0  0  0  0  0  0  0  0  0
  150.4116  138.0720  155.0194 C   0  0  2  0  0  0  0  0  0  0  0  0
  149.9813  136.8304  154.3778 N   0  0  0  0  0  0  0  0  0  0  0  0
  149.9291  135.6270  154.9660 C   0  0  0  0  0  0  0  0  0  0  0  0
  150.2553  135.4124  156.1338 O   0  0  0  0  0  0  0  0  0  0  0  0
  149.4509  134.6870  154.1384 N   0  0  0  0  0  0  0  0  0  0  0  0
  149.2347  133.2873  154.4953 C   0  0  0  0  0  0  0  0  0  0  0  0
  148.5728  132.4881  153.3553 C   0  0  0  0  0  0  0  0  0  0  0  0
  147.1780  132.8724  153.1143 N   0  0  0  0  0  0  0  0  0  0  0  0
  146.7126  133.7820  152.1997 C   0  0  0  0  0  0  0  0  0  0  0  0
  145.3501  133.8227  152.3471 C   0  0  0  0  0  0  0  0  0  0  0  0
  145.0408  132.9297  153.3376 N   0  3  0  0  0  0  0  0  0  0  0  0
  146.1528  132.3474  153.7978 C   0  0  0  0  0  0  0  0  0  0  0  0
  149.6473  139.2795  154.4370 C   0  0  1  0  0  0  0  0  0  0  0  0
  148.1820  139.3907  154.8568 C   0  0  0  0  0  0  0  0  0  0  0  0
  147.8772  140.8497  154.5875 C   0  0  0  0  0  0  0  0  0  0  0  0
  149.2321  141.5381  154.7735 C   0  0  0  0  0  0  0  0  0  0  0  0
  150.1920  140.4964  154.9267 O   0  0  0  0  0  0  0  0  0  0  0  0
  152.2960  139.1199  155.3427 H   0  0  0  0  0  0  0  0  0  0  0  0
  152.2050  138.2904  153.7919 H   0  0  0  0  0  0  0  0  0  0  0  0
  152.4604  137.3711  155.2739 H   0  0  0  0  0  0  0  0  0  0  0  0
  150.2090  138.0208  156.0905 H   0  0  0  0  0  0  0  0  0  0  0  0
  149.6898  136.8998  153.4138 H   0  0  0  0  0  0  0  0  0  0  0  0
  149.2122  134.9594  153.1958 H   0  0  0  0  0  0  0  0  0  0  0  0
  150.2099  132.8526  154.7157 H   0  0  0  0  0  0  0  0  0  0  0  0
  148.6541  133.2036  155.4157 H   0  0  0  0  0  0  0  0  0  0  0  0
  149.1280  132.6144  152.4247 H   0  0  0  0  0  0  0  0  0  0  0  0
  148.5838  131.4227  153.5881 H   0  0  0  0  0  0  0  0  0  0  0  0
  147.3686  134.3267  151.5362 H   0  0  0  0  0  0  0  0  0  0  0  0
  144.5980  134.4059  151.8358 H   0  0  0  0  0  0  0  0  0  0  0  0
  146.2116  131.6107  154.5790 H   0  0  0  0  0  0  0  0  0  0  0  0
  149.7132  139.2814  153.3471 H   0  0  0  0  0  0  0  0  0  0  0  0
  147.5288  138.7149  154.3051 H   0  0  0  0  0  0  0  0  0  0  0  0
  148.0742  139.1790  155.9217 H   0  0  0  0  0  0  0  0  0  0  0  0
  147.5332  140.9778  153.5604 H   0  0  0  0  0  0  0  0  0  0  0  0
  147.1084  141.2441  155.2527 H   0  0  0  0  0  0  0  0  0  0  0  0
  149.4797  142.1525  153.9072 H   0  0  0  0  0  0  0  0  0  0  0  0
  149.2439  142.1772  155.6568 H   0  0  0  0  0  0  0  0  0  0  0  0
  144.1066  132.7388  153.6774 H   0  0  0  0  0  0  0  0  0  0  0  0
  1  2  1  0  0  0  0
  1 19  1  0  0  0  0
  1 20  1  0  0  0  0
  1 21  1  0  0  0  0
  2  3  1  0  0  0  0
  2 14  1  0  0  0  0
  2 22  1  0  0  0  0
  3  4  1  0  0  0  0
  3 23  1  0  0  0  0
  4  5  2  0  0  0  0
  4  6  1  0  0  0  0
  6  7  1  0  0  0  0
  6 24  1  0  0  0  0
  7  8  1  0  0  0  0
  7 25  1  0  0  0  0
  7 26  1  0  0  0  0
  8  9  1  0  0  0  0
  8 27  1  0  0  0  0
  8 28  1  0  0  0  0
  9 13  1  0  0  0  0
  9 10  1  0  0  0  0
 10 11  2  0  0  0  0
 10 29  1  0  0  0  0
 11 12  1  0  0  0  0
 11 30  1  0  0  0  0
 12 13  2  0  0  0  0
 12 39  1  0  0  0  0
 13 31  1  0  0  0  0
 14 18  1  0  0  0  0
 14 15  1  0  0  0  0
 14 32  1  0  0  0  0
 15 16  1  0  0  0  0
 15 33  1  0  0  0  0
 15 34  1  0  0  0  0
 16 17  1  0  0  0  0
 16 35  1  0  0  0  0
 16 36  1  0  0  0  0
 17 18  1  0  0  0  0
 17 37  1  0  0  0  0
 17 38  1  0  0  0  0
M  CHG  1  12   1
M  END
> <s_m_source_file>
AV-unprocessed.smi

> <i_m_source_file_index>
3255

> <i_lp_mmshare_version>
43012

> <i_f3d_flags>
0

> <s_epik_input>
TzFbQ0gyXVtDSDJdW0NIMl1bQ0BIXTFbQ0BIXShbQ0gzXSlbTkhdQyg9TylbTkhdW0NIMl1bQ0gyXW4yW2NIXVtjSF1uW2NIXTI=

> <s_epik_cmdline>
J2VwaWtfcHl0aG9uJywgJy1waCcsICc3LjAnLCAnLXRuJywgJzgnLCAnLW1hJywgJzIwMCcsICctbWV0YWxfYmluZGluZycsICctaW1hZScsICc8aW5maWxlLm1hZT4nLCAnLW9tYWUnLCAnPG91dGZpbGUubWFlPic=

> <r_lp_tautomer_probability>
1

> <r_epik_Ionization_Penalty>
0.256241

> <r_epik_Ionization_Penalty_Charging>
0

> <r_epik_Ionization_Penalty_Neutral>
0.256241

> <r_epik_State_Penalty>
0.247735

> <r_epik_Charging_Adjusted_Penalty>
0.247735

> <i_epik_Tot_Q>
1

> <i_epik_Tot_abs_Q>
1

> <r_epik_Metal_State_Penalty>
0.537184

> <b_epik_Metal_Only>
0

> <s_lp_Force_Field>
OPLS_2005

> <r_lp_Energy>
17.3031

> <b_lp_Chiralities_Consistent>
1

> <s_lp_Variant>
AV-unprocessed.smi:3255-3

> <Gold.Version>
5.8.1

> <Gold.Id.Protein>
6NUR|6NUR_protein|mol2

> <Gold.PLP.Fitness>
45.5441

> <Gold.PLP.PLP>
-30.1808

> <Gold.PLP.part.hbond>
-4.3381

> <Gold.PLP.part.metal>
0.0000

> <Gold.PLP.part.buried>
-4.1087

> <Gold.PLP.part.nonpolar>
-23.4988

> <Gold.PLP.part.repulsive>
0.1911

> <Gold.PLP.ligand.clash>
0.0000

> <Gold.PLP.ligand.torsion>
0.8885

> <Gold.PLP.Chemscore.Hbond>
4.6600

> <Gold.PLP.Chemscore.CHOScore>
1.0000

> <Gold.PLP.Chemscore.Metal>
0.0000

> <Gold.Chemscore.Hbonds>
donor molecule, donor type, donor heavy atom, donor atom, acceptor molecule, acceptor atom, score
      L1  H     3    23       P1  7948  1.00
      L1  H     6    24       P1  7948  0.65
      L1  H    12    39       P1 10957  1.89
      P1  H  7989  7998       L1    18  0.89
      L1  C    10    29       P1  7948  0.99

> <Gold.PLP.Chemscore.Internal.Correction>
0.1603

> <Gold.Rescore>
     Score         DG    S(hbond)    S(metal)    S(lipo)     H(rot)  DE(clash)    DE(int)     intcor
     14.79     -15.87       2.87        0.00      56.42       2.26       0.14       0.94       ----

> <Gold.Chemscore.Fitness>
14.7868

> <Gold.Chemscore.DG>
-15.8686

> <Gold.Chemscore.ZeroCoef>
-5.4800

> <Gold.Chemscore.Hbond>
2.8691

> <Gold.Chemscore.Metal>
0.0000

> <Gold.Chemscore.Lipo>
56.4234

> <Gold.Chemscore.Internal_Hbond>
0.0000

> <Gold.Chemscore.DEClash>
0.1384

> <Gold.Chemscore.DEInternal>
0.9433

> <Gold.Chemscore.Rot>
2.2640

> <Gold.Chemscore.Internal.Correction>
   9.000000E+99

> <Gold.Chemscore.Hbonds>
donor molecule, donor type, donor heavy atom, donor atom, acceptor molecule, acceptor atom, score
      L1  H     3    23       P1  7948  0.59
      L1  H     6    24       P1  7948  0.05
      L1  H    12    39       P1 10957  0.58
      P1  H  7989  7998       L1    18  0.12

> <Gold.Chemscore.Hbond.Weighted>
-9.5828

> <Gold.Chemscore.Metal.Weighted>
-0.0000

> <Gold.Chemscore.Lipo.Weighted>
-6.6015

> <Gold.Chemscore.Internal_Hbond.Weighted>
0.0000

> <Gold.Chemscore.DEClash.Weighted>
0.1384

> <Gold.Chemscore.DEInternal.Weighted>
0.9433

> <Gold.Chemscore.Rot.Weighted>
5.7958

> <Gold.Chemscore.Internal.Correction.Weighted>
   9.000000E+99

> <Gold.Protein.RotatedTorsions>
[ 6907 6896 6895 6894 ] final  -70.18 input  -60.11 | X-H torsion
[ 7974 7965 7964 7962 ] final  160.47 input  175.53 | X-H torsion
[ 8008 7997 7996 7995 ] final  133.63 input   59.86 | X-H torsion
[ 10167 10162 10161 10158 ] final -117.27 input  -65.29 | X-H torsion
[ 10718 10713 10712 10709 ] final  -44.96 input   66.30 | X-H torsion
[ 10763 10752 10751 10750 ] final  123.00 input  -60.55 | X-H torsion
[ 11005 11000 10999 10996 ] final  101.39 input  -57.11 | X-H torsion

> <Gold.Protein.ActiveResidues>
 VAL166  LYS551  ARG553  GLY616  TRP617  ASP618  TYR619  PRO620  LYS621  CYS622 
 ASP623  PHE694  ASN695  SER759  ASP760  ASP761  ALA762  ILE779  LEU786  VAL792 
 PHE793  MET794  SER795  GLU796  ALA797  LYS798  CYS799  TRP800  GLU811  SER814 

> <Gold.Protein.RotatedAtoms>
  150.7270  134.5490  159.5784 H   0  0  0  0  0  0  0  0  0  0  0  0  # atno 6907 bound_to 6896
  152.2982  134.7639  160.0372 H   0  0  0  0  0  0  0  0  0  0  0  0  # atno 6908 bound_to 6896
  151.8229  133.3361  159.3626 H   0  0  0  0  0  0  0  0  0  0  0  0  # atno 6909 bound_to 6896
  144.7735  139.7761  143.6287 H   0  0  0  0  0  0  0  0  0  0  0  0  # atno 7974 bound_to 7965
  156.2994  140.2516  156.3285 H   0  0  0  0  0  0  0  0  0  0  0  0  # atno 8008 bound_to 7997
  154.9168  140.0402  157.1995 H   0  0  0  0  0  0  0  0  0  0  0  0  # atno 8009 bound_to 7997
  154.8351  140.2882  155.5700 H   0  0  0  0  0  0  0  0  0  0  0  0  # atno 8010 bound_to 7997
  140.0702  143.4885  152.1984 H   0  0  0  0  0  0  0  0  0  0  0  0  # atno 10167 bound_to 10162
  156.2332  130.4174  149.8849 H   0  0  0  0  0  0  0  0  0  0  0  0  # atno 10718 bound_to 10713
  153.6386  135.3383  155.3064 H   0  0  0  0  0  0  0  0  0  0  0  0  # atno 10763 bound_to 10752
  154.8564  135.4313  154.2028 H   0  0  0  0  0  0  0  0  0  0  0  0  # atno 10764 bound_to 10752
  153.2942  135.7019  153.7338 H   0  0  0  0  0  0  0  0  0  0  0  0  # atno 10765 bound_to 10752
  139.8773  134.9181  156.4899 H   0  0  0  0  0  0  0  0  0  0  0  0  # atno 11005 bound_to 11000
  146.1899  139.5134  142.9812 LP  0  0  0  0  0  0  0  0  0  0  0  0  # atno 17320 bound_to 7965
  145.6253  141.0315  143.1893 LP  0  0  0  0  0  0  0  0  0  0  0  0  # atno 17321 bound_to 7965
  139.5841  144.7523  151.3566 LP  0  0  0  0  0  0  0  0  0  0  0  0  # atno 17342 bound_to 10162
  140.7129  143.7342  150.7601 LP  0  0  0  0  0  0  0  0  0  0  0  0  # atno 17343 bound_to 10162
  156.6456  130.8723  151.3522 LP  0  0  0  0  0  0  0  0  0  0  0  0  # atno 17370 bound_to 10713
  157.7142  130.9477  150.1197 LP  0  0  0  0  0  0  0  0  0  0  0  0  # atno 17371 bound_to 10713
  140.8666  133.8020  155.9320 LP  0  0  0  0  0  0  0  0  0  0  0  0  # atno 17394 bound_to 11000
  140.8996  134.2395  157.5049 LP  0  0  0  0  0  0  0  0  0  0  0  0  # atno 17395 bound_to 11000

$$$$
