AV-unprocessed.smi:246|AV-procd|sdf|1882|dock1
  -GOLD-   2262020533D 1   1.00000     0.00000
 Structure written by MMmdl.
 57 60  0  0  0  0  0  0  0  0  1 V2000
  147.0523  134.6540  162.5526 C   0  0  0  0  0  0  0  0  0  0  0  0
  147.1104  133.7628  161.3042 C   0  0  0  0  0  0  0  0  0  0  0  0
  146.9402  134.5185  160.1138 O   0  0  0  0  0  0  0  0  0  0  0  0
  147.2807  133.8216  158.9241 C   0  0  0  0  0  0  0  0  0  0  0  0
  147.0915  134.7644  157.7325 C   0  0  0  0  0  0  0  0  0  0  0  0
  147.7007  134.1786  156.5915 O   0  0  0  0  0  0  0  0  0  0  0  0
  149.0924  133.9268  156.7362 C   0  0  1  0  0  0  0  0  0  0  0  0
  149.6795  133.6562  155.3493 C   0  0  0  0  0  0  0  0  0  0  0  0
  150.0052  135.0449  154.7949 C   0  0  0  0  0  0  0  0  0  0  0  0
  150.1885  135.8919  155.9629 N   0  0  0  0  0  0  0  0  0  0  0  0
  150.9688  137.0026  155.9508 C   0  0  0  0  0  0  0  0  0  0  0  0
  151.6315  137.3178  154.8063 N   0  0  0  0  0  0  0  0  0  0  0  0
  152.4085  138.4028  154.7481 C   0  0  0  0  0  0  0  0  0  0  0  0
  152.6677  139.2949  155.7048 N   0  0  0  0  0  0  0  0  0  0  0  0
  152.0188  138.9796  156.8615 C   0  0  0  0  0  0  0  0  0  0  0  0
  151.1571  137.8645  157.0716 C   0  0  0  0  0  0  0  0  0  0  0  0
  150.6933  137.8759  158.3831 N   0  0  0  0  0  0  0  0  0  0  0  0
  151.2449  138.9323  158.9135 C   0  0  0  0  0  0  0  0  0  0  0  0
  152.0639  139.6481  158.0719 N   0  0  0  0  0  0  0  0  0  0  0  0
  152.8104  140.8491  158.4005 C   0  0  0  0  0  0  0  0  0  0  0  0
  152.7361  141.2272  159.8962 C   0  0  1  0  0  0  0  0  0  0  0  0
  153.6331  140.3764  160.5820 O   0  0  0  0  0  0  0  0  0  0  0  0
  153.0925  142.6986  160.2107 C   0  0  2  0  0  0  0  0  0  0  0  0
  152.5694  143.1970  161.5612 C   0  0  0  0  0  0  0  0  0  0  0  0
  152.5012  144.6900  161.3403 C   0  0  0  0  0  0  0  0  0  0  0  0
  152.0076  144.7623  159.9007 C   0  0  0  0  0  0  0  0  0  0  0  0
  152.5004  143.5880  159.2632 O   0  0  0  0  0  0  0  0  0  0  0  0
  149.8430  135.1872  157.1894 C   0  0  0  0  0  0  0  0  0  0  0  0
  149.2608  133.0797  157.4033 H   0  0  0  0  0  0  0  0  0  0  0  0
  147.0827  134.0492  163.4590 H   0  0  0  0  0  0  0  0  0  0  0  0
  146.1312  135.2371  162.5728 H   0  0  0  0  0  0  0  0  0  0  0  0
  147.8906  135.3486  162.5961 H   0  0  0  0  0  0  0  0  0  0  0  0
  148.0353  133.1848  161.2741 H   0  0  0  0  0  0  0  0  0  0  0  0
  146.2952  133.0403  161.3518 H   0  0  0  0  0  0  0  0  0  0  0  0
  148.3052  133.4498  158.9491 H   0  0  0  0  0  0  0  0  0  0  0  0
  146.6215  132.9593  158.8149 H   0  0  0  0  0  0  0  0  0  0  0  0
  146.0270  134.9102  157.5497 H   0  0  0  0  0  0  0  0  0  0  0  0
  147.5232  135.7421  157.9526 H   0  0  0  0  0  0  0  0  0  0  0  0
  150.6046  133.0883  155.4563 H   0  0  0  0  0  0  0  0  0  0  0  0
  149.0131  133.0843  154.7030 H   0  0  0  0  0  0  0  0  0  0  0  0
  150.8926  135.0133  154.1620 H   0  0  0  0  0  0  0  0  0  0  0  0
  149.1727  135.4316  154.2066 H   0  0  0  0  0  0  0  0  0  0  0  0
  152.8933  138.5807  153.7996 H   0  0  0  0  0  0  0  0  0  0  0  0
  151.0769  139.2126  159.9432 H   0  0  0  0  0  0  0  0  0  0  0  0
  153.8480  140.6933  158.1022 H   0  0  0  0  0  0  0  0  0  0  0  0
  152.4301  141.6676  157.7876 H   0  0  0  0  0  0  0  0  0  0  0  0
  151.7354  141.0158  160.2743 H   0  0  0  0  0  0  0  0  0  0  0  0
  154.1625  139.9233  159.9437 H   0  0  0  0  0  0  0  0  0  0  0  0
  154.1739  142.8415  160.1730 H   0  0  0  0  0  0  0  0  0  0  0  0
  151.5697  142.8051  161.7563 H   0  0  0  0  0  0  0  0  0  0  0  0
  153.2143  142.9204  162.3959 H   0  0  0  0  0  0  0  0  0  0  0  0
  151.8437  145.2011  162.0439 H   0  0  0  0  0  0  0  0  0  0  0  0
  153.4977  145.1269  161.4207 H   0  0  0  0  0  0  0  0  0  0  0  0
  150.9177  144.7403  159.8683 H   0  0  0  0  0  0  0  0  0  0  0  0
  152.3441  145.6645  159.3897 H   0  0  0  0  0  0  0  0  0  0  0  0
  149.2553  135.8144  157.8592 H   0  0  0  0  0  0  0  0  0  0  0  0
  150.7612  134.9065  157.7073 H   0  0  0  0  0  0  0  0  0  0  0  0
  1  2  1  0  0  0  0
  1 30  1  0  0  0  0
  1 31  1  0  0  0  0
  1 32  1  0  0  0  0
  2  3  1  0  0  0  0
  2 33  1  0  0  0  0
  2 34  1  0  0  0  0
  3  4  1  0  0  0  0
  4  5  1  0  0  0  0
  4 35  1  0  0  0  0
  4 36  1  0  0  0  0
  5  6  1  0  0  0  0
  5 37  1  0  0  0  0
  5 38  1  0  0  0  0
  6  7  1  0  0  0  0
  7 29  1  0  0  0  0
  7 28  1  0  0  0  0
  7  8  1  0  0  0  0
  8  9  1  0  0  0  0
  8 39  1  0  0  0  0
  8 40  1  0  0  0  0
  9 10  1  0  0  0  0
  9 41  1  0  0  0  0
  9 42  1  0  0  0  0
 10 11  1  0  0  0  0
 10 28  1  0  0  0  0
 11 16  1  0  0  0  0
 11 12  2  0  0  0  0
 12 13  1  0  0  0  0
 13 14  2  0  0  0  0
 13 43  1  0  0  0  0
 14 15  1  0  0  0  0
 15 19  1  0  0  0  0
 15 16  2  0  0  0  0
 16 17  1  0  0  0  0
 17 18  2  0  0  0  0
 18 19  1  0  0  0  0
 18 44  1  0  0  0  0
 19 20  1  0  0  0  0
 20 21  1  0  0  0  0
 20 45  1  0  0  0  0
 20 46  1  0  0  0  0
 21 22  1  0  0  0  0
 21 23  1  0  0  0  0
 21 47  1  0  0  0  0
 22 48  1  0  0  0  0
 23 27  1  0  0  0  0
 23 24  1  0  0  0  0
 23 49  1  0  0  0  0
 24 25  1  0  0  0  0
 24 50  1  0  0  0  0
 24 51  1  0  0  0  0
 25 26  1  0  0  0  0
 25 52  1  0  0  0  0
 25 53  1  0  0  0  0
 26 27  1  0  0  0  0
 26 54  1  0  0  0  0
 26 55  1  0  0  0  0
 28 56  1  0  0  0  0
 28 57  1  0  0  0  0
M  END
> <s_m_source_file>
AV-unprocessed.smi

> <i_m_source_file_index>
246

> <i_lp_mmshare_version>
43012

> <i_f3d_flags>
0

> <s_epik_input>
W0NIM11bQ0gyXU9bQ0gyXVtDSDJdT1tDQEhdMVtDSDJdW0NIMl1OKFtDSDJdMSljKG5bY0hdbjIpYyhjMjMpbltjSF1uM1tDSDJdW0NASF0oW09IXSlbQ0BASF00W0NIMl1bQ0gyXVtDSDJdTzQ=

> <s_epik_cmdline>
J2VwaWtfcHl0aG9uJywgJy1waCcsICc3LjAnLCAnLXRuJywgJzgnLCAnLW1hJywgJzIwMCcsICctbWV0YWxfYmluZGluZycsICctaW1hZScsICc8aW5maWxlLm1hZT4nLCAnLW9tYWUnLCAnPG91dGZpbGUubWFlPic=

> <r_lp_tautomer_probability>
1

> <r_epik_Ionization_Penalty>
0.0024631

> <r_epik_Ionization_Penalty_Charging>
0

> <r_epik_Ionization_Penalty_Neutral>
0.0024631

> <r_epik_State_Penalty>
0.00162428

> <r_epik_Charging_Adjusted_Penalty>
0.00162428

> <i_epik_Tot_Q>
0

> <i_epik_Tot_abs_Q>
0

> <r_epik_Metal_State_Penalty>
-0

> <b_epik_Metal_Only>
0

> <s_lp_Force_Field>
OPLS_2005

> <r_lp_Energy>
52.0053

> <b_lp_Chiralities_Consistent>
1

> <s_lp_Variant>
AV-unprocessed.smi:246-3

> <Gold.Version>
5.8.1

> <Gold.Id.Protein>
6NUR|6NUR_protein|mol2

> <Gold.PLP.Fitness>
50.5141

> <Gold.PLP.PLP>
-45.5404

> <Gold.PLP.part.hbond>
-2.0000

> <Gold.PLP.part.metal>
0.0000

> <Gold.PLP.part.buried>
-7.1702

> <Gold.PLP.part.nonpolar>
-35.6150

> <Gold.PLP.part.repulsive>
0.1239

> <Gold.PLP.ligand.clash>
0.0000

> <Gold.PLP.ligand.torsion>
0.8026

> <Gold.PLP.Chemscore.Hbond>
2.0000

> <Gold.PLP.Chemscore.CHOScore>
0.0000

> <Gold.PLP.Chemscore.Metal>
0.0000

> <Gold.Chemscore.Hbonds>
donor molecule, donor type, donor heavy atom, donor atom, acceptor molecule, acceptor atom, score
      P1  H  7997  8009       L1    14  1.00
      P1  H 10752 10765       L1    12  0.68

> <Gold.PLP.Chemscore.Internal.Correction>
0.5790

> <Gold.Rescore>
     Score         DG    S(hbond)    S(metal)    S(lipo)     H(rot)  DE(clash)    DE(int)     intcor
     14.13     -15.38       1.55        0.00     108.22       3.10       0.14       1.11       ----

> <Gold.Chemscore.Fitness>
14.1327

> <Gold.Chemscore.DG>
-15.3820

> <Gold.Chemscore.ZeroCoef>
-5.4800

> <Gold.Chemscore.Hbond>
1.5518

> <Gold.Chemscore.Metal>
0.0000

> <Gold.Chemscore.Lipo>
108.2176

> <Gold.Chemscore.Internal_Hbond>
0.0000

> <Gold.Chemscore.DEClash>
0.1363

> <Gold.Chemscore.DEInternal>
1.1130

> <Gold.Chemscore.Rot>
3.1026

> <Gold.Chemscore.Internal.Correction>
   9.000000E+99

> <Gold.Chemscore.Hbonds>
donor molecule, donor type, donor heavy atom, donor atom, acceptor molecule, acceptor atom, score
      P1  H  7997  8009       L1    14  0.84
      P1  H 10752 10765       L1    12  0.20

> <Gold.Chemscore.Hbond.Weighted>
-5.1831

> <Gold.Chemscore.Metal.Weighted>
-0.0000

> <Gold.Chemscore.Lipo.Weighted>
-12.6615

> <Gold.Chemscore.Internal_Hbond.Weighted>
0.0000

> <Gold.Chemscore.DEClash.Weighted>
0.1363

> <Gold.Chemscore.DEInternal.Weighted>
1.1130

> <Gold.Chemscore.Rot.Weighted>
7.9426

> <Gold.Chemscore.Internal.Correction.Weighted>
   9.000000E+99

> <Gold.Protein.RotatedTorsions>
[ 6907 6896 6895 6894 ] final  -28.08 input  -60.11 | X-H torsion
[ 7974 7965 7964 7962 ] final  -53.89 input  175.53 | X-H torsion
[ 8008 7997 7996 7995 ] final -131.75 input   59.86 | X-H torsion
[ 10167 10162 10161 10158 ] final   -2.13 input  -65.29 | X-H torsion
[ 10718 10713 10712 10709 ] final   19.39 input   66.30 | X-H torsion
[ 10763 10752 10751 10750 ] final  166.35 input  -60.55 | X-H torsion
[ 11005 11000 10999 10996 ] final  -14.85 input  -57.11 | X-H torsion

> <Gold.Protein.ActiveResidues>
 VAL166  LYS551  ARG553  GLY616  TRP617  ASP618  TYR619  PRO620  LYS621  CYS622 
 ASP623  PHE694  ASN695  SER759  ASP760  ASP761  ALA762  ILE779  LEU786  VAL792 
 PHE793  MET794  SER795  GLU796  ALA797  LYS798  CYS799  TRP800  GLU811  SER814 

> <Gold.Protein.RotatedAtoms>
  151.1379  135.0164  159.8612 H   0  0  0  0  0  0  0  0  0  0  0  0  # atno 6907 bound_to 6896
  152.5452  134.1533  159.8537 H   0  0  0  0  0  0  0  0  0  0  0  0  # atno 6908 bound_to 6896
  151.1606  133.4802  159.2627 H   0  0  0  0  0  0  0  0  0  0  0  0  # atno 6909 bound_to 6896
  145.8917  140.8065  142.9788 H   0  0  0  0  0  0  0  0  0  0  0  0  # atno 7974 bound_to 7965
  155.3175  140.0460  157.3038 H   0  0  0  0  0  0  0  0  0  0  0  0  # atno 8008 bound_to 7997
  154.5398  140.2284  155.8626 H   0  0  0  0  0  0  0  0  0  0  0  0  # atno 8009 bound_to 7997
  156.1870  140.3060  155.9265 H   0  0  0  0  0  0  0  0  0  0  0  0  # atno 8010 bound_to 7997
  140.6839  143.6693  150.8199 H   0  0  0  0  0  0  0  0  0  0  0  0  # atno 10167 bound_to 10162
  157.1098  130.6504  149.5894 H   0  0  0  0  0  0  0  0  0  0  0  0  # atno 10718 bound_to 10713
  154.3377  135.2754  155.2439 H   0  0  0  0  0  0  0  0  0  0  0  0  # atno 10763 bound_to 10752
  154.4723  135.5880  153.6333 H   0  0  0  0  0  0  0  0  0  0  0  0  # atno 10764 bound_to 10752
  152.9860  135.6091  154.3576 H   0  0  0  0  0  0  0  0  0  0  0  0  # atno 10765 bound_to 10752
  140.7906  133.8291  155.9376 H   0  0  0  0  0  0  0  0  0  0  0  0  # atno 11005 bound_to 11000
  144.6731  140.1540  143.7428 LP  0  0  0  0  0  0  0  0  0  0  0  0  # atno 17320 bound_to 7965
  145.8900  139.2370  143.1555 LP  0  0  0  0  0  0  0  0  0  0  0  0  # atno 17321 bound_to 7965
  140.0397  143.5358  152.2723 LP  0  0  0  0  0  0  0  0  0  0  0  0  # atno 17342 bound_to 10162
  139.6181  144.7623  151.2801 LP  0  0  0  0  0  0  0  0  0  0  0  0  # atno 17343 bound_to 10162
  155.9853  130.4882  150.7025 LP  0  0  0  0  0  0  0  0  0  0  0  0  # atno 17370 bound_to 10713
  157.4569  131.0879  151.0787 LP  0  0  0  0  0  0  0  0  0  0  0  0  # atno 17371 bound_to 10713
  140.9393  134.1921  157.4809 LP  0  0  0  0  0  0  0  0  0  0  0  0  # atno 17394 bound_to 11000
  139.8731  134.9865  156.5328 LP  0  0  0  0  0  0  0  0  0  0  0  0  # atno 17395 bound_to 11000

$$$$
