AV-unprocessed.smi:1958|AV-procd|sdf|7910|dock4
  -GOLD-   2272010 73D 1   1.00000     0.00000
 Structure written by MMmdl.
 47 48  0  0  0  0  0  0  0  0  3 V2000
  143.9062  134.5140  163.2341 C   0  0  0  0  0  0  0  0  0  0  0  0
  145.2229  133.9921  163.2638 O   0  0  0  0  0  0  0  0  0  0  0  0
  145.8221  133.9557  161.9795 C   0  0  0  0  0  0  0  0  0  0  0  0
  147.2397  134.5382  162.0793 C   0  0  0  0  0  0  0  0  0  0  0  0
  147.6361  135.2177  160.8418 N   0  0  0  0  0  0  0  0  0  0  0  0
  147.6917  134.3875  159.7357 N   0  0  0  0  0  0  0  0  0  0  0  0
  148.0515  134.8552  158.5836 C   0  0  0  0  0  0  0  0  0  0  0  0
  148.1530  133.9680  157.3831 C   0  0  0  0  0  0  0  0  0  0  0  0
  147.7546  132.8054  157.5279 O   0  0  0  0  0  0  0  0  0  0  0  0
  148.6504  134.5079  156.2296 N   0  5  0  0  0  0  0  0  0  0  0  0
  148.2535  134.1298  154.8702 C   0  0  0  0  0  0  0  0  0  0  0  0
  146.8843  134.7611  154.5000 C   0  0  2  0  0  0  0  0  0  0  0  0
  145.7256  134.3676  155.4495 C   0  0  0  0  0  0  0  0  0  0  0  0
  146.5789  134.5721  153.0449 N   0  3  0  0  0  0  0  0  0  0  0  0
  146.5105  133.1694  152.5504 C   0  0  0  0  0  0  0  0  0  0  0  0
  146.3918  133.1602  151.0196 C   0  0  0  0  0  0  0  0  0  0  0  0
  145.2302  133.8858  150.6343 O   0  0  0  0  0  0  0  0  0  0  0  0
  145.2935  135.2486  151.0377 C   0  0  0  0  0  0  0  0  0  0  0  0
  145.4020  135.3395  152.5699 C   0  0  0  0  0  0  0  0  0  0  0  0
  148.3892  136.2633  158.4304 C   0  0  0  0  0  0  0  0  0  0  0  0
  148.3199  137.0632  159.5168 C   0  0  0  0  0  0  0  0  0  0  0  0
  147.9226  136.5540  160.8297 C   0  0  0  0  0  0  0  0  0  0  0  0
  147.8536  137.2628  161.8336 O   0  0  0  0  0  0  0  0  0  0  0  0
  143.4898  134.5160  164.2413 H   0  0  0  0  0  0  0  0  0  0  0  0
  143.2559  133.9087  162.6016 H   0  0  0  0  0  0  0  0  0  0  0  0
  143.8974  135.5404  162.8649 H   0  0  0  0  0  0  0  0  0  0  0  0
  145.8630  132.9278  161.6156 H   0  0  0  0  0  0  0  0  0  0  0  0
  145.2216  134.5321  161.2739 H   0  0  0  0  0  0  0  0  0  0  0  0
  147.3024  135.2257  162.9245 H   0  0  0  0  0  0  0  0  0  0  0  0
  147.9447  133.7360  162.3057 H   0  0  0  0  0  0  0  0  0  0  0  0
  148.9990  134.4439  154.1397 H   0  0  0  0  0  0  0  0  0  0  0  0
  148.1732  133.0488  154.7464 H   0  0  0  0  0  0  0  0  0  0  0  0
  147.0279  135.8305  154.6608 H   0  0  0  0  0  0  0  0  0  0  0  0
  145.9410  134.6432  156.4834 H   0  0  0  0  0  0  0  0  0  0  0  0
  145.5123  133.2974  155.4384 H   0  0  0  0  0  0  0  0  0  0  0  0
  144.8081  134.8893  155.1756 H   0  0  0  0  0  0  0  0  0  0  0  0
  147.3999  132.6120  152.8437 H   0  0  0  0  0  0  0  0  0  0  0  0
  145.6508  132.6564  152.9829 H   0  0  0  0  0  0  0  0  0  0  0  0
  147.2809  133.5914  150.5567 H   0  0  0  0  0  0  0  0  0  0  0  0
  146.3068  132.1364  150.6556 H   0  0  0  0  0  0  0  0  0  0  0  0
  146.1425  135.7400  150.5598 H   0  0  0  0  0  0  0  0  0  0  0  0
  144.3949  135.7608  150.6937 H   0  0  0  0  0  0  0  0  0  0  0  0
  144.4974  134.9502  153.0398 H   0  0  0  0  0  0  0  0  0  0  0  0
  145.4942  136.3864  152.8614 H   0  0  0  0  0  0  0  0  0  0  0  0
  148.6822  136.6734  157.4750 H   0  0  0  0  0  0  0  0  0  0  0  0
  148.5642  138.1104  159.4149 H   0  0  0  0  0  0  0  0  0  0  0  0
  147.3739  134.9847  152.5767 H   0  0  0  0  0  0  0  0  0  0  0  0
  1  2  1  0  0  0  0
  1 24  1  0  0  0  0
  1 25  1  0  0  0  0
  1 26  1  0  0  0  0
  2  3  1  0  0  0  0
  3  4  1  0  0  0  0
  3 27  1  0  0  0  0
  3 28  1  0  0  0  0
  4  5  1  0  0  0  0
  4 29  1  0  0  0  0
  4 30  1  0  0  0  0
  5 22  1  0  0  0  0
  5  6  1  0  0  0  0
  6  7  2  0  0  0  0
  7  8  1  0  0  0  0
  7 20  1  0  0  0  0
  8  9  2  0  0  0  0
  8 10  1  0  0  0  0
 10 11  1  0  0  0  0
 11 12  1  0  0  0  0
 11 31  1  0  0  0  0
 11 32  1  0  0  0  0
 12 13  1  0  0  0  0
 12 14  1  0  0  0  0
 12 33  1  0  0  0  0
 13 34  1  0  0  0  0
 13 35  1  0  0  0  0
 13 36  1  0  0  0  0
 14 19  1  0  0  0  0
 14 15  1  0  0  0  0
 14 47  1  0  0  0  0
 15 16  1  0  0  0  0
 15 37  1  0  0  0  0
 15 38  1  0  0  0  0
 16 17  1  0  0  0  0
 16 39  1  0  0  0  0
 16 40  1  0  0  0  0
 17 18  1  0  0  0  0
 18 19  1  0  0  0  0
 18 41  1  0  0  0  0
 18 42  1  0  0  0  0
 19 43  1  0  0  0  0
 19 44  1  0  0  0  0
 20 21  2  0  0  0  0
 20 45  1  0  0  0  0
 21 22  1  0  0  0  0
 21 46  1  0  0  0  0
 22 23  2  0  0  0  0
M  CHG  1  10  -1
M  CHG  1  14   1
M  END
> <s_m_source_file>
AV-unprocessed.smi

> <i_m_source_file_index>
1958

> <i_lp_mmshare_version>
43012

> <i_f3d_flags>
0

> <s_epik_input>
W0NIM11PW0NIMl1bQ0gyXW4xbmMoW2NIXVtjSF1jMT1PKUMoPU8pW05IXVtDSDJdW0NASF0oW0NIM10pTjJbQ0gyXVtDSDJdT1tDSDJdW0NIMl0y

> <s_epik_cmdline>
J2VwaWtfcHl0aG9uJywgJy1waCcsICc3LjAnLCAnLXRuJywgJzgnLCAnLW1hJywgJzIwMCcsICctbWV0YWxfYmluZGluZycsICctaW1hZScsICc8aW5maWxlLm1hZT4nLCAnLW9tYWUnLCAnPG91dGZpbGUubWFlPic=

> <r_lp_tautomer_probability>
1

> <r_epik_Ionization_Penalty>
6.89388

> <r_epik_Ionization_Penalty_Charging>
6.89388

> <r_epik_Ionization_Penalty_Neutral>
1.08445e-11

> <r_epik_State_Penalty>
7.53214

> <r_epik_Charging_Adjusted_Penalty>
14.426

> <i_epik_Tot_Q>
0

> <i_epik_Tot_abs_Q>
2

> <r_epik_Metal_State_Penalty>
3.44743

> <b_epik_Metal_Only>
1

> <s_lp_Force_Field>
OPLS_2005

> <r_lp_Energy>
42.3217

> <b_lp_Chiralities_Consistent>
1

> <s_lp_Variant>
AV-unprocessed.smi:1958-5

> <Gold.Version>
5.8.1

> <Gold.Id.Protein>
6NUR|6NUR_protein|mol2

> <Gold.PLP.Fitness>
42.3262

> <Gold.PLP.PLP>
-33.3481

> <Gold.PLP.part.hbond>
-4.0000

> <Gold.PLP.part.metal>
0.0000

> <Gold.PLP.part.buried>
-5.0485

> <Gold.PLP.part.nonpolar>
-24.0926

> <Gold.PLP.part.repulsive>
0.8935

> <Gold.PLP.ligand.clash>
0.0000

> <Gold.PLP.ligand.torsion>
0.9647

> <Gold.PLP.Chemscore.Hbond>
3.5200

> <Gold.PLP.Chemscore.CHOScore>
0.0000

> <Gold.PLP.Chemscore.Metal>
0.0000

> <Gold.Chemscore.Hbonds>
donor molecule, donor type, donor heavy atom, donor atom, acceptor molecule, acceptor atom, score
      L1  H    14    47       P1  7948  1.62
      P1  H  6931  6943       L1    23  1.00
      P1  H  6934  6947       L1    23  0.52

> <Gold.PLP.Chemscore.Internal.Correction>
0.3475

> <Gold.Rescore>
     Score         DG    S(hbond)    S(metal)    S(lipo)     H(rot)  DE(clash)    DE(int)     intcor
     12.63     -13.76       1.97        0.00      59.82       2.07       0.06       1.08       ----

> <Gold.Chemscore.Fitness>
12.6259

> <Gold.Chemscore.DG>
-13.7595

> <Gold.Chemscore.ZeroCoef>
-5.4800

> <Gold.Chemscore.Hbond>
1.9679

> <Gold.Chemscore.Metal>
0.0000

> <Gold.Chemscore.Lipo>
59.8224

> <Gold.Chemscore.Internal_Hbond>
0.0000

> <Gold.Chemscore.DEClash>
0.0584

> <Gold.Chemscore.DEInternal>
1.0753

> <Gold.Chemscore.Rot>
2.0673

> <Gold.Chemscore.Internal.Correction>
   9.000000E+99

> <Gold.Chemscore.Hbonds>
donor molecule, donor type, donor heavy atom, donor atom, acceptor molecule, acceptor atom, score
      L1  H    14    47       P1  7948  0.80
      P1  H  6931  6943       L1    23  0.74
      P1  H  6934  6947       L1    23  0.13

> <Gold.Chemscore.Hbond.Weighted>
-6.5727

> <Gold.Chemscore.Metal.Weighted>
-0.0000

> <Gold.Chemscore.Lipo.Weighted>
-6.9992

> <Gold.Chemscore.Internal_Hbond.Weighted>
0.0000

> <Gold.Chemscore.DEClash.Weighted>
0.0584

> <Gold.Chemscore.DEInternal.Weighted>
1.0753

> <Gold.Chemscore.Rot.Weighted>
5.2923

> <Gold.Chemscore.Internal.Correction.Weighted>
   9.000000E+99

> <Gold.Protein.RotatedTorsions>
[ 6907 6896 6895 6894 ] final   38.63 input  -60.11 | X-H torsion
[ 7974 7965 7964 7962 ] final -134.25 input  175.53 | X-H torsion
[ 8008 7997 7996 7995 ] final -113.37 input   59.86 | X-H torsion
[ 10167 10162 10161 10158 ] final  140.04 input  -65.29 | X-H torsion
[ 10718 10713 10712 10709 ] final  -18.88 input   66.30 | X-H torsion
[ 10763 10752 10751 10750 ] final   40.42 input  -60.55 | X-H torsion
[ 11005 11000 10999 10996 ] final  114.72 input  -57.11 | X-H torsion

> <Gold.Protein.ActiveResidues>
 VAL166  LYS551  ARG553  GLY616  TRP617  ASP618  TYR619  PRO620  LYS621  CYS622 
 ASP623  PHE694  ASN695  SER759  ASP760  ASP761  ALA762  ILE779  LEU786  VAL792 
 PHE793  MET794  SER795  GLU796  ALA797  LYS798  CYS799  TRP800  GLU811  SER814 

> <Gold.Protein.RotatedAtoms>
  152.1590  134.8927  160.0542 H   0  0  0  0  0  0  0  0  0  0  0  0  # atno 6907 bound_to 6896
  151.9930  133.3793  159.4160 H   0  0  0  0  0  0  0  0  0  0  0  0  # atno 6908 bound_to 6896
  150.6885  134.3838  159.5090 H   0  0  0  0  0  0  0  0  0  0  0  0  # atno 6909 bound_to 6896
  144.9120  140.6906  143.5019 H   0  0  0  0  0  0  0  0  0  0  0  0  # atno 7974 bound_to 7965
  155.0196  140.0393  157.2432 H   0  0  0  0  0  0  0  0  0  0  0  0  # atno 8008 bound_to 7997
  154.7389  140.2745  155.6367 H   0  0  0  0  0  0  0  0  0  0  0  0  # atno 8009 bound_to 7997
  156.2859  140.2669  156.2111 H   0  0  0  0  0  0  0  0  0  0  0  0  # atno 8010 bound_to 7997
  139.5060  144.6258  151.5940 H   0  0  0  0  0  0  0  0  0  0  0  0  # atno 10167 bound_to 10162
  156.5535  130.4707  149.6441 H   0  0  0  0  0  0  0  0  0  0  0  0  # atno 10718 bound_to 10713
  152.9937  135.6192  154.2624 H   0  0  0  0  0  0  0  0  0  0  0  0  # atno 10763 bound_to 10752
  154.2359  135.2790  155.2874 H   0  0  0  0  0  0  0  0  0  0  0  0  # atno 10764 bound_to 10752
  154.5410  135.5761  153.6897 H   0  0  0  0  0  0  0  0  0  0  0  0  # atno 10765 bound_to 10752
  139.8989  134.9572  156.6935 H   0  0  0  0  0  0  0  0  0  0  0  0  # atno 11005 bound_to 11000
  145.3439  139.1724  143.4471 LP  0  0  0  0  0  0  0  0  0  0  0  0  # atno 17320 bound_to 7965
  146.3163  140.3483  142.8654 LP  0  0  0  0  0  0  0  0  0  0  0  0  # atno 17321 bound_to 7965
  140.5974  143.9670  150.6364 LP  0  0  0  0  0  0  0  0  0  0  0  0  # atno 17342 bound_to 10162
  140.2871  143.3349  152.1097 LP  0  0  0  0  0  0  0  0  0  0  0  0  # atno 17343 bound_to 10162
  156.2863  130.7099  151.1937 LP  0  0  0  0  0  0  0  0  0  0  0  0  # atno 17370 bound_to 10713
  157.7383  131.0542  150.5304 LP  0  0  0  0  0  0  0  0  0  0  0  0  # atno 17371 bound_to 10713
  140.7206  133.9144  155.8144 LP  0  0  0  0  0  0  0  0  0  0  0  0  # atno 17394 bound_to 11000
  141.0230  134.0862  157.4099 LP  0  0  0  0  0  0  0  0  0  0  0  0  # atno 17395 bound_to 11000

$$$$
