AV-unprocessed.smi:2671|AV-procd|sdf|10351|dock6
  -GOLD-   2272014373D 1   1.00000     0.00000
 Structure written by MMmdl.
 29 30  0  0  0  0  0  0  0  0  1 V2000
  154.1474  139.9870  160.1143 O   0  0  0  0  0  0  0  0  0  0  0  0
  153.3926  140.6747  159.4301 C   0  0  0  0  0  0  0  0  0  0  0  0
  153.0180  142.0308  159.8495 C   0  0  0  0  0  0  0  0  0  0  0  0
  152.1879  142.7627  159.0794 C   0  0  0  0  0  0  0  0  0  0  0  0
  151.7524  144.1744  159.4384 C   0  0  0  0  0  0  0  0  0  0  0  0
  152.2281  145.0421  158.5460 F   0  0  0  0  0  0  0  0  0  0  0  0
  150.4226  144.2612  159.4330 F   0  0  0  0  0  0  0  0  0  0  0  0
  152.1899  144.5351  160.6465 F   0  0  0  0  0  0  0  0  0  0  0  0
  151.6904  142.2413  157.8962 N   0  0  0  0  0  0  0  0  0  0  0  0
  152.0592  140.9553  157.5217 C   0  0  0  0  0  0  0  0  0  0  0  0
  151.2710  140.5188  155.9440 S   0  0  0  0  0  0  0  0  0  0  0  0
  149.5612  141.0636  156.2257 C   0  0  0  0  0  0  0  0  0  0  0  0
  148.8178  141.3158  154.9070 C   0  0  1  0  0  0  0  0  0  0  0  0
  148.4893  140.0540  154.1069 C   0  0  0  0  0  0  0  0  0  0  0  0
  147.2372  140.4320  153.3286 C   0  0  0  0  0  0  0  0  0  0  0  0
  146.7892  141.7551  153.9550 C   0  0  0  0  0  0  0  0  0  0  0  0
  147.5323  141.8587  155.1607 O   0  0  0  0  0  0  0  0  0  0  0  0
  152.8554  140.1992  158.2227 N   0  0  0  0  0  0  0  0  0  0  0  0
  151.0726  142.8209  157.3459 H   0  0  0  0  0  0  0  0  0  0  0  0
  153.4074  142.4382  160.7713 H   0  0  0  0  0  0  0  0  0  0  0  0
  149.5836  141.9814  156.8135 H   0  0  0  0  0  0  0  0  0  0  0  0
  149.0356  140.3155  156.8202 H   0  0  0  0  0  0  0  0  0  0  0  0
  149.3753  142.0203  154.2866 H   0  0  0  0  0  0  0  0  0  0  0  0
  149.3115  139.7444  153.4609 H   0  0  0  0  0  0  0  0  0  0  0  0
  148.2624  139.2257  154.7797 H   0  0  0  0  0  0  0  0  0  0  0  0
  147.4422  140.5555  152.2647 H   0  0  0  0  0  0  0  0  0  0  0  0
  146.4726  139.6619  153.4360 H   0  0  0  0  0  0  0  0  0  0  0  0
  147.0448  142.5930  153.3047 H   0  0  0  0  0  0  0  0  0  0  0  0
  145.7166  141.7881  154.1468 H   0  0  0  0  0  0  0  0  0  0  0  0
  1  2  2  0  0  0  0
  2 18  1  0  0  0  0
  2  3  1  0  0  0  0
  3 20  1  0  0  0  0
  3  4  2  0  0  0  0
  4  5  1  0  0  0  0
  4  9  1  0  0  0  0
  5  6  1  0  0  0  0
  5  7  1  0  0  0  0
  5  8  1  0  0  0  0
  9 10  1  0  0  0  0
  9 19  1  0  0  0  0
 10 11  1  0  0  0  0
 10 18  2  0  0  0  0
 11 12  1  0  0  0  0
 12 13  1  0  0  0  0
 12 21  1  0  0  0  0
 12 22  1  0  0  0  0
 13 17  1  0  0  0  0
 13 14  1  0  0  0  0
 13 23  1  0  0  0  0
 14 15  1  0  0  0  0
 14 24  1  0  0  0  0
 14 25  1  0  0  0  0
 15 16  1  0  0  0  0
 15 26  1  0  0  0  0
 15 27  1  0  0  0  0
 16 17  1  0  0  0  0
 16 28  1  0  0  0  0
 16 29  1  0  0  0  0
M  END
> <s_m_source_file>
AV-unprocessed.smi

> <i_m_source_file_index>
2671

> <i_lp_mmshare_version>
43012

> <i_f3d_flags>
0

> <s_epik_input>
W09IXWMxW2NIXWMoQyhGKShGKUYpbmMobjEpU1tDSDJdW0NAQEhdMltDSDJdW0NIMl1bQ0gyXU8y

> <s_epik_cmdline>
J2VwaWtfcHl0aG9uJywgJy1waCcsICc3LjAnLCAnLXRuJywgJzgnLCAnLW1hJywgJzIwMCcsICctbWV0YWxfYmluZGluZycsICctaW1hZScsICc8aW5maWxlLm1hZT4nLCAnLW9tYWUnLCAnPG91dGZpbGUubWFlPic=

> <r_lp_tautomer_probability>
0.273662

> <r_epik_Ionization_Penalty>
1.33793

> <r_epik_Ionization_Penalty_Charging>
1.33793

> <r_epik_Ionization_Penalty_Neutral>
8.2996e-08

> <r_epik_State_Penalty>
1.59174

> <r_epik_Charging_Adjusted_Penalty>
2.92967

> <i_epik_Tot_Q>
0

> <i_epik_Tot_abs_Q>
0

> <r_epik_Metal_State_Penalty>
2.31522

> <b_epik_Metal_Only>
0

> <s_lp_Force_Field>
OPLS_2005

> <r_lp_Energy>
25.3569

> <b_lp_Chiralities_Consistent>
1

> <s_lp_Variant>
AV-unprocessed.smi:2671-6

> <Gold.Version>
5.8.1

> <Gold.Id.Protein>
6NUR|6NUR_protein|mol2

> <Gold.PLP.Fitness>
43.1272

> <Gold.PLP.PLP>
-41.2654

> <Gold.PLP.part.hbond>
-1.0000

> <Gold.PLP.part.metal>
0.0000

> <Gold.PLP.part.buried>
-5.2699

> <Gold.PLP.part.nonpolar>
-35.1415

> <Gold.PLP.part.repulsive>
0.5784

> <Gold.PLP.ligand.clash>
0.0000

> <Gold.PLP.ligand.torsion>
0.4097

> <Gold.PLP.Chemscore.Hbond>
0.8882

> <Gold.PLP.Chemscore.CHOScore>
0.0000

> <Gold.PLP.Chemscore.Metal>
0.0000

> <Gold.Chemscore.Hbonds>
donor molecule, donor type, donor heavy atom, donor atom, acceptor molecule, acceptor atom, score
      P1  H  7997  8009       L1    18  0.81

> <Gold.PLP.Chemscore.Internal.Correction>
0.0167

> <Gold.Rescore>
     Score         DG    S(hbond)    S(metal)    S(lipo)     H(rot)  DE(clash)    DE(int)     intcor
      9.67      -9.90       0.00        0.00      74.83       1.69       0.09       0.15       ----

> <Gold.Chemscore.Fitness>
9.6709

> <Gold.Chemscore.DG>
-9.9034

> <Gold.Chemscore.ZeroCoef>
-5.4800

> <Gold.Chemscore.Hbond>
0.0002

> <Gold.Chemscore.Metal>
0.0000

> <Gold.Chemscore.Lipo>
74.8310

> <Gold.Chemscore.Internal_Hbond>
0.0000

> <Gold.Chemscore.DEClash>
0.0872

> <Gold.Chemscore.DEInternal>
0.1453

> <Gold.Chemscore.Rot>
1.6924

> <Gold.Chemscore.Internal.Correction>
   9.000000E+99

> <Gold.Chemscore.Hbonds>
donor molecule, donor type, donor heavy atom, donor atom, acceptor molecule, acceptor atom, score
      P1  H  7997  8009       L1    18  0.10

> <Gold.Chemscore.Hbond.Weighted>
-0.0006

> <Gold.Chemscore.Metal.Weighted>
-0.0000

> <Gold.Chemscore.Lipo.Weighted>
-8.7552

> <Gold.Chemscore.Internal_Hbond.Weighted>
0.0000

> <Gold.Chemscore.DEClash.Weighted>
0.0872

> <Gold.Chemscore.DEInternal.Weighted>
0.1453

> <Gold.Chemscore.Rot.Weighted>
4.3324

> <Gold.Chemscore.Internal.Correction.Weighted>
   9.000000E+99

> <Gold.Protein.RotatedTorsions>
[ 6907 6896 6895 6894 ] final  -18.97 input  -60.11 | X-H torsion
[ 7974 7965 7964 7962 ] final  -61.07 input  175.53 | X-H torsion
[ 8008 7997 7996 7995 ] final  158.35 input   59.86 | X-H torsion
[ 10167 10162 10161 10158 ] final   46.72 input  -65.29 | X-H torsion
[ 10718 10713 10712 10709 ] final  126.63 input   66.30 | X-H torsion
[ 10763 10752 10751 10750 ] final -134.86 input  -60.55 | X-H torsion
[ 11005 11000 10999 10996 ] final  171.88 input  -57.11 | X-H torsion

> <Gold.Protein.ActiveResidues>
 VAL166  LYS551  ARG553  GLY616  TRP617  ASP618  TYR619  PRO620  LYS621  CYS622 
 ASP623  PHE694  ASN695  SER759  ASP760  ASP761  ALA762  ILE779  LEU786  VAL792 
 PHE793  MET794  SER795  GLU796  ALA797  LYS798  CYS799  TRP800  GLU811  SER814 

> <Gold.Protein.RotatedAtoms>
  151.2701  135.0682  159.9130 H   0  0  0  0  0  0  0  0  0  0  0  0  # atno 6907 bound_to 6896
  152.5352  134.0139  159.7961 H   0  0  0  0  0  0  0  0  0  0  0  0  # atno 6908 bound_to 6896
  151.0376  133.5684  159.2685 H   0  0  0  0  0  0  0  0  0  0  0  0  # atno 6909 bound_to 6896
  145.8079  140.8616  143.0197 H   0  0  0  0  0  0  0  0  0  0  0  0  # atno 7974 bound_to 7965
  156.2308  140.1860  156.7248 H   0  0  0  0  0  0  0  0  0  0  0  0  # atno 8008 bound_to 7997
  154.6019  140.0635  156.9407 H   0  0  0  0  0  0  0  0  0  0  0  0  # atno 8009 bound_to 7997
  155.2160  140.3303  155.4324 H   0  0  0  0  0  0  0  0  0  0  0  0  # atno 8010 bound_to 7997
  140.3111  144.2820  150.6200 H   0  0  0  0  0  0  0  0  0  0  0  0  # atno 10167 bound_to 10162
  157.5403  131.1097  150.8869 H   0  0  0  0  0  0  0  0  0  0  0  0  # atno 10718 bound_to 10713
  154.8712  135.3721  154.4804 H   0  0  0  0  0  0  0  0  0  0  0  0  # atno 10763 bound_to 10752
  153.5458  135.7025  153.5619 H   0  0  0  0  0  0  0  0  0  0  0  0  # atno 10764 bound_to 10752
  153.3761  135.4009  155.1787 H   0  0  0  0  0  0  0  0  0  0  0  0  # atno 10765 bound_to 10752
  140.3238  134.7415  157.4084 H   0  0  0  0  0  0  0  0  0  0  0  0  # atno 11005 bound_to 11000
  144.6761  140.0353  143.7482 LP  0  0  0  0  0  0  0  0  0  0  0  0  # atno 17320 bound_to 7965
  145.9809  139.2940  143.1043 LP  0  0  0  0  0  0  0  0  0  0  0  0  # atno 17321 bound_to 7965
  140.5568  143.2198  151.7834 LP  0  0  0  0  0  0  0  0  0  0  0  0  # atno 17342 bound_to 10162
  139.4894  144.4403  151.9772 LP  0  0  0  0  0  0  0  0  0  0  0  0  # atno 17343 bound_to 10162
  156.9424  130.5389  149.5280 LP  0  0  0  0  0  0  0  0  0  0  0  0  # atno 17370 bound_to 10713
  156.0491  130.5563  150.8949 LP  0  0  0  0  0  0  0  0  0  0  0  0  # atno 17371 bound_to 10713
  140.0919  134.5589  155.8436 LP  0  0  0  0  0  0  0  0  0  0  0  0  # atno 17394 bound_to 11000
  141.2080  133.6669  156.6343 LP  0  0  0  0  0  0  0  0  0  0  0  0  # atno 17395 bound_to 11000

$$$$
