#       Name:                AV-unprocessed.smi:1643
#       Creating user name   scv26
#       Creation time:       Fri Mar 27 07:25:46 2020


#       File generated by GOLD software.
#

@<TRIPOS>MOLECULE
AV-unprocessed.smi:1643
    59    61     1
SMALL
NO_CHARGES


@<TRIPOS>ATOM
      1 ****        -4.9907  -4.0369   0.1828 C.3            1 S1                 0.0000
      2 ****        -3.8766  -4.4188   1.1611 C.2            1 S1                 0.0000
      3 ****        -4.1944  -4.7066   2.3151 O.2            1 S1                 0.0000
      4 ****        -2.5914  -4.4387   0.7290 N.am           1 S1                 0.0000
      5 ****        -1.5011  -4.9062   1.5979 C.3            1 S1                 0.0000
      6 ****        -0.7043  -3.7380   2.2209 C.3            1 S1                 0.0000
      7 ****        -0.9309  -2.3496   1.5807 C.3            1 S1                 0.0000
      8 ****        -0.4988  -2.2275   0.1575 N.4            1 S1                 1.0000
      9 ****        -0.9669  -0.9672  -0.4819 C.3            1 S1                 0.0000
     10 ****        -0.3461   0.3050   0.1323 C.3            1 S1                 0.0000
     11 ****        -0.9354   1.4187  -0.5079 O.3            1 S1                 0.0000
     12 ****         1.1858   0.3693  -0.0379 C.3            1 S1                 0.0000
     13 ****         1.7584   1.5699   0.5443 N.pl3          1 S1                 0.0000
     14 ****         2.1067   1.7587   1.8316 C.2            1 S1                 0.0000
     15 ****         2.6142   2.9433   2.1579 N.2            1 S1                 0.0000
     16 ****         2.5955   3.6005   0.9396 C.ar           1 S1                 0.0000
     17 ****         3.0024   4.9084   0.5971 C.ar           1 S1                 0.0000
     18 ****         2.8882   5.3784  -0.7306 C.ar           1 S1                 0.0000
     19 ****         3.3363   6.7929  -1.0545 C.3            1 S1                 0.0000
     20 ****         2.3602   4.5343  -1.7403 C.ar           1 S1                 0.0000
     21 ****         2.2281   5.0180  -3.1736 C.3            1 S1                 0.0000
     22 ****         1.9492   3.2246  -1.4153 C.ar           1 S1                 0.0000
     23 ****         2.0672   2.7686  -0.0905 C.ar           1 S1                 0.0000
     24 ****        -0.7458  -3.4201  -0.7049 C.3            1 S1                 0.0000
     25 ****        -2.1785  -4.0097  -0.6208 C.3            1 S1                 0.0000
     26 ****        -4.9087  -4.6023  -0.7459 H              1 S1                 0.0000
     27 ****        -4.9550  -2.9715  -0.0453 H              1 S1                 0.0000
     28 ****        -5.9689  -4.2520   0.6144 H              1 S1                 0.0000
     29 ****        -1.8620  -5.5630   2.3911 H              1 S1                 0.0000
     30 ****        -0.8389  -5.5504   1.0191 H              1 S1                 0.0000
     31 ****        -0.9848  -3.6630   3.2722 H              1 S1                 0.0000
     32 ****         0.3590  -3.9806   2.2210 H              1 S1                 0.0000
     33 ****        -1.9795  -2.0637   1.6769 H              1 S1                 0.0000
     34 ****        -0.3738  -1.6206   2.1685 H              1 S1                 0.0000
     35 ****        -0.7224  -0.9815  -1.5451 H              1 S1                 0.0000
     36 ****        -2.0558  -0.9232  -0.4217 H              1 S1                 0.0000
     37 ****        -0.6033   0.3816   1.1883 H              1 S1                 0.0000
     38 ****        -0.5787   2.2084  -0.1293 H              1 S1                 0.0000
     39 ****         1.6578  -0.4915   0.4367 H              1 S1                 0.0000
     40 ****         1.4574   0.3286  -1.0936 H              1 S1                 0.0000
     41 ****         1.9778   0.9828   2.5722 H              1 S1                 0.0000
     42 ****         3.4038   5.5511   1.3668 H              1 S1                 0.0000
     43 ****         4.1327   6.7809  -1.7989 H              1 S1                 0.0000
     44 ****         3.7141   7.3038  -0.1683 H              1 S1                 0.0000
     45 ****         2.5034   7.3769  -1.4469 H              1 S1                 0.0000
     46 ****         1.7889   4.2518  -3.8130 H              1 S1                 0.0000
     47 ****         3.2059   5.2744  -3.5819 H              1 S1                 0.0000
     48 ****         1.5893   5.9001  -3.2226 H              1 S1                 0.0000
     49 ****         1.5435   2.5726  -2.1746 H              1 S1                 0.0000
     50 ****        -0.5280  -3.1704  -1.7439 H              1 S1                 0.0000
     51 ****         0.0008  -4.1759  -0.4636 H              1 S1                 0.0000
     52 ****        -2.2543  -4.8701  -1.2867 H              1 S1                 0.0000
     53 ****        -2.8575  -3.2559  -1.0187 H              1 S1                 0.0000
     54 ****         0.5078  -2.1496   0.1851 H              1 S1                 0.0000
     55 ****        -5.1561  -4.6865   2.5887 LP             1 S1                 0.0000
     56 ****        -3.4909  -4.9605   2.9789 LP             1 S1                 0.0000
     57 ****        -1.9262   1.3988  -0.3741 LP             1 S1                 0.0000
     58 ****        -0.7307   1.3920  -1.4864 LP             1 S1                 0.0000
     59 ****         2.9270   3.2729   3.0487 LP             1 S1                 0.0000
@<TRIPOS>BOND
    1    1    2 1     
    2    1   26 1     
    3    1   27 1     
    4    1   28 1     
    5    2    3 2     
    6    2    4 am    
    7    4   25 1     
    8    4    5 1     
    9    5    6 1     
   10    5   29 1     
   11    5   30 1     
   12    6    7 1     
   13    6   31 1     
   14    6   32 1     
   15    7    8 1     
   16    7   33 1     
   17    7   34 1     
   18    8    9 1     
   19    8   24 1     
   20    8   54 1     
   21    9   10 1     
   22    9   35 1     
   23    9   36 1     
   24   10   11 1     
   25   10   12 1     
   26   10   37 1     
   27   11   38 1     
   28   12   13 1     
   29   12   39 1     
   30   12   40 1     
   31   13   23 1     
   32   13   14 1     
   33   14   15 2     
   34   14   41 1     
   35   15   16 1     
   36   16   23 ar    
   37   16   17 ar    
   38   17   18 ar    
   39   17   42 1     
   40   18   19 1     
   41   18   20 ar    
   42   19   43 1     
   43   19   44 1     
   44   19   45 1     
   45   20   21 1     
   46   20   22 ar    
   47   21   46 1     
   48   21   47 1     
   49   21   48 1     
   50   22   23 ar    
   51   22   49 1     
   52   24   25 1     
   53   24   50 1     
   54   24   51 1     
   55   25   52 1     
   56   25   53 1     
   57    3   55 1     
   58    3   56 1     
   59   11   57 1     
   60   11   58 1     
   61   15   59 1     
@<TRIPOS>SUBSTRUCTURE
      1 S1             1
@<TRIPOS>SET
LONE_PAIRS      STATIC     ATOMS    <user>   **** ""
5 55 56 57 58 59
DONOR_HYDROGENS      STATIC     ATOMS    <user>   **** ""
2 54 38
ATOM$BLUE        STATIC     ATOMS    COLORGROUP SYSTEM
5 55 56 57 58 59
ATOM$RED        STATIC     ATOMS    COLORGROUP SYSTEM
2 54 38
