AV-unprocessed.smi:1570|AV-procd|sdf|6315|dock3
  -GOLD-   22720 6523D 1   1.00000     0.00000
 Structure written by MMmdl.
 51 53  0  0  0  0  0  0  0  0  1 V2000
  151.5952  140.4028  155.9970 C   0  0  0  0  0  0  0  0  0  0  0  0
  150.7510  140.7938  157.2162 C   0  0  0  0  0  0  0  0  0  0  0  0
  151.5940  141.0710  158.3767 N   0  0  0  0  0  0  0  0  0  0  0  0
  152.4900  140.2286  158.9431 C   0  0  0  0  0  0  0  0  0  0  0  0
  152.7524  139.0881  158.5615 O   0  0  0  0  0  0  0  0  0  0  0  0
  153.0501  140.8602  160.0015 N   0  0  0  0  0  0  0  0  0  0  0  0
  154.0812  140.3249  160.8888 C   0  0  0  0  0  0  0  0  0  0  0  0
  155.3241  139.8552  160.1004 C   0  0  1  0  0  0  0  0  0  0  0  0
  156.0805  140.9687  159.6678 O   0  0  0  0  0  0  0  0  0  0  0  0
  156.2569  138.8807  160.8587 C   0  0  0  0  0  0  0  0  0  0  0  0
  155.6677  137.6380  161.3740 N   0  0  0  0  0  0  0  0  0  0  0  0
  155.0499  137.8681  162.6751 C   0  0  0  0  0  0  0  0  0  0  0  0
  154.3723  136.6030  163.2300 C   0  0  2  0  0  0  0  0  0  0  0  0
  153.7922  136.8265  164.6306 C   0  0  0  0  0  0  0  0  0  0  0  0
  155.3324  135.5521  163.3106 O   0  0  0  0  0  0  0  0  0  0  0  0
  156.0187  135.2639  162.0922 C   0  0  1  0  0  0  0  0  0  0  0  0
  155.1213  134.5081  161.0973 C   0  0  0  0  0  0  0  0  0  0  0  0
  156.6341  136.5490  161.5022 C   0  0  0  0  0  0  0  0  0  0  0  0
  152.5003  142.1452  160.1133 C   0  0  0  0  0  0  0  0  0  0  0  0
  152.7497  143.1826  161.0288 C   0  0  0  0  0  0  0  0  0  0  0  0
  152.0105  144.3780  160.8685 C   0  0  0  0  0  0  0  0  0  0  0  0
  151.0604  144.5107  159.8228 C   0  0  0  0  0  0  0  0  0  0  0  0
  150.8310  143.4517  158.9134 C   0  0  0  0  0  0  0  0  0  0  0  0
  151.5804  142.2760  159.0938 C   0  0  0  0  0  0  0  0  0  0  0  0
  150.9590  140.1964  155.1365 H   0  0  0  0  0  0  0  0  0  0  0  0
  152.1860  139.5083  156.1959 H   0  0  0  0  0  0  0  0  0  0  0  0
  152.2811  141.2038  155.7188 H   0  0  0  0  0  0  0  0  0  0  0  0
  150.1445  141.6695  156.9802 H   0  0  0  0  0  0  0  0  0  0  0  0
  150.0474  139.9960  157.4555 H   0  0  0  0  0  0  0  0  0  0  0  0
  154.3409  141.0660  161.6449 H   0  0  0  0  0  0  0  0  0  0  0  0
  153.6484  139.4843  161.4335 H   0  0  0  0  0  0  0  0  0  0  0  0
  154.9897  139.3282  159.2055 H   0  0  0  0  0  0  0  0  0  0  0  0
  156.9593  140.8786  160.0041 H   0  0  0  0  0  0  0  0  0  0  0  0
  157.1299  138.6530  160.2453 H   0  0  0  0  0  0  0  0  0  0  0  0
  156.6468  139.4424  161.7090 H   0  0  0  0  0  0  0  0  0  0  0  0
  155.8021  138.2202  163.3831 H   0  0  0  0  0  0  0  0  0  0  0  0
  154.3048  138.6606  162.5940 H   0  0  0  0  0  0  0  0  0  0  0  0
  153.5599  136.3035  162.5671 H   0  0  0  0  0  0  0  0  0  0  0  0
  153.0410  137.6167  164.6228 H   0  0  0  0  0  0  0  0  0  0  0  0
  154.5705  137.1106  165.3395 H   0  0  0  0  0  0  0  0  0  0  0  0
  153.3163  135.9192  165.0034 H   0  0  0  0  0  0  0  0  0  0  0  0
  156.8366  134.5922  162.3543 H   0  0  0  0  0  0  0  0  0  0  0  0
  155.6895  134.1996  160.2196 H   0  0  0  0  0  0  0  0  0  0  0  0
  154.2906  135.1203  160.7471 H   0  0  0  0  0  0  0  0  0  0  0  0
  154.7056  133.6097  161.5539 H   0  0  0  0  0  0  0  0  0  0  0  0
  157.0655  136.3019  160.5359 H   0  0  0  0  0  0  0  0  0  0  0  0
  157.4599  136.8709  162.1386 H   0  0  0  0  0  0  0  0  0  0  0  0
  153.4750  143.0770  161.8219 H   0  0  0  0  0  0  0  0  0  0  0  0
  152.1715  145.1999  161.5505 H   0  0  0  0  0  0  0  0  0  0  0  0
  150.5060  145.4317  159.7191 H   0  0  0  0  0  0  0  0  0  0  0  0
  150.1097  143.5471  158.1155 H   0  0  0  0  0  0  0  0  0  0  0  0
  1  2  1  0  0  0  0
  1 25  1  0  0  0  0
  1 26  1  0  0  0  0
  1 27  1  0  0  0  0
  2  3  1  0  0  0  0
  2 28  1  0  0  0  0
  2 29  1  0  0  0  0
  3 24  1  0  0  0  0
  3  4  1  0  0  0  0
  4  5  2  0  0  0  0
  4  6  1  0  0  0  0
  6  7  1  0  0  0  0
  6 19  1  0  0  0  0
  7  8  1  0  0  0  0
  7 30  1  0  0  0  0
  7 31  1  0  0  0  0
  8  9  1  0  0  0  0
  8 10  1  0  0  0  0
  8 32  1  0  0  0  0
  9 33  1  0  0  0  0
 10 11  1  0  0  0  0
 10 34  1  0  0  0  0
 10 35  1  0  0  0  0
 11 18  1  0  0  0  0
 11 12  1  0  0  0  0
 12 13  1  0  0  0  0
 12 36  1  0  0  0  0
 12 37  1  0  0  0  0
 13 14  1  0  0  0  0
 13 15  1  0  0  0  0
 13 38  1  0  0  0  0
 14 39  1  0  0  0  0
 14 40  1  0  0  0  0
 14 41  1  0  0  0  0
 15 16  1  0  0  0  0
 16 17  1  0  0  0  0
 16 18  1  0  0  0  0
 16 42  1  0  0  0  0
 17 43  1  0  0  0  0
 17 44  1  0  0  0  0
 17 45  1  0  0  0  0
 18 46  1  0  0  0  0
 18 47  1  0  0  0  0
 19 24  2  0  0  0  0
 19 20  1  0  0  0  0
 20 21  2  0  0  0  0
 20 48  1  0  0  0  0
 21 22  1  0  0  0  0
 21 49  1  0  0  0  0
 22 23  2  0  0  0  0
 22 50  1  0  0  0  0
 23 24  1  0  0  0  0
 23 51  1  0  0  0  0
M  END
> <s_m_source_file>
AV-unprocessed.smi

> <i_m_source_file_index>
1570

> <i_lp_mmshare_version>
43012

> <i_f3d_flags>
0

> <s_epik_input>
W2NIXTFbY0hdW2NIXVtjSF1jKGMxMiluKFtDSDJdW0NIM10pYyg9TyluMltDSDJdW0NASF0oW09IXSlbQ0gyXU4zW0NIMl1bQ0BASF0oW0NIM10pT1tDQEBIXShbQ0gzXSlbQ0gyXTM=

> <s_epik_cmdline>
J2VwaWtfcHl0aG9uJywgJy1waCcsICc3LjAnLCAnLXRuJywgJzgnLCAnLW1hJywgJzIwMCcsICctbWV0YWxfYmluZGluZycsICctaW1hZScsICc8aW5maWxlLm1hZT4nLCAnLW9tYWUnLCAnPG91dGZpbGUubWFlPic=

> <r_epik_Ionization_Penalty>
0.214359

> <r_epik_Ionization_Penalty_Charging>
2.30976e-09

> <r_epik_Ionization_Penalty_Neutral>
0.214359

> <r_epik_State_Penalty>
0.204533

> <r_epik_Charging_Adjusted_Penalty>
0.204533

> <i_epik_Tot_Q>
0

> <i_epik_Tot_abs_Q>
0

> <r_epik_Metal_State_Penalty>
0.204533

> <b_epik_Metal_Only>
0

> <s_lp_Force_Field>
OPLS_2005

> <r_lp_Energy>
68.4361

> <b_lp_Chiralities_Consistent>
1

> <s_lp_Variant>
AV-unprocessed.smi:1570-4

> <Gold.Version>
5.8.1

> <Gold.Id.Protein>
6NUR|6NUR_protein|mol2

> <Gold.PLP.Fitness>
44.3728

> <Gold.PLP.PLP>
-45.1833

> <Gold.PLP.part.hbond>
-0.2674

> <Gold.PLP.part.metal>
0.0000

> <Gold.PLP.part.buried>
-5.6761

> <Gold.PLP.part.nonpolar>
-39.2545

> <Gold.PLP.part.repulsive>
0.0236

> <Gold.PLP.ligand.clash>
0.0000

> <Gold.PLP.ligand.torsion>
0.4638

> <Gold.PLP.Chemscore.Hbond>
0.0000

> <Gold.PLP.Chemscore.CHOScore>
0.0000

> <Gold.PLP.Chemscore.Metal>
0.0000

> <Gold.PLP.Chemscore.Internal.Correction>
0.1170

> <Gold.Rescore>
     Score         DG    S(hbond)    S(metal)    S(lipo)     H(rot)  DE(clash)    DE(int)     intcor
     14.91     -15.43       0.00        0.00     130.07       2.06       0.06       0.47       ----

> <Gold.Chemscore.Fitness>
14.9089

> <Gold.Chemscore.DG>
-15.4338

> <Gold.Chemscore.ZeroCoef>
-5.4800

> <Gold.Chemscore.Hbond>
0.0008

> <Gold.Chemscore.Metal>
0.0000

> <Gold.Chemscore.Lipo>
130.0668

> <Gold.Chemscore.Internal_Hbond>
0.0000

> <Gold.Chemscore.DEClash>
0.0555

> <Gold.Chemscore.DEInternal>
0.4694

> <Gold.Chemscore.Rot>
2.0574

> <Gold.Chemscore.Internal.Correction>
   9.000000E+99

> <Gold.Chemscore.Hbond.Weighted>
-0.0028

> <Gold.Chemscore.Metal.Weighted>
-0.0000

> <Gold.Chemscore.Lipo.Weighted>
-15.2178

> <Gold.Chemscore.Internal_Hbond.Weighted>
0.0000

> <Gold.Chemscore.DEClash.Weighted>
0.0555

> <Gold.Chemscore.DEInternal.Weighted>
0.4694

> <Gold.Chemscore.Rot.Weighted>
5.2669

> <Gold.Chemscore.Internal.Correction.Weighted>
   9.000000E+99

> <Gold.Protein.RotatedTorsions>
[ 6907 6896 6895 6894 ] final -170.92 input  -60.11 | X-H torsion
[ 7974 7965 7964 7962 ] final -106.65 input  175.53 | X-H torsion
[ 8008 7997 7996 7995 ] final  -33.02 input   59.86 | X-H torsion
[ 10167 10162 10161 10158 ] final  146.63 input  -65.29 | X-H torsion
[ 10718 10713 10712 10709 ] final  129.87 input   66.30 | X-H torsion
[ 10763 10752 10751 10750 ] final   46.76 input  -60.55 | X-H torsion
[ 11005 11000 10999 10996 ] final  150.99 input  -57.11 | X-H torsion

> <Gold.Protein.ActiveResidues>
 VAL166  LYS551  ARG553  GLY616  TRP617  ASP618  TYR619  PRO620  LYS621  CYS622 
 ASP623  PHE694  ASN695  SER759  ASP760  ASP761  ALA762  ILE779  LEU786  VAL792 
 PHE793  MET794  SER795  GLU796  ALA797  LYS798  CYS799  TRP800  GLU811  SER814 

> <Gold.Protein.RotatedAtoms>
  151.5156  133.3476  159.2892 H   0  0  0  0  0  0  0  0  0  0  0  0  # atno 6907 bound_to 6896
  150.8685  134.8056  159.7148 H   0  0  0  0  0  0  0  0  0  0  0  0  # atno 6908 bound_to 6896
  152.4681  134.5036  159.9784 H   0  0  0  0  0  0  0  0  0  0  0  0  # atno 6909 bound_to 6896
  145.2152  140.9112  143.3291 H   0  0  0  0  0  0  0  0  0  0  0  0  # atno 7974 bound_to 7965
  154.4162  140.1722  156.1821 H   0  0  0  0  0  0  0  0  0  0  0  0  # atno 8008 bound_to 7997
  155.9674  140.3388  155.6521 H   0  0  0  0  0  0  0  0  0  0  0  0  # atno 8009 bound_to 7997
  155.6670  140.0707  157.2524 H   0  0  0  0  0  0  0  0  0  0  0  0  # atno 8010 bound_to 7997
  139.4904  144.5815  151.6862 H   0  0  0  0  0  0  0  0  0  0  0  0  # atno 10167 bound_to 10162
  157.5114  131.1097  150.9287 H   0  0  0  0  0  0  0  0  0  0  0  0  # atno 10718 bound_to 10713
  152.9807  135.5998  154.3652 H   0  0  0  0  0  0  0  0  0  0  0  0  # atno 10763 bound_to 10752
  154.3331  135.2768  155.2463 H   0  0  0  0  0  0  0  0  0  0  0  0  # atno 10764 bound_to 10752
  154.4579  135.5973  153.6291 H   0  0  0  0  0  0  0  0  0  0  0  0  # atno 10765 bound_to 10752
  140.1179  134.8882  157.2031 H   0  0  0  0  0  0  0  0  0  0  0  0  # atno 11005 bound_to 11000
  144.9817  139.3776  143.6258 LP  0  0  0  0  0  0  0  0  0  0  0  0  # atno 17320 bound_to 7965
  146.3388  139.8961  142.8801 LP  0  0  0  0  0  0  0  0  0  0  0  0  # atno 17321 bound_to 7965
  140.5422  144.0560  150.6093 LP  0  0  0  0  0  0  0  0  0  0  0  0  # atno 17342 bound_to 10162
  140.3586  143.2921  152.0408 LP  0  0  0  0  0  0  0  0  0  0  0  0  # atno 17343 bound_to 10162
  156.9926  130.5569  149.5304 LP  0  0  0  0  0  0  0  0  0  0  0  0  # atno 17370 bound_to 10713
  156.0292  130.5384  150.8488 LP  0  0  0  0  0  0  0  0  0  0  0  0  # atno 17371 bound_to 10713
  140.3004  134.3139  155.7291 LP  0  0  0  0  0  0  0  0  0  0  0  0  # atno 17394 bound_to 11000
  141.2145  133.7588  156.9632 LP  0  0  0  0  0  0  0  0  0  0  0  0  # atno 17395 bound_to 11000

$$$$
