AV-unprocessed.smi:2496|AV-procd|sdf|9827|dock6
  -GOLD-   2272013453D 1   1.00000     0.00000
 Structure written by MMmdl.
 40 40  0  0  0  0  0  0  0  0  1 V2000
  151.1309  138.8777  154.9618 C   0  0  0  0  0  0  0  0  0  0  0  0
  150.1801  140.0363  154.8621 C   0  0  0  0  0  0  0  0  0  0  0  0
  150.5539  141.2203  155.3211 N   0  0  0  0  0  0  0  0  0  0  0  0
  149.4902  142.0067  155.0867 N   0  0  0  0  0  0  0  0  0  0  0  0
  148.4457  141.3417  154.4887 C   0  0  0  0  0  0  0  0  0  0  0  0
  147.1673  142.0369  154.1538 C   0  0  0  0  0  0  0  0  0  0  0  0
  148.8575  140.0438  154.3207 C   0  0  0  0  0  0  0  0  0  0  0  0
  148.1162  138.8629  153.7248 C   0  0  2  0  0  0  0  0  0  0  0  0
  146.8705  139.3104  152.9370 C   0  0  0  0  0  0  0  0  0  0  0  0
  147.7980  137.8391  154.8278 C   0  0  0  0  0  0  0  0  0  0  0  0
  147.1225  138.1546  155.8082 O   0  0  0  0  0  0  0  0  0  0  0  0
  148.3030  136.6073  154.6502 N   0  0  0  0  0  0  0  0  0  0  0  0
  148.2112  135.4956  155.5941 C   0  0  1  0  0  0  0  0  0  0  0  0
  146.7782  134.9353  155.5540 C   0  0  0  0  0  0  0  0  0  0  0  0
  149.2989  134.4368  155.2714 C   0  0  0  0  0  0  0  0  0  0  0  0
  150.7132  135.0432  155.2343 C   0  0  0  0  0  0  0  0  0  0  0  0
  149.0216  133.6979  153.9466 C   0  0  0  0  0  0  0  0  0  0  0  0
  149.4896  142.9849  155.3389 H   0  0  0  0  0  0  0  0  0  0  0  0
  150.6972  138.0698  155.5512 H   0  0  0  0  0  0  0  0  0  0  0  0
  152.0721  139.1631  155.4332 H   0  0  0  0  0  0  0  0  0  0  0  0
  151.3639  138.4808  153.9738 H   0  0  0  0  0  0  0  0  0  0  0  0
  146.3079  141.4031  154.3715 H   0  0  0  0  0  0  0  0  0  0  0  0
  147.1367  142.2979  153.0962 H   0  0  0  0  0  0  0  0  0  0  0  0
  147.0557  142.9556  154.7303 H   0  0  0  0  0  0  0  0  0  0  0  0
  148.7604  138.3420  153.0156 H   0  0  0  0  0  0  0  0  0  0  0  0
  146.1446  139.8169  153.5731 H   0  0  0  0  0  0  0  0  0  0  0  0
  146.3684  138.4604  152.4738 H   0  0  0  0  0  0  0  0  0  0  0  0
  147.1456  139.9990  152.1377 H   0  0  0  0  0  0  0  0  0  0  0  0
  148.8412  136.4418  153.8118 H   0  0  0  0  0  0  0  0  0  0  0  0
  148.4005  135.8675  156.6028 H   0  0  0  0  0  0  0  0  0  0  0  0
  146.6168  134.1805  156.3229 H   0  0  0  0  0  0  0  0  0  0  0  0
  146.5560  134.4830  154.5870 H   0  0  0  0  0  0  0  0  0  0  0  0
  146.0448  135.7234  155.7276 H   0  0  0  0  0  0  0  0  0  0  0  0
  149.2875  133.6881  156.0651 H   0  0  0  0  0  0  0  0  0  0  0  0
  150.7822  135.8410  154.4942 H   0  0  0  0  0  0  0  0  0  0  0  0
  151.4564  134.2879  154.9768 H   0  0  0  0  0  0  0  0  0  0  0  0
  151.0052  135.4543  156.2001 H   0  0  0  0  0  0  0  0  0  0  0  0
  148.9567  134.3963  153.1116 H   0  0  0  0  0  0  0  0  0  0  0  0
  148.0900  133.1325  153.9809 H   0  0  0  0  0  0  0  0  0  0  0  0
  149.8146  132.9846  153.7209 H   0  0  0  0  0  0  0  0  0  0  0  0
  1  2  1  0  0  0  0
  1 19  1  0  0  0  0
  1 20  1  0  0  0  0
  1 21  1  0  0  0  0
  2  7  1  0  0  0  0
  2  3  2  0  0  0  0
  3  4  1  0  0  0  0
  4 18  1  0  0  0  0
  4  5  1  0  0  0  0
  5  6  1  0  0  0  0
  5  7  2  0  0  0  0
  6 22  1  0  0  0  0
  6 23  1  0  0  0  0
  6 24  1  0  0  0  0
  7  8  1  0  0  0  0
  8  9  1  0  0  0  0
  8 10  1  0  0  0  0
  8 25  1  0  0  0  0
  9 26  1  0  0  0  0
  9 27  1  0  0  0  0
  9 28  1  0  0  0  0
 10 11  2  0  0  0  0
 10 12  1  0  0  0  0
 12 13  1  0  0  0  0
 12 29  1  0  0  0  0
 13 14  1  0  0  0  0
 13 15  1  0  0  0  0
 13 30  1  0  0  0  0
 14 31  1  0  0  0  0
 14 32  1  0  0  0  0
 14 33  1  0  0  0  0
 15 16  1  0  0  0  0
 15 17  1  0  0  0  0
 15 34  1  0  0  0  0
 16 35  1  0  0  0  0
 16 36  1  0  0  0  0
 16 37  1  0  0  0  0
 17 38  1  0  0  0  0
 17 39  1  0  0  0  0
 17 40  1  0  0  0  0
M  END
> <s_m_source_file>
AV-unprocessed.smi

> <i_m_source_file_index>
2496

> <i_lp_mmshare_version>
43012

> <i_f3d_flags>
0

> <s_epik_input>
W0NIM11jMW5bbkhdYyhbQ0gzXSljMVtDQEhdKFtDSDNdKUMoPU8pW05IXVtDQEhdKFtDSDNdKVtDSF0oW0NIM10pW0NIM10=

> <s_epik_cmdline>
J2VwaWtfcHl0aG9uJywgJy1waCcsICc3LjAnLCAnLXRuJywgJzgnLCAnLW1hJywgJzIwMCcsICctbWV0YWxfYmluZGluZycsICctaW1hZScsICc8aW5maWxlLm1hZT4nLCAnLW9tYWUnLCAnPG91dGZpbGUubWFlPic=

> <r_lp_tautomer_probability>
1

> <r_epik_Ionization_Penalty>
0.000456212

> <r_epik_Ionization_Penalty_Charging>
0

> <r_epik_Ionization_Penalty_Neutral>
0.000456212

> <r_epik_State_Penalty>
-0

> <r_epik_Charging_Adjusted_Penalty>
0

> <i_epik_Tot_Q>
0

> <i_epik_Tot_abs_Q>
0

> <r_epik_Metal_State_Penalty>
-0

> <b_epik_Metal_Only>
0

> <s_lp_Force_Field>
OPLS_2005

> <r_lp_Energy>
1.42294

> <b_lp_Chiralities_Consistent>
1

> <s_lp_Variant>
AV-unprocessed.smi:2496-3

> <Gold.Version>
5.8.1

> <Gold.Id.Protein>
6NUR|6NUR_protein|mol2

> <Gold.PLP.Fitness>
32.9555

> <Gold.PLP.PLP>
-27.9686

> <Gold.PLP.part.hbond>
-3.0000

> <Gold.PLP.part.metal>
0.0000

> <Gold.PLP.part.buried>
-1.2003

> <Gold.PLP.part.nonpolar>
-23.9953

> <Gold.PLP.part.repulsive>
0.3100

> <Gold.PLP.ligand.clash>
0.0000

> <Gold.PLP.ligand.torsion>
0.5619

> <Gold.PLP.Chemscore.Hbond>
2.0000

> <Gold.PLP.Chemscore.CHOScore>
0.0000

> <Gold.PLP.Chemscore.Metal>
0.0000

> <Gold.Chemscore.Hbonds>
donor molecule, donor type, donor heavy atom, donor atom, acceptor molecule, acceptor atom, score
      L1  H     4    18       P1  8028  1.00
      L1  H    12    29       P1  7948  1.00

> <Gold.PLP.Chemscore.Internal.Correction>
0.1107

> <Gold.Rescore>
     Score         DG    S(hbond)    S(metal)    S(lipo)     H(rot)  DE(clash)    DE(int)     intcor
     14.32     -15.95       1.95        0.00      65.96       1.47       0.06       1.56       ----

> <Gold.Chemscore.Fitness>
14.3208

> <Gold.Chemscore.DG>
-15.9468

> <Gold.Chemscore.ZeroCoef>
-5.4800

> <Gold.Chemscore.Hbond>
1.9470

> <Gold.Chemscore.Metal>
0.0000

> <Gold.Chemscore.Lipo>
65.9599

> <Gold.Chemscore.Internal_Hbond>
0.0000

> <Gold.Chemscore.DEClash>
0.0625

> <Gold.Chemscore.DEInternal>
1.5635

> <Gold.Chemscore.Rot>
1.4662

> <Gold.Chemscore.Internal.Correction>
   9.000000E+99

> <Gold.Chemscore.Hbonds>
donor molecule, donor type, donor heavy atom, donor atom, acceptor molecule, acceptor atom, score
      L1  H     4    18       P1  8028  1.00
      L1  H    12    29       P1  7948  0.95

> <Gold.Chemscore.Hbond.Weighted>
-6.5029

> <Gold.Chemscore.Metal.Weighted>
-0.0000

> <Gold.Chemscore.Lipo.Weighted>
-7.7173

> <Gold.Chemscore.Internal_Hbond.Weighted>
0.0000

> <Gold.Chemscore.DEClash.Weighted>
0.0625

> <Gold.Chemscore.DEInternal.Weighted>
1.5635

> <Gold.Chemscore.Rot.Weighted>
3.7534

> <Gold.Chemscore.Internal.Correction.Weighted>
   9.000000E+99

> <Gold.Protein.RotatedTorsions>
[ 6907 6896 6895 6894 ] final  103.70 input  -60.11 | X-H torsion
[ 7974 7965 7964 7962 ] final   66.67 input  175.53 | X-H torsion
[ 8008 7997 7996 7995 ] final  142.19 input   59.86 | X-H torsion
[ 10167 10162 10161 10158 ] final -114.86 input  -65.29 | X-H torsion
[ 10718 10713 10712 10709 ] final   23.67 input   66.30 | X-H torsion
[ 10763 10752 10751 10750 ] final -149.59 input  -60.55 | X-H torsion
[ 11005 11000 10999 10996 ] final  -45.62 input  -57.11 | X-H torsion

> <Gold.Protein.ActiveResidues>
 VAL166  LYS551  ARG553  GLY616  TRP617  ASP618  TYR619  PRO620  LYS621  CYS622 
 ASP623  PHE694  ASN695  SER759  ASP760  ASP761  ALA762  ILE779  LEU786  VAL792 
 PHE793  MET794  SER795  GLU796  ALA797  LYS798  CYS799  TRP800  GLU811  SER814 

> <Gold.Protein.RotatedAtoms>
  152.5287  133.9786  159.7795 H   0  0  0  0  0  0  0  0  0  0  0  0  # atno 6907 bound_to 6896
  151.0044  133.6017  159.2698 H   0  0  0  0  0  0  0  0  0  0  0  0  # atno 6908 bound_to 6896
  151.3114  135.0801  159.9327 H   0  0  0  0  0  0  0  0  0  0  0  0  # atno 6909 bound_to 6896
  145.8238  139.3100  143.1027 H   0  0  0  0  0  0  0  0  0  0  0  0  # atno 7974 bound_to 7965
  156.2953  140.2295  156.4687 H   0  0  0  0  0  0  0  0  0  0  0  0  # atno 8008 bound_to 7997
  154.7954  140.0451  157.1254 H   0  0  0  0  0  0  0  0  0  0  0  0  # atno 8009 bound_to 7997
  154.9596  140.3052  155.5040 H   0  0  0  0  0  0  0  0  0  0  0  0  # atno 8010 bound_to 7997
  140.0964  143.4652  152.1839 H   0  0  0  0  0  0  0  0  0  0  0  0  # atno 10167 bound_to 10162
  157.1692  130.6752  149.6072 H   0  0  0  0  0  0  0  0  0  0  0  0  # atno 10718 bound_to 10713
  154.8168  135.3305  154.7152 H   0  0  0  0  0  0  0  0  0  0  0  0  # atno 10763 bound_to 10752
  153.7791  135.6920  153.4896 H   0  0  0  0  0  0  0  0  0  0  0  0  # atno 10764 bound_to 10752
  153.1992  135.4522  155.0193 H   0  0  0  0  0  0  0  0  0  0  0  0  # atno 10765 bound_to 10752
  141.0527  133.6737  156.3038 H   0  0  0  0  0  0  0  0  0  0  0  0  # atno 11005 bound_to 11000
  145.9646  140.8809  143.0193 LP  0  0  0  0  0  0  0  0  0  0  0  0  # atno 17320 bound_to 7965
  144.6745  140.1860  143.7401 LP  0  0  0  0  0  0  0  0  0  0  0  0  # atno 17321 bound_to 7965
  139.5695  144.7455  151.3928 LP  0  0  0  0  0  0  0  0  0  0  0  0  # atno 17342 bound_to 10162
  140.7001  143.7652  150.7389 LP  0  0  0  0  0  0  0  0  0  0  0  0  # atno 17343 bound_to 10162
  155.9741  130.4685  150.6361 LP  0  0  0  0  0  0  0  0  0  0  0  0  # atno 17370 bound_to 10713
  157.4059  131.0816  151.1266 LP  0  0  0  0  0  0  0  0  0  0  0  0  # atno 17371 bound_to 10713
  140.6024  134.5541  157.5520 LP  0  0  0  0  0  0  0  0  0  0  0  0  # atno 17394 bound_to 11000
  139.9364  134.7868  156.0793 LP  0  0  0  0  0  0  0  0  0  0  0  0  # atno 17395 bound_to 11000

$$$$
