AV-unprocessed.smi:1686|AV-procd|sdf|6758|dock6
  -GOLD-   22720 7513D 1   1.00000     0.00000
 Structure written by MMmdl.
 41 43  0  0  0  0  0  0  0  0  1 V2000
  145.8853  142.9988  154.2596 C   0  0  0  0  0  0  0  0  0  0  0  0
  146.2595  141.7198  154.9517 C   0  0  0  0  0  0  0  0  0  0  0  0
  145.3170  141.0211  155.5710 N   0  0  0  0  0  0  0  0  0  0  0  0
  145.9493  139.8924  156.1048 O   0  0  0  0  0  0  0  0  0  0  0  0
  147.2579  139.9775  155.7734 C   0  0  0  0  0  0  0  0  0  0  0  0
  148.4025  138.7784  156.2290 Cl  0  0  0  0  0  0  0  0  0  0  0  0
  147.5405  141.1008  155.0510 C   0  0  0  0  0  0  0  0  0  0  0  0
  148.8613  141.5713  154.4906 C   0  0  0  0  0  0  0  0  0  0  0  0
  150.0404  141.1452  155.3736 C   0  0  0  0  0  0  0  0  0  0  0  0
  150.8193  140.2600  155.0160 O   0  0  0  0  0  0  0  0  0  0  0  0
  150.1580  141.8062  156.5358 N   0  0  0  0  0  0  0  0  0  0  0  0
  151.1986  141.6057  157.5439 C   0  0  2  0  0  0  0  0  0  0  0  0
  151.2693  140.1093  157.8845 C   0  0  0  0  0  0  0  0  0  0  0  0
  150.8985  142.4828  158.7839 C   0  0  2  0  0  0  0  0  0  0  0  0
  150.2070  143.8326  158.4795 C   0  0  0  0  0  0  0  0  0  0  0  0
  151.0590  144.8452  159.2667 C   0  0  2  0  0  0  0  0  0  0  0  0
  152.3986  145.0474  158.5356 C   0  0  0  0  0  0  0  0  0  0  0  0
  153.1391  143.7274  158.8175 C   0  0  0  0  0  0  0  0  0  0  0  0
  152.1100  142.9263  159.6417 C   0  0  1  0  0  0  0  0  0  0  0  0
  151.4837  144.0330  160.4846 C   0  0  0  0  0  0  0  0  0  0  0  0
  146.7107  143.3863  153.6625 H   0  0  0  0  0  0  0  0  0  0  0  0
  145.6077  143.7670  154.9814 H   0  0  0  0  0  0  0  0  0  0  0  0
  145.0390  142.8496  153.5886 H   0  0  0  0  0  0  0  0  0  0  0  0
  149.0215  141.1752  153.4874 H   0  0  0  0  0  0  0  0  0  0  0  0
  148.8804  142.6571  154.3910 H   0  0  0  0  0  0  0  0  0  0  0  0
  149.4694  142.5162  156.7390 H   0  0  0  0  0  0  0  0  0  0  0  0
  152.1641  141.8931  157.1273 H   0  0  0  0  0  0  0  0  0  0  0  0
  152.0782  139.8994  158.5841 H   0  0  0  0  0  0  0  0  0  0  0  0
  151.4533  139.5128  156.9902 H   0  0  0  0  0  0  0  0  0  0  0  0
  150.3396  139.7588  158.3340 H   0  0  0  0  0  0  0  0  0  0  0  0
  150.2364  141.9098  159.4364 H   0  0  0  0  0  0  0  0  0  0  0  0
  150.1846  144.0740  157.4162 H   0  0  0  0  0  0  0  0  0  0  0  0
  149.1766  143.8229  158.8365 H   0  0  0  0  0  0  0  0  0  0  0  0
  150.5376  145.7768  159.4893 H   0  0  0  0  0  0  0  0  0  0  0  0
  152.2652  145.2299  157.4688 H   0  0  0  0  0  0  0  0  0  0  0  0
  152.9479  145.8922  158.9531 H   0  0  0  0  0  0  0  0  0  0  0  0
  153.4603  143.2189  157.9096 H   0  0  0  0  0  0  0  0  0  0  0  0
  154.0336  143.9184  159.4118 H   0  0  0  0  0  0  0  0  0  0  0  0
  152.5526  142.1175  160.2238 H   0  0  0  0  0  0  0  0  0  0  0  0
  152.2011  144.5528  161.1223 H   0  0  0  0  0  0  0  0  0  0  0  0
  150.6436  143.6948  161.0940 H   0  0  0  0  0  0  0  0  0  0  0  0
  1  2  1  0  0  0  0
  1 21  1  0  0  0  0
  1 22  1  0  0  0  0
  1 23  1  0  0  0  0
  2  7  1  0  0  0  0
  2  3  2  0  0  0  0
  3  4  1  0  0  0  0
  4  5  1  0  0  0  0
  5  6  1  0  0  0  0
  5  7  2  0  0  0  0
  7  8  1  0  0  0  0
  8  9  1  0  0  0  0
  8 24  1  0  0  0  0
  8 25  1  0  0  0  0
  9 10  2  0  0  0  0
  9 11  1  0  0  0  0
 11 12  1  0  0  0  0
 11 26  1  0  0  0  0
 12 13  1  0  0  0  0
 12 14  1  0  0  0  0
 12 27  1  0  0  0  0
 13 28  1  0  0  0  0
 13 29  1  0  0  0  0
 13 30  1  0  0  0  0
 14 19  1  0  0  0  0
 14 15  1  0  0  0  0
 14 31  1  0  0  0  0
 15 16  1  0  0  0  0
 15 32  1  0  0  0  0
 15 33  1  0  0  0  0
 16 20  1  0  0  0  0
 16 17  1  0  0  0  0
 16 34  1  0  0  0  0
 17 18  1  0  0  0  0
 17 35  1  0  0  0  0
 17 36  1  0  0  0  0
 18 19  1  0  0  0  0
 18 37  1  0  0  0  0
 18 38  1  0  0  0  0
 19 20  1  0  0  0  0
 19 39  1  0  0  0  0
 20 40  1  0  0  0  0
 20 41  1  0  0  0  0
M  END
> <s_m_source_file>
AV-unprocessed.smi

> <i_m_source_file_index>
1686

> <i_lp_mmshare_version>
43012

> <i_f3d_flags>
0

> <s_epik_input>
W0NIM11jMW5vYyhDbCljMVtDSDJdQyg9TylbTkhdW0NASF0oW0NIM10pW0NASF0oW0NIMl1bQ0BIXTIzKVtDQEhdKFtDSDJdMylbQ0gyXVtDSDJdMg==

> <s_epik_cmdline>
J2VwaWtfcHl0aG9uJywgJy1waCcsICc3LjAnLCAnLXRuJywgJzgnLCAnLW1hJywgJzIwMCcsICctbWV0YWxfYmluZGluZycsICctaW1hZScsICc8aW5maWxlLm1hZT4nLCAnLW9tYWUnLCAnPG91dGZpbGUubWFlPic=

> <r_lp_tautomer_probability>
1

> <r_epik_Ionization_Penalty>
2.01576e-08

> <r_epik_Ionization_Penalty_Charging>
0

> <r_epik_Ionization_Penalty_Neutral>
2.01576e-08

> <r_epik_State_Penalty>
-0

> <r_epik_Charging_Adjusted_Penalty>
0

> <i_epik_Tot_Q>
0

> <i_epik_Tot_abs_Q>
0

> <r_epik_Metal_State_Penalty>
-0

> <b_epik_Metal_Only>
0

> <s_lp_Force_Field>
OPLS_2005

> <r_lp_Energy>
47.064

> <b_lp_Chiralities_Consistent>
1

> <s_lp_Variant>
AV-unprocessed.smi:1686-1

> <Gold.Version>
5.8.1

> <Gold.Id.Protein>
6NUR|6NUR_protein|mol2

> <Gold.PLP.Fitness>
41.5401

> <Gold.PLP.PLP>
-40.8687

> <Gold.PLP.part.hbond>
-1.2153

> <Gold.PLP.part.metal>
0.0000

> <Gold.PLP.part.buried>
-3.8259

> <Gold.PLP.part.nonpolar>
-35.5153

> <Gold.PLP.part.repulsive>
0.2752

> <Gold.PLP.ligand.clash>
0.0000

> <Gold.PLP.ligand.torsion>
1.1678

> <Gold.PLP.Chemscore.Hbond>
1.0000

> <Gold.PLP.Chemscore.CHOScore>
0.0000

> <Gold.PLP.Chemscore.Metal>
0.0000

> <Gold.Chemscore.Hbonds>
donor molecule, donor type, donor heavy atom, donor atom, acceptor molecule, acceptor atom, score
      P1  H  7989  7998       L1    10  1.00

> <Gold.PLP.Chemscore.Internal.Correction>
0.0069

> <Gold.Rescore>
     Score         DG    S(hbond)    S(metal)    S(lipo)     H(rot)  DE(clash)    DE(int)     intcor
     15.97     -18.40       0.94        0.00     115.65       1.46       0.26       2.16       ----

> <Gold.Chemscore.Fitness>
15.9693

> <Gold.Chemscore.DG>
-18.3965

> <Gold.Chemscore.ZeroCoef>
-5.4800

> <Gold.Chemscore.Hbond>
0.9389

> <Gold.Chemscore.Metal>
0.0000

> <Gold.Chemscore.Lipo>
115.6461

> <Gold.Chemscore.Internal_Hbond>
0.0000

> <Gold.Chemscore.DEClash>
0.2647

> <Gold.Chemscore.DEInternal>
2.1626

> <Gold.Chemscore.Rot>
1.4648

> <Gold.Chemscore.Internal.Correction>
   9.000000E+99

> <Gold.Chemscore.Hbonds>
donor molecule, donor type, donor heavy atom, donor atom, acceptor molecule, acceptor atom, score
      L1  H    11    26       P1  8028  0.01
      P1  H  7989  7998       L1    10  0.55

> <Gold.Chemscore.Hbond.Weighted>
-3.1359

> <Gold.Chemscore.Metal.Weighted>
-0.0000

> <Gold.Chemscore.Lipo.Weighted>
-13.5306

> <Gold.Chemscore.Internal_Hbond.Weighted>
0.0000

> <Gold.Chemscore.DEClash.Weighted>
0.2647

> <Gold.Chemscore.DEInternal.Weighted>
2.1626

> <Gold.Chemscore.Rot.Weighted>
3.7500

> <Gold.Chemscore.Internal.Correction.Weighted>
   9.000000E+99

> <Gold.Protein.RotatedTorsions>
[ 6907 6896 6895 6894 ] final -154.15 input  -60.11 | X-H torsion
[ 7974 7965 7964 7962 ] final  -23.57 input  175.53 | X-H torsion
[ 8008 7997 7996 7995 ] final   11.82 input   59.86 | X-H torsion
[ 10167 10162 10161 10158 ] final -127.49 input  -65.29 | X-H torsion
[ 10718 10713 10712 10709 ] final   23.61 input   66.30 | X-H torsion
[ 10763 10752 10751 10750 ] final  -75.42 input  -60.55 | X-H torsion
[ 11005 11000 10999 10996 ] final  -14.00 input  -57.11 | X-H torsion

> <Gold.Protein.ActiveResidues>
 VAL166  LYS551  ARG553  GLY616  TRP617  ASP618  TYR619  PRO620  LYS621  CYS622 
 ASP623  PHE694  ASN695  SER759  ASP760  ASP761  ALA762  ILE779  LEU786  VAL792 
 PHE793  MET794  SER795  GLU796  ALA797  LYS798  CYS799  TRP800  GLU811  SER814 

> <Gold.Protein.RotatedAtoms>
  151.2532  133.4339  159.2612 H   0  0  0  0  0  0  0  0  0  0  0  0  # atno 6907 bound_to 6896
  151.0598  134.9729  159.8265 H   0  0  0  0  0  0  0  0  0  0  0  0  # atno 6908 bound_to 6896
  152.5396  134.2483  159.8941 H   0  0  0  0  0  0  0  0  0  0  0  0  # atno 6909 bound_to 6896
  146.1608  140.4634  142.8572 H   0  0  0  0  0  0  0  0  0  0  0  0  # atno 7974 bound_to 7965
  154.8121  140.2870  155.5845 H   0  0  0  0  0  0  0  0  0  0  0  0  # atno 8008 bound_to 7997
  156.2989  140.2566  156.2942 H   0  0  0  0  0  0  0  0  0  0  0  0  # atno 8009 bound_to 7997
  154.9435  140.0381  157.2098 H   0  0  0  0  0  0  0  0  0  0  0  0  # atno 8010 bound_to 7997
  139.9603  143.5958  152.2447 H   0  0  0  0  0  0  0  0  0  0  0  0  # atno 10167 bound_to 10162
  157.1685  130.6749  149.6069 H   0  0  0  0  0  0  0  0  0  0  0  0  # atno 10718 bound_to 10713
  154.4863  135.5832  153.6426 H   0  0  0  0  0  0  0  0  0  0  0  0  # atno 10763 bound_to 10752
  152.9855  135.6102  154.3182 H   0  0  0  0  0  0  0  0  0  0  0  0  # atno 10764 bound_to 10752
  154.3077  135.2845  155.2560 H   0  0  0  0  0  0  0  0  0  0  0  0  # atno 10765 bound_to 10752
  140.7819  133.8356  155.9299 H   0  0  0  0  0  0  0  0  0  0  0  0  # atno 11005 bound_to 11000
  144.8024  140.6238  143.6469 LP  0  0  0  0  0  0  0  0  0  0  0  0  # atno 17320 bound_to 7965
  145.4593  139.1514  143.3875 LP  0  0  0  0  0  0  0  0  0  0  0  0  # atno 17321 bound_to 7965
  139.6559  144.7662  151.2056 LP  0  0  0  0  0  0  0  0  0  0  0  0  # atno 17342 bound_to 10162
  140.7555  143.6086  150.8628 LP  0  0  0  0  0  0  0  0  0  0  0  0  # atno 17343 bound_to 10162
  155.9742  130.4687  150.6369 LP  0  0  0  0  0  0  0  0  0  0  0  0  # atno 17370 bound_to 10713
  157.4066  131.0817  151.1260 LP  0  0  0  0  0  0  0  0  0  0  0  0  # atno 17371 bound_to 10713
  140.9475  134.1822  157.4753 LP  0  0  0  0  0  0  0  0  0  0  0  0  # atno 17394 bound_to 11000
  139.8741  134.9896  156.5464 LP  0  0  0  0  0  0  0  0  0  0  0  0  # atno 17395 bound_to 11000

$$$$
