#       Name:                AV-unprocessed.smi:344
#       Creating user name   scv26
#       Creation time:       Thu Mar 26 22:31:49 2020


#       File generated by GOLD software.
#

@<TRIPOS>MOLECULE
AV-unprocessed.smi:344
    43    44     1
SMALL
NO_CHARGES


@<TRIPOS>ATOM
      1 ****        -7.6523   0.3487   0.1594 N.am           1 S1                 0.0000
      2 ****        -6.3306   0.5305   0.2229 C.2            1 S1                 0.0000
      3 ****        -5.7419   0.6818   1.2916 O.2            1 S1                 0.0000
      4 ****        -5.5622   0.5467  -1.1016 C.3            1 S1                 0.0000
      5 ****        -4.5139  -0.5288  -1.1179 C.2            1 S1                 0.0000
      6 ****        -4.7105  -1.8710  -1.3400 C.2            1 S1                 0.0000
      7 ****        -3.2196  -2.7717  -1.2738 S.3            1 S1                 0.0000
      8 ****        -2.3710  -1.2682  -0.9505 C.2            1 S1                 0.0000
      9 ****        -0.9639  -1.2246  -0.7683 N.am           1 S1                 0.0000
     10 ****        -0.1873  -0.1562  -0.5085 C.2            1 S1                 0.0000
     11 ****        -0.6064   0.9943  -0.3737 O.2            1 S1                 0.0000
     12 ****         1.3106  -0.4582  -0.3846 C.3            1 S1                 0.0000
     13 ****         2.1559   0.7473   0.0724 C.3            1 S1                 0.0000
     14 ****         3.6617   0.4366   0.1426 C.3            1 S1                 0.0000
     15 ****         4.0531  -0.5847   1.2164 C.3            1 S1                 0.0000
     16 ****         5.5394  -0.3331   1.5010 C.3            1 S1                 0.0000
     17 ****         5.8557   1.0672   0.9553 C.3            1 S1                 0.0000
     18 ****         4.5188   1.6539   0.4949 C.3            1 S1                 0.0000
     19 ****        -3.1719  -0.1979  -0.9024 N.2            1 S1                 0.0000
     20 ****        -8.1962   0.3352   1.0103 H              1 S1                 0.0000
     21 ****        -8.1041   0.2291  -0.7353 H              1 S1                 0.0000
     22 ****        -6.2509   0.4164  -1.9376 H              1 S1                 0.0000
     23 ****        -5.1106   1.5315  -1.2276 H              1 S1                 0.0000
     24 ****        -5.6412  -2.3828  -1.5341 H              1 S1                 0.0000
     25 ****        -0.4891  -2.1119  -0.8476 H              1 S1                 0.0000
     26 ****         1.4362  -1.2838   0.3170 H              1 S1                 0.0000
     27 ****         1.6682  -0.8116  -1.3525 H              1 S1                 0.0000
     28 ****         2.0064   1.5760  -0.6213 H              1 S1                 0.0000
     29 ****         1.8077   1.0971   1.0455 H              1 S1                 0.0000
     30 ****         3.9933   0.0615  -0.8271 H              1 S1                 0.0000
     31 ****         3.4768  -0.4070   2.1254 H              1 S1                 0.0000
     32 ****         3.8627  -1.6117   0.9034 H              1 S1                 0.0000
     33 ****         5.7486  -0.4042   2.5687 H              1 S1                 0.0000
     34 ****         6.1580  -1.0771   0.9981 H              1 S1                 0.0000
     35 ****         6.3412   1.6997   1.6990 H              1 S1                 0.0000
     36 ****         6.5339   0.9834   0.1051 H              1 S1                 0.0000
     37 ****         4.6331   2.3427  -0.3428 H              1 S1                 0.0000
     38 ****         4.0617   2.2062   1.3174 H              1 S1                 0.0000
     39 ****        -6.2540   0.6710   2.1505 LP             1 S1                 0.0000
     40 ****        -4.7509   0.8156   1.3020 LP             1 S1                 0.0000
     41 ****        -1.5849   1.1829  -0.4566 LP             1 S1                 0.0000
     42 ****         0.0319   1.7396  -0.1813 LP             1 S1                 0.0000
     43 ****        -2.8482   0.7327  -0.7318 LP             1 S1                 0.0000
@<TRIPOS>BOND
    1    1    2 am    
    2    1   20 1     
    3    1   21 1     
    4    2    3 2     
    5    2    4 1     
    6    4    5 1     
    7    4   22 1     
    8    4   23 1     
    9    5   19 1     
   10    5    6 2     
   11    6    7 1     
   12    6   24 1     
   13    7    8 1     
   14    8    9 1     
   15    8   19 2     
   16    9   10 am    
   17    9   25 1     
   18   10   11 2     
   19   10   12 1     
   20   12   13 1     
   21   12   26 1     
   22   12   27 1     
   23   13   14 1     
   24   13   28 1     
   25   13   29 1     
   26   14   18 1     
   27   14   15 1     
   28   14   30 1     
   29   15   16 1     
   30   15   31 1     
   31   15   32 1     
   32   16   17 1     
   33   16   33 1     
   34   16   34 1     
   35   17   18 1     
   36   17   35 1     
   37   17   36 1     
   38   18   37 1     
   39   18   38 1     
   40    3   39 1     
   41    3   40 1     
   42   11   41 1     
   43   11   42 1     
   44   19   43 1     
@<TRIPOS>SUBSTRUCTURE
      1 S1             1
@<TRIPOS>SET
LONE_PAIRS      STATIC     ATOMS    <user>   **** ""
5 39 40 41 42 43
DONOR_HYDROGENS      STATIC     ATOMS    <user>   **** ""
3 20 21 25
ATOM$BLUE        STATIC     ATOMS    COLORGROUP SYSTEM
5 39 40 41 42 43
ATOM$RED        STATIC     ATOMS    COLORGROUP SYSTEM
3 20 21 25
