#       Name:                AV-unprocessed.smi:2275
#       Creating user name   scv26
#       Creation time:       Fri Mar 27 12:38:33 2020


#       File generated by GOLD software.
#

@<TRIPOS>MOLECULE
AV-unprocessed.smi:2275
    45    46     1
SMALL
NO_CHARGES


@<TRIPOS>ATOM
      1 ****        -2.5508   5.5230  -0.4863 C.3            1 S1                 0.0000
      2 ****        -1.9743   4.1255  -0.3439 C.2            1 S1                 0.0000
      3 ****        -1.6620   3.7309   0.9604 N.2            1 S1                 0.0000
      4 ****        -1.1722   2.5542   1.1782 C.2            1 S1                 0.0000
      5 ****        -0.9449   1.6450   0.1327 N.am           1 S1                 0.0000
      6 ****        -0.3928   0.3356   0.5164 C.3            1 S1                 0.0000
      7 ****         1.1429   0.2821   0.3544 C.3            1 S1                 0.0000
      8 ****         1.7777   0.7694   1.5192 O.3            1 S1                 0.0000
      9 ****         1.6727  -1.1374   0.0919 C.3            1 S1                 0.0000
     10 ****         1.0723  -2.0540   0.9995 O.3            1 S1                 0.0000
     11 ****         1.3948  -3.3894   0.8894 C.ar           1 S1                 0.0000
     12 ****         0.7823  -4.2720   1.8031 C.ar           1 S1                 0.0000
     13 ****         1.0531  -5.6532   1.7640 C.ar           1 S1                 0.0000
     14 ****         1.9438  -6.1681   0.8044 C.ar           1 S1                 0.0000
     15 ****         2.5626  -5.2993  -0.1134 C.ar           1 S1                 0.0000
     16 ****         2.2919  -3.9174  -0.0738 C.ar           1 S1                 0.0000
     17 ****        -1.2004   1.9569  -1.1708 C.2            1 S1                 0.0000
     18 ****        -0.9685   1.1618  -2.0837 O.2            1 S1                 0.0000
     19 ****        -1.7659   3.2959  -1.4025 C.2            1 S1                 0.0000
     20 ****        -2.0876   3.6699  -2.8440 C.3            1 S1                 0.0000
     21 ****        -3.5579   5.4796  -0.9012 H              1 S1                 0.0000
     22 ****        -1.9271   6.1288  -1.1440 H              1 S1                 0.0000
     23 ****        -2.6080   6.0302   0.4776 H              1 S1                 0.0000
     24 ****        -0.9050   2.1996   2.1753 H              1 S1                 0.0000
     25 ****        -0.6829   0.0491   1.5296 H              1 S1                 0.0000
     26 ****        -0.8494  -0.4286  -0.1154 H              1 S1                 0.0000
     27 ****         1.4592   0.9135  -0.4770 H              1 S1                 0.0000
     28 ****         1.5688   0.1910   2.2370 H              1 S1                 0.0000
     29 ****         1.4091  -1.4216  -0.9282 H              1 S1                 0.0000
     30 ****         2.7612  -1.1603   0.1708 H              1 S1                 0.0000
     31 ****         0.0971  -3.8854   2.5432 H              1 S1                 0.0000
     32 ****         0.5772  -6.3170   2.4706 H              1 S1                 0.0000
     33 ****         2.1526  -7.2274   0.7727 H              1 S1                 0.0000
     34 ****         3.2468  -5.6933  -0.8503 H              1 S1                 0.0000
     35 ****         2.7855  -3.2835  -0.7945 H              1 S1                 0.0000
     36 ****        -1.1811   3.6458  -3.4496 H              1 S1                 0.0000
     37 ****        -2.5233   4.6627  -2.9435 H              1 S1                 0.0000
     38 ****        -2.7966   2.9579  -3.2678 H              1 S1                 0.0000
     39 ****        -1.8172   4.3578   1.7239 LP             1 S1                 0.0000
     40 ****         1.4491   1.6918   1.7221 LP             1 S1                 0.0000
     41 ****         2.7677   0.7913   1.3802 LP             1 S1                 0.0000
     42 ****         0.0818  -1.9783   0.8846 LP             1 S1                 0.0000
     43 ****         1.3239  -1.7639   1.9228 LP             1 S1                 0.0000
     44 ****        -0.5835   0.2622  -1.8775 LP             1 S1                 0.0000
     45 ****        -1.1654   1.4163  -3.0305 LP             1 S1                 0.0000
@<TRIPOS>BOND
    1    1    2 1     
    2    1   21 1     
    3    1   22 1     
    4    1   23 1     
    5    2   19 2     
    6    2    3 1     
    7    3    4 2     
    8    4    5 1     
    9    4   24 1     
   10    5    6 1     
   11    5   17 am    
   12    6    7 1     
   13    6   25 1     
   14    6   26 1     
   15    7    8 1     
   16    7    9 1     
   17    7   27 1     
   18    8   28 1     
   19    9   10 1     
   20    9   29 1     
   21    9   30 1     
   22   10   11 1     
   23   11   16 ar    
   24   11   12 ar    
   25   12   13 ar    
   26   12   31 1     
   27   13   14 ar    
   28   13   32 1     
   29   14   15 ar    
   30   14   33 1     
   31   15   16 ar    
   32   15   34 1     
   33   16   35 1     
   34   17   18 2     
   35   17   19 1     
   36   19   20 1     
   37   20   36 1     
   38   20   37 1     
   39   20   38 1     
   40    3   39 1     
   41    8   40 1     
   42    8   41 1     
   43   10   42 1     
   44   10   43 1     
   45   18   44 1     
   46   18   45 1     
@<TRIPOS>SUBSTRUCTURE
      1 S1             1
@<TRIPOS>SET
LONE_PAIRS      STATIC     ATOMS    <user>   **** ""
7 39 40 41 42 43 44 45
DONOR_HYDROGENS      STATIC     ATOMS    <user>   **** ""
1 28
ATOM$BLUE        STATIC     ATOMS    COLORGROUP SYSTEM
7 39 40 41 42 43 44 45
ATOM$RED        STATIC     ATOMS    COLORGROUP SYSTEM
1 28
