AV-unprocessed.smi:2884|AV-procd|sdf|11085|dock6
  -GOLD-   2272015553D 1   1.00000     0.00000
 Structure written by MMmdl.
 41 42  0  0  0  0  0  0  0  0  2 V2000
  141.1009  129.5718  159.9995 C   0  0  0  0  0  0  0  0  0  0  0  0
  141.4002  131.0400  159.6702 C   0  0  0  0  0  0  0  0  0  0  0  0
  142.7613  131.5062  160.2011 C   0  0  0  0  0  0  0  0  0  0  0  0
  142.8980  132.8904  159.9016 O   0  0  0  0  0  0  0  0  0  0  0  0
  143.0790  133.8415  160.9570 C   0  0  0  0  0  0  0  0  0  0  0  0
  144.4499  133.4258  161.5509 C   0  0  0  0  0  0  0  0  0  0  0  0
  145.5703  133.7846  160.6906 N   0  0  0  0  0  0  0  0  0  0  0  0
  146.5590  134.7419  160.8908 C   0  0  0  0  0  0  0  0  0  0  0  0
  146.6239  135.5868  162.1100 C   0  0  0  0  0  0  0  0  0  0  0  0
  147.5375  136.4566  162.2907 N   0  0  0  0  0  0  0  0  0  0  0  0
  148.5739  136.6656  161.3045 N   0  5  0  0  0  0  0  0  0  0  0  0
  148.5877  135.9233  160.1561 C   0  0  0  0  0  0  0  0  0  0  0  0
  149.4539  136.0664  159.2948 O   0  0  0  0  0  0  0  0  0  0  0  0
  147.5282  134.9269  159.9587 C   0  0  0  0  0  0  0  0  0  0  0  0
  147.5492  133.9794  158.5067 Cl  0  0  0  0  0  0  0  0  0  0  0  0
  143.0911  135.3051  160.4335 C   0  0  0  0  0  0  0  0  0  0  0  0
  143.2346  136.3317  161.5713 C   0  0  0  0  0  0  0  0  0  0  0  0
  142.1283  136.1518  162.6235 C   0  0  0  0  0  0  0  0  0  0  0  0
  142.0905  134.7138  163.1663 C   0  0  0  0  0  0  0  0  0  0  0  0
  141.9659  133.6855  162.0260 C   0  0  0  0  0  0  0  0  0  0  0  0
  140.1353  129.2716  159.5920 H   0  0  0  0  0  0  0  0  0  0  0  0
  141.0696  129.4040  161.0761 H   0  0  0  0  0  0  0  0  0  0  0  0
  141.8600  128.9107  159.5809 H   0  0  0  0  0  0  0  0  0  0  0  0
  141.3745  131.1718  158.5883 H   0  0  0  0  0  0  0  0  0  0  0  0
  140.6114  131.6741  160.0765 H   0  0  0  0  0  0  0  0  0  0  0  0
  142.8126  131.3082  161.2705 H   0  0  0  0  0  0  0  0  0  0  0  0
  143.5477  130.9291  159.7163 H   0  0  0  0  0  0  0  0  0  0  0  0
  144.6203  133.9158  162.5080 H   0  0  0  0  0  0  0  0  0  0  0  0
  144.4624  132.3588  161.7687 H   0  0  0  0  0  0  0  0  0  0  0  0
  145.6856  133.1900  159.8827 H   0  0  0  0  0  0  0  0  0  0  0  0
  145.8461  135.4255  162.8590 H   0  0  0  0  0  0  0  0  0  0  0  0
  143.8813  135.4486  159.6961 H   0  0  0  0  0  0  0  0  0  0  0  0
  142.1591  135.5318  159.9183 H   0  0  0  0  0  0  0  0  0  0  0  0
  144.2138  136.2402  162.0414 H   0  0  0  0  0  0  0  0  0  0  0  0
  143.1906  137.3412  161.1620 H   0  0  0  0  0  0  0  0  0  0  0  0
  142.2767  136.8551  163.4434 H   0  0  0  0  0  0  0  0  0  0  0  0
  141.1625  136.3962  162.1789 H   0  0  0  0  0  0  0  0  0  0  0  0
  142.9861  134.5182  163.7560 H   0  0  0  0  0  0  0  0  0  0  0  0
  141.2500  134.6036  163.8520 H   0  0  0  0  0  0  0  0  0  0  0  0
  140.9849  133.8241  161.5731 H   0  0  0  0  0  0  0  0  0  0  0  0
  141.9730  132.6742  162.4338 H   0  0  0  0  0  0  0  0  0  0  0  0
  1  2  1  0  0  0  0
  1 21  1  0  0  0  0
  1 22  1  0  0  0  0
  1 23  1  0  0  0  0
  2  3  1  0  0  0  0
  2 24  1  0  0  0  0
  2 25  1  0  0  0  0
  3  4  1  0  0  0  0
  3 26  1  0  0  0  0
  3 27  1  0  0  0  0
  4  5  1  0  0  0  0
  5 20  1  0  0  0  0
  5  6  1  0  0  0  0
  5 16  1  0  0  0  0
  6  7  1  0  0  0  0
  6 28  1  0  0  0  0
  6 29  1  0  0  0  0
  7  8  1  0  0  0  0
  7 30  1  0  0  0  0
  8 14  2  0  0  0  0
  8  9  1  0  0  0  0
  9 10  2  0  0  0  0
  9 31  1  0  0  0  0
 10 11  1  0  0  0  0
 11 12  1  0  0  0  0
 12 13  2  0  0  0  0
 12 14  1  0  0  0  0
 14 15  1  0  0  0  0
 16 17  1  0  0  0  0
 16 32  1  0  0  0  0
 16 33  1  0  0  0  0
 17 18  1  0  0  0  0
 17 34  1  0  0  0  0
 17 35  1  0  0  0  0
 18 19  1  0  0  0  0
 18 36  1  0  0  0  0
 18 37  1  0  0  0  0
 19 20  1  0  0  0  0
 19 38  1  0  0  0  0
 19 39  1  0  0  0  0
 20 40  1  0  0  0  0
 20 41  1  0  0  0  0
M  CHG  1  11  -1
M  END
> <s_m_source_file>
AV-unprocessed.smi

> <i_m_source_file_index>
2884

> <i_lp_mmshare_version>
43012

> <i_f3d_flags>
0

> <s_epik_input>
W0NIMl0xW0NIMl1bQ0gyXVtDSDJdW0NIMl1DMShPW0NIMl1bQ0gyXVtDSDNdKVtDSDJdW05IXWMyW2NIXW5bbkhdYyg9TyljMkNs

> <s_epik_cmdline>
J2VwaWtfcHl0aG9uJywgJy1waCcsICc3LjAnLCAnLXRuJywgJzgnLCAnLW1hJywgJzIwMCcsICctbWV0YWxfYmluZGluZycsICctaW1hZScsICc8aW5maWxlLm1hZT4nLCAnLW9tYWUnLCAnPG91dGZpbGUubWFlPic=

> <r_lp_tautomer_probability>
0.986175

> <r_epik_Ionization_Penalty>
3.75229

> <r_epik_Ionization_Penalty_Charging>
0.0129106

> <r_epik_Ionization_Penalty_Neutral>
3.73938

> <r_epik_State_Penalty>
3.73863

> <r_epik_Charging_Adjusted_Penalty>
3.75154

> <i_epik_Tot_Q>
-1

> <i_epik_Tot_abs_Q>
1

> <r_epik_Metal_State_Penalty>
0.55642

> <b_epik_Metal_Only>
1

> <s_lp_Force_Field>
OPLS_2005

> <r_lp_Energy>
41.2708

> <b_lp_Chiralities_Consistent>
1

> <s_lp_Variant>
AV-unprocessed.smi:2884-3

> <Gold.Version>
5.8.1

> <Gold.Id.Protein>
6NUR|6NUR_protein|mol2

> <Gold.PLP.Fitness>
37.3852

> <Gold.PLP.PLP>
-29.4766

> <Gold.PLP.part.hbond>
-2.4182

> <Gold.PLP.part.metal>
0.0000

> <Gold.PLP.part.buried>
-5.6859

> <Gold.PLP.part.nonpolar>
-22.1287

> <Gold.PLP.part.repulsive>
0.0171

> <Gold.PLP.ligand.clash>
0.0000

> <Gold.PLP.ligand.torsion>
0.5559

> <Gold.PLP.Chemscore.Hbond>
3.0000

> <Gold.PLP.Chemscore.CHOScore>
0.0000

> <Gold.PLP.Chemscore.Metal>
0.0000

> <Gold.Chemscore.Hbonds>
donor molecule, donor type, donor heavy atom, donor atom, acceptor molecule, acceptor atom, score
      P1  H  6896  6909       L1    13  1.00
      P1  H  6931  6943       L1    11  1.50

> <Gold.PLP.Chemscore.Internal.Correction>
0.0202

> <Gold.Rescore>
     Score         DG    S(hbond)    S(metal)    S(lipo)     H(rot)  DE(clash)    DE(int)     intcor
     16.07     -16.64       1.81        0.00      81.15       1.71       0.01       0.56       ----

> <Gold.Chemscore.Fitness>
16.0680

> <Gold.Chemscore.DG>
-16.6358

> <Gold.Chemscore.ZeroCoef>
-5.4800

> <Gold.Chemscore.Hbond>
1.8054

> <Gold.Chemscore.Metal>
0.0000

> <Gold.Chemscore.Lipo>
81.1539

> <Gold.Chemscore.Internal_Hbond>
0.0000

> <Gold.Chemscore.DEClash>
0.0098

> <Gold.Chemscore.DEInternal>
0.5580

> <Gold.Chemscore.Rot>
1.7068

> <Gold.Chemscore.Internal.Correction>
   9.000000E+99

> <Gold.Chemscore.Hbonds>
donor molecule, donor type, donor heavy atom, donor atom, acceptor molecule, acceptor atom, score
      P1  H  6896  6909       L1    13  0.55
      P1  H  6931  6943       L1    11  0.09

> <Gold.Chemscore.Hbond.Weighted>
-6.0302

> <Gold.Chemscore.Metal.Weighted>
-0.0000

> <Gold.Chemscore.Lipo.Weighted>
-9.4950

> <Gold.Chemscore.Internal_Hbond.Weighted>
0.0000

> <Gold.Chemscore.DEClash.Weighted>
0.0098

> <Gold.Chemscore.DEInternal.Weighted>
0.5580

> <Gold.Chemscore.Rot.Weighted>
4.3694

> <Gold.Chemscore.Internal.Correction.Weighted>
   9.000000E+99

> <Gold.Protein.RotatedTorsions>
[ 6907 6896 6895 6894 ] final   58.07 input  -60.11 | X-H torsion
[ 7974 7965 7964 7962 ] final   48.16 input  175.53 | X-H torsion
[ 8008 7997 7996 7995 ] final  -37.99 input   59.86 | X-H torsion
[ 10167 10162 10161 10158 ] final  -72.20 input  -65.29 | X-H torsion
[ 10718 10713 10712 10709 ] final   38.42 input   66.30 | X-H torsion
[ 10763 10752 10751 10750 ] final  -78.77 input  -60.55 | X-H torsion
[ 11005 11000 10999 10996 ] final  132.59 input  -57.11 | X-H torsion

> <Gold.Protein.ActiveResidues>
 VAL166  LYS551  ARG553  GLY616  TRP617  ASP618  TYR619  PRO620  LYS621  CYS622 
 ASP623  PHE694  ASN695  SER759  ASP760  ASP761  ALA762  ILE779  LEU786  VAL792 
 PHE793  MET794  SER795  GLU796  ALA797  LYS798  CYS799  TRP800  GLU811  SER814 

> <Gold.Protein.RotatedAtoms>
  152.3790  134.6620  160.0149 H   0  0  0  0  0  0  0  0  0  0  0  0  # atno 6907 bound_to 6896
  151.6889  133.3305  159.3246 H   0  0  0  0  0  0  0  0  0  0  0  0  # atno 6908 bound_to 6896
  150.7732  134.6652  159.6406 H   0  0  0  0  0  0  0  0  0  0  0  0  # atno 6909 bound_to 6896
  146.0230  139.4674  142.9885 H   0  0  0  0  0  0  0  0  0  0  0  0  # atno 7974 bound_to 7965
  154.4044  140.1589  156.2628 H   0  0  0  0  0  0  0  0  0  0  0  0  # atno 8008 bound_to 7997
  155.9022  140.3432  155.6012 H   0  0  0  0  0  0  0  0  0  0  0  0  # atno 8009 bound_to 7997
  155.7435  140.0795  157.2225 H   0  0  0  0  0  0  0  0  0  0  0  0  # atno 8010 bound_to 7997
  140.5212  143.2331  151.7427 H   0  0  0  0  0  0  0  0  0  0  0  0  # atno 10167 bound_to 10162
  157.3586  130.7637  149.7030 H   0  0  0  0  0  0  0  0  0  0  0  0  # atno 10718 bound_to 10713
  154.5302  135.5718  153.6752 H   0  0  0  0  0  0  0  0  0  0  0  0  # atno 10763 bound_to 10752
  152.9937  135.6203  154.2639 H   0  0  0  0  0  0  0  0  0  0  0  0  # atno 10764 bound_to 10752
  154.2565  135.2857  155.2775 H   0  0  0  0  0  0  0  0  0  0  0  0  # atno 10765 bound_to 10752
  139.9799  134.9551  156.9604 H   0  0  0  0  0  0  0  0  0  0  0  0  # atno 11005 bound_to 11000
  145.7162  141.0090  143.1427 LP  0  0  0  0  0  0  0  0  0  0  0  0  # atno 17320 bound_to 7965
  144.6998  139.8816  143.7447 LP  0  0  0  0  0  0  0  0  0  0  0  0  # atno 17321 bound_to 7965
  139.4924  144.4252  151.9933 LP  0  0  0  0  0  0  0  0  0  0  0  0  # atno 17342 bound_to 10162
  140.3349  144.3272  150.5979 LP  0  0  0  0  0  0  0  0  0  0  0  0  # atno 17343 bound_to 10162
  155.9733  130.4120  150.4011 LP  0  0  0  0  0  0  0  0  0  0  0  0  # atno 17370 bound_to 10713
  157.2085  131.0455  151.2612 LP  0  0  0  0  0  0  0  0  0  0  0  0  # atno 17371 bound_to 10713
  140.5117  134.0996  155.7272 LP  0  0  0  0  0  0  0  0  0  0  0  0  # atno 17394 bound_to 11000
  141.1473  133.9033  157.2185 LP  0  0  0  0  0  0  0  0  0  0  0  0  # atno 17395 bound_to 11000

$$$$
