AV-unprocessed.smi:218|AV-procd|sdf|1675|dock9
  -GOLD-   2262020103D 1   1.00000     0.00000
 Structure written by MMmdl.
 54 57  0  0  0  0  0  0  0  0  1 V2000
  152.9524  142.2999  160.2793 C   0  0  0  0  0  0  0  0  0  0  0  0
  152.5421  142.7136  158.8608 C   0  0  0  0  0  0  0  0  0  0  0  0
  152.4101  144.2420  158.7440 C   0  0  0  0  0  0  0  0  0  0  0  0
  151.2882  142.0834  158.5910 O   0  0  0  0  0  0  0  0  0  0  0  0
  151.1453  141.2665  157.4858 C   0  0  0  0  0  0  0  0  0  0  0  0
  150.1350  141.5764  156.5526 C   0  0  0  0  0  0  0  0  0  0  0  0
  149.9765  140.7527  155.4175 C   0  0  0  0  0  0  0  0  0  0  0  0
  148.9035  141.0349  154.3832 C   0  0  0  0  0  0  0  0  0  0  0  0
  148.5661  139.8834  153.5561 N   0  0  0  0  0  0  0  0  0  0  0  0
  147.5558  139.0638  153.9166 C   0  0  0  0  0  0  0  0  0  0  0  0
  147.2401  138.8770  155.2242 N   0  0  0  0  0  0  0  0  0  0  0  0
  146.2428  138.0533  155.5569 C   0  0  0  0  0  0  0  0  0  0  0  0
  145.4499  137.3389  154.7560 N   0  0  0  0  0  0  0  0  0  0  0  0
  145.7536  137.5275  153.4378 C   0  0  0  0  0  0  0  0  0  0  0  0
  146.7933  138.3660  152.9444 C   0  0  0  0  0  0  0  0  0  0  0  0
  146.8328  138.3040  151.5590 N   0  0  0  0  0  0  0  0  0  0  0  0
  145.8750  137.4714  151.2549 C   0  0  0  0  0  0  0  0  0  0  0  0
  145.1514  136.9753  152.3196 N   0  0  0  0  0  0  0  0  0  0  0  0
  144.0234  135.9791  152.2646 C   0  0  1  0  0  0  0  0  0  0  0  0
  143.8490  135.5534  150.9474 O   0  0  0  0  0  0  0  0  0  0  0  0
  144.5946  134.3625  150.7366 C   0  0  2  0  0  0  0  0  0  0  0  0
  144.1822  133.6736  149.4237 C   0  0  0  0  0  0  0  0  0  0  0  0
  143.7237  134.6283  148.4899 O   0  0  0  0  0  0  0  0  0  0  0  0
  144.3433  133.5984  152.0421 C   0  0  2  0  0  0  0  0  0  0  0  0
  143.0938  132.9284  152.0015 O   0  0  0  0  0  0  0  0  0  0  0  0
  144.3809  134.7186  153.0843 C   0  0  2  0  0  0  0  0  0  0  0  0
  143.5043  134.4899  154.1724 O   0  0  0  0  0  0  0  0  0  0  0  0
  150.8308  139.6418  155.2693 C   0  0  0  0  0  0  0  0  0  0  0  0
  151.8084  139.4102  156.2559 C   0  0  0  0  0  0  0  0  0  0  0  0
  151.9686  140.1986  157.3395 N   0  0  0  0  0  0  0  0  0  0  0  0
  143.1541  136.5308  152.6242 H   0  0  0  0  0  0  0  0  0  0  0  0
  145.6506  134.6352  150.6790 H   0  0  0  0  0  0  0  0  0  0  0  0
  145.1187  132.8545  152.2283 H   0  0  0  0  0  0  0  0  0  0  0  0
  145.3982  134.8017  153.4682 H   0  0  0  0  0  0  0  0  0  0  0  0
  153.9121  142.7381  160.5546 H   0  0  0  0  0  0  0  0  0  0  0  0
  153.0489  141.2166  160.3565 H   0  0  0  0  0  0  0  0  0  0  0  0
  152.2140  142.6213  161.0144 H   0  0  0  0  0  0  0  0  0  0  0  0
  153.3176  142.3530  158.1833 H   0  0  0  0  0  0  0  0  0  0  0  0
  153.3526  144.7337  158.9856 H   0  0  0  0  0  0  0  0  0  0  0  0
  151.6510  144.6241  159.4269 H   0  0  0  0  0  0  0  0  0  0  0  0
  152.1323  144.5493  157.7363 H   0  0  0  0  0  0  0  0  0  0  0  0
  149.4950  142.4317  156.7127 H   0  0  0  0  0  0  0  0  0  0  0  0
  148.0038  141.3854  154.8913 H   0  0  0  0  0  0  0  0  0  0  0  0
  149.2509  141.8484  153.7450 H   0  0  0  0  0  0  0  0  0  0  0  0
  149.1118  139.7629  152.7148 H   0  0  0  0  0  0  0  0  0  0  0  0
  146.0518  137.9517  156.6151 H   0  0  0  0  0  0  0  0  0  0  0  0
  145.6663  137.1959  150.2313 H   0  0  0  0  0  0  0  0  0  0  0  0
  145.0043  133.1029  148.9912 H   0  0  0  0  0  0  0  0  0  0  0  0
  143.3746  132.9671  149.6163 H   0  0  0  0  0  0  0  0  0  0  0  0
  144.4618  134.9237  147.9787 H   0  0  0  0  0  0  0  0  0  0  0  0
  142.9284  132.5569  152.8549 H   0  0  0  0  0  0  0  0  0  0  0  0
  143.2857  133.5707  154.1947 H   0  0  0  0  0  0  0  0  0  0  0  0
  150.7423  138.9803  154.4201 H   0  0  0  0  0  0  0  0  0  0  0  0
  152.4796  138.5683  156.1729 H   0  0  0  0  0  0  0  0  0  0  0  0
  1  2  1  0  0  0  0
  1 35  1  0  0  0  0
  1 36  1  0  0  0  0
  1 37  1  0  0  0  0
  2  3  1  0  0  0  0
  2  4  1  0  0  0  0
  2 38  1  0  0  0  0
  3 39  1  0  0  0  0
  3 40  1  0  0  0  0
  3 41  1  0  0  0  0
  4  5  1  0  0  0  0
  5 30  1  0  0  0  0
  5  6  2  0  0  0  0
  6  7  1  0  0  0  0
  6 42  1  0  0  0  0
  7  8  1  0  0  0  0
  7 28  2  0  0  0  0
  8  9  1  0  0  0  0
  8 43  1  0  0  0  0
  8 44  1  0  0  0  0
  9 10  1  0  0  0  0
  9 45  1  0  0  0  0
 10 15  1  0  0  0  0
 10 11  2  0  0  0  0
 11 12  1  0  0  0  0
 12 13  2  0  0  0  0
 12 46  1  0  0  0  0
 13 14  1  0  0  0  0
 14 18  1  0  0  0  0
 14 15  2  0  0  0  0
 15 16  1  0  0  0  0
 16 17  2  0  0  0  0
 17 18  1  0  0  0  0
 17 47  1  0  0  0  0
 18 19  1  0  0  0  0
 19 31  1  0  0  0  0
 19 26  1  0  0  0  0
 19 20  1  0  0  0  0
 20 21  1  0  0  0  0
 21 32  1  0  0  0  0
 21 22  1  0  0  0  0
 21 24  1  0  0  0  0
 22 23  1  0  0  0  0
 22 48  1  0  0  0  0
 22 49  1  0  0  0  0
 23 50  1  0  0  0  0
 24 33  1  0  0  0  0
 24 25  1  0  0  0  0
 24 26  1  0  0  0  0
 25 51  1  0  0  0  0
 26 34  1  0  0  0  0
 26 27  1  0  0  0  0
 27 52  1  0  0  0  0
 28 29  1  0  0  0  0
 28 53  1  0  0  0  0
 29 30  2  0  0  0  0
 29 54  1  0  0  0  0
M  END
> <s_m_source_file>
AV-unprocessed.smi

> <i_m_source_file_index>
218

> <i_lp_mmshare_version>
43012

> <i_f3d_flags>
0

> <s_epik_input>
W0NIM11bQ0hdKFtDSDNdKU9jMVtjSF1jKFtjSF1bY0hdbjEpW0NIMl1bTkhdYyhuW2NIXW4yKWMoYzIzKW5bY0hdbjNbQ0BASF00T1tDQEhdKFtDSDJdW09IXSlbQ0BASF0oW09IXSlbQ0BIXTRbT0hd

> <s_epik_cmdline>
J2VwaWtfcHl0aG9uJywgJy1waCcsICc3LjAnLCAnLXRuJywgJzgnLCAnLW1hJywgJzIwMCcsICctbWV0YWxfYmluZGluZycsICctaW1hZScsICc8aW5maWxlLm1hZT4nLCAnLW9tYWUnLCAnPG91dGZpbGUubWFlPic=

> <r_lp_tautomer_probability>
1

> <r_epik_Ionization_Penalty>
0.00457014

> <r_epik_Ionization_Penalty_Charging>
0

> <r_epik_Ionization_Penalty_Neutral>
0.00457014

> <r_epik_State_Penalty>
-0

> <r_epik_Charging_Adjusted_Penalty>
0

> <i_epik_Tot_Q>
0

> <i_epik_Tot_abs_Q>
0

> <r_epik_Metal_State_Penalty>
-0

> <b_epik_Metal_Only>
0

> <s_epik_Chemistry_Notes>
This compound contains an acetal/aminal-like group ( X-CH(R)-Y where X, Y are N, S, or O) that may be acid/base labile, releasing an aldehyde.

> <s_lp_Force_Field>
OPLS_2005

> <r_lp_Energy>
43.0364

> <b_lp_Chiralities_Consistent>
1

> <s_lp_Variant>
AV-unprocessed.smi:218-14

> <Gold.Version>
5.8.1

> <Gold.Id.Protein>
6NUR|6NUR_protein|mol2

> <Gold.PLP.Fitness>
59.1057

> <Gold.PLP.PLP>
-47.2089

> <Gold.PLP.part.hbond>
-5.9879

> <Gold.PLP.part.metal>
0.0000

> <Gold.PLP.part.buried>
-0.4929

> <Gold.PLP.part.nonpolar>
-46.0293

> <Gold.PLP.part.repulsive>
1.7019

> <Gold.PLP.ligand.clash>
0.0000

> <Gold.PLP.ligand.torsion>
1.8764

> <Gold.PLP.Chemscore.Hbond>
4.7944

> <Gold.PLP.Chemscore.CHOScore>
0.3776

> <Gold.PLP.Chemscore.Metal>
0.0000

> <Gold.Chemscore.Hbonds>
donor molecule, donor type, donor heavy atom, donor atom, acceptor molecule, acceptor atom, score
      L1  H     9    45       P1  7957  1.00
      L1  H    23    50       P1  7921  0.99
      L1  H    25    51       P1 10957  0.61
      L1  H    27    52       P1 10957  1.00
      P1  H  7954  7966       L1    16  0.60
      P1  H 10192 10197       L1    23  0.50
      L1  C    17    47       P1 10171  0.41

> <Gold.PLP.Chemscore.Internal.Correction>
0.1337

> <Gold.Rescore>
     Score         DG    S(hbond)    S(metal)    S(lipo)     H(rot)  DE(clash)    DE(int)     intcor
     12.28     -15.51       3.30        0.00      98.77       4.90       1.49       1.74       ----

> <Gold.Chemscore.Fitness>
12.2782

> <Gold.Chemscore.DG>
-15.5081

> <Gold.Chemscore.ZeroCoef>
-5.4800

> <Gold.Chemscore.Hbond>
3.3006

> <Gold.Chemscore.Metal>
0.0000

> <Gold.Chemscore.Lipo>
98.7668

> <Gold.Chemscore.Internal_Hbond>
0.0000

> <Gold.Chemscore.DEClash>
1.4916

> <Gold.Chemscore.DEInternal>
1.7384

> <Gold.Chemscore.Rot>
4.9029

> <Gold.Chemscore.Internal.Correction>
   9.000000E+99

> <Gold.Chemscore.Hbonds>
donor molecule, donor type, donor heavy atom, donor atom, acceptor molecule, acceptor atom, score
      L1  H     9    45       P1  7957  0.99
      L1  H    23    50       P1  7921  0.94
      L1  H    25    51       P1 10957  0.06
      L1  H    27    52       P1 10957  0.96
      P1  H  7954  7966       L1    16  0.14
      P1  H 10192 10197       L1    23  0.15

> <Gold.Chemscore.Hbond.Weighted>
-11.0240

> <Gold.Chemscore.Metal.Weighted>
-0.0000

> <Gold.Chemscore.Lipo.Weighted>
-11.5557

> <Gold.Chemscore.Internal_Hbond.Weighted>
0.0000

> <Gold.Chemscore.DEClash.Weighted>
1.4916

> <Gold.Chemscore.DEInternal.Weighted>
1.7384

> <Gold.Chemscore.Rot.Weighted>
12.5515

> <Gold.Chemscore.Internal.Correction.Weighted>
   9.000000E+99

> <Gold.Protein.RotatedTorsions>
[ 6907 6896 6895 6894 ] final  133.57 input  -60.11 | X-H torsion
[ 7974 7965 7964 7962 ] final  -68.49 input  175.53 | X-H torsion
[ 8008 7997 7996 7995 ] final  -35.99 input   59.86 | X-H torsion
[ 10167 10162 10161 10158 ] final   17.50 input  -65.29 | X-H torsion
[ 10718 10713 10712 10709 ] final  -80.03 input   66.30 | X-H torsion
[ 10763 10752 10751 10750 ] final -162.04 input  -60.55 | X-H torsion
[ 11005 11000 10999 10996 ] final  -90.42 input  -57.11 | X-H torsion

> <Gold.Protein.ActiveResidues>
 VAL166  LYS551  ARG553  GLY616  TRP617  ASP618  TYR619  PRO620  LYS621  CYS622 
 ASP623  PHE694  ASN695  SER759  ASP760  ASP761  ALA762  ILE779  LEU786  VAL792 
 PHE793  MET794  SER795  GLU796  ALA797  LYS798  CYS799  TRP800  GLU811  SER814 

> <Gold.Protein.RotatedAtoms>
  152.3206  133.5849  159.5741 H   0  0  0  0  0  0  0  0  0  0  0  0  # atno 6907 bound_to 6896
  150.7369  134.0017  159.3649 H   0  0  0  0  0  0  0  0  0  0  0  0  # atno 6908 bound_to 6896
  151.7902  135.0738  160.0437 H   0  0  0  0  0  0  0  0  0  0  0  0  # atno 6909 bound_to 6896
  145.7158  140.9059  143.0656 H   0  0  0  0  0  0  0  0  0  0  0  0  # atno 7974 bound_to 7965
  154.4083  140.1642  156.2301 H   0  0  0  0  0  0  0  0  0  0  0  0  # atno 8008 bound_to 7997
  155.9290  140.3416  155.6211 H   0  0  0  0  0  0  0  0  0  0  0  0  # atno 8009 bound_to 7997
  155.7130  140.0759  157.2354 H   0  0  0  0  0  0  0  0  0  0  0  0  # atno 8010 bound_to 7997
  140.5721  143.9141  150.6721 H   0  0  0  0  0  0  0  0  0  0  0  0  # atno 10167 bound_to 10162
  156.0079  130.4562  150.3738 H   0  0  0  0  0  0  0  0  0  0  0  0  # atno 10718 bound_to 10713
  154.7250  135.3034  154.8986 H   0  0  0  0  0  0  0  0  0  0  0  0  # atno 10763 bound_to 10752
  153.9846  135.6726  153.4755 H   0  0  0  0  0  0  0  0  0  0  0  0  # atno 10764 bound_to 10752
  153.0867  135.4980  154.8529 H   0  0  0  0  0  0  0  0  0  0  0  0  # atno 10765 bound_to 10752
  141.1566  133.7691  156.9735 H   0  0  0  0  0  0  0  0  0  0  0  0  # atno 11005 bound_to 11000
  144.6929  139.9136  143.7464 LP  0  0  0  0  0  0  0  0  0  0  0  0  # atno 17320 bound_to 7965
  146.0671  139.3661  143.0546 LP  0  0  0  0  0  0  0  0  0  0  0  0  # atno 17321 bound_to 7965
  140.2619  143.3517  152.1315 LP  0  0  0  0  0  0  0  0  0  0  0  0  # atno 17342 bound_to 10162
  139.5123  144.6914  151.5748 LP  0  0  0  0  0  0  0  0  0  0  0  0  # atno 17343 bound_to 10162
  157.1821  131.0394  151.2743 LP  0  0  0  0  0  0  0  0  0  0  0  0  # atno 17370 bound_to 10713
  157.4137  130.7399  149.6858 LP  0  0  0  0  0  0  0  0  0  0  0  0  # atno 17371 bound_to 10713
  140.1113  134.9475  157.2070 LP  0  0  0  0  0  0  0  0  0  0  0  0  # atno 17394 bound_to 11000
  140.3190  134.2938  155.7250 LP  0  0  0  0  0  0  0  0  0  0  0  0  # atno 17395 bound_to 11000

$$$$
