AV-unprocessed.smi:747|AV-procd|sdf|3580|dock1
  -GOLD-   22720 0573D 1   1.00000     0.00000
 Structure written by MMmdl.
 48 49  0  0  0  0  0  0  0  0  1 V2000
  150.9468  140.7595  157.4811 C   0  0  0  0  0  0  0  0  0  0  0  0
  150.8705  139.8889  156.3265 N   0  0  0  0  0  0  0  0  0  0  0  0
  152.0125  139.1434  155.9444 C   0  0  0  0  0  0  0  0  0  0  0  0
  153.0813  139.2040  156.5528 O   0  0  0  0  0  0  0  0  0  0  0  0
  151.8160  138.2996  154.7717 C   0  0  0  0  0  0  0  0  0  0  0  0
  150.6264  138.2647  154.1326 C   0  0  0  0  0  0  0  0  0  0  0  0
  149.5268  139.0050  154.5265 N   0  0  0  0  0  0  0  0  0  0  0  0
  148.2693  138.8879  153.7773 C   0  0  0  0  0  0  0  0  0  0  0  0
  147.2907  137.8714  154.3812 C   0  0  0  0  0  0  0  0  0  0  0  0
  146.5093  138.1920  155.2782 O   0  0  0  0  0  0  0  0  0  0  0  0
  147.3606  136.6309  153.8764 N   0  0  0  0  0  0  0  0  0  0  0  0
  146.5569  135.4839  154.3054 C   0  0  2  0  0  0  0  0  0  0  0  0
  147.4762  134.3330  154.8059 C   0  0  0  0  0  0  0  0  0  0  0  0
  148.8795  134.7507  155.2739 C   0  0  0  0  0  0  0  0  0  0  0  0
  149.6545  135.3657  154.3774 N   0  0  0  0  0  0  0  0  0  0  0  0
  149.2675  134.5196  156.4175 O   0  0  0  0  0  0  0  0  0  0  0  0
  145.5528  135.0829  153.1857 C   0  0  0  0  0  0  0  0  0  0  0  0
  146.2575  134.3675  152.0056 C   0  0  0  0  0  0  0  0  0  0  0  0
  145.2731  133.9713  150.8935 C   0  0  0  0  0  0  0  0  0  0  0  0
  144.4939  135.1891  150.3804 C   0  0  0  0  0  0  0  0  0  0  0  0
  143.7732  135.8983  151.5341 C   0  0  0  0  0  0  0  0  0  0  0  0
  144.7554  136.2953  152.6479 C   0  0  0  0  0  0  0  0  0  0  0  0
  149.6288  139.8458  155.6551 C   0  0  0  0  0  0  0  0  0  0  0  0
  148.6630  140.5130  156.0346 O   0  0  0  0  0  0  0  0  0  0  0  0
  151.9373  140.7350  157.9338 H   0  0  0  0  0  0  0  0  0  0  0  0
  150.2033  140.4090  158.1992 H   0  0  0  0  0  0  0  0  0  0  0  0
  150.7227  141.7713  157.1384 H   0  0  0  0  0  0  0  0  0  0  0  0
  152.6336  137.6931  154.4104 H   0  0  0  0  0  0  0  0  0  0  0  0
  150.5300  137.6201  153.2708 H   0  0  0  0  0  0  0  0  0  0  0  0
  147.7748  139.8577  153.7006 H   0  0  0  0  0  0  0  0  0  0  0  0
  148.4855  138.5884  152.7507 H   0  0  0  0  0  0  0  0  0  0  0  0
  148.0372  136.4582  153.1469 H   0  0  0  0  0  0  0  0  0  0  0  0
  145.9572  135.8039  155.1598 H   0  0  0  0  0  0  0  0  0  0  0  0
  146.9947  133.8190  155.6386 H   0  0  0  0  0  0  0  0  0  0  0  0
  147.5675  133.5756  154.0269 H   0  0  0  0  0  0  0  0  0  0  0  0
  150.5844  135.6640  154.6332 H   0  0  0  0  0  0  0  0  0  0  0  0
  149.3049  135.5331  153.4449 H   0  0  0  0  0  0  0  0  0  0  0  0
  144.8356  134.3769  153.6073 H   0  0  0  0  0  0  0  0  0  0  0  0
  147.0286  135.0182  151.5912 H   0  0  0  0  0  0  0  0  0  0  0  0
  146.7693  133.4678  152.3474 H   0  0  0  0  0  0  0  0  0  0  0  0
  145.8133  133.5032  150.0699 H   0  0  0  0  0  0  0  0  0  0  0  0
  144.5760  133.2224  151.2714 H   0  0  0  0  0  0  0  0  0  0  0  0
  145.1783  135.8840  149.8922 H   0  0  0  0  0  0  0  0  0  0  0  0
  143.7725  134.8793  149.6237 H   0  0  0  0  0  0  0  0  0  0  0  0
  143.2580  136.7840  151.1609 H   0  0  0  0  0  0  0  0  0  0  0  0
  143.0033  135.2425  151.9428 H   0  0  0  0  0  0  0  0  0  0  0  0
  144.1859  136.7661  153.4483 H   0  0  0  0  0  0  0  0  0  0  0  0
  145.4450  137.0524  152.2723 H   0  0  0  0  0  0  0  0  0  0  0  0
  1  2  1  0  0  0  0
  1 25  1  0  0  0  0
  1 26  1  0  0  0  0
  1 27  1  0  0  0  0
  2 23  1  0  0  0  0
  2  3  1  0  0  0  0
  3  4  2  0  0  0  0
  3  5  1  0  0  0  0
  5  6  2  0  0  0  0
  5 28  1  0  0  0  0
  6  7  1  0  0  0  0
  6 29  1  0  0  0  0
  7  8  1  0  0  0  0
  7 23  1  0  0  0  0
  8  9  1  0  0  0  0
  8 30  1  0  0  0  0
  8 31  1  0  0  0  0
  9 10  2  0  0  0  0
  9 11  1  0  0  0  0
 11 12  1  0  0  0  0
 11 32  1  0  0  0  0
 12 13  1  0  0  0  0
 12 17  1  0  0  0  0
 12 33  1  0  0  0  0
 13 14  1  0  0  0  0
 13 34  1  0  0  0  0
 13 35  1  0  0  0  0
 14 15  1  0  0  0  0
 14 16  2  0  0  0  0
 15 36  1  0  0  0  0
 15 37  1  0  0  0  0
 17 22  1  0  0  0  0
 17 18  1  0  0  0  0
 17 38  1  0  0  0  0
 18 19  1  0  0  0  0
 18 39  1  0  0  0  0
 18 40  1  0  0  0  0
 19 20  1  0  0  0  0
 19 41  1  0  0  0  0
 19 42  1  0  0  0  0
 20 21  1  0  0  0  0
 20 43  1  0  0  0  0
 20 44  1  0  0  0  0
 21 22  1  0  0  0  0
 21 45  1  0  0  0  0
 21 46  1  0  0  0  0
 22 47  1  0  0  0  0
 22 48  1  0  0  0  0
 23 24  2  0  0  0  0
M  END
> <s_m_source_file>
AV-unprocessed.smi

> <i_m_source_file_index>
747

> <i_lp_mmshare_version>
43012

> <i_f3d_flags>
0

> <s_epik_input>
W0NIM11uMWMoPU8pW2NIXVtjSF1uKGMxPU8pW0NIMl1DKD1PKVtOSF1bQ0BIXShbQ0gyXUMoPU8pW05IMl0pW0NIXTJbQ0gyXVtDSDJdW0NIMl1bQ0gyXVtDSDJdMg==

> <s_epik_cmdline>
J2VwaWtfcHl0aG9uJywgJy1waCcsICc3LjAnLCAnLXRuJywgJzgnLCAnLW1hJywgJzIwMCcsICctbWV0YWxfYmluZGluZycsICctaW1hZScsICc8aW5maWxlLm1hZT4nLCAnLW9tYWUnLCAnPG91dGZpbGUubWFlPic=

> <r_lp_tautomer_probability>
1

> <r_epik_Ionization_Penalty>
6.11221e-08

> <r_epik_Ionization_Penalty_Charging>
1.14855e-08

> <r_epik_Ionization_Penalty_Neutral>
4.96365e-08

> <r_epik_State_Penalty>
-0

> <r_epik_Charging_Adjusted_Penalty>
1.14855e-08

> <i_epik_Tot_Q>
0

> <i_epik_Tot_abs_Q>
0

> <r_epik_Metal_State_Penalty>
-0

> <b_epik_Metal_Only>
0

> <s_lp_Force_Field>
OPLS_2005

> <r_lp_Energy>
14.8557

> <b_lp_Chiralities_Consistent>
1

> <s_lp_Variant>
AV-unprocessed.smi:747-1

> <Gold.Version>
5.8.1

> <Gold.Id.Protein>
6NUR|6NUR_protein|mol2

> <Gold.PLP.Fitness>
43.1013

> <Gold.PLP.PLP>
-32.8483

> <Gold.PLP.part.hbond>
-2.8896

> <Gold.PLP.part.metal>
0.0000

> <Gold.PLP.part.buried>
-4.4511

> <Gold.PLP.part.nonpolar>
-26.6638

> <Gold.PLP.part.repulsive>
0.1248

> <Gold.PLP.ligand.clash>
0.0000

> <Gold.PLP.ligand.torsion>
1.3065

> <Gold.PLP.Chemscore.Hbond>
2.9672

> <Gold.PLP.Chemscore.CHOScore>
1.1514

> <Gold.PLP.Chemscore.Metal>
0.0000

> <Gold.Chemscore.Hbonds>
donor molecule, donor type, donor heavy atom, donor atom, acceptor molecule, acceptor atom, score
      L1  H    11    32       P1  7948  1.00
      L1  H    15    37       P1  7948  1.00
      P1  H  7997  8009       L1     4  0.91
      L1  C     6    29       P1  7948  0.59
      L1  C     6    29       P1  7949  0.54

> <Gold.PLP.Chemscore.Internal.Correction>
0.5102

> <Gold.Rescore>
     Score         DG    S(hbond)    S(metal)    S(lipo)     H(rot)  DE(clash)    DE(int)     intcor
     11.62     -14.55       2.93        0.00      57.50       2.91       0.05       2.88       ----

> <Gold.Chemscore.Fitness>
11.6177

> <Gold.Chemscore.DG>
-14.5547

> <Gold.Chemscore.ZeroCoef>
-5.4800

> <Gold.Chemscore.Hbond>
2.9349

> <Gold.Chemscore.Metal>
0.0000

> <Gold.Chemscore.Lipo>
57.5007

> <Gold.Chemscore.Internal_Hbond>
0.0000

> <Gold.Chemscore.DEClash>
0.0543

> <Gold.Chemscore.DEInternal>
2.8827

> <Gold.Chemscore.Rot>
2.9122

> <Gold.Chemscore.Internal.Correction>
   9.000000E+99

> <Gold.Chemscore.Hbonds>
donor molecule, donor type, donor heavy atom, donor atom, acceptor molecule, acceptor atom, score
      L1  H    11    32       P1  7948  0.98
      L1  H    15    37       P1  7948  0.35
      P1  H  7997  8009       L1     4  0.88

> <Gold.Chemscore.Hbond.Weighted>
-9.8024

> <Gold.Chemscore.Metal.Weighted>
-0.0000

> <Gold.Chemscore.Lipo.Weighted>
-6.7276

> <Gold.Chemscore.Internal_Hbond.Weighted>
0.0000

> <Gold.Chemscore.DEClash.Weighted>
0.0543

> <Gold.Chemscore.DEInternal.Weighted>
2.8827

> <Gold.Chemscore.Rot.Weighted>
7.4553

> <Gold.Chemscore.Internal.Correction.Weighted>
   9.000000E+99

> <Gold.Protein.RotatedTorsions>
[ 6907 6896 6895 6894 ] final  -35.17 input  -60.11 | X-H torsion
[ 7974 7965 7964 7962 ] final  113.64 input  175.53 | X-H torsion
[ 8008 7997 7996 7995 ] final -149.23 input   59.86 | X-H torsion
[ 10167 10162 10161 10158 ] final  -86.27 input  -65.29 | X-H torsion
[ 10718 10713 10712 10709 ] final -118.97 input   66.30 | X-H torsion
[ 10763 10752 10751 10750 ] final -100.30 input  -60.55 | X-H torsion
[ 11005 11000 10999 10996 ] final  148.16 input  -57.11 | X-H torsion

> <Gold.Protein.ActiveResidues>
 VAL166  LYS551  ARG553  GLY616  TRP617  ASP618  TYR619  PRO620  LYS621  CYS622 
 ASP623  PHE694  ASN695  SER759  ASP760  ASP761  ALA762  ILE779  LEU786  VAL792 
 PHE793  MET794  SER795  GLU796  ALA797  LYS798  CYS799  TRP800  GLU811  SER814 

> <Gold.Protein.RotatedAtoms>
  151.0432  134.9622  159.8172 H   0  0  0  0  0  0  0  0  0  0  0  0  # atno 6907 bound_to 6896
  152.5368  134.2631  159.8953 H   0  0  0  0  0  0  0  0  0  0  0  0  # atno 6908 bound_to 6896
  151.2644  133.4243  159.2652 H   0  0  0  0  0  0  0  0  0  0  0  0  # atno 6909 bound_to 6896
  145.2144  139.2891  143.4251 H   0  0  0  0  0  0  0  0  0  0  0  0  # atno 7974 bound_to 7965
  155.6043  140.0665  157.2724 H   0  0  0  0  0  0  0  0  0  0  0  0  # atno 8008 bound_to 7997
  154.4270  140.1813  156.1253 H   0  0  0  0  0  0  0  0  0  0  0  0  # atno 8009 bound_to 7997
  156.0134  140.3324  155.6968 H   0  0  0  0  0  0  0  0  0  0  0  0  # atno 8010 bound_to 7997
  140.3958  143.2684  151.9207 H   0  0  0  0  0  0  0  0  0  0  0  0  # atno 10167 bound_to 10162
  156.1146  130.6275  150.9357 H   0  0  0  0  0  0  0  0  0  0  0  0  # atno 10718 bound_to 10713
  154.7568  135.4940  153.9389 H   0  0  0  0  0  0  0  0  0  0  0  0  # atno 10763 bound_to 10752
  153.1205  135.6730  153.9352 H   0  0  0  0  0  0  0  0  0  0  0  0  # atno 10764 bound_to 10752
  153.9086  135.3101  155.3427 H   0  0  0  0  0  0  0  0  0  0  0  0  # atno 10765 bound_to 10752
  140.0936  134.9026  157.1689 H   0  0  0  0  0  0  0  0  0  0  0  0  # atno 11005 bound_to 11000
  146.3390  140.2430  142.8596 LP  0  0  0  0  0  0  0  0  0  0  0  0  # atno 17320 bound_to 7965
  144.9825  140.8472  143.5389 LP  0  0  0  0  0  0  0  0  0  0  0  0  # atno 17321 bound_to 7965
  139.4787  144.5683  151.8129 LP  0  0  0  0  0  0  0  0  0  0  0  0  # atno 17342 bound_to 10162
  140.4792  144.1474  150.5930 LP  0  0  0  0  0  0  0  0  0  0  0  0  # atno 17343 bound_to 10162
  157.6328  131.0919  150.8407 LP  0  0  0  0  0  0  0  0  0  0  0  0  # atno 17370 bound_to 10713
  156.8512  130.5081  149.5311 LP  0  0  0  0  0  0  0  0  0  0  0  0  # atno 17371 bound_to 10713
  140.3317  134.2802  155.7227 LP  0  0  0  0  0  0  0  0  0  0  0  0  # atno 17394 bound_to 11000
  141.2085  133.7775  157.0053 LP  0  0  0  0  0  0  0  0  0  0  0  0  # atno 17395 bound_to 11000

$$$$
