AV-unprocessed.smi:2865|AV-procd|sdf|11017|dock2
  -GOLD-   2272015473D 1   1.00000     0.00000
 Structure written by MMmdl.
 38 41  0  0  0  0  0  0  0  0  1 V2000
  148.7504  135.5701  156.2888 O   0  0  0  0  0  0  0  0  0  0  0  0
  148.9271  135.7188  155.0821 C   0  0  0  0  0  0  0  0  0  0  0  0
  149.4429  136.8244  154.5109 N   0  0  0  0  0  0  0  0  0  0  0  0
  149.8149  138.0514  155.1222 C   0  0  0  0  0  0  0  0  0  0  0  0
  150.3688  139.0701  154.3186 C   0  0  0  0  0  0  0  0  0  0  0  0
  150.7249  140.2694  154.8262 N   0  0  0  0  0  0  0  0  0  0  0  0
  150.5327  140.4507  156.1356 C   0  0  0  0  0  0  0  0  0  0  0  0
  150.8883  141.7966  156.6870 C   0  0  0  0  0  0  0  0  0  0  0  0
  151.8265  141.9262  157.8697 C   0  0  0  0  0  0  0  0  0  0  0  0
  150.3671  142.2462  158.0366 C   0  0  0  0  0  0  0  0  0  0  0  0
  149.9997  139.5735  156.9904 N   0  0  0  0  0  0  0  0  0  0  0  0
  149.6411  138.3705  156.4916 C   0  0  0  0  0  0  0  0  0  0  0  0
  148.6281  134.7394  154.2108 N   0  0  0  0  0  0  0  0  0  0  0  0
  148.0582  133.4209  154.4988 C   0  0  2  0  0  0  0  0  0  0  0  0
  148.6338  132.3387  153.5807 C   0  0  0  0  0  0  0  0  0  0  0  0
  147.3704  131.7798  152.9124 C   0  0  2  0  0  0  0  0  0  0  0  0
  146.7845  132.7582  151.8849 C   0  0  0  0  0  0  0  0  0  0  0  0
  146.1694  133.8270  152.7868 C   0  0  0  0  0  0  0  0  0  0  0  0
  146.5502  133.3128  154.1851 C   0  0  1  0  0  0  0  0  0  0  0  0
  146.4365  131.9167  153.9697 O   0  0  0  0  0  0  0  0  0  0  0  0
  149.6046  136.7716  153.5158 H   0  0  0  0  0  0  0  0  0  0  0  0
  150.5255  138.9250  153.2596 H   0  0  0  0  0  0  0  0  0  0  0  0
  150.9596  142.5416  155.8968 H   0  0  0  0  0  0  0  0  0  0  0  0
  152.1934  141.0110  158.3301 H   0  0  0  0  0  0  0  0  0  0  0  0
  152.5270  142.7588  157.8649 H   0  0  0  0  0  0  0  0  0  0  0  0
  150.0912  143.2932  158.1428 H   0  0  0  0  0  0  0  0  0  0  0  0
  149.7629  141.5443  158.6084 H   0  0  0  0  0  0  0  0  0  0  0  0
  149.1976  137.6897  157.2008 H   0  0  0  0  0  0  0  0  0  0  0  0
  148.8236  134.9282  153.2384 H   0  0  0  0  0  0  0  0  0  0  0  0
  148.2489  133.1408  155.5364 H   0  0  0  0  0  0  0  0  0  0  0  0
  149.3510  132.7154  152.8498 H   0  0  0  0  0  0  0  0  0  0  0  0
  149.1301  131.5674  154.1708 H   0  0  0  0  0  0  0  0  0  0  0  0
  147.4822  130.7613  152.5400 H   0  0  0  0  0  0  0  0  0  0  0  0
  147.5450  133.1576  151.2130 H   0  0  0  0  0  0  0  0  0  0  0  0
  146.0135  132.2765  151.2826 H   0  0  0  0  0  0  0  0  0  0  0  0
  146.5394  134.8304  152.5761 H   0  0  0  0  0  0  0  0  0  0  0  0
  145.0851  133.8401  152.6697 H   0  0  0  0  0  0  0  0  0  0  0  0
  145.9069  133.6902  154.9804 H   0  0  0  0  0  0  0  0  0  0  0  0
  1  2  2  0  0  0  0
  2  3  1  0  0  0  0
  2 13  1  0  0  0  0
  3  4  1  0  0  0  0
  3 21  1  0  0  0  0
  4 12  1  0  0  0  0
  4  5  2  0  0  0  0
  5  6  1  0  0  0  0
  5 22  1  0  0  0  0
  6  7  2  0  0  0  0
  7  8  1  0  0  0  0
  7 11  1  0  0  0  0
  8 10  1  0  0  0  0
  8  9  1  0  0  0  0
  8 23  1  0  0  0  0
  9 10  1  0  0  0  0
  9 24  1  0  0  0  0
  9 25  1  0  0  0  0
 10 26  1  0  0  0  0
 10 27  1  0  0  0  0
 11 12  2  0  0  0  0
 12 28  1  0  0  0  0
 13 14  1  0  0  0  0
 13 29  1  0  0  0  0
 14 19  1  0  0  0  0
 14 15  1  0  0  0  0
 14 30  1  0  0  0  0
 15 16  1  0  0  0  0
 15 31  1  0  0  0  0
 15 32  1  0  0  0  0
 16 20  1  0  0  0  0
 16 17  1  0  0  0  0
 16 33  1  0  0  0  0
 17 18  1  0  0  0  0
 17 34  1  0  0  0  0
 17 35  1  0  0  0  0
 18 19  1  0  0  0  0
 18 36  1  0  0  0  0
 18 37  1  0  0  0  0
 19 20  1  0  0  0  0
 19 38  1  0  0  0  0
M  END
> <s_m_source_file>
AV-unprocessed.smi

> <i_m_source_file_index>
2865

> <i_lp_mmshare_version>
43012

> <i_f3d_flags>
0

> <s_epik_input>
W0NIMl0xW0NIMl1bQ0BIXShPMilbQ0BASF0oW0NIMl1bQ0BASF0xMilbTkhdQyg9TylbTkhdYzNbY0hdbmMobltjSF0zKVtDSF00W0NIMl1bQ0gyXTQ=

> <s_epik_cmdline>
J2VwaWtfcHl0aG9uJywgJy1waCcsICc3LjAnLCAnLXRuJywgJzgnLCAnLW1hJywgJzIwMCcsICctbWV0YWxfYmluZGluZycsICctaW1hZScsICc8aW5maWxlLm1hZT4nLCAnLW9tYWUnLCAnPG91dGZpbGUubWFlPic=

> <r_lp_tautomer_probability>
1

> <r_epik_Ionization_Penalty>
2.43104e-05

> <r_epik_Ionization_Penalty_Charging>
0

> <r_epik_Ionization_Penalty_Neutral>
2.43104e-05

> <r_epik_State_Penalty>
-0

> <r_epik_Charging_Adjusted_Penalty>
0

> <i_epik_Tot_Q>
0

> <i_epik_Tot_abs_Q>
0

> <r_epik_Metal_State_Penalty>
-0

> <b_epik_Metal_Only>
0

> <s_lp_Force_Field>
OPLS_2005

> <r_lp_Energy>
44.6282

> <b_lp_Chiralities_Consistent>
1

> <s_lp_Variant>
AV-unprocessed.smi:2865-3

> <Gold.Version>
5.8.1

> <Gold.Id.Protein>
6NUR|6NUR_protein|mol2

> <Gold.PLP.Fitness>
37.7363

> <Gold.PLP.PLP>
-26.7859

> <Gold.PLP.part.hbond>
-3.0000

> <Gold.PLP.part.metal>
0.0000

> <Gold.PLP.part.buried>
-3.8604

> <Gold.PLP.part.nonpolar>
-20.3098

> <Gold.PLP.part.repulsive>
0.2399

> <Gold.PLP.ligand.clash>
0.0000

> <Gold.PLP.ligand.torsion>
0.5227

> <Gold.PLP.Chemscore.Hbond>
2.9520

> <Gold.PLP.Chemscore.CHOScore>
1.0000

> <Gold.PLP.Chemscore.Metal>
0.0000

> <Gold.Chemscore.Hbonds>
donor molecule, donor type, donor heavy atom, donor atom, acceptor molecule, acceptor atom, score
      L1  H     3    21       P1  7948  0.96
      L1  H    13    29       P1  7948  0.98
      P1  H  7989  7998       L1     6  0.95
      L1  C     5    22       P1  7957  1.00

> <Gold.PLP.Chemscore.Internal.Correction>
0.1397

> <Gold.Rescore>
     Score         DG    S(hbond)    S(metal)    S(lipo)     H(rot)  DE(clash)    DE(int)     intcor
     15.45     -17.47       2.40        0.00      60.35       1.20       0.40       1.61       ----

> <Gold.Chemscore.Fitness>
15.4519

> <Gold.Chemscore.DG>
-17.4689

> <Gold.Chemscore.ZeroCoef>
-5.4800

> <Gold.Chemscore.Hbond>
2.3960

> <Gold.Chemscore.Metal>
0.0000

> <Gold.Chemscore.Lipo>
60.3523

> <Gold.Chemscore.Internal_Hbond>
0.0000

> <Gold.Chemscore.DEClash>
0.4039

> <Gold.Chemscore.DEInternal>
1.6131

> <Gold.Chemscore.Rot>
1.2012

> <Gold.Chemscore.Internal.Correction>
   9.000000E+99

> <Gold.Chemscore.Hbonds>
donor molecule, donor type, donor heavy atom, donor atom, acceptor molecule, acceptor atom, score
      L1  H     3    21       P1  7948  0.65
      L1  H    13    29       P1  7948  0.32
      P1  H  7989  7998       L1     6  0.21

> <Gold.Chemscore.Hbond.Weighted>
-8.0028

> <Gold.Chemscore.Metal.Weighted>
-0.0000

> <Gold.Chemscore.Lipo.Weighted>
-7.0612

> <Gold.Chemscore.Internal_Hbond.Weighted>
0.0000

> <Gold.Chemscore.DEClash.Weighted>
0.4039

> <Gold.Chemscore.DEInternal.Weighted>
1.6131

> <Gold.Chemscore.Rot.Weighted>
3.0752

> <Gold.Chemscore.Internal.Correction.Weighted>
   9.000000E+99

> <Gold.Protein.RotatedTorsions>
[ 6907 6896 6895 6894 ] final   54.45 input  -60.11 | X-H torsion
[ 7974 7965 7964 7962 ] final   83.21 input  175.53 | X-H torsion
[ 8008 7997 7996 7995 ] final  -97.32 input   59.86 | X-H torsion
[ 10167 10162 10161 10158 ] final  161.12 input  -65.29 | X-H torsion
[ 10718 10713 10712 10709 ] final  -45.98 input   66.30 | X-H torsion
[ 10763 10752 10751 10750 ] final -135.32 input  -60.55 | X-H torsion
[ 11005 11000 10999 10996 ] final  156.28 input  -57.11 | X-H torsion

> <Gold.Protein.ActiveResidues>
 VAL166  LYS551  ARG553  GLY616  TRP617  ASP618  TYR619  PRO620  LYS621  CYS622 
 ASP623  PHE694  ASN695  SER759  ASP760  ASP761  ALA762  ILE779  LEU786  VAL792 
 PHE793  MET794  SER795  GLU796  ALA797  LYS798  CYS799  TRP800  GLU811  SER814 

> <Gold.Protein.RotatedAtoms>
  152.3440  134.7096  160.0255 H   0  0  0  0  0  0  0  0  0  0  0  0  # atno 6907 bound_to 6896
  151.7471  133.3320  159.3389 H   0  0  0  0  0  0  0  0  0  0  0  0  # atno 6908 bound_to 6896
  150.7498  134.6158  159.6155 H   0  0  0  0  0  0  0  0  0  0  0  0  # atno 6909 bound_to 6896
  145.6150  139.2375  143.2171 H   0  0  0  0  0  0  0  0  0  0  0  0  # atno 7974 bound_to 7965
  154.7861  140.0464  157.1165 H   0  0  0  0  0  0  0  0  0  0  0  0  # atno 8008 bound_to 7997
  154.9646  140.3082  155.4995 H   0  0  0  0  0  0  0  0  0  0  0  0  # atno 8009 bound_to 7997
  156.2943  140.2264  156.4734 H   0  0  0  0  0  0  0  0  0  0  0  0  # atno 8010 bound_to 7997
  139.4846  144.4568  151.8758 H   0  0  0  0  0  0  0  0  0  0  0  0  # atno 10167 bound_to 10162
  156.2229  130.4167  149.8970 H   0  0  0  0  0  0  0  0  0  0  0  0  # atno 10718 bound_to 10713
  154.8705  135.3707  154.4879 H   0  0  0  0  0  0  0  0  0  0  0  0  # atno 10763 bound_to 10752
  153.5528  135.7024  153.5588 H   0  0  0  0  0  0  0  0  0  0  0  0  # atno 10764 bound_to 10752
  153.3699  135.4024  155.1745 H   0  0  0  0  0  0  0  0  0  0  0  0  # atno 10765 bound_to 10752
  140.1660  134.8576  157.2632 H   0  0  0  0  0  0  0  0  0  0  0  0  # atno 11005 bound_to 11000
  146.1475  140.6972  142.9338 LP  0  0  0  0  0  0  0  0  0  0  0  0  # atno 17320 bound_to 7965
  144.7254  140.4508  143.6977 LP  0  0  0  0  0  0  0  0  0  0  0  0  # atno 17321 bound_to 7965
  140.4027  144.2471  150.5892 LP  0  0  0  0  0  0  0  0  0  0  0  0  # atno 17342 bound_to 10162
  140.5041  143.2309  151.8634 LP  0  0  0  0  0  0  0  0  0  0  0  0  # atno 17343 bound_to 10162
  156.6611  130.8782  151.3547 LP  0  0  0  0  0  0  0  0  0  0  0  0  # atno 17370 bound_to 10713
  157.7096  130.9425  150.1045 LP  0  0  0  0  0  0  0  0  0  0  0  0  # atno 17371 bound_to 10713
  140.2434  134.3769  155.7471 LP  0  0  0  0  0  0  0  0  0  0  0  0  # atno 17394 bound_to 11000
  141.2213  133.7277  156.8823 LP  0  0  0  0  0  0  0  0  0  0  0  0  # atno 17395 bound_to 11000

$$$$
