AV-unprocessed.smi:1243|AV-procd|sdf|5219|dock1
  -GOLD-   22720 4313D 1   1.00000     0.00000
 Structure written by MMmdl.
 51 52  0  0  0  0  0  0  0  0  2 V2000
  152.1361  138.0004  154.4418 C   0  0  0  0  0  0  0  0  0  0  0  0
  150.7668  138.2308  154.1287 O   0  0  0  0  0  0  0  0  0  0  0  0
  150.1808  139.4066  154.5573 C   0  0  0  0  0  0  0  0  0  0  0  0
  150.9354  140.2827  155.2670 N   0  0  0  0  0  0  0  0  0  0  0  0
  150.3652  141.4319  155.6839 C   0  0  0  0  0  0  0  0  0  0  0  0
  149.0267  141.7701  155.4132 C   0  0  0  0  0  0  0  0  0  0  0  0
  148.2420  140.8636  154.6768 C   0  0  0  0  0  0  0  0  0  0  0  0
  148.8222  139.6463  154.2448 C   0  0  0  0  0  0  0  0  0  0  0  0
  148.1254  138.6721  153.4784 N   0  0  0  0  0  0  0  0  0  0  0  0
  146.8061  138.4216  153.4485 C   0  0  0  0  0  0  0  0  0  0  0  0
  145.9546  139.0066  154.1176 O   0  0  0  0  0  0  0  0  0  0  0  0
  146.5215  137.4272  152.5953 N   0  0  0  0  0  0  0  0  0  0  0  0
  145.1899  136.8780  152.3416 C   0  0  0  0  0  0  0  0  0  0  0  0
  145.1897  135.3429  152.0697 C   0  0  0  0  0  0  0  0  0  0  0  0
  143.9366  134.6811  152.6974 C   0  0  0  0  0  0  0  0  0  0  0  0
  145.0924  135.0830  150.5455 C   0  0  0  0  0  0  0  0  0  0  0  0
  146.4326  134.6892  152.6193 N   0  3  0  0  0  0  0  0  0  0  0  0
  146.6930  133.2950  152.1583 C   0  0  0  0  0  0  0  0  0  0  0  0
  148.0927  132.8231  152.6049 C   0  0  0  0  0  0  0  0  0  0  0  0
  148.2668  132.8951  154.0550 N   0  0  0  0  0  0  0  0  0  0  0  0
  147.5024  131.8836  154.7770 C   0  0  0  0  0  0  0  0  0  0  0  0
  148.0021  134.2579  154.5142 C   0  0  0  0  0  0  0  0  0  0  0  0
  146.6010  134.7537  154.0997 C   0  0  0  0  0  0  0  0  0  0  0  0
  152.4397  137.0338  154.0398 H   0  0  0  0  0  0  0  0  0  0  0  0
  152.2993  137.9764  155.5203 H   0  0  0  0  0  0  0  0  0  0  0  0
  152.7814  138.7599  153.9984 H   0  0  0  0  0  0  0  0  0  0  0  0
  150.9970  142.1049  156.2442 H   0  0  0  0  0  0  0  0  0  0  0  0
  148.6126  142.7058  155.7583 H   0  0  0  0  0  0  0  0  0  0  0  0
  147.2208  141.1249  154.4459 H   0  0  0  0  0  0  0  0  0  0  0  0
  148.7112  138.0465  152.9445 H   0  0  0  0  0  0  0  0  0  0  0  0
  147.2884  137.0056  152.0918 H   0  0  0  0  0  0  0  0  0  0  0  0
  144.5972  137.1086  153.2260 H   0  0  0  0  0  0  0  0  0  0  0  0
  144.7208  137.4216  151.5214 H   0  0  0  0  0  0  0  0  0  0  0  0
  143.0228  134.9633  152.1736 H   0  0  0  0  0  0  0  0  0  0  0  0
  143.7902  134.9745  153.7369 H   0  0  0  0  0  0  0  0  0  0  0  0
  143.9994  133.5928  152.6598 H   0  0  0  0  0  0  0  0  0  0  0  0
  144.1157  135.3641  150.1496 H   0  0  0  0  0  0  0  0  0  0  0  0
  145.2394  134.0277  150.3113 H   0  0  0  0  0  0  0  0  0  0  0  0
  145.8231  135.6585  149.9779 H   0  0  0  0  0  0  0  0  0  0  0  0
  145.9256  132.6154  152.5274 H   0  0  0  0  0  0  0  0  0  0  0  0
  146.6684  133.2289  151.0727 H   0  0  0  0  0  0  0  0  0  0  0  0
  148.2762  131.8030  152.2654 H   0  0  0  0  0  0  0  0  0  0  0  0
  148.8539  133.4458  152.1330 H   0  0  0  0  0  0  0  0  0  0  0  0
  147.7141  131.9424  155.8451 H   0  0  0  0  0  0  0  0  0  0  0  0
  147.7855  130.8860  154.4397 H   0  0  0  0  0  0  0  0  0  0  0  0
  146.4271  131.9918  154.6408 H   0  0  0  0  0  0  0  0  0  0  0  0
  148.1170  134.3067  155.5977 H   0  0  0  0  0  0  0  0  0  0  0  0
  148.7615  134.9192  154.0946 H   0  0  0  0  0  0  0  0  0  0  0  0
  146.5050  135.7754  154.4608 H   0  0  0  0  0  0  0  0  0  0  0  0
  145.8290  134.1724  154.6029 H   0  0  0  0  0  0  0  0  0  0  0  0
  147.1954  135.2348  152.2443 H   0  0  0  0  0  0  0  0  0  0  0  0
  1  2  1  0  0  0  0
  1 24  1  0  0  0  0
  1 25  1  0  0  0  0
  1 26  1  0  0  0  0
  2  3  1  0  0  0  0
  3  8  1  0  0  0  0
  3  4  2  0  0  0  0
  4  5  1  0  0  0  0
  5  6  2  0  0  0  0
  5 27  1  0  0  0  0
  6  7  1  0  0  0  0
  6 28  1  0  0  0  0
  7  8  2  0  0  0  0
  7 29  1  0  0  0  0
  8  9  1  0  0  0  0
  9 10  1  0  0  0  0
  9 30  1  0  0  0  0
 10 11  2  0  0  0  0
 10 12  1  0  0  0  0
 12 13  1  0  0  0  0
 12 31  1  0  0  0  0
 13 14  1  0  0  0  0
 13 32  1  0  0  0  0
 13 33  1  0  0  0  0
 14 15  1  0  0  0  0
 14 16  1  0  0  0  0
 14 17  1  0  0  0  0
 15 34  1  0  0  0  0
 15 35  1  0  0  0  0
 15 36  1  0  0  0  0
 16 37  1  0  0  0  0
 16 38  1  0  0  0  0
 16 39  1  0  0  0  0
 17 23  1  0  0  0  0
 17 18  1  0  0  0  0
 17 51  1  0  0  0  0
 18 19  1  0  0  0  0
 18 40  1  0  0  0  0
 18 41  1  0  0  0  0
 19 20  1  0  0  0  0
 19 42  1  0  0  0  0
 19 43  1  0  0  0  0
 20 21  1  0  0  0  0
 20 22  1  0  0  0  0
 21 44  1  0  0  0  0
 21 45  1  0  0  0  0
 21 46  1  0  0  0  0
 22 23  1  0  0  0  0
 22 47  1  0  0  0  0
 22 48  1  0  0  0  0
 23 49  1  0  0  0  0
 23 50  1  0  0  0  0
M  CHG  1  17   1
M  END
> <s_m_source_file>
AV-unprocessed.smi

> <i_m_source_file_index>
1243

> <i_lp_mmshare_version>
43012

> <i_f3d_flags>
0

> <s_epik_input>
W0NIM11PYzFuW2NIXVtjSF1bY0hdYzFbTkhdQyg9TylbTkhdW0NIMl1DKFtDSDNdKShbQ0gzXSlOMltDSDJdW0NIMl1OKFtDSDNdKVtDSDJdW0NIMl0y

> <s_epik_cmdline>
J2VwaWtfcHl0aG9uJywgJy1waCcsICc3LjAnLCAnLXRuJywgJzgnLCAnLW1hJywgJzIwMCcsICctbWV0YWxfYmluZGluZycsICctaW1hZScsICc8aW5maWxlLm1hZT4nLCAnLW9tYWUnLCAnPG91dGZpbGUubWFlPic=

> <r_epik_Ionization_Penalty>
0.0907124

> <r_epik_Ionization_Penalty_Charging>
0.0886444

> <r_epik_Ionization_Penalty_Neutral>
0.00206798

> <r_epik_State_Penalty>
1.00524

> <r_epik_Charging_Adjusted_Penalty>
1.09388

> <i_epik_Tot_Q>
1

> <i_epik_Tot_abs_Q>
1

> <r_epik_Metal_State_Penalty>
1.00525

> <b_epik_Metal_Only>
0

> <s_lp_Force_Field>
OPLS_2005

> <r_lp_Energy>
29.8833

> <b_lp_Chiralities_Consistent>
1

> <s_lp_Variant>
AV-unprocessed.smi:1243-2

> <Gold.Version>
5.8.1

> <Gold.Id.Protein>
6NUR|6NUR_protein|mol2

> <Gold.PLP.Fitness>
44.6692

> <Gold.PLP.PLP>
-34.0058

> <Gold.PLP.part.hbond>
-5.0000

> <Gold.PLP.part.metal>
0.0000

> <Gold.PLP.part.buried>
-0.7994

> <Gold.PLP.part.nonpolar>
-29.2825

> <Gold.PLP.part.repulsive>
0.5881

> <Gold.PLP.ligand.clash>
0.0000

> <Gold.PLP.ligand.torsion>
1.2681

> <Gold.PLP.Chemscore.Hbond>
4.3388

> <Gold.PLP.Chemscore.CHOScore>
0.0000

> <Gold.PLP.Chemscore.Metal>
0.0000

> <Gold.Chemscore.Hbonds>
donor molecule, donor type, donor heavy atom, donor atom, acceptor molecule, acceptor atom, score
      L1  H     9    30       P1  7948  0.81
      L1  H    12    31       P1  7948  1.00
      L1  H    17    51       P1  7948  2.00
      P1  H  7989  7998       L1     4  0.30

> <Gold.PLP.Chemscore.Internal.Correction>
0.1833

> <Gold.Rescore>
     Score         DG    S(hbond)    S(metal)    S(lipo)     H(rot)  DE(clash)    DE(int)     intcor
     16.67     -19.36       2.77        0.00      77.14       1.72       0.18       2.51       ----

> <Gold.Chemscore.Fitness>
16.6661

> <Gold.Chemscore.DG>
-19.3566

> <Gold.Chemscore.ZeroCoef>
-5.4800

> <Gold.Chemscore.Hbond>
2.7718

> <Gold.Chemscore.Metal>
0.0000

> <Gold.Chemscore.Lipo>
77.1389

> <Gold.Chemscore.Internal_Hbond>
0.0000

> <Gold.Chemscore.DEClash>
0.1805

> <Gold.Chemscore.DEInternal>
2.5101

> <Gold.Chemscore.Rot>
1.7213

> <Gold.Chemscore.Internal.Correction>
   9.000000E+99

> <Gold.Chemscore.Hbonds>
donor molecule, donor type, donor heavy atom, donor atom, acceptor molecule, acceptor atom, score
      L1  H     9    30       P1  7948  0.77
      L1  H    12    31       P1  7948  0.99
      L1  H    17    51       P1  7948  0.93

> <Gold.Chemscore.Hbond.Weighted>
-9.2579

> <Gold.Chemscore.Metal.Weighted>
-0.0000

> <Gold.Chemscore.Lipo.Weighted>
-9.0252

> <Gold.Chemscore.Internal_Hbond.Weighted>
0.0000

> <Gold.Chemscore.DEClash.Weighted>
0.1805

> <Gold.Chemscore.DEInternal.Weighted>
2.5101

> <Gold.Chemscore.Rot.Weighted>
4.4066

> <Gold.Chemscore.Internal.Correction.Weighted>
   9.000000E+99

> <Gold.Protein.RotatedTorsions>
[ 6907 6896 6895 6894 ] final   95.20 input  -60.11 | X-H torsion
[ 7974 7965 7964 7962 ] final  -60.85 input  175.53 | X-H torsion
[ 8008 7997 7996 7995 ] final -145.19 input   59.86 | X-H torsion
[ 10167 10162 10161 10158 ] final  -64.97 input  -65.29 | X-H torsion
[ 10718 10713 10712 10709 ] final -174.80 input   66.30 | X-H torsion
[ 10763 10752 10751 10750 ] final  121.26 input  -60.55 | X-H torsion
[ 11005 11000 10999 10996 ] final  -95.90 input  -57.11 | X-H torsion

> <Gold.Protein.ActiveResidues>
 VAL166  LYS551  ARG553  GLY616  TRP617  ASP618  TYR619  PRO620  LYS621  CYS622 
 ASP623  PHE694  ASN695  SER759  ASP760  ASP761  ALA762  ILE779  LEU786  VAL792 
 PHE793  MET794  SER795  GLU796  ALA797  LYS798  CYS799  TRP800  GLU811  SER814 

> <Gold.Protein.RotatedAtoms>
  152.5445  134.1076  159.8344 H   0  0  0  0  0  0  0  0  0  0  0  0  # atno 6907 bound_to 6896
  151.1146  133.5140  159.2611 H   0  0  0  0  0  0  0  0  0  0  0  0  # atno 6908 bound_to 6896
  151.1846  135.0385  159.8861 H   0  0  0  0  0  0  0  0  0  0  0  0  # atno 6909 bound_to 6896
  145.8106  140.8601  143.0184 H   0  0  0  0  0  0  0  0  0  0  0  0  # atno 7974 bound_to 7965
  155.5391  140.0606  157.2873 H   0  0  0  0  0  0  0  0  0  0  0  0  # atno 8008 bound_to 7997
  154.4458  140.1922  156.0616 H   0  0  0  0  0  0  0  0  0  0  0  0  # atno 8009 bound_to 7997
  156.0598  140.3274  155.7452 H   0  0  0  0  0  0  0  0  0  0  0  0  # atno 8010 bound_to 7997
  140.5763  143.2322  151.6435 H   0  0  0  0  0  0  0  0  0  0  0  0  # atno 10167 bound_to 10162
  156.7905  130.9516  151.3120 H   0  0  0  0  0  0  0  0  0  0  0  0  # atno 10718 bound_to 10713
  153.6114  135.3430  155.2980 H   0  0  0  0  0  0  0  0  0  0  0  0  # atno 10763 bound_to 10752
  154.8618  135.4251  154.2306 H   0  0  0  0  0  0  0  0  0  0  0  0  # atno 10764 bound_to 10752
  153.3157  135.7035  153.7147 H   0  0  0  0  0  0  0  0  0  0  0  0  # atno 10765 bound_to 10752
  141.1428  133.8059  157.0499 H   0  0  0  0  0  0  0  0  0  0  0  0  # atno 11005 bound_to 11000
  144.6758  140.0390  143.7481 LP  0  0  0  0  0  0  0  0  0  0  0  0  # atno 17320 bound_to 7965
  145.9781  139.2920  143.1058 LP  0  0  0  0  0  0  0  0  0  0  0  0  # atno 17321 bound_to 7965
  139.5144  144.3410  152.0740 LP  0  0  0  0  0  0  0  0  0  0  0  0  # atno 17342 bound_to 10162
  140.2554  144.4124  150.6205 LP  0  0  0  0  0  0  0  0  0  0  0  0  # atno 17343 bound_to 10162
  157.6603  130.8960  149.9815 LP  0  0  0  0  0  0  0  0  0  0  0  0  # atno 17370 bound_to 10713
  156.1162  130.3647  149.9964 LP  0  0  0  0  0  0  0  0  0  0  0  0  # atno 17371 bound_to 10713
  140.0639  134.9740  157.1352 LP  0  0  0  0  0  0  0  0  0  0  0  0  # atno 17394 bound_to 11000
  140.3809  134.2288  155.7171 LP  0  0  0  0  0  0  0  0  0  0  0  0  # atno 17395 bound_to 11000

$$$$
