AV-unprocessed.smi:1586|AV-procd|sdf|6378|dock8
  -GOLD-   22720 7 13D 1   1.00000     0.00000
 Structure written by MMmdl.
 46 47  0  0  0  0  0  0  0  0  1 V2000
  153.4249  142.4611  160.1884 C   0  0  0  0  0  0  0  0  0  0  0  0
  152.4285  142.8864  159.1005 C   0  0  0  0  0  0  0  0  0  0  0  0
  151.7360  141.7847  158.4347 N   0  0  0  0  0  0  0  0  0  0  0  0
  150.9252  142.2747  157.3243 C   0  0  0  0  0  0  0  0  0  0  0  0
  150.1682  141.1321  156.6246 C   0  0  0  0  0  0  0  0  0  0  0  0
  151.0744  140.1072  156.0835 N   0  0  0  0  0  0  0  0  0  0  0  0
  150.3501  139.0091  155.4013 C   0  0  1  0  0  0  0  0  0  0  0  0
  149.4539  139.5171  154.2426 C   0  0  0  0  0  0  0  0  0  0  0  0
  151.2944  137.8944  154.8669 C   0  0  0  0  0  0  0  0  0  0  0  0
  150.5764  136.7769  154.2576 N   0  0  0  0  0  0  0  0  0  0  0  0
  150.5531  135.5178  154.7203 C   0  0  0  0  0  0  0  0  0  0  0  0
  151.1437  135.1524  155.7370 O   0  0  0  0  0  0  0  0  0  0  0  0
  149.8160  134.7223  153.9267 N   0  0  0  0  0  0  0  0  0  0  0  0
  149.5928  133.3289  154.0671 C   0  0  0  0  0  0  0  0  0  0  0  0
  148.8965  132.5987  153.0676 C   0  0  0  0  0  0  0  0  0  0  0  0
  148.8970  131.3244  153.5614 C   0  0  0  0  0  0  0  0  0  0  0  0
  148.3496  130.0372  153.0474 C   0  0  0  0  0  0  0  0  0  0  0  0
  149.5365  131.2814  154.7617 O   0  0  0  0  0  0  0  0  0  0  0  0
  149.9813  132.5699  155.0802 N   0  0  0  0  0  0  0  0  0  0  0  0
  151.9111  139.6354  157.1981 C   0  0  0  0  0  0  0  0  0  0  0  0
  152.6589  140.7831  157.9026 C   0  0  0  0  0  0  0  0  0  0  0  0
  153.8235  143.3347  160.7041 H   0  0  0  0  0  0  0  0  0  0  0  0
  154.2728  141.9160  159.7747 H   0  0  0  0  0  0  0  0  0  0  0  0
  152.9453  141.8270  160.9346 H   0  0  0  0  0  0  0  0  0  0  0  0
  151.6874  143.5327  159.5724 H   0  0  0  0  0  0  0  0  0  0  0  0
  152.9383  143.5060  158.3612 H   0  0  0  0  0  0  0  0  0  0  0  0
  150.2041  143.0068  157.6895 H   0  0  0  0  0  0  0  0  0  0  0  0
  151.5550  142.7934  156.5993 H   0  0  0  0  0  0  0  0  0  0  0  0
  149.4596  140.6779  157.3191 H   0  0  0  0  0  0  0  0  0  0  0  0
  149.5831  141.5875  155.8282 H   0  0  0  0  0  0  0  0  0  0  0  0
  149.6881  138.5407  156.1313 H   0  0  0  0  0  0  0  0  0  0  0  0
  148.9408  138.7073  153.7265 H   0  0  0  0  0  0  0  0  0  0  0  0
  150.0399  140.0597  153.5002 H   0  0  0  0  0  0  0  0  0  0  0  0
  148.6562  140.1720  154.5887 H   0  0  0  0  0  0  0  0  0  0  0  0
  152.0273  138.3206  154.1795 H   0  0  0  0  0  0  0  0  0  0  0  0
  151.8636  137.4404  155.6756 H   0  0  0  0  0  0  0  0  0  0  0  0
  150.0619  136.9800  153.4131 H   0  0  0  0  0  0  0  0  0  0  0  0
  149.3815  135.1568  153.1261 H   0  0  0  0  0  0  0  0  0  0  0  0
  148.4683  132.9483  152.1399 H   0  0  0  0  0  0  0  0  0  0  0  0
  148.0657  130.1257  151.9987 H   0  0  0  0  0  0  0  0  0  0  0  0
  147.4668  129.7403  153.6136 H   0  0  0  0  0  0  0  0  0  0  0  0
  149.0892  129.2406  153.1302 H   0  0  0  0  0  0  0  0  0  0  0  0
  151.3006  139.0936  157.9220 H   0  0  0  0  0  0  0  0  0  0  0  0
  152.6709  138.9427  156.8424 H   0  0  0  0  0  0  0  0  0  0  0  0
  153.3564  141.2487  157.2041 H   0  0  0  0  0  0  0  0  0  0  0  0
  153.2595  140.3600  158.7072 H   0  0  0  0  0  0  0  0  0  0  0  0
  1  2  1  0  0  0  0
  1 22  1  0  0  0  0
  1 23  1  0  0  0  0
  1 24  1  0  0  0  0
  2  3  1  0  0  0  0
  2 25  1  0  0  0  0
  2 26  1  0  0  0  0
  3 21  1  0  0  0  0
  3  4  1  0  0  0  0
  4  5  1  0  0  0  0
  4 27  1  0  0  0  0
  4 28  1  0  0  0  0
  5  6  1  0  0  0  0
  5 29  1  0  0  0  0
  5 30  1  0  0  0  0
  6  7  1  0  0  0  0
  6 20  1  0  0  0  0
  7  8  1  0  0  0  0
  7  9  1  0  0  0  0
  7 31  1  0  0  0  0
  8 32  1  0  0  0  0
  8 33  1  0  0  0  0
  8 34  1  0  0  0  0
  9 10  1  0  0  0  0
  9 35  1  0  0  0  0
  9 36  1  0  0  0  0
 10 11  1  0  0  0  0
 10 37  1  0  0  0  0
 11 12  2  0  0  0  0
 11 13  1  0  0  0  0
 13 14  1  0  0  0  0
 13 38  1  0  0  0  0
 14 19  2  0  0  0  0
 14 15  1  0  0  0  0
 15 16  2  0  0  0  0
 15 39  1  0  0  0  0
 16 17  1  0  0  0  0
 16 18  1  0  0  0  0
 17 40  1  0  0  0  0
 17 41  1  0  0  0  0
 17 42  1  0  0  0  0
 18 19  1  0  0  0  0
 20 21  1  0  0  0  0
 20 43  1  0  0  0  0
 20 44  1  0  0  0  0
 21 45  1  0  0  0  0
 21 46  1  0  0  0  0
M  END
> <s_m_source_file>
AV-unprocessed.smi

> <i_m_source_file_index>
1586

> <i_lp_mmshare_version>
43012

> <i_f3d_flags>
0

> <s_epik_input>
W0NIM11bQ0gyXU4xW0NIMl1bQ0gyXU4oW0NIMl1bQ0gyXTEpW0NASF0oW0NIM10pW0NIMl1bTkhdQyg9TylbTkhdYzJbY0hdYyhbQ0gzXSlvbjI=

> <s_epik_cmdline>
J2VwaWtfcHl0aG9uJywgJy1waCcsICc3LjAnLCAnLXRuJywgJzgnLCAnLW1hJywgJzIwMCcsICctbWV0YWxfYmluZGluZycsICctaW1hZScsICc8aW5maWxlLm1hZT4nLCAnLW9tYWUnLCAnPG91dGZpbGUubWFlPic=

> <r_epik_Ionization_Penalty>
2.42597

> <r_epik_Ionization_Penalty_Charging>
0

> <r_epik_Ionization_Penalty_Neutral>
2.42597

> <r_epik_State_Penalty>
1.76326

> <r_epik_Charging_Adjusted_Penalty>
1.76326

> <i_epik_Tot_Q>
0

> <i_epik_Tot_abs_Q>
0

> <r_epik_Metal_State_Penalty>
1.7742

> <b_epik_Metal_Only>
0

> <s_lp_Force_Field>
OPLS_2005

> <r_lp_Energy>
39.6445

> <b_lp_Chiralities_Consistent>
1

> <s_lp_Variant>
AV-unprocessed.smi:1586-6

> <Gold.Version>
5.8.1

> <Gold.Id.Protein>
6NUR|6NUR_protein|mol2

> <Gold.PLP.Fitness>
40.6100

> <Gold.PLP.PLP>
-35.0926

> <Gold.PLP.part.hbond>
-2.8154

> <Gold.PLP.part.metal>
0.0000

> <Gold.PLP.part.buried>
-3.0497

> <Gold.PLP.part.nonpolar>
-29.2610

> <Gold.PLP.part.repulsive>
0.1484

> <Gold.PLP.ligand.clash>
0.0000

> <Gold.PLP.ligand.torsion>
0.0544

> <Gold.PLP.Chemscore.Hbond>
1.8600

> <Gold.PLP.Chemscore.CHOScore>
0.0000

> <Gold.PLP.Chemscore.Metal>
0.0000

> <Gold.Chemscore.Hbonds>
donor molecule, donor type, donor heavy atom, donor atom, acceptor molecule, acceptor atom, score
      L1  H    10    37       P1  7948  0.84
      L1  H    13    38       P1  7948  0.50
      P1  H 10752 10765       L1    12  0.19

> <Gold.PLP.Chemscore.Internal.Correction>
0.0463

> <Gold.Rescore>
     Score         DG    S(hbond)    S(metal)    S(lipo)     H(rot)  DE(clash)    DE(int)     intcor
     14.20     -15.59       1.50        0.00      81.31       1.72       0.01       1.38       ----

> <Gold.Chemscore.Fitness>
14.2008

> <Gold.Chemscore.DG>
-15.5948

> <Gold.Chemscore.ZeroCoef>
-5.4800

> <Gold.Chemscore.Hbond>
1.4968

> <Gold.Chemscore.Metal>
0.0000

> <Gold.Chemscore.Lipo>
81.3085

> <Gold.Chemscore.Internal_Hbond>
0.0000

> <Gold.Chemscore.DEClash>
0.0111

> <Gold.Chemscore.DEInternal>
1.3830

> <Gold.Chemscore.Rot>
1.7178

> <Gold.Chemscore.Internal.Correction>
   9.000000E+99

> <Gold.Chemscore.Hbonds>
donor molecule, donor type, donor heavy atom, donor atom, acceptor molecule, acceptor atom, score
      L1  H    10    37       P1  7948  0.16
      L1  H    13    38       P1  7948  0.02

> <Gold.Chemscore.Hbond.Weighted>
-4.9994

> <Gold.Chemscore.Metal.Weighted>
-0.0000

> <Gold.Chemscore.Lipo.Weighted>
-9.5131

> <Gold.Chemscore.Internal_Hbond.Weighted>
0.0000

> <Gold.Chemscore.DEClash.Weighted>
0.0111

> <Gold.Chemscore.DEInternal.Weighted>
1.3830

> <Gold.Chemscore.Rot.Weighted>
4.3976

> <Gold.Chemscore.Internal.Correction.Weighted>
   9.000000E+99

> <Gold.Protein.RotatedTorsions>
[ 6907 6896 6895 6894 ] final    5.25 input  -60.11 | X-H torsion
[ 7974 7965 7964 7962 ] final   12.19 input  175.53 | X-H torsion
[ 8008 7997 7996 7995 ] final   42.14 input   59.86 | X-H torsion
[ 10167 10162 10161 10158 ] final  -68.40 input  -65.29 | X-H torsion
[ 10718 10713 10712 10709 ] final  -91.28 input   66.30 | X-H torsion
[ 10763 10752 10751 10750 ] final -177.34 input  -60.55 | X-H torsion
[ 11005 11000 10999 10996 ] final -160.51 input  -57.11 | X-H torsion

> <Gold.Protein.ActiveResidues>
 VAL166  LYS551  ARG553  GLY616  TRP617  ASP618  TYR619  PRO620  LYS621  CYS622 
 ASP623  PHE694  ASN695  SER759  ASP760  ASP761  ALA762  ILE779  LEU786  VAL792 
 PHE793  MET794  SER795  GLU796  ALA797  LYS798  CYS799  TRP800  GLU811  SER814 

> <Gold.Protein.RotatedAtoms>
  151.6544  135.0997  160.0166 H   0  0  0  0  0  0  0  0  0  0  0  0  # atno 6907 bound_to 6896
  152.3982  133.6774  159.6302 H   0  0  0  0  0  0  0  0  0  0  0  0  # atno 6908 bound_to 6896
  150.7886  133.8754  159.3311 H   0  0  0  0  0  0  0  0  0  0  0  0  # atno 6909 bound_to 6896
  146.2356  139.9373  142.8488 H   0  0  0  0  0  0  0  0  0  0  0  0  # atno 7974 bound_to 7965
  155.2812  140.3372  155.4258 H   0  0  0  0  0  0  0  0  0  0  0  0  # atno 8008 bound_to 7997
  156.2089  140.1762  156.7780 H   0  0  0  0  0  0  0  0  0  0  0  0  # atno 8009 bound_to 7997
  154.5658  140.0679  156.8874 H   0  0  0  0  0  0  0  0  0  0  0  0  # atno 8010 bound_to 7997
  140.5510  143.2312  151.6911 H   0  0  0  0  0  0  0  0  0  0  0  0  # atno 10167 bound_to 10162
  155.9993  130.4942  150.5451 H   0  0  0  0  0  0  0  0  0  0  0  0  # atno 10718 bound_to 10713
  154.5613  135.2820  155.0916 H   0  0  0  0  0  0  0  0  0  0  0  0  # atno 10763 bound_to 10752
  154.2324  135.6371  153.5183 H   0  0  0  0  0  0  0  0  0  0  0  0  # atno 10764 bound_to 10752
  153.0030  135.5540  154.6208 H   0  0  0  0  0  0  0  0  0  0  0  0  # atno 10765 bound_to 10752
  140.6307  134.4654  157.5229 H   0  0  0  0  0  0  0  0  0  0  0  0  # atno 11005 bound_to 11000
  145.1986  140.9844  143.4169 LP  0  0  0  0  0  0  0  0  0  0  0  0  # atno 17320 bound_to 7965
  144.9793  139.3799  143.6270 LP  0  0  0  0  0  0  0  0  0  0  0  0  # atno 17321 bound_to 7965
  139.5027  144.3818  152.0368 LP  0  0  0  0  0  0  0  0  0  0  0  0  # atno 17342 bound_to 10162
  140.2935  144.3727  150.6081 LP  0  0  0  0  0  0  0  0  0  0  0  0  # atno 17343 bound_to 10162
  157.3381  131.0712  151.1809 LP  0  0  0  0  0  0  0  0  0  0  0  0  # atno 17370 bound_to 10713
  157.2666  130.6684  149.6000 LP  0  0  0  0  0  0  0  0  0  0  0  0  # atno 17371 bound_to 10713
  139.9117  134.8330  156.1505 LP  0  0  0  0  0  0  0  0  0  0  0  0  # atno 17394 bound_to 11000
  141.0677  133.6811  156.2078 LP  0  0  0  0  0  0  0  0  0  0  0  0  # atno 17395 bound_to 11000

$$$$
