AV-unprocessed.smi:258|AV-procd|sdf|1965|dock8
  -GOLD-   2262021113D 1   1.00000     0.00000
 Structure written by MMmdl.
 57 60  0  0  0  0  0  0  0  0  1 V2000
  142.7560  132.1282  148.9991 O   0  0  0  0  0  0  0  0  0  0  0  0
  143.9702  132.7484  148.6325 C   0  0  0  0  0  0  0  0  0  0  0  0
  144.9744  132.6702  149.7888 C   0  0  0  0  0  0  0  0  0  0  0  0
  144.7060  131.5066  150.5581 O   0  0  0  0  0  0  0  0  0  0  0  0
  145.8515  130.9262  151.1681 C   0  0  2  0  0  0  0  0  0  0  0  0
  145.5256  129.5394  151.7609 C   0  0  0  0  0  0  0  0  0  0  0  0
  146.7273  129.0015  152.5541 C   0  0  0  0  0  0  0  0  0  0  0  0
  147.1727  130.0096  153.6253 C   0  0  0  0  0  0  0  0  0  0  0  0
  147.4351  131.3142  153.0247 N   0  0  0  0  0  0  0  0  0  0  0  0
  148.0181  132.1894  153.8696 C   0  0  0  0  0  0  0  0  0  0  0  0
  149.1966  132.7342  153.4805 N   0  0  0  0  0  0  0  0  0  0  0  0
  149.8213  133.6096  154.2744 C   0  0  0  0  0  0  0  0  0  0  0  0
  149.4473  134.0664  155.4720 N   0  0  0  0  0  0  0  0  0  0  0  0
  148.2620  133.5170  155.8639 C   0  0  0  0  0  0  0  0  0  0  0  0
  147.4848  132.5771  155.1310 C   0  0  0  0  0  0  0  0  0  0  0  0
  146.3412  132.2452  155.8477 N   0  0  0  0  0  0  0  0  0  0  0  0
  146.4368  132.9492  156.9428 C   0  0  0  0  0  0  0  0  0  0  0  0
  147.5616  133.7379  157.0357 N   0  0  0  0  0  0  0  0  0  0  0  0
  147.9216  134.6188  158.1328 C   0  0  0  0  0  0  0  0  0  0  0  0
  147.1257  134.3373  159.4316 C   0  0  2  0  0  0  0  0  0  0  0  0
  145.6142  134.6374  159.2837 C   0  0  0  0  0  0  0  0  0  0  0  0
  145.3885  135.9763  158.8930 O   0  0  0  0  0  0  0  0  0  0  0  0
  147.7532  135.0587  160.6511 C   0  0  2  0  0  0  0  0  0  0  0  0
  146.9466  134.9574  161.9340 C   0  0  0  0  0  0  0  0  0  0  0  0
  147.5223  136.0953  162.7702 C   0  0  0  0  0  0  0  0  0  0  0  0
  147.9189  137.0968  161.8397 O   0  0  0  0  0  0  0  0  0  0  0  0
  147.8586  136.5810  160.5136 C   0  0  0  0  0  0  0  0  0  0  0  0
  146.3137  131.8828  152.2814 C   0  0  0  0  0  0  0  0  0  0  0  0
  142.0735  132.7818  149.0019 H   0  0  0  0  0  0  0  0  0  0  0  0
  144.3636  132.2159  147.7662 H   0  0  0  0  0  0  0  0  0  0  0  0
  143.7956  133.7801  148.3260 H   0  0  0  0  0  0  0  0  0  0  0  0
  145.9985  132.6920  149.4153 H   0  0  0  0  0  0  0  0  0  0  0  0
  144.8452  133.5446  150.4281 H   0  0  0  0  0  0  0  0  0  0  0  0
  146.6585  130.8359  150.4383 H   0  0  0  0  0  0  0  0  0  0  0  0
  144.6588  129.6158  152.4187 H   0  0  0  0  0  0  0  0  0  0  0  0
  145.2614  128.8304  150.9772 H   0  0  0  0  0  0  0  0  0  0  0  0
  146.4749  128.0485  153.0193 H   0  0  0  0  0  0  0  0  0  0  0  0
  147.5555  128.8053  151.8719 H   0  0  0  0  0  0  0  0  0  0  0  0
  146.3959  130.1048  154.3851 H   0  0  0  0  0  0  0  0  0  0  0  0
  148.0702  129.6457  154.1276 H   0  0  0  0  0  0  0  0  0  0  0  0
  150.7550  133.9992  153.8967 H   0  0  0  0  0  0  0  0  0  0  0  0
  145.6882  132.9077  157.7207 H   0  0  0  0  0  0  0  0  0  0  0  0
  148.9920  134.5060  158.3062 H   0  0  0  0  0  0  0  0  0  0  0  0
  147.7690  135.6499  157.8117 H   0  0  0  0  0  0  0  0  0  0  0  0
  147.2038  133.2659  159.6217 H   0  0  0  0  0  0  0  0  0  0  0  0
  145.1548  133.9768  158.5482 H   0  0  0  0  0  0  0  0  0  0  0  0
  145.0872  134.4524  160.2196 H   0  0  0  0  0  0  0  0  0  0  0  0
  145.4775  136.0341  157.9540 H   0  0  0  0  0  0  0  0  0  0  0  0
  148.7500  134.6576  160.8415 H   0  0  0  0  0  0  0  0  0  0  0  0
  145.8891  135.1387  161.7357 H   0  0  0  0  0  0  0  0  0  0  0  0
  147.0403  133.9902  162.4285 H   0  0  0  0  0  0  0  0  0  0  0  0
  146.8058  136.4832  163.4945 H   0  0  0  0  0  0  0  0  0  0  0  0
  148.4056  135.7583  163.3142 H   0  0  0  0  0  0  0  0  0  0  0  0
  148.7298  136.8893  159.9349 H   0  0  0  0  0  0  0  0  0  0  0  0
  146.9704  136.9887  160.0289 H   0  0  0  0  0  0  0  0  0  0  0  0
  146.6055  132.8408  151.8487 H   0  0  0  0  0  0  0  0  0  0  0  0
  145.4865  132.0795  152.9646 H   0  0  0  0  0  0  0  0  0  0  0  0
  1  2  1  0  0  0  0
  1 29  1  0  0  0  0
  2  3  1  0  0  0  0
  2 30  1  0  0  0  0
  2 31  1  0  0  0  0
  3  4  1  0  0  0  0
  3 32  1  0  0  0  0
  3 33  1  0  0  0  0
  4  5  1  0  0  0  0
  5 28  1  0  0  0  0
  5  6  1  0  0  0  0
  5 34  1  0  0  0  0
  6  7  1  0  0  0  0
  6 35  1  0  0  0  0
  6 36  1  0  0  0  0
  7  8  1  0  0  0  0
  7 37  1  0  0  0  0
  7 38  1  0  0  0  0
  8  9  1  0  0  0  0
  8 39  1  0  0  0  0
  8 40  1  0  0  0  0
  9 10  1  0  0  0  0
  9 28  1  0  0  0  0
 10 15  1  0  0  0  0
 10 11  2  0  0  0  0
 11 12  1  0  0  0  0
 12 13  2  0  0  0  0
 12 41  1  0  0  0  0
 13 14  1  0  0  0  0
 14 18  1  0  0  0  0
 14 15  2  0  0  0  0
 15 16  1  0  0  0  0
 16 17  2  0  0  0  0
 17 18  1  0  0  0  0
 17 42  1  0  0  0  0
 18 19  1  0  0  0  0
 19 20  1  0  0  0  0
 19 43  1  0  0  0  0
 19 44  1  0  0  0  0
 20 21  1  0  0  0  0
 20 23  1  0  0  0  0
 20 45  1  0  0  0  0
 21 22  1  0  0  0  0
 21 46  1  0  0  0  0
 21 47  1  0  0  0  0
 22 48  1  0  0  0  0
 23 27  1  0  0  0  0
 23 24  1  0  0  0  0
 23 49  1  0  0  0  0
 24 25  1  0  0  0  0
 24 50  1  0  0  0  0
 24 51  1  0  0  0  0
 25 26  1  0  0  0  0
 25 52  1  0  0  0  0
 25 53  1  0  0  0  0
 26 27  1  0  0  0  0
 27 54  1  0  0  0  0
 27 55  1  0  0  0  0
 28 56  1  0  0  0  0
 28 57  1  0  0  0  0
M  END
> <s_m_source_file>
AV-unprocessed.smi

> <i_m_source_file_index>
258

> <i_lp_mmshare_version>
43012

> <i_f3d_flags>
0

> <s_epik_input>
W09IXVtDSDJdW0NIMl1PW0NAQEhdMVtDSDJdW0NIMl1bQ0gyXU4oW0NIMl0xKWMobltjSF1uMiljKGMyMyluW2NIXW4zW0NIMl1bQ0BIXShbQ0gyXVtPSF0pW0NAQEhdNFtDSDJdW0NIMl1PW0NIMl00

> <s_epik_cmdline>
J2VwaWtfcHl0aG9uJywgJy1waCcsICc3LjAnLCAnLXRuJywgJzgnLCAnLW1hJywgJzIwMCcsICctbWV0YWxfYmluZGluZycsICctaW1hZScsICc8aW5maWxlLm1hZT4nLCAnLW9tYWUnLCAnPG91dGZpbGUubWFlPic=

> <r_lp_tautomer_probability>
1

> <r_epik_Ionization_Penalty>
0.00349036

> <r_epik_Ionization_Penalty_Charging>
0

> <r_epik_Ionization_Penalty_Neutral>
0.00349036

> <r_epik_State_Penalty>
0.00229798

> <r_epik_Charging_Adjusted_Penalty>
0.00229798

> <i_epik_Tot_Q>
0

> <i_epik_Tot_abs_Q>
0

> <r_epik_Metal_State_Penalty>
-0

> <b_epik_Metal_Only>
0

> <s_lp_Force_Field>
OPLS_2005

> <r_lp_Energy>
47.3811

> <b_lp_Chiralities_Consistent>
1

> <s_lp_Variant>
AV-unprocessed.smi:258-1

> <Gold.Version>
5.8.1

> <Gold.Id.Protein>
6NUR|6NUR_protein|mol2

> <Gold.PLP.Fitness>
51.5448

> <Gold.PLP.PLP>
-44.0477

> <Gold.PLP.part.hbond>
-5.0000

> <Gold.PLP.part.metal>
0.0000

> <Gold.PLP.part.buried>
-7.2746

> <Gold.PLP.part.nonpolar>
-31.6528

> <Gold.PLP.part.repulsive>
0.5559

> <Gold.PLP.ligand.clash>
0.0000

> <Gold.PLP.ligand.torsion>
1.0522

> <Gold.PLP.Chemscore.Hbond>
3.0654

> <Gold.PLP.Chemscore.CHOScore>
0.0000

> <Gold.PLP.Chemscore.Metal>
0.0000

> <Gold.Chemscore.Hbonds>
donor molecule, donor type, donor heavy atom, donor atom, acceptor molecule, acceptor atom, score
      L1  H     1    29       P1 10186  1.00
      P1  H  6931  6943       L1    26  1.00
      P1  H  6934  6947       L1    26  0.09
      P1  H 10785 10796       L1     1  0.96

> <Gold.PLP.Chemscore.Internal.Correction>
0.4055

> <Gold.Rescore>
     Score         DG    S(hbond)    S(metal)    S(lipo)     H(rot)  DE(clash)    DE(int)     intcor
     12.65     -14.96       2.50        0.00     102.14       4.22       0.13       2.18       ----

> <Gold.Chemscore.Fitness>
12.6523

> <Gold.Chemscore.DG>
-14.9600

> <Gold.Chemscore.ZeroCoef>
-5.4800

> <Gold.Chemscore.Hbond>
2.4982

> <Gold.Chemscore.Metal>
0.0000

> <Gold.Chemscore.Lipo>
102.1436

> <Gold.Chemscore.Internal_Hbond>
0.0000

> <Gold.Chemscore.DEClash>
0.1288

> <Gold.Chemscore.DEInternal>
2.1789

> <Gold.Chemscore.Rot>
4.2246

> <Gold.Chemscore.Internal.Correction>
   9.000000E+99

> <Gold.Chemscore.Hbonds>
donor molecule, donor type, donor heavy atom, donor atom, acceptor molecule, acceptor atom, score
      L1  H     1    29       P1 10186  0.94
      P1  H  6931  6943       L1    26  0.73
      P1  H 10785 10796       L1     1  0.31

> <Gold.Chemscore.Hbond.Weighted>
-8.3441

> <Gold.Chemscore.Metal.Weighted>
-0.0000

> <Gold.Chemscore.Lipo.Weighted>
-11.9508

> <Gold.Chemscore.Internal_Hbond.Weighted>
0.0000

> <Gold.Chemscore.DEClash.Weighted>
0.1288

> <Gold.Chemscore.DEInternal.Weighted>
2.1789

> <Gold.Chemscore.Rot.Weighted>
10.8149

> <Gold.Chemscore.Internal.Correction.Weighted>
   9.000000E+99

> <Gold.Protein.RotatedTorsions>
[ 6907 6896 6895 6894 ] final  -55.04 input  -60.11 | X-H torsion
[ 7974 7965 7964 7962 ] final   51.15 input  175.53 | X-H torsion
[ 8008 7997 7996 7995 ] final   44.66 input   59.86 | X-H torsion
[ 10167 10162 10161 10158 ] final  106.22 input  -65.29 | X-H torsion
[ 10718 10713 10712 10709 ] final -132.06 input   66.30 | X-H torsion
[ 10763 10752 10751 10750 ] final    3.62 input  -60.55 | X-H torsion
[ 11005 11000 10999 10996 ] final   74.57 input  -57.11 | X-H torsion

> <Gold.Protein.ActiveResidues>
 VAL166  LYS551  ARG553  GLY616  TRP617  ASP618  TYR619  PRO620  LYS621  CYS622 
 ASP623  PHE694  ASN695  SER759  ASP760  ASP761  ALA762  ILE779  LEU786  VAL792 
 PHE793  MET794  SER795  GLU796  ALA797  LYS798  CYS799  TRP800  GLU811  SER814 

> <Gold.Protein.RotatedAtoms>
  150.8285  134.7528  159.6833 H   0  0  0  0  0  0  0  0  0  0  0  0  # atno 6907 bound_to 6896
  152.4393  134.5620  159.9906 H   0  0  0  0  0  0  0  0  0  0  0  0  # atno 6908 bound_to 6896
  151.5786  133.3343  159.3040 H   0  0  0  0  0  0  0  0  0  0  0  0  # atno 6909 bound_to 6896
  145.9941  139.4370  143.0055 H   0  0  0  0  0  0  0  0  0  0  0  0  # atno 7974 bound_to 7965
  155.3229  140.3398  155.4241 H   0  0  0  0  0  0  0  0  0  0  0  0  # atno 8008 bound_to 7997
  156.1900  140.1694  156.8148 H   0  0  0  0  0  0  0  0  0  0  0  0  # atno 8009 bound_to 7997
  154.5430  140.0721  156.8526 H   0  0  0  0  0  0  0  0  0  0  0  0  # atno 8010 bound_to 7997
  139.7028  144.7091  151.1157 H   0  0  0  0  0  0  0  0  0  0  0  0  # atno 10167 bound_to 10162
  156.2308  130.7036  151.0856 H   0  0  0  0  0  0  0  0  0  0  0  0  # atno 10718 bound_to 10713
  153.2811  135.6940  153.7385 H   0  0  0  0  0  0  0  0  0  0  0  0  # atno 10763 bound_to 10752
  153.6372  135.3399  155.3061 H   0  0  0  0  0  0  0  0  0  0  0  0  # atno 10764 bound_to 10752
  154.8495  135.4423  154.1864 H   0  0  0  0  0  0  0  0  0  0  0  0  # atno 10765 bound_to 10752
  139.9385  134.7444  156.1164 H   0  0  0  0  0  0  0  0  0  0  0  0  # atno 11005 bound_to 11000
  145.7585  140.9944  143.1212 LP  0  0  0  0  0  0  0  0  0  0  0  0  # atno 17320 bound_to 7965
  144.6898  139.9302  143.7471 LP  0  0  0  0  0  0  0  0  0  0  0  0  # atno 17321 bound_to 7965
  140.7714  143.5401  150.9323 LP  0  0  0  0  0  0  0  0  0  0  0  0  # atno 17342 bound_to 10162
  139.9083  143.6751  152.3119 LP  0  0  0  0  0  0  0  0  0  0  0  0  # atno 17343 bound_to 10162
  157.7132  131.0723  150.6425 LP  0  0  0  0  0  0  0  0  0  0  0  0  # atno 17370 bound_to 10713
  156.6493  130.4480  149.5725 LP  0  0  0  0  0  0  0  0  0  0  0  0  # atno 17371 bound_to 10713
  141.1009  133.6677  156.2752 LP  0  0  0  0  0  0  0  0  0  0  0  0  # atno 17394 bound_to 11000
  140.6013  134.5551  157.5518 LP  0  0  0  0  0  0  0  0  0  0  0  0  # atno 17395 bound_to 11000

$$$$
