AV-unprocessed.smi:1815|AV-procd|sdf|7354|dock1
  -GOLD-   22720 9 13D 1   1.00000     0.00000
 Structure written by MMmdl.
 40 41  0  0  0  0  0  0  0  0  2 V2000
  146.0551  132.8082  154.9847 C   0  0  0  0  0  0  0  0  0  0  0  0
  145.6683  133.8577  153.9372 C   0  0  1  0  0  0  0  0  0  0  0  0
  146.8930  134.6371  153.4168 C   0  0  0  0  0  0  0  0  0  0  0  0
  146.5095  135.5906  152.3470 N   0  3  2  0  0  0  0  0  0  0  0  0
  145.8612  136.8279  152.8572 C   0  0  0  0  0  0  0  0  0  0  0  0
  146.1509  138.0524  151.9678 C   0  0  0  0  0  0  0  0  0  0  0  0
  147.3983  138.7059  152.3487 N   0  0  0  0  0  0  0  0  0  0  0  0
  147.6736  139.1741  153.5749 C   0  0  0  0  0  0  0  0  0  0  0  0
  146.8862  139.0978  154.5186 O   0  0  0  0  0  0  0  0  0  0  0  0
  148.8964  139.7311  153.6237 N   0  0  0  0  0  0  0  0  0  0  0  0
  149.5391  140.3398  154.7341 C   0  0  0  0  0  0  0  0  0  0  0  0
  150.8359  140.1921  155.0299 N   0  0  0  0  0  0  0  0  0  0  0  0
  151.1966  140.9031  156.1775 C   0  0  0  0  0  0  0  0  0  0  0  0
  150.1542  141.5911  156.7471 C   0  0  0  0  0  0  0  0  0  0  0  0
  148.6700  141.3740  155.8584 S   0  0  0  0  0  0  0  0  0  0  0  0
  145.7602  134.8883  151.2737 C   0  0  0  0  0  0  0  0  0  0  0  0
  144.5759  134.0758  151.8413 C   0  0  1  0  0  0  0  0  0  0  0  0
  143.8813  133.2428  150.7584 C   0  0  0  0  0  0  0  0  0  0  0  0
  145.0538  133.1845  152.8436 O   0  0  0  0  0  0  0  0  0  0  0  0
  146.5319  133.2722  155.8485 H   0  0  0  0  0  0  0  0  0  0  0  0
  146.7486  132.0745  154.5726 H   0  0  0  0  0  0  0  0  0  0  0  0
  145.1756  132.2708  155.3403 H   0  0  0  0  0  0  0  0  0  0  0  0
  144.9501  134.5442  154.3887 H   0  0  0  0  0  0  0  0  0  0  0  0
  147.3993  135.1575  154.2308 H   0  0  0  0  0  0  0  0  0  0  0  0
  147.6211  133.9371  153.0042 H   0  0  0  0  0  0  0  0  0  0  0  0
  144.7868  136.6833  152.9703 H   0  0  0  0  0  0  0  0  0  0  0  0
  146.2462  137.0339  153.8568 H   0  0  0  0  0  0  0  0  0  0  0  0
  146.1884  137.7620  150.9163 H   0  0  0  0  0  0  0  0  0  0  0  0
  145.3582  138.7941  152.0566 H   0  0  0  0  0  0  0  0  0  0  0  0
  148.1007  138.8061  151.6302 H   0  0  0  0  0  0  0  0  0  0  0  0
  149.4284  139.7264  152.7660 H   0  0  0  0  0  0  0  0  0  0  0  0
  152.2202  140.8636  156.5197 H   0  0  0  0  0  0  0  0  0  0  0  0
  150.1699  142.2101  157.6318 H   0  0  0  0  0  0  0  0  0  0  0  0
  145.4185  135.5864  150.5106 H   0  0  0  0  0  0  0  0  0  0  0  0
  146.4535  134.2109  150.7726 H   0  0  0  0  0  0  0  0  0  0  0  0
  143.8351  134.7442  152.2819 H   0  0  0  0  0  0  0  0  0  0  0  0
  143.4855  133.8793  149.9667 H   0  0  0  0  0  0  0  0  0  0  0  0
  143.0486  132.6764  151.1762 H   0  0  0  0  0  0  0  0  0  0  0  0
  144.5718  132.5324  150.3029 H   0  0  0  0  0  0  0  0  0  0  0  0
  147.3779  135.9027  151.9359 H   0  0  0  0  0  0  0  0  0  0  0  0
  1  2  1  0  0  0  0
  1 20  1  0  0  0  0
  1 21  1  0  0  0  0
  1 22  1  0  0  0  0
  2 19  1  0  0  0  0
  2  3  1  0  0  0  0
  2 23  1  0  0  0  0
  3  4  1  0  0  0  0
  3 24  1  0  0  0  0
  3 25  1  0  0  0  0
  4  5  1  0  0  0  0
  4 16  1  0  0  0  0
  4 40  1  0  0  0  0
  5  6  1  0  0  0  0
  5 26  1  0  0  0  0
  5 27  1  0  0  0  0
  6  7  1  0  0  0  0
  6 28  1  0  0  0  0
  6 29  1  0  0  0  0
  7  8  1  0  0  0  0
  7 30  1  0  0  0  0
  8  9  2  0  0  0  0
  8 10  1  0  0  0  0
 10 11  1  0  0  0  0
 10 31  1  0  0  0  0
 11 15  1  0  0  0  0
 11 12  2  0  0  0  0
 12 13  1  0  0  0  0
 13 14  2  0  0  0  0
 13 32  1  0  0  0  0
 14 15  1  0  0  0  0
 14 33  1  0  0  0  0
 16 17  1  0  0  0  0
 16 34  1  0  0  0  0
 16 35  1  0  0  0  0
 17 18  1  0  0  0  0
 17 19  1  0  0  0  0
 17 36  1  0  0  0  0
 18 37  1  0  0  0  0
 18 38  1  0  0  0  0
 18 39  1  0  0  0  0
M  CHG  1   4   1
M  END
> <s_m_source_file>
AV-unprocessed.smi

> <i_m_source_file_index>
1815

> <i_lp_mmshare_version>
43012

> <i_f3d_flags>
0

> <s_epik_input>
W0NIM11bQ0BASF0xW0NIMl1OKFtDSDJdW0NASF0oTzEpW0NIM10pW0NIMl1bQ0gyXVtOSF1DKD1PKVtOSF1jMm5bY0hdW2NIXXMy

> <s_epik_cmdline>
J2VwaWtfcHl0aG9uJywgJy1waCcsICc3LjAnLCAnLXRuJywgJzgnLCAnLW1hJywgJzIwMCcsICctbWV0YWxfYmluZGluZycsICctaW1hZScsICc8aW5maWxlLm1hZT4nLCAnLW9tYWUnLCAnPG91dGZpbGUubWFlPic=

> <r_lp_tautomer_probability>
0.999

> <r_epik_Ionization_Penalty>
0.695838

> <r_epik_Ionization_Penalty_Charging>
0.695697

> <r_epik_Ionization_Penalty_Neutral>
0.000141198

> <r_epik_State_Penalty>
0.717972

> <r_epik_Charging_Adjusted_Penalty>
1.41367

> <i_epik_Tot_Q>
1

> <i_epik_Tot_abs_Q>
1

> <r_epik_Metal_State_Penalty>
0.756405

> <b_epik_Metal_Only>
0

> <s_lp_Force_Field>
OPLS_2005

> <r_lp_Energy>
15.0409

> <b_lp_Chiralities_Consistent>
1

> <s_lp_Variant>
AV-unprocessed.smi:1815-5

> <Gold.Version>
5.8.1

> <Gold.Id.Protein>
6NUR|6NUR_protein|mol2

> <Gold.PLP.Fitness>
42.4572

> <Gold.PLP.PLP>
-29.7824

> <Gold.PLP.part.hbond>
-4.8170

> <Gold.PLP.part.metal>
0.0000

> <Gold.PLP.part.buried>
-2.2033

> <Gold.PLP.part.nonpolar>
-22.5456

> <Gold.PLP.part.repulsive>
0.5174

> <Gold.PLP.ligand.clash>
0.0000

> <Gold.PLP.ligand.torsion>
0.7906

> <Gold.PLP.Chemscore.Hbond>
4.7360

> <Gold.PLP.Chemscore.CHOScore>
0.0000

> <Gold.PLP.Chemscore.Metal>
0.0000

> <Gold.Chemscore.Hbonds>
donor molecule, donor type, donor heavy atom, donor atom, acceptor molecule, acceptor atom, score
      L1  H     4    40       P1  7948  2.00
      L1  H     7    30       P1  7957  0.80
      L1  H    10    31       P1  7957  1.00
      P1  H  7989  7998       L1    12  1.00

> <Gold.PLP.Chemscore.Internal.Correction>
0.0481

> <Gold.Rescore>
     Score         DG    S(hbond)    S(metal)    S(lipo)     H(rot)  DE(clash)    DE(int)     intcor
     16.35     -19.48       3.68        0.00      50.61       1.64       0.34       2.80       ----

> <Gold.Chemscore.Fitness>
16.3480

> <Gold.Chemscore.DG>
-19.4844

> <Gold.Chemscore.ZeroCoef>
-5.4800

> <Gold.Chemscore.Hbond>
3.6759

> <Gold.Chemscore.Metal>
0.0000

> <Gold.Chemscore.Lipo>
50.6101

> <Gold.Chemscore.Internal_Hbond>
0.0000

> <Gold.Chemscore.DEClash>
0.3390

> <Gold.Chemscore.DEInternal>
2.7974

> <Gold.Chemscore.Rot>
1.6385

> <Gold.Chemscore.Internal.Correction>
   9.000000E+99

> <Gold.Chemscore.Hbonds>
donor molecule, donor type, donor heavy atom, donor atom, acceptor molecule, acceptor atom, score
      L1  H     4    40       P1  7948  0.97
      L1  H     7    30       P1  7957  0.58
      L1  H    10    31       P1  7957  0.97
      P1  H  7989  7998       L1    12  0.25

> <Gold.Chemscore.Hbond.Weighted>
-12.2775

> <Gold.Chemscore.Metal.Weighted>
-0.0000

> <Gold.Chemscore.Lipo.Weighted>
-5.9214

> <Gold.Chemscore.Internal_Hbond.Weighted>
0.0000

> <Gold.Chemscore.DEClash.Weighted>
0.3390

> <Gold.Chemscore.DEInternal.Weighted>
2.7974

> <Gold.Chemscore.Rot.Weighted>
4.1945

> <Gold.Chemscore.Internal.Correction.Weighted>
   9.000000E+99

> <Gold.Protein.RotatedTorsions>
[ 6907 6896 6895 6894 ] final  -52.09 input  -60.11 | X-H torsion
[ 7974 7965 7964 7962 ] final  -69.79 input  175.53 | X-H torsion
[ 8008 7997 7996 7995 ] final -113.75 input   59.86 | X-H torsion
[ 10167 10162 10161 10158 ] final   81.58 input  -65.29 | X-H torsion
[ 10718 10713 10712 10709 ] final   25.40 input   66.30 | X-H torsion
[ 10763 10752 10751 10750 ] final  -76.71 input  -60.55 | X-H torsion
[ 11005 11000 10999 10996 ] final  -17.36 input  -57.11 | X-H torsion

> <Gold.Protein.ActiveResidues>
 VAL166  LYS551  ARG553  GLY616  TRP617  ASP618  TYR619  PRO620  LYS621  CYS622 
 ASP623  PHE694  ASN695  SER759  ASP760  ASP761  ALA762  ILE779  LEU786  VAL792 
 PHE793  MET794  SER795  GLU796  ALA797  LYS798  CYS799  TRP800  GLU811  SER814 

> <Gold.Protein.RotatedAtoms>
  150.8550  134.7886  159.7038 H   0  0  0  0  0  0  0  0  0  0  0  0  # atno 6907 bound_to 6896
  152.4604  134.5194  159.9787 H   0  0  0  0  0  0  0  0  0  0  0  0  # atno 6908 bound_to 6896
  151.5308  133.3411  159.2953 H   0  0  0  0  0  0  0  0  0  0  0  0  # atno 6909 bound_to 6896
  145.6992  140.9123  143.0740 H   0  0  0  0  0  0  0  0  0  0  0  0  # atno 7974 bound_to 7965
  155.0255  140.0393  157.2454 H   0  0  0  0  0  0  0  0  0  0  0  0  # atno 8008 bound_to 7997
  154.7341  140.2736  155.6407 H   0  0  0  0  0  0  0  0  0  0  0  0  # atno 8009 bound_to 7997
  156.2848  140.2678  156.2049 H   0  0  0  0  0  0  0  0  0  0  0  0  # atno 8010 bound_to 7997
  139.9377  144.6110  150.8282 H   0  0  0  0  0  0  0  0  0  0  0  0  # atno 10167 bound_to 10162
  157.1928  130.6854  149.6157 H   0  0  0  0  0  0  0  0  0  0  0  0  # atno 10718 bound_to 10713
  154.5034  135.5788  153.6549 H   0  0  0  0  0  0  0  0  0  0  0  0  # atno 10763 bound_to 10752
  152.9883  135.6141  154.2973 H   0  0  0  0  0  0  0  0  0  0  0  0  # atno 10764 bound_to 10752
  154.2882  135.2849  155.2646 H   0  0  0  0  0  0  0  0  0  0  0  0  # atno 10765 bound_to 10752
  140.8161  133.8104  155.9611 H   0  0  0  0  0  0  0  0  0  0  0  0  # atno 11005 bound_to 11000
  144.6973  139.8925  143.7454 LP  0  0  0  0  0  0  0  0  0  0  0  0  # atno 17320 bound_to 7965
  146.0813  139.3801  143.0463 LP  0  0  0  0  0  0  0  0  0  0  0  0  # atno 17321 bound_to 7965
  140.7620  143.3187  151.2673 LP  0  0  0  0  0  0  0  0  0  0  0  0  # atno 17342 bound_to 10162
  139.6730  143.9987  152.2764 LP  0  0  0  0  0  0  0  0  0  0  0  0  # atno 17343 bound_to 10162
  155.9709  130.4609  150.6089 LP  0  0  0  0  0  0  0  0  0  0  0  0  # atno 17370 bound_to 10713
  157.3843  131.0786  151.1449 LP  0  0  0  0  0  0  0  0  0  0  0  0  # atno 17371 bound_to 10713
  140.9148  134.2216  157.4963 LP  0  0  0  0  0  0  0  0  0  0  0  0  # atno 17394 bound_to 11000
  139.8711  134.9766  156.4927 LP  0  0  0  0  0  0  0  0  0  0  0  0  # atno 17395 bound_to 11000

$$$$
