#       Name:                AV-unprocessed.smi:1103
#       Creating user name   scv26
#       Creation time:       Fri Mar 27 03:31:28 2020


#       File generated by GOLD software.
#

@<TRIPOS>MOLECULE
AV-unprocessed.smi:1103
    47    48     1
SMALL
NO_CHARGES


@<TRIPOS>ATOM
      1 ****         0.2518   2.2961   1.3074 C.3            1 S1                 0.0000
      2 ****        -1.2468   1.9705   1.3881 C.3            1 S1                 0.0000
      3 ****        -1.7564   1.2983   0.1657 N.4            1 S1                 1.0000
      4 ****        -3.2329   1.4052   0.0472 C.3            1 S1                 0.0000
      5 ****        -3.7221   0.8307  -1.2903 C.3            1 S1                 0.0000
      6 ****        -3.2719  -0.6256  -1.4559 C.3            1 S1                 0.0000
      7 ****        -1.7447  -0.7390  -1.3067 C.3            1 S1                 0.0000
      8 ****        -1.2904  -2.2059  -1.4698 C.3            1 S1                 0.0000
      9 ****         0.1632  -2.3352  -1.4425 N.am           1 S1                 0.0000
     10 ****         0.8886  -2.7421  -0.3891 C.2            1 S1                 0.0000
     11 ****         0.3952  -3.1268   0.6708 O.2            1 S1                 0.0000
     12 ****         2.4066  -2.6535  -0.5372 C.3            1 S1                 0.0000
     13 ****         2.8734  -1.3372  -0.1417 N.pl3          1 S1                 0.0000
     14 ****         3.2142  -0.8934   1.1183 C.2            1 S1                 0.0000
     15 ****         3.5686   0.4213   1.0091 C.2            1 S1                 0.0000
     16 ****         4.0091   1.3649   2.0901 C.3            1 S1                 0.0000
     17 ****         3.4134   0.6922  -0.3800 C.2            1 S1                 0.0000
     18 ****         2.9917  -0.3581  -1.0646 N.2            1 S1                 0.0000
     19 ****        -1.2977  -0.1109   0.0349 C.3            1 S1                 0.0000
     20 ****         0.5628   2.8840   2.1711 H              1 S1                 0.0000
     21 ****         0.4850   2.8751   0.4134 H              1 S1                 0.0000
     22 ****         0.8648   1.3964   1.2972 H              1 S1                 0.0000
     23 ****        -1.4603   1.3608   2.2670 H              1 S1                 0.0000
     24 ****        -1.7823   2.9107   1.5276 H              1 S1                 0.0000
     25 ****        -3.7050   0.8804   0.8795 H              1 S1                 0.0000
     26 ****        -3.5359   2.4506   0.1180 H              1 S1                 0.0000
     27 ****        -4.8094   0.8923  -1.3467 H              1 S1                 0.0000
     28 ****        -3.3344   1.4326  -2.1133 H              1 S1                 0.0000
     29 ****        -3.7664  -1.2484  -0.7089 H              1 S1                 0.0000
     30 ****        -3.5862  -1.0000  -2.4310 H              1 S1                 0.0000
     31 ****        -1.2882  -0.1614  -2.1125 H              1 S1                 0.0000
     32 ****        -1.7558  -2.8350  -0.7090 H              1 S1                 0.0000
     33 ****        -1.6334  -2.5912  -2.4304 H              1 S1                 0.0000
     34 ****         0.6618  -2.0404  -2.2701 H              1 S1                 0.0000
     35 ****         2.8875  -3.4031   0.0925 H              1 S1                 0.0000
     36 ****         2.7069  -2.8549  -1.5669 H              1 S1                 0.0000
     37 ****         3.1697  -1.5425   1.9806 H              1 S1                 0.0000
     38 ****         4.1440   2.3788   1.7131 H              1 S1                 0.0000
     39 ****         4.9570   1.0562   2.5313 H              1 S1                 0.0000
     40 ****         3.2789   1.4176   2.8979 H              1 S1                 0.0000
     41 ****         3.5873   1.6186  -0.9071 H              1 S1                 0.0000
     42 ****        -0.2113  -0.1357   0.0983 H              1 S1                 0.0000
     43 ****        -1.6769  -0.6994   0.8721 H              1 S1                 0.0000
     44 ****        -1.3737   1.8052  -0.6196 H              1 S1                 0.0000
     45 ****        -0.5984  -3.1478   0.7813 LP             1 S1                 0.0000
     46 ****         0.9880  -3.4183   1.4216 LP             1 S1                 0.0000
     47 ****         2.8029  -0.4145  -2.0449 LP             1 S1                 0.0000
@<TRIPOS>BOND
    1    1    2 1     
    2    1   20 1     
    3    1   21 1     
    4    1   22 1     
    5    2    3 1     
    6    2   23 1     
    7    2   24 1     
    8    3   19 1     
    9    3    4 1     
   10    3   44 1     
   11    4    5 1     
   12    4   25 1     
   13    4   26 1     
   14    5    6 1     
   15    5   27 1     
   16    5   28 1     
   17    6    7 1     
   18    6   29 1     
   19    6   30 1     
   20    7    8 1     
   21    7   19 1     
   22    7   31 1     
   23    8    9 1     
   24    8   32 1     
   25    8   33 1     
   26    9   10 am    
   27    9   34 1     
   28   10   11 2     
   29   10   12 1     
   30   12   13 1     
   31   12   35 1     
   32   12   36 1     
   33   13   18 1     
   34   13   14 1     
   35   14   15 2     
   36   14   37 1     
   37   15   16 1     
   38   15   17 1     
   39   16   38 1     
   40   16   39 1     
   41   16   40 1     
   42   17   18 2     
   43   17   41 1     
   44   19   42 1     
   45   19   43 1     
   46   11   45 1     
   47   11   46 1     
   48   18   47 1     
@<TRIPOS>SUBSTRUCTURE
      1 S1             1
@<TRIPOS>SET
LONE_PAIRS      STATIC     ATOMS    <user>   **** ""
3 45 46 47
DONOR_HYDROGENS      STATIC     ATOMS    <user>   **** ""
2 44 34
ATOM$BLUE        STATIC     ATOMS    COLORGROUP SYSTEM
3 45 46 47
ATOM$RED        STATIC     ATOMS    COLORGROUP SYSTEM
2 44 34
