AV-unprocessed.smi:2925|AV-procd|sdf|11222|dock10
  -GOLD-   2272016113D 1   1.00000     0.00000
 Structure written by MMmdl.
 44 45  0  0  0  0  0  0  0  0  1 V2000
  148.1162  141.0201  153.7396 C   0  0  0  0  0  0  0  0  0  0  0  0
  149.2776  141.6901  154.4886 C   0  0  0  0  0  0  0  0  0  0  0  0
  149.8205  140.8727  155.6820 C   0  0  2  0  0  0  0  0  0  0  0  0
  150.7981  141.6609  156.4322 N   0  0  0  0  0  0  0  0  0  0  0  0
  150.8221  141.8202  157.7634 C   0  0  0  0  0  0  0  0  0  0  0  0
  149.9852  141.3394  158.5288 O   0  0  0  0  0  0  0  0  0  0  0  0
  151.8526  142.5961  158.1434 N   0  0  0  0  0  0  0  0  0  0  0  0
  152.1372  143.0164  159.4522 C   0  0  0  0  0  0  0  0  0  0  0  0
  151.8484  144.2962  159.8073 C   0  0  0  0  0  0  0  0  0  0  0  0
  151.1881  145.2657  158.8398 C   0  0  0  0  0  0  0  0  0  0  0  0
  152.1569  144.7415  161.1504 C   0  0  0  0  0  0  0  0  0  0  0  0
  152.7291  143.8898  162.0117 C   0  0  0  0  0  0  0  0  0  0  0  0
  153.0531  142.5762  161.6434 N   0  0  0  0  0  0  0  0  0  0  0  0
  153.6924  141.7267  162.6518 C   0  0  0  0  0  0  0  0  0  0  0  0
  152.8184  142.0907  160.3902 C   0  0  0  0  0  0  0  0  0  0  0  0
  153.1783  140.9536  160.0771 O   0  0  0  0  0  0  0  0  0  0  0  0
  150.4900  139.5603  155.2268 C   0  0  2  0  0  0  0  0  0  0  0  0
  150.7504  138.5472  156.3439 C   0  0  0  0  0  0  0  0  0  0  0  0
  151.9328  137.7368  155.8337 C   0  0  0  0  0  0  0  0  0  0  0  0
  152.4597  138.5492  154.6483 C   0  0  0  0  0  0  0  0  0  0  0  0
  151.8031  139.8044  154.7446 O   0  0  0  0  0  0  0  0  0  0  0  0
  147.8319  141.6058  152.8654 H   0  0  0  0  0  0  0  0  0  0  0  0
  147.2323  140.9247  154.3700 H   0  0  0  0  0  0  0  0  0  0  0  0
  148.3936  140.0232  153.3960 H   0  0  0  0  0  0  0  0  0  0  0  0
  150.0819  141.8626  153.7735 H   0  0  0  0  0  0  0  0  0  0  0  0
  148.9621  142.6768  154.8299 H   0  0  0  0  0  0  0  0  0  0  0  0
  148.9818  140.6106  156.3297 H   0  0  0  0  0  0  0  0  0  0  0  0
  151.5279  142.1018  155.8920 H   0  0  0  0  0  0  0  0  0  0  0  0
  152.4006  143.0277  157.4141 H   0  0  0  0  0  0  0  0  0  0  0  0
  151.0160  146.2354  159.3077 H   0  0  0  0  0  0  0  0  0  0  0  0
  150.2242  144.8786  158.5079 H   0  0  0  0  0  0  0  0  0  0  0  0
  151.8192  145.4225  157.9647 H   0  0  0  0  0  0  0  0  0  0  0  0
  151.9235  145.7488  161.4630 H   0  0  0  0  0  0  0  0  0  0  0  0
  152.9795  144.1638  163.0262 H   0  0  0  0  0  0  0  0  0  0  0  0
  153.1044  140.8234  162.8206 H   0  0  0  0  0  0  0  0  0  0  0  0
  153.8034  142.2257  163.6150 H   0  0  0  0  0  0  0  0  0  0  0  0
  154.6887  141.4272  162.3234 H   0  0  0  0  0  0  0  0  0  0  0  0
  149.9072  139.0919  154.4308 H   0  0  0  0  0  0  0  0  0  0  0  0
  151.0336  139.0627  157.2627 H   0  0  0  0  0  0  0  0  0  0  0  0
  149.8793  137.9284  156.5612 H   0  0  0  0  0  0  0  0  0  0  0  0
  152.6891  137.6258  156.6118 H   0  0  0  0  0  0  0  0  0  0  0  0
  151.6298  136.7395  155.5142 H   0  0  0  0  0  0  0  0  0  0  0  0
  153.5432  138.6680  154.6676 H   0  0  0  0  0  0  0  0  0  0  0  0
  152.1861  138.0727  153.7057 H   0  0  0  0  0  0  0  0  0  0  0  0
  1  2  1  0  0  0  0
  1 22  1  0  0  0  0
  1 23  1  0  0  0  0
  1 24  1  0  0  0  0
  2  3  1  0  0  0  0
  2 25  1  0  0  0  0
  2 26  1  0  0  0  0
  3  4  1  0  0  0  0
  3 17  1  0  0  0  0
  3 27  1  0  0  0  0
  4  5  1  0  0  0  0
  4 28  1  0  0  0  0
  5  6  2  0  0  0  0
  5  7  1  0  0  0  0
  7  8  1  0  0  0  0
  7 29  1  0  0  0  0
  8 15  1  0  0  0  0
  8  9  2  0  0  0  0
  9 10  1  0  0  0  0
  9 11  1  0  0  0  0
 10 30  1  0  0  0  0
 10 31  1  0  0  0  0
 10 32  1  0  0  0  0
 11 12  2  0  0  0  0
 11 33  1  0  0  0  0
 12 13  1  0  0  0  0
 12 34  1  0  0  0  0
 13 14  1  0  0  0  0
 13 15  1  0  0  0  0
 14 35  1  0  0  0  0
 14 36  1  0  0  0  0
 14 37  1  0  0  0  0
 15 16  2  0  0  0  0
 17 21  1  0  0  0  0
 17 18  1  0  0  0  0
 17 38  1  0  0  0  0
 18 19  1  0  0  0  0
 18 39  1  0  0  0  0
 18 40  1  0  0  0  0
 19 20  1  0  0  0  0
 19 41  1  0  0  0  0
 19 42  1  0  0  0  0
 20 21  1  0  0  0  0
 20 43  1  0  0  0  0
 20 44  1  0  0  0  0
M  END
> <s_m_source_file>
AV-unprocessed.smi

> <i_m_source_file_index>
2925

> <i_lp_mmshare_version>
43012

> <i_f3d_flags>
0

> <s_epik_input>
TzFbQ0gyXVtDSDJdW0NIMl1bQ0BIXTFbQ0BIXShbQ0gyXVtDSDNdKVtOSF1DKD1PKVtOSF1jMmMoW0NIM10pW2NIXVtjSF1uKFtDSDNdKWMyPU8=

> <s_epik_cmdline>
J2VwaWtfcHl0aG9uJywgJy1waCcsICc3LjAnLCAnLXRuJywgJzgnLCAnLW1hJywgJzIwMCcsICctbWV0YWxfYmluZGluZycsICctaW1hZScsICc8aW5maWxlLm1hZT4nLCAnLW9tYWUnLCAnPG91dGZpbGUubWFlPic=

> <r_lp_tautomer_probability>
1

> <r_epik_Ionization_Penalty>
2.58789e-05

> <r_epik_Ionization_Penalty_Charging>
6.72534e-06

> <r_epik_Ionization_Penalty_Neutral>
1.91535e-05

> <r_epik_State_Penalty>
-0

> <r_epik_Charging_Adjusted_Penalty>
6.72534e-06

> <i_epik_Tot_Q>
0

> <i_epik_Tot_abs_Q>
0

> <r_epik_Metal_State_Penalty>
-0

> <b_epik_Metal_Only>
0

> <s_lp_Force_Field>
OPLS_2005

> <r_lp_Energy>
35.6543

> <b_lp_Chiralities_Consistent>
1

> <s_lp_Variant>
AV-unprocessed.smi:2925-1

> <Gold.Version>
5.8.1

> <Gold.Id.Protein>
6NUR|6NUR_protein|mol2

> <Gold.PLP.Fitness>
47.7523

> <Gold.PLP.PLP>
-46.4742

> <Gold.PLP.part.hbond>
-0.9046

> <Gold.PLP.part.metal>
0.0000

> <Gold.PLP.part.buried>
-4.0913

> <Gold.PLP.part.nonpolar>
-40.4913

> <Gold.PLP.part.repulsive>
0.2250

> <Gold.PLP.ligand.clash>
0.0000

> <Gold.PLP.ligand.torsion>
1.1403

> <Gold.PLP.Chemscore.Hbond>
0.9920

> <Gold.PLP.Chemscore.CHOScore>
0.0000

> <Gold.PLP.Chemscore.Metal>
0.0000

> <Gold.Chemscore.Hbonds>
donor molecule, donor type, donor heavy atom, donor atom, acceptor molecule, acceptor atom, score
      P1  H  7989  7998       L1    21  1.00

> <Gold.PLP.Chemscore.Internal.Correction>
0.5827

> <Gold.Rescore>
     Score         DG    S(hbond)    S(metal)    S(lipo)     H(rot)  DE(clash)    DE(int)     intcor
     17.49     -18.58       0.98        0.00     113.61       1.36       0.15       0.94       ----

> <Gold.Chemscore.Fitness>
17.4876

> <Gold.Chemscore.DG>
-18.5768

> <Gold.Chemscore.ZeroCoef>
-5.4800

> <Gold.Chemscore.Hbond>
0.9822

> <Gold.Chemscore.Metal>
0.0000

> <Gold.Chemscore.Lipo>
113.6120

> <Gold.Chemscore.Internal_Hbond>
0.0000

> <Gold.Chemscore.DEClash>
0.1526

> <Gold.Chemscore.DEInternal>
0.9366

> <Gold.Chemscore.Rot>
1.3579

> <Gold.Chemscore.Internal.Correction>
   9.000000E+99

> <Gold.Chemscore.Hbonds>
donor molecule, donor type, donor heavy atom, donor atom, acceptor molecule, acceptor atom, score
      P1  H  7989  7998       L1    21  0.57

> <Gold.Chemscore.Hbond.Weighted>
-3.2804

> <Gold.Chemscore.Metal.Weighted>
-0.0000

> <Gold.Chemscore.Lipo.Weighted>
-13.2926

> <Gold.Chemscore.Internal_Hbond.Weighted>
0.0000

> <Gold.Chemscore.DEClash.Weighted>
0.1526

> <Gold.Chemscore.DEInternal.Weighted>
0.9366

> <Gold.Chemscore.Rot.Weighted>
3.4763

> <Gold.Chemscore.Internal.Correction.Weighted>
   9.000000E+99

> <Gold.Protein.RotatedTorsions>
[ 6907 6896 6895 6894 ] final   31.18 input  -60.11 | X-H torsion
[ 7974 7965 7964 7962 ] final   55.61 input  175.53 | X-H torsion
[ 8008 7997 7996 7995 ] final   82.60 input   59.86 | X-H torsion
[ 10167 10162 10161 10158 ] final  -50.77 input  -65.29 | X-H torsion
[ 10718 10713 10712 10709 ] final  145.67 input   66.30 | X-H torsion
[ 10763 10752 10751 10750 ] final   65.24 input  -60.55 | X-H torsion
[ 11005 11000 10999 10996 ] final  160.25 input  -57.11 | X-H torsion

> <Gold.Protein.ActiveResidues>
 VAL166  LYS551  ARG553  GLY616  TRP617  ASP618  TYR619  PRO620  LYS621  CYS622 
 ASP623  PHE694  ASN695  SER759  ASP760  ASP761  ALA762  ILE779  LEU786  VAL792 
 PHE793  MET794  SER795  GLU796  ALA797  LYS798  CYS799  TRP800  GLU811  SER814 

> <Gold.Protein.RotatedAtoms>
  152.0566  134.9620  160.0574 H   0  0  0  0  0  0  0  0  0  0  0  0  # atno 6907 bound_to 6896
  152.1000  133.4240  159.4591 H   0  0  0  0  0  0  0  0  0  0  0  0  # atno 6908 bound_to 6896
  150.6839  134.2691  159.4624 H   0  0  0  0  0  0  0  0  0  0  0  0  # atno 6909 bound_to 6896
  145.9486  139.3952  143.0320 H   0  0  0  0  0  0  0  0  0  0  0  0  # atno 7974 bound_to 7965
  155.9127  140.3426  155.6111 H   0  0  0  0  0  0  0  0  0  0  0  0  # atno 8008 bound_to 7997
  155.7368  140.0802  157.2283 H   0  0  0  0  0  0  0  0  0  0  0  0  # atno 8009 bound_to 7997
  154.4058  140.1578  156.2558 H   0  0  0  0  0  0  0  0  0  0  0  0  # atno 8010 bound_to 7997
  140.6621  143.2645  151.4407 H   0  0  0  0  0  0  0  0  0  0  0  0  # atno 10167 bound_to 10162
  157.3425  131.0938  151.1070 H   0  0  0  0  0  0  0  0  0  0  0  0  # atno 10718 bound_to 10713
  153.0088  135.5364  154.6635 H   0  0  0  0  0  0  0  0  0  0  0  0  # atno 10763 bound_to 10752
  154.5838  135.2852  155.0708 H   0  0  0  0  0  0  0  0  0  0  0  0  # atno 10764 bound_to 10752
  154.1827  135.6513  153.5091 H   0  0  0  0  0  0  0  0  0  0  0  0  # atno 10765 bound_to 10752
  140.2041  134.8316  157.3050 H   0  0  0  0  0  0  0  0  0  0  0  0  # atno 11005 bound_to 11000
  145.8202  140.9682  143.0902 LP  0  0  0  0  0  0  0  0  0  0  0  0  # atno 17320 bound_to 7965
  144.6791  140.0032  143.7484 LP  0  0  0  0  0  0  0  0  0  0  0  0  # atno 17321 bound_to 7965
  139.5858  144.1607  152.2027 LP  0  0  0  0  0  0  0  0  0  0  0  0  # atno 17342 bound_to 10162
  140.0946  144.5591  150.7031 LP  0  0  0  0  0  0  0  0  0  0  0  0  # atno 17343 bound_to 10162
  157.2276  130.6510  149.5836 LP  0  0  0  0  0  0  0  0  0  0  0  0  # atno 17370 bound_to 10713
  155.9709  130.4609  150.6089 LP  0  0  0  0  0  0  0  0  0  0  0  0  # atno 17371 bound_to 10713
  140.2022  134.4241  155.7657 LP  0  0  0  0  0  0  0  0  0  0  0  0  # atno 17394 bound_to 11000
  141.2227  133.7077  156.8202 LP  0  0  0  0  0  0  0  0  0  0  0  0  # atno 17395 bound_to 11000

$$$$
