AV-unprocessed.smi:3228|AV-procd|sdf|12319|dock8
  -GOLD-   2272018163D 1   1.00000     0.00000
 Structure written by MMmdl.
 31 32  0  0  0  0  0  0  0  0  1 V2000
  145.6391  128.9253  152.3841 O   0  0  0  0  0  0  0  0  0  0  0  0
  146.5577  129.2947  151.6518 C   0  0  0  0  0  0  0  0  0  0  0  0
  147.6920  128.6005  151.4817 N   0  0  0  0  0  0  0  0  0  0  0  0
  148.0005  127.3284  152.1266 C   0  0  0  0  0  0  0  0  0  0  0  0
  149.0295  126.5046  151.3263 C   0  0  2  0  0  0  0  0  0  0  0  0
  148.4385  125.7675  150.1141 C   0  0  0  0  0  0  0  0  0  0  0  0
  149.3053  124.5158  149.9020 C   0  0  0  0  0  0  0  0  0  0  0  0
  150.2941  124.4694  151.0732 C   0  0  0  0  0  0  0  0  0  0  0  0
  149.6908  125.3864  152.1380 C   0  0  1  0  0  0  0  0  0  0  0  0
  150.6794  125.8764  153.0200 O   0  0  0  0  0  0  0  0  0  0  0  0
  146.5674  130.4270  150.9267 N   0  0  0  0  0  0  0  0  0  0  0  0
  145.5587  131.4220  150.8382 C   0  0  0  0  0  0  0  0  0  0  0  0
  144.8290  131.8522  151.8744 N   0  0  0  0  0  0  0  0  0  0  0  0
  143.9105  132.8351  151.4969 C   0  0  0  0  0  0  0  0  0  0  0  0
  143.9548  133.1431  150.1598 C   0  0  0  0  0  0  0  0  0  0  0  0
  145.1597  132.2062  149.3169 S   0  0  0  0  0  0  0  0  0  0  0  0
  148.3940  128.9777  150.8619 H   0  0  0  0  0  0  0  0  0  0  0  0
  148.3639  127.5066  153.1400 H   0  0  0  0  0  0  0  0  0  0  0  0
  147.0707  126.7683  152.2288 H   0  0  0  0  0  0  0  0  0  0  0  0
  149.8157  127.1681  150.9611 H   0  0  0  0  0  0  0  0  0  0  0  0
  147.4119  125.4621  150.3205 H   0  0  0  0  0  0  0  0  0  0  0  0
  148.4146  126.4041  149.2290 H   0  0  0  0  0  0  0  0  0  0  0  0
  148.6768  123.6245  149.8964 H   0  0  0  0  0  0  0  0  0  0  0  0
  149.8326  124.5481  148.9478 H   0  0  0  0  0  0  0  0  0  0  0  0
  150.4624  123.4564  151.4403 H   0  0  0  0  0  0  0  0  0  0  0  0
  151.2564  124.8637  150.7424 H   0  0  0  0  0  0  0  0  0  0  0  0
  148.9380  124.8393  152.7073 H   0  0  0  0  0  0  0  0  0  0  0  0
  151.3536  126.3000  152.5106 H   0  0  0  0  0  0  0  0  0  0  0  0
  147.3933  130.5973  150.3719 H   0  0  0  0  0  0  0  0  0  0  0  0
  143.2615  133.2634  152.2465 H   0  0  0  0  0  0  0  0  0  0  0  0
  143.3544  133.8618  149.6223 H   0  0  0  0  0  0  0  0  0  0  0  0
  1  2  2  0  0  0  0
  2  3  1  0  0  0  0
  2 11  1  0  0  0  0
  3  4  1  0  0  0  0
  3 17  1  0  0  0  0
  4  5  1  0  0  0  0
  4 18  1  0  0  0  0
  4 19  1  0  0  0  0
  5  9  1  0  0  0  0
  5  6  1  0  0  0  0
  5 20  1  0  0  0  0
  6  7  1  0  0  0  0
  6 21  1  0  0  0  0
  6 22  1  0  0  0  0
  7  8  1  0  0  0  0
  7 23  1  0  0  0  0
  7 24  1  0  0  0  0
  8  9  1  0  0  0  0
  8 25  1  0  0  0  0
  8 26  1  0  0  0  0
  9 10  1  0  0  0  0
  9 27  1  0  0  0  0
 10 28  1  0  0  0  0
 11 12  1  0  0  0  0
 11 29  1  0  0  0  0
 12 16  1  0  0  0  0
 12 13  2  0  0  0  0
 13 14  1  0  0  0  0
 14 15  2  0  0  0  0
 14 30  1  0  0  0  0
 15 16  1  0  0  0  0
 15 31  1  0  0  0  0
M  END
> <s_m_source_file>
AV-unprocessed.smi

> <i_m_source_file_index>
3228

> <i_lp_mmshare_version>
43012

> <i_f3d_flags>
0

> <s_epik_input>
czFbY0hdW2NIXW5jMVtOSF1DKD1PKVtOSF1bQ0gyXVtDQEBIXTJbQ0gyXVtDSDJdW0NIMl1bQ0BIXTJbT0hd

> <s_epik_cmdline>
J2VwaWtfcHl0aG9uJywgJy1waCcsICc3LjAnLCAnLXRuJywgJzgnLCAnLW1hJywgJzIwMCcsICctbWV0YWxfYmluZGluZycsICctaW1hZScsICc8aW5maWxlLm1hZT4nLCAnLW9tYWUnLCAnPG91dGZpbGUubWFlPic=

> <r_lp_tautomer_probability>
0.999

> <r_epik_Ionization_Penalty>
0.000399498

> <r_epik_Ionization_Penalty_Charging>
0

> <r_epik_Ionization_Penalty_Neutral>
0.000399498

> <r_epik_State_Penalty>
0.000177984

> <r_epik_Charging_Adjusted_Penalty>
0.000177984

> <i_epik_Tot_Q>
0

> <i_epik_Tot_abs_Q>
0

> <r_epik_Metal_State_Penalty>
0.0060793

> <b_epik_Metal_Only>
0

> <s_lp_Force_Field>
OPLS_2005

> <r_lp_Energy>
20.7116

> <b_lp_Chiralities_Consistent>
1

> <s_lp_Variant>
AV-unprocessed.smi:3228-1

> <Gold.Version>
5.8.1

> <Gold.Id.Protein>
6NUR|6NUR_protein|mol2

> <Gold.PLP.Fitness>
39.9846

> <Gold.PLP.PLP>
-30.8702

> <Gold.PLP.part.hbond>
-2.9653

> <Gold.PLP.part.metal>
0.0000

> <Gold.PLP.part.buried>
-3.5502

> <Gold.PLP.part.nonpolar>
-24.5897

> <Gold.PLP.part.repulsive>
0.4796

> <Gold.PLP.ligand.clash>
0.0000

> <Gold.PLP.ligand.torsion>
0.6300

> <Gold.PLP.Chemscore.Hbond>
2.4576

> <Gold.PLP.Chemscore.CHOScore>
1.0000

> <Gold.PLP.Chemscore.Metal>
0.0000

> <Gold.Chemscore.Hbonds>
donor molecule, donor type, donor heavy atom, donor atom, acceptor molecule, acceptor atom, score
      L1  H     3    17       P1 10747  0.41
      L1  H    10    28       P1 10737  1.00
      L1  H    11    29       P1 10747  1.00
      L1  C    15    31       P1 10186  1.00

> <Gold.PLP.Chemscore.Internal.Correction>
0.0015

> <Gold.Rescore>
     Score         DG    S(hbond)    S(metal)    S(lipo)     H(rot)  DE(clash)    DE(int)     intcor
     14.88     -15.60       2.07        0.00      68.55       1.88       0.07       0.65       ----

> <Gold.Chemscore.Fitness>
14.8845

> <Gold.Chemscore.DG>
-15.6044

> <Gold.Chemscore.ZeroCoef>
-5.4800

> <Gold.Chemscore.Hbond>
2.0698

> <Gold.Chemscore.Metal>
0.0000

> <Gold.Chemscore.Lipo>
68.5511

> <Gold.Chemscore.Internal_Hbond>
0.0000

> <Gold.Chemscore.DEClash>
0.0739

> <Gold.Chemscore.DEInternal>
0.6460

> <Gold.Chemscore.Rot>
1.8786

> <Gold.Chemscore.Internal.Correction>
   9.000000E+99

> <Gold.Chemscore.Hbonds>
donor molecule, donor type, donor heavy atom, donor atom, acceptor molecule, acceptor atom, score
      L1  H     3    17       P1 10747  0.02
      L1  H    10    28       P1 10737  0.97
      L1  H    11    29       P1 10747  0.94

> <Gold.Chemscore.Hbond.Weighted>
-6.9131

> <Gold.Chemscore.Metal.Weighted>
-0.0000

> <Gold.Chemscore.Lipo.Weighted>
-8.0205

> <Gold.Chemscore.Internal_Hbond.Weighted>
0.0000

> <Gold.Chemscore.DEClash.Weighted>
0.0739

> <Gold.Chemscore.DEInternal.Weighted>
0.6460

> <Gold.Chemscore.Rot.Weighted>
4.8091

> <Gold.Chemscore.Internal.Correction.Weighted>
   9.000000E+99

> <Gold.Protein.RotatedTorsions>
[ 6907 6896 6895 6894 ] final  -17.40 input  -60.11 | X-H torsion
[ 7974 7965 7964 7962 ] final   38.91 input  175.53 | X-H torsion
[ 8008 7997 7996 7995 ] final  107.81 input   59.86 | X-H torsion
[ 10167 10162 10161 10158 ] final  -83.72 input  -65.29 | X-H torsion
[ 10718 10713 10712 10709 ] final   24.14 input   66.30 | X-H torsion
[ 10763 10752 10751 10750 ] final  158.23 input  -60.55 | X-H torsion
[ 11005 11000 10999 10996 ] final   85.51 input  -57.11 | X-H torsion

> <Gold.Protein.ActiveResidues>
 VAL166  LYS551  ARG553  GLY616  TRP617  ASP618  TYR619  PRO620  LYS621  CYS622 
 ASP623  PHE694  ASN695  SER759  ASP760  ASP761  ALA762  ILE779  LEU786  VAL792 
 PHE793  MET794  SER795  GLU796  ALA797  LYS798  CYS799  TRP800  GLU811  SER814 

> <Gold.Protein.RotatedAtoms>
  151.2940  135.0750  159.9214 H   0  0  0  0  0  0  0  0  0  0  0  0  # atno 6907 bound_to 6896
  152.5311  133.9903  159.7858 H   0  0  0  0  0  0  0  0  0  0  0  0  # atno 6908 bound_to 6896
  151.0177  133.5854  159.2705 H   0  0  0  0  0  0  0  0  0  0  0  0  # atno 6909 bound_to 6896
  146.1025  139.5715  142.9405 H   0  0  0  0  0  0  0  0  0  0  0  0  # atno 7974 bound_to 7965
  156.1854  140.3088  155.9228 H   0  0  0  0  0  0  0  0  0  0  0  0  # atno 8008 bound_to 7997
  155.3293  140.0460  157.3059 H   0  0  0  0  0  0  0  0  0  0  0  0  # atno 8009 bound_to 7997
  154.5389  140.2255  155.8684 H   0  0  0  0  0  0  0  0  0  0  0  0  # atno 8010 bound_to 7997
  140.4200  143.2588  151.8902 H   0  0  0  0  0  0  0  0  0  0  0  0  # atno 10167 bound_to 10162
  157.1757  130.6780  149.6094 H   0  0  0  0  0  0  0  0  0  0  0  0  # atno 10718 bound_to 10713
  154.2128  135.2785  155.2952 H   0  0  0  0  0  0  0  0  0  0  0  0  # atno 10763 bound_to 10752
  154.5765  135.5602  153.7147 H   0  0  0  0  0  0  0  0  0  0  0  0  # atno 10764 bound_to 10752
  153.0060  135.6334  154.2267 H   0  0  0  0  0  0  0  0  0  0  0  0  # atno 10765 bound_to 10752
  139.8969  134.8292  156.2593 H   0  0  0  0  0  0  0  0  0  0  0  0  # atno 11005 bound_to 11000
  145.5825  141.0380  143.2114 LP  0  0  0  0  0  0  0  0  0  0  0  0  # atno 17320 bound_to 7965
  144.7444  139.7359  143.7298 LP  0  0  0  0  0  0  0  0  0  0  0  0  # atno 17321 bound_to 7965
  139.4782  144.5447  151.8476 LP  0  0  0  0  0  0  0  0  0  0  0  0  # atno 17342 bound_to 10162
  140.4544  144.1810  150.5900 LP  0  0  0  0  0  0  0  0  0  0  0  0  # atno 17343 bound_to 10162
  155.9731  130.4664  150.6287 LP  0  0  0  0  0  0  0  0  0  0  0  0  # atno 17370 bound_to 10713
  157.4001  131.0808  151.1316 LP  0  0  0  0  0  0  0  0  0  0  0  0  # atno 17371 bound_to 10713
  141.0173  133.7061  156.1209 LP  0  0  0  0  0  0  0  0  0  0  0  0  # atno 17394 bound_to 11000
  140.7283  134.4282  157.5568 LP  0  0  0  0  0  0  0  0  0  0  0  0  # atno 17395 bound_to 11000

$$$$
