AV-unprocessed.smi:1685|AV-procd|sdf|6757|dock9
  -GOLD-   22720 7513D 1   1.00000     0.00000
 Structure written by MMmdl.
 40 41  0  0  0  0  0  0  0  0  1 V2000
  149.8843  134.1704  154.9602 C   0  0  0  0  0  0  0  0  0  0  0  0
  149.9056  135.6997  155.0567 C   0  0  0  0  0  0  0  0  0  0  0  0
  149.9635  136.1855  156.4705 C   0  0  0  0  0  0  0  0  0  0  0  0
  150.1143  135.4120  157.5380 N   0  0  0  0  0  0  0  0  0  0  0  0
  150.0838  136.3001  158.5965 N   0  0  0  0  0  0  0  0  0  0  0  0
  149.9156  137.5230  158.1836 N   0  0  0  0  0  0  0  0  0  0  0  0
  149.8335  137.4707  156.8305 N   0  0  0  0  0  0  0  0  0  0  0  0
  149.6422  138.6815  156.0481 C   0  0  0  0  0  0  0  0  0  0  0  0
  150.7917  139.6693  156.2569 C   0  0  0  0  0  0  0  0  0  0  0  0
  151.4764  140.0256  155.2985 O   0  0  0  0  0  0  0  0  0  0  0  0
  150.9887  140.1052  157.5110 N   0  0  0  0  0  0  0  0  0  0  0  0
  152.0373  141.0278  157.9320 C   0  0  0  0  0  0  0  0  0  0  0  0
  152.6087  140.5703  159.2913 C   0  0  0  0  0  0  0  0  0  0  0  0
  153.5757  141.6168  159.8721 C   0  0  0  0  0  0  0  0  0  0  0  0
  152.8718  142.9008  159.9765 N   0  0  0  0  0  0  0  0  0  0  0  0
  152.4661  143.4810  161.1316 C   0  0  0  0  0  0  0  0  0  0  0  0
  152.8095  142.8132  162.4652 C   0  0  0  0  0  0  0  0  0  0  0  0
  151.8224  144.5300  161.1590 O   0  0  0  0  0  0  0  0  0  0  0  0
  152.5108  143.4259  158.6547 C   0  0  0  0  0  0  0  0  0  0  0  0
  151.4924  142.4730  158.0030 C   0  0  0  0  0  0  0  0  0  0  0  0
  149.8477  133.8472  153.9199 H   0  0  0  0  0  0  0  0  0  0  0  0
  149.0130  133.7567  155.4687 H   0  0  0  0  0  0  0  0  0  0  0  0
  150.7753  133.7348  155.4136 H   0  0  0  0  0  0  0  0  0  0  0  0
  150.7717  136.0892  154.5207 H   0  0  0  0  0  0  0  0  0  0  0  0
  149.0283  136.1175  154.5626 H   0  0  0  0  0  0  0  0  0  0  0  0
  149.5616  138.4126  154.9943 H   0  0  0  0  0  0  0  0  0  0  0  0
  148.6988  139.1513  156.3303 H   0  0  0  0  0  0  0  0  0  0  0  0
  150.3731  139.7583  158.2327 H   0  0  0  0  0  0  0  0  0  0  0  0
  152.8530  141.0022  157.2068 H   0  0  0  0  0  0  0  0  0  0  0  0
  151.7951  140.4058  159.9999 H   0  0  0  0  0  0  0  0  0  0  0  0
  153.1189  139.6129  159.1795 H   0  0  0  0  0  0  0  0  0  0  0  0
  153.9823  141.2630  160.8184 H   0  0  0  0  0  0  0  0  0  0  0  0
  154.4370  141.7329  159.2127 H   0  0  0  0  0  0  0  0  0  0  0  0
  152.4053  141.8012  162.5075 H   0  0  0  0  0  0  0  0  0  0  0  0
  152.3843  143.3754  163.2974 H   0  0  0  0  0  0  0  0  0  0  0  0
  153.8894  142.7709  162.6090 H   0  0  0  0  0  0  0  0  0  0  0  0
  152.0993  144.4352  158.6988 H   0  0  0  0  0  0  0  0  0  0  0  0
  153.4062  143.4983  158.0358 H   0  0  0  0  0  0  0  0  0  0  0  0
  151.2384  142.8296  157.0042 H   0  0  0  0  0  0  0  0  0  0  0  0
  150.5675  142.4914  158.5817 H   0  0  0  0  0  0  0  0  0  0  0  0
  1  2  1  0  0  0  0
  1 21  1  0  0  0  0
  1 22  1  0  0  0  0
  1 23  1  0  0  0  0
  2  3  1  0  0  0  0
  2 24  1  0  0  0  0
  2 25  1  0  0  0  0
  3  7  1  0  0  0  0
  3  4  2  0  0  0  0
  4  5  1  0  0  0  0
  5  6  2  0  0  0  0
  6  7  1  0  0  0  0
  7  8  1  0  0  0  0
  8  9  1  0  0  0  0
  8 26  1  0  0  0  0
  8 27  1  0  0  0  0
  9 10  2  0  0  0  0
  9 11  1  0  0  0  0
 11 12  1  0  0  0  0
 11 28  1  0  0  0  0
 12 20  1  0  0  0  0
 12 13  1  0  0  0  0
 12 29  1  0  0  0  0
 13 14  1  0  0  0  0
 13 30  1  0  0  0  0
 13 31  1  0  0  0  0
 14 15  1  0  0  0  0
 14 32  1  0  0  0  0
 14 33  1  0  0  0  0
 15 16  1  0  0  0  0
 15 19  1  0  0  0  0
 16 17  1  0  0  0  0
 16 18  2  0  0  0  0
 17 34  1  0  0  0  0
 17 35  1  0  0  0  0
 17 36  1  0  0  0  0
 19 20  1  0  0  0  0
 19 37  1  0  0  0  0
 19 38  1  0  0  0  0
 20 39  1  0  0  0  0
 20 40  1  0  0  0  0
M  END
> <s_m_source_file>
AV-unprocessed.smi

> <i_m_source_file_index>
1685

> <i_lp_mmshare_version>
43012

> <i_f3d_flags>
0

> <s_epik_input>
W0NIM11bQ0gyXWMxbm5ubjFbQ0gyXUMoPU8pW05IXVtDSF0yW0NIMl1bQ0gyXU4oQyg9TylbQ0gzXSlbQ0gyXVtDSDJdMg==

> <s_epik_cmdline>
J2VwaWtfcHl0aG9uJywgJy1waCcsICc3LjAnLCAnLXRuJywgJzgnLCAnLW1hJywgJzIwMCcsICctbWV0YWxfYmluZGluZycsICctaW1hZScsICc8aW5maWxlLm1hZT4nLCAnLW9tYWUnLCAnPG91dGZpbGUubWFlPic=

> <r_lp_tautomer_probability>
1

> <r_epik_Ionization_Penalty>
1.8486e-06

> <r_epik_Ionization_Penalty_Charging>
0

> <r_epik_Ionization_Penalty_Neutral>
1.8486e-06

> <r_epik_State_Penalty>
-0

> <r_epik_Charging_Adjusted_Penalty>
0

> <i_epik_Tot_Q>
0

> <i_epik_Tot_abs_Q>
0

> <r_epik_Metal_State_Penalty>
-0

> <b_epik_Metal_Only>
0

> <s_lp_Force_Field>
OPLS_2005

> <r_lp_Energy>
22.135

> <b_lp_Chiralities_Consistent>
1

> <s_lp_Variant>
AV-unprocessed.smi:1685-1

> <Gold.Version>
5.8.1

> <Gold.Id.Protein>
6NUR|6NUR_protein|mol2

> <Gold.PLP.Fitness>
41.8055

> <Gold.PLP.PLP>
-37.2066

> <Gold.PLP.part.hbond>
-3.0000

> <Gold.PLP.part.metal>
0.0000

> <Gold.PLP.part.buried>
-6.5050

> <Gold.PLP.part.nonpolar>
-28.3707

> <Gold.PLP.part.repulsive>
0.2457

> <Gold.PLP.ligand.clash>
0.0000

> <Gold.PLP.ligand.torsion>
0.3644

> <Gold.PLP.Chemscore.Hbond>
1.7680

> <Gold.PLP.Chemscore.CHOScore>
0.0000

> <Gold.PLP.Chemscore.Metal>
0.0000

> <Gold.Chemscore.Hbonds>
donor molecule, donor type, donor heavy atom, donor atom, acceptor molecule, acceptor atom, score
      P1  H  6896  6909       L1     5  0.45
      P1  H  7989  7998       L1    10  1.00

> <Gold.PLP.Chemscore.Internal.Correction>
0.0237

> <Gold.Rescore>
     Score         DG    S(hbond)    S(metal)    S(lipo)     H(rot)  DE(clash)    DE(int)     intcor
     13.66     -14.10       1.51        0.00      71.04       1.85       0.07       0.38       ----

> <Gold.Chemscore.Fitness>
13.6579

> <Gold.Chemscore.DG>
-14.1042

> <Gold.Chemscore.ZeroCoef>
-5.4800

> <Gold.Chemscore.Hbond>
1.5097

> <Gold.Chemscore.Metal>
0.0000

> <Gold.Chemscore.Lipo>
71.0400

> <Gold.Chemscore.Internal_Hbond>
0.0000

> <Gold.Chemscore.DEClash>
0.0696

> <Gold.Chemscore.DEInternal>
0.3767

> <Gold.Chemscore.Rot>
1.8476

> <Gold.Chemscore.Internal.Correction>
   9.000000E+99

> <Gold.Chemscore.Hbonds>
donor molecule, donor type, donor heavy atom, donor atom, acceptor molecule, acceptor atom, score
      P1  H  6896  6909       L1     5  0.02
      P1  H  7989  7998       L1    10  0.94

> <Gold.Chemscore.Hbond.Weighted>
-5.0423

> <Gold.Chemscore.Metal.Weighted>
-0.0000

> <Gold.Chemscore.Lipo.Weighted>
-8.3117

> <Gold.Chemscore.Internal_Hbond.Weighted>
0.0000

> <Gold.Chemscore.DEClash.Weighted>
0.0696

> <Gold.Chemscore.DEInternal.Weighted>
0.3767

> <Gold.Chemscore.Rot.Weighted>
4.7298

> <Gold.Chemscore.Internal.Correction.Weighted>
   9.000000E+99

> <Gold.Protein.RotatedTorsions>
[ 6907 6896 6895 6894 ] final   75.07 input  -60.11 | X-H torsion
[ 7974 7965 7964 7962 ] final  -19.88 input  175.53 | X-H torsion
[ 8008 7997 7996 7995 ] final  -60.93 input   59.86 | X-H torsion
[ 10167 10162 10161 10158 ] final   92.99 input  -65.29 | X-H torsion
[ 10718 10713 10712 10709 ] final  124.93 input   66.30 | X-H torsion
[ 10763 10752 10751 10750 ] final   87.01 input  -60.55 | X-H torsion
[ 11005 11000 10999 10996 ] final    8.49 input  -57.11 | X-H torsion

> <Gold.Protein.ActiveResidues>
 VAL166  LYS551  ARG553  GLY616  TRP617  ASP618  TYR619  PRO620  LYS621  CYS622 
 ASP623  PHE694  ASN695  SER759  ASP760  ASP761  ALA762  ILE779  LEU786  VAL792 
 PHE793  MET794  SER795  GLU796  ALA797  LYS798  CYS799  TRP800  GLU811  SER814 

> <Gold.Protein.RotatedAtoms>
  152.5007  134.4176  159.9469 H   0  0  0  0  0  0  0  0  0  0  0  0  # atno 6907 bound_to 6896
  151.4148  133.3710  159.2756 H   0  0  0  0  0  0  0  0  0  0  0  0  # atno 6908 bound_to 6896
  150.9265  134.8704  159.7583 H   0  0  0  0  0  0  0  0  0  0  0  0  # atno 6909 bound_to 6896
  146.1818  140.4124  142.8491 H   0  0  0  0  0  0  0  0  0  0  0  0  # atno 7974 bound_to 7965
  154.4423  140.1029  156.6351 H   0  0  0  0  0  0  0  0  0  0  0  0  # atno 8008 bound_to 7997
  155.5562  140.3486  155.4461 H   0  0  0  0  0  0  0  0  0  0  0  0  # atno 8009 bound_to 7997
  156.0493  140.1300  157.0057 H   0  0  0  0  0  0  0  0  0  0  0  0  # atno 8010 bound_to 7997
  139.8223  144.6725  150.9503 H   0  0  0  0  0  0  0  0  0  0  0  0  # atno 10167 bound_to 10162
  157.5544  131.1092  150.8646 H   0  0  0  0  0  0  0  0  0  0  0  0  # atno 10718 bound_to 10713
  153.1626  135.4559  154.9793 H   0  0  0  0  0  0  0  0  0  0  0  0  # atno 10763 bound_to 10752
  154.7909  135.3220  154.7783 H   0  0  0  0  0  0  0  0  0  0  0  0  # atno 10764 bound_to 10752
  153.8270  135.6942  153.4874 H   0  0  0  0  0  0  0  0  0  0  0  0  # atno 10765 bound_to 10752
  140.5364  134.0417  155.7890 H   0  0  0  0  0  0  0  0  0  0  0  0  # atno 11005 bound_to 11000
  144.8328  140.6734  143.6280 LP  0  0  0  0  0  0  0  0  0  0  0  0  # atno 17320 bound_to 7965
  145.4054  139.1590  143.4155 LP  0  0  0  0  0  0  0  0  0  0  0  0  # atno 17321 bound_to 7965
  140.7812  143.4079  151.1040 LP  0  0  0  0  0  0  0  0  0  0  0  0  # atno 17342 bound_to 10162
  139.7739  143.8454  152.3125 LP  0  0  0  0  0  0  0  0  0  0  0  0  # atno 17343 bound_to 10162
  156.9162  130.5298  149.5279 LP  0  0  0  0  0  0  0  0  0  0  0  0  # atno 17370 bound_to 10713
  156.0605  130.5659  150.9183 LP  0  0  0  0  0  0  0  0  0  0  0  0  # atno 17371 bound_to 10713
  141.1252  133.9395  157.2649 LP  0  0  0  0  0  0  0  0  0  0  0  0  # atno 17394 bound_to 11000
  139.9527  135.0172  156.9040 LP  0  0  0  0  0  0  0  0  0  0  0  0  # atno 17395 bound_to 11000

$$$$
