AV-unprocessed.smi:525|AV-procd|sdf|2810|dock6
  -GOLD-   2262023293D 1   1.00000     0.00000
 Structure written by MMmdl.
 44 46  0  0  0  0  0  0  0  0  2 V2000
  150.7527  138.4470  154.4316 C   0  0  0  0  0  0  0  0  0  0  0  0
  151.6635  139.4901  154.7289 O   0  0  0  0  0  0  0  0  0  0  0  0
  152.3778  139.2601  155.9326 C   0  0  0  0  0  0  0  0  0  0  0  0
  151.5026  139.6359  157.1362 C   0  0  0  0  0  0  0  0  0  0  0  0
  151.2380  141.0807  157.1922 N   0  0  0  0  0  0  0  0  0  0  0  0
  150.5025  141.8676  156.3604 C   0  0  0  0  0  0  0  0  0  0  0  0
  149.6263  141.3310  154.9275 S   0  0  0  0  0  0  0  0  0  0  0  0
  148.0260  140.7094  155.5377 C   0  0  1  0  0  0  0  0  0  0  0  0
  148.0379  140.2749  157.0141 C   0  0  0  0  0  0  0  0  0  0  0  0
  147.7887  138.9871  157.2673 N   0  0  0  0  0  0  0  0  0  0  0  0
  148.2813  141.0758  157.9151 O   0  0  0  0  0  0  0  0  0  0  0  0
  146.9518  141.7635  155.2937 C   0  0  0  0  0  0  0  0  0  0  0  0
  146.7240  142.2787  153.9970 C   0  0  0  0  0  0  0  0  0  0  0  0
  145.7269  143.2497  153.7824 C   0  0  0  0  0  0  0  0  0  0  0  0
  144.9500  143.7123  154.8614 C   0  0  0  0  0  0  0  0  0  0  0  0
  145.1705  143.2027  156.1552 C   0  0  0  0  0  0  0  0  0  0  0  0
  146.1667  142.2308  156.3705 C   0  0  0  0  0  0  0  0  0  0  0  0
  150.5824  143.1468  156.8194 N   0  3  0  0  0  0  0  0  0  0  0  0
  151.3884  143.1817  157.9582 C   0  0  0  0  0  0  0  0  0  0  0  0
  151.7681  144.2451  158.7713 C   0  0  0  0  0  0  0  0  0  0  0  0
  152.6158  143.9407  159.8565 C   0  0  0  0  0  0  0  0  0  0  0  0
  153.0549  142.6228  160.0979 C   0  0  0  0  0  0  0  0  0  0  0  0
  152.6618  141.5521  159.2683 C   0  0  0  0  0  0  0  0  0  0  0  0
  151.8191  141.8594  158.2002 C   0  0  0  0  0  0  0  0  0  0  0  0
  150.2374  138.6664  153.4966 H   0  0  0  0  0  0  0  0  0  0  0  0
  149.9998  138.3471  155.2145 H   0  0  0  0  0  0  0  0  0  0  0  0
  151.2692  137.4934  154.3165 H   0  0  0  0  0  0  0  0  0  0  0  0
  152.6656  138.2098  156.0007 H   0  0  0  0  0  0  0  0  0  0  0  0
  153.2956  139.8494  155.9420 H   0  0  0  0  0  0  0  0  0  0  0  0
  150.5415  139.1245  157.0745 H   0  0  0  0  0  0  0  0  0  0  0  0
  151.9611  139.3130  158.0704 H   0  0  0  0  0  0  0  0  0  0  0  0
  147.7883  139.8264  154.9431 H   0  0  0  0  0  0  0  0  0  0  0  0
  147.8058  138.6457  158.2175 H   0  0  0  0  0  0  0  0  0  0  0  0
  147.6047  138.3531  156.5031 H   0  0  0  0  0  0  0  0  0  0  0  0
  147.3145  141.9299  153.1620 H   0  0  0  0  0  0  0  0  0  0  0  0
  145.5580  143.6393  152.7894 H   0  0  0  0  0  0  0  0  0  0  0  0
  144.1853  144.4572  154.6969 H   0  0  0  0  0  0  0  0  0  0  0  0
  144.5741  143.5570  156.9831 H   0  0  0  0  0  0  0  0  0  0  0  0
  146.3247  141.8471  157.3676 H   0  0  0  0  0  0  0  0  0  0  0  0
  151.4373  145.2565  158.5856 H   0  0  0  0  0  0  0  0  0  0  0  0
  152.9389  144.7342  160.5147 H   0  0  0  0  0  0  0  0  0  0  0  0
  153.7086  142.4283  160.9357 H   0  0  0  0  0  0  0  0  0  0  0  0
  153.0106  140.5483  159.4603 H   0  0  0  0  0  0  0  0  0  0  0  0
  150.1232  143.9352  156.3827 H   0  0  0  0  0  0  0  0  0  0  0  0
  1  2  1  0  0  0  0
  1 25  1  0  0  0  0
  1 26  1  0  0  0  0
  1 27  1  0  0  0  0
  2  3  1  0  0  0  0
  3  4  1  0  0  0  0
  3 28  1  0  0  0  0
  3 29  1  0  0  0  0
  4  5  1  0  0  0  0
  4 30  1  0  0  0  0
  4 31  1  0  0  0  0
  5 24  1  0  0  0  0
  5  6  1  0  0  0  0
  6  7  1  0  0  0  0
  6 18  2  0  0  0  0
  7  8  1  0  0  0  0
  8  9  1  0  0  0  0
  8 12  1  0  0  0  0
  8 32  1  0  0  0  0
  9 10  1  0  0  0  0
  9 11  2  0  0  0  0
 10 33  1  0  0  0  0
 10 34  1  0  0  0  0
 12 17  1  0  0  0  0
 12 13  2  0  0  0  0
 13 14  1  0  0  0  0
 13 35  1  0  0  0  0
 14 15  2  0  0  0  0
 14 36  1  0  0  0  0
 15 16  1  0  0  0  0
 15 37  1  0  0  0  0
 16 17  2  0  0  0  0
 16 38  1  0  0  0  0
 17 39  1  0  0  0  0
 18 19  1  0  0  0  0
 18 44  1  0  0  0  0
 19 24  2  0  0  0  0
 19 20  1  0  0  0  0
 20 21  2  0  0  0  0
 20 40  1  0  0  0  0
 21 22  1  0  0  0  0
 21 41  1  0  0  0  0
 22 23  2  0  0  0  0
 22 42  1  0  0  0  0
 23 24  1  0  0  0  0
 23 43  1  0  0  0  0
M  CHG  1  18   1
M  END
> <s_m_source_file>
AV-unprocessed.smi

> <i_m_source_file_index>
525

> <i_lp_mmshare_version>
43012

> <i_f3d_flags>
0

> <s_epik_input>
W2NIXTFbY0hdW2NIXVtjSF1jKGMxMiluKFtDSDJdW0NIMl1PW0NIM10pYyhuMilTW0NASF0oQyg9TylbTkgyXSljM1tjSF1bY0hdW2NIXVtjSF1bY0hdMw==

> <s_epik_cmdline>
J2VwaWtfcHl0aG9uJywgJy1waCcsICc3LjAnLCAnLXRuJywgJzgnLCAnLW1hJywgJzIwMCcsICctbWV0YWxfYmluZGluZycsICctaW1hZScsICc8aW5maWxlLm1hZT4nLCAnLW9tYWUnLCAnPG91dGZpbGUubWFlPic=

> <r_epik_Ionization_Penalty>
1.29485

> <r_epik_Ionization_Penalty_Charging>
1.29485

> <r_epik_Ionization_Penalty_Neutral>
1.02965e-06

> <r_epik_State_Penalty>
1.36828

> <r_epik_Charging_Adjusted_Penalty>
2.66313

> <i_epik_Tot_Q>
1

> <i_epik_Tot_abs_Q>
1

> <r_epik_Metal_State_Penalty>
1.43316

> <b_epik_Metal_Only>
0

> <s_lp_Force_Field>
OPLS_2005

> <r_lp_Energy>
11.9794

> <b_lp_Chiralities_Consistent>
1

> <s_lp_Variant>
AV-unprocessed.smi:525-4

> <Gold.Version>
5.8.1

> <Gold.Id.Protein>
6NUR|6NUR_protein|mol2

> <Gold.PLP.Fitness>
59.1658

> <Gold.PLP.PLP>
-52.1575

> <Gold.PLP.part.hbond>
-2.0000

> <Gold.PLP.part.metal>
0.0000

> <Gold.PLP.part.buried>
-7.4816

> <Gold.PLP.part.nonpolar>
-43.9776

> <Gold.PLP.part.repulsive>
0.2017

> <Gold.PLP.ligand.clash>
0.0000

> <Gold.PLP.ligand.torsion>
1.0871

> <Gold.PLP.Chemscore.Hbond>
3.0000

> <Gold.PLP.Chemscore.CHOScore>
0.0000

> <Gold.PLP.Chemscore.Metal>
0.0000

> <Gold.Chemscore.Hbonds>
donor molecule, donor type, donor heavy atom, donor atom, acceptor molecule, acceptor atom, score
      L1  H    18    44       P1  8028  2.00
      P1  H  7989  7998       L1     2  1.00

> <Gold.PLP.Chemscore.Internal.Correction>
0.1827

> <Gold.Rescore>
     Score         DG    S(hbond)    S(metal)    S(lipo)     H(rot)  DE(clash)    DE(int)     intcor
     15.73     -21.02       1.95        0.00     132.14       2.51       0.02       5.27       ----

> <Gold.Chemscore.Fitness>
15.7295

> <Gold.Chemscore.DG>
-21.0200

> <Gold.Chemscore.ZeroCoef>
-5.4800

> <Gold.Chemscore.Hbond>
1.9513

> <Gold.Chemscore.Metal>
0.0000

> <Gold.Chemscore.Lipo>
132.1369

> <Gold.Chemscore.Internal_Hbond>
0.0000

> <Gold.Chemscore.DEClash>
0.0210

> <Gold.Chemscore.DEInternal>
5.2696

> <Gold.Chemscore.Rot>
2.5145

> <Gold.Chemscore.Internal.Correction>
   9.000000E+99

> <Gold.Chemscore.Hbonds>
donor molecule, donor type, donor heavy atom, donor atom, acceptor molecule, acceptor atom, score
      L1  H    18    44       P1  8028  0.98
      P1  H  7989  7998       L1     2  0.87

> <Gold.Chemscore.Hbond.Weighted>
-6.5172

> <Gold.Chemscore.Metal.Weighted>
-0.0000

> <Gold.Chemscore.Lipo.Weighted>
-15.4600

> <Gold.Chemscore.Internal_Hbond.Weighted>
0.0000

> <Gold.Chemscore.DEClash.Weighted>
0.0210

> <Gold.Chemscore.DEInternal.Weighted>
5.2696

> <Gold.Chemscore.Rot.Weighted>
6.4372

> <Gold.Chemscore.Internal.Correction.Weighted>
   9.000000E+99

> <Gold.Protein.RotatedTorsions>
[ 6907 6896 6895 6894 ] final -146.33 input  -60.11 | X-H torsion
[ 7974 7965 7964 7962 ] final   82.73 input  175.53 | X-H torsion
[ 8008 7997 7996 7995 ] final   17.07 input   59.86 | X-H torsion
[ 10167 10162 10161 10158 ] final -171.11 input  -65.29 | X-H torsion
[ 10718 10713 10712 10709 ] final  -18.10 input   66.30 | X-H torsion
[ 10763 10752 10751 10750 ] final  -15.84 input  -60.55 | X-H torsion
[ 11005 11000 10999 10996 ] final   -1.65 input  -57.11 | X-H torsion

> <Gold.Protein.ActiveResidues>
 VAL166  LYS551  ARG553  GLY616  TRP617  ASP618  TYR619  PRO620  LYS621  CYS622 
 ASP623  PHE694  ASN695  SER759  ASP760  ASP761  ALA762  ILE779  LEU786  VAL792 
 PHE793  MET794  SER795  GLU796  ALA797  LYS798  CYS799  TRP800  GLU811  SER814 

> <Gold.Protein.RotatedAtoms>
  151.1402  133.4976  159.2596 H   0  0  0  0  0  0  0  0  0  0  0  0  # atno 6907 bound_to 6896
  151.1663  135.0296  159.8742 H   0  0  0  0  0  0  0  0  0  0  0  0  # atno 6908 bound_to 6896
  152.5462  134.1270  159.8476 H   0  0  0  0  0  0  0  0  0  0  0  0  # atno 6909 bound_to 6896
  145.6213  139.2386  143.2137 H   0  0  0  0  0  0  0  0  0  0  0  0  # atno 7974 bound_to 7965
  154.8861  140.2980  155.5397 H   0  0  0  0  0  0  0  0  0  0  0  0  # atno 8008 bound_to 7997
  156.3021  140.2433  156.3804 H   0  0  0  0  0  0  0  0  0  0  0  0  # atno 8009 bound_to 7997
  154.8667  140.0403  157.1688 H   0  0  0  0  0  0  0  0  0  0  0  0  # atno 8010 bound_to 7997
  139.5822  144.1398  152.1529 H   0  0  0  0  0  0  0  0  0  0  0  0  # atno 10167 bound_to 10162
  156.5643  130.4733  149.6392 H   0  0  0  0  0  0  0  0  0  0  0  0  # atno 10718 bound_to 10713
  153.5494  135.7012  153.5598 H   0  0  0  0  0  0  0  0  0  0  0  0  # atno 10763 bound_to 10752
  153.3529  135.3990  155.1660 H   0  0  0  0  0  0  0  0  0  0  0  0  # atno 10764 bound_to 10752
  154.8663  135.3770  154.5004 H   0  0  0  0  0  0  0  0  0  0  0  0  # atno 10765 bound_to 10752
  140.6496  133.9416  155.8372 H   0  0  0  0  0  0  0  0  0  0  0  0  # atno 11005 bound_to 11000
  146.1429  140.7033  142.9358 LP  0  0  0  0  0  0  0  0  0  0  0  0  # atno 17320 bound_to 7965
  144.7230  140.4435  143.6994 LP  0  0  0  0  0  0  0  0  0  0  0  0  # atno 17321 bound_to 7965
  140.0954  144.5585  150.7025 LP  0  0  0  0  0  0  0  0  0  0  0  0  # atno 17342 bound_to 10162
  140.7098  143.2496  151.4615 LP  0  0  0  0  0  0  0  0  0  0  0  0  # atno 17343 bound_to 10162
  156.2771  130.7050  151.1863 LP  0  0  0  0  0  0  0  0  0  0  0  0  # atno 17370 bound_to 10713
  157.7362  131.0565  150.5428 LP  0  0  0  0  0  0  0  0  0  0  0  0  # atno 17371 bound_to 10713
  141.0546  134.0435  157.3739 LP  0  0  0  0  0  0  0  0  0  0  0  0  # atno 17394 bound_to 11000
  139.9050  135.0177  156.7446 LP  0  0  0  0  0  0  0  0  0  0  0  0  # atno 17395 bound_to 11000

$$$$
