AV-unprocessed.smi:2795|AV-procd|sdf|10780|dock10
  -GOLD-   2272015213D 1   1.00000     0.00000
 Structure written by MMmdl.
 36 37  0  0  0  0  0  0  0  0  1 V2000
  153.0725  142.2946  160.8008 C   0  0  0  0  0  0  0  0  0  0  0  0
  152.4420  142.9652  159.6814 N   0  0  0  0  0  0  0  0  0  0  0  0
  152.4786  144.2758  159.4049 C   0  0  0  0  0  0  0  0  0  0  0  0
  151.8118  144.6257  158.3134 N   0  0  0  0  0  0  0  0  0  0  0  0
  151.2954  143.4218  157.8417 C   0  0  0  0  0  0  0  0  0  0  0  0
  151.6731  142.3891  158.6740 C   0  0  0  0  0  0  0  0  0  0  0  0
  151.3829  140.9207  158.6108 C   0  0  0  0  0  0  0  0  0  0  0  0
  151.5341  140.3040  157.2087 C   0  0  0  0  0  0  0  0  0  0  0  0
  150.3147  140.4545  156.4232 N   0  0  0  0  0  0  0  0  0  0  0  0
  150.1792  140.1049  155.1346 C   0  0  0  0  0  0  0  0  0  0  0  0
  151.0975  139.6314  154.4647 O   0  0  0  0  0  0  0  0  0  0  0  0
  148.7987  140.3273  154.5082 C   0  0  2  0  0  0  0  0  0  0  0  0
  148.4430  141.8274  154.4208 C   0  0  0  0  0  0  0  0  0  0  0  0
  147.0222  142.0092  153.8763 C   0  0  0  0  0  0  0  0  0  0  0  0
  146.0420  141.1783  154.7109 C   0  0  0  0  0  0  0  0  0  0  0  0
  146.5123  139.7171  154.7912 C   0  0  0  0  0  0  0  0  0  0  0  0
  147.8348  139.6567  155.3177 O   0  0  0  0  0  0  0  0  0  0  0  0
  153.6751  143.0003  161.3738 H   0  0  0  0  0  0  0  0  0  0  0  0
  153.7174  141.4947  160.4361 H   0  0  0  0  0  0  0  0  0  0  0  0
  152.3081  141.8702  161.4520 H   0  0  0  0  0  0  0  0  0  0  0  0
  153.0064  144.9917  160.0179 H   0  0  0  0  0  0  0  0  0  0  0  0
  150.6950  143.3928  156.9444 H   0  0  0  0  0  0  0  0  0  0  0  0
  152.0439  140.4035  159.3070 H   0  0  0  0  0  0  0  0  0  0  0  0
  150.3682  140.7449  158.9701 H   0  0  0  0  0  0  0  0  0  0  0  0
  152.3428  140.7984  156.6698 H   0  0  0  0  0  0  0  0  0  0  0  0
  151.8038  139.2487  157.2784 H   0  0  0  0  0  0  0  0  0  0  0  0
  149.5120  140.8448  156.8953 H   0  0  0  0  0  0  0  0  0  0  0  0
  148.7874  139.8902  153.5073 H   0  0  0  0  0  0  0  0  0  0  0  0
  148.5094  142.2908  155.4066 H   0  0  0  0  0  0  0  0  0  0  0  0
  149.1550  142.3501  153.7811 H   0  0  0  0  0  0  0  0  0  0  0  0
  146.7401  143.0622  153.8932 H   0  0  0  0  0  0  0  0  0  0  0  0
  146.9831  141.6889  152.8343 H   0  0  0  0  0  0  0  0  0  0  0  0
  145.9737  141.5939  155.7170 H   0  0  0  0  0  0  0  0  0  0  0  0
  145.0413  141.2310  154.2815 H   0  0  0  0  0  0  0  0  0  0  0  0
  145.8492  139.1460  155.4411 H   0  0  0  0  0  0  0  0  0  0  0  0
  146.4797  139.2439  153.8087 H   0  0  0  0  0  0  0  0  0  0  0  0
  1  2  1  0  0  0  0
  1 18  1  0  0  0  0
  1 19  1  0  0  0  0
  1 20  1  0  0  0  0
  2  6  1  0  0  0  0
  2  3  1  0  0  0  0
  3  4  2  0  0  0  0
  3 21  1  0  0  0  0
  4  5  1  0  0  0  0
  5  6  2  0  0  0  0
  5 22  1  0  0  0  0
  6  7  1  0  0  0  0
  7  8  1  0  0  0  0
  7 23  1  0  0  0  0
  7 24  1  0  0  0  0
  8  9  1  0  0  0  0
  8 25  1  0  0  0  0
  8 26  1  0  0  0  0
  9 10  1  0  0  0  0
  9 27  1  0  0  0  0
 10 11  2  0  0  0  0
 10 12  1  0  0  0  0
 12 17  1  0  0  0  0
 12 13  1  0  0  0  0
 12 28  1  0  0  0  0
 13 14  1  0  0  0  0
 13 29  1  0  0  0  0
 13 30  1  0  0  0  0
 14 15  1  0  0  0  0
 14 31  1  0  0  0  0
 14 32  1  0  0  0  0
 15 16  1  0  0  0  0
 15 33  1  0  0  0  0
 15 34  1  0  0  0  0
 16 17  1  0  0  0  0
 16 35  1  0  0  0  0
 16 36  1  0  0  0  0
M  END
> <s_m_source_file>
AV-unprocessed.smi

> <i_m_source_file_index>
2795

> <i_lp_mmshare_version>
43012

> <i_f3d_flags>
0

> <s_epik_input>
W0NIM11uMVtjSF1uW2NIXWMxW0NIMl1bQ0gyXVtOSF1DKD1PKVtDQEBIXTJbQ0gyXVtDSDJdW0NIMl1bQ0gyXU8y

> <s_epik_cmdline>
J2VwaWtfcHl0aG9uJywgJy1waCcsICc3LjAnLCAnLXRuJywgJzgnLCAnLW1hJywgJzIwMCcsICctbWV0YWxfYmluZGluZycsICctaW1hZScsICc8aW5maWxlLm1hZT4nLCAnLW9tYWUnLCAnPG91dGZpbGUubWFlPic=

> <r_lp_tautomer_probability>
1

> <r_epik_Ionization_Penalty>
0.870864

> <r_epik_Ionization_Penalty_Charging>
0.870864

> <r_epik_Ionization_Penalty_Neutral>
4.06047e-08

> <r_epik_State_Penalty>
0.90819

> <r_epik_Charging_Adjusted_Penalty>
1.77905

> <i_epik_Tot_Q>
0

> <i_epik_Tot_abs_Q>
0

> <r_epik_Metal_State_Penalty>
0.360563

> <b_epik_Metal_Only>
0

> <s_lp_Force_Field>
OPLS_2005

> <r_lp_Energy>
9.35516

> <b_lp_Chiralities_Consistent>
1

> <s_lp_Variant>
AV-unprocessed.smi:2795-3

> <Gold.Version>
5.8.1

> <Gold.Id.Protein>
6NUR|6NUR_protein|mol2

> <Gold.PLP.Fitness>
40.5851

> <Gold.PLP.PLP>
-35.4169

> <Gold.PLP.part.hbond>
-1.0000

> <Gold.PLP.part.metal>
0.0000

> <Gold.PLP.part.buried>
-3.5995

> <Gold.PLP.part.nonpolar>
-30.9847

> <Gold.PLP.part.repulsive>
0.2824

> <Gold.PLP.ligand.clash>
0.0000

> <Gold.PLP.ligand.torsion>
0.4182

> <Gold.PLP.Chemscore.Hbond>
1.0000

> <Gold.PLP.Chemscore.CHOScore>
1.0000

> <Gold.PLP.Chemscore.Metal>
0.0000

> <Gold.Chemscore.Hbonds>
donor molecule, donor type, donor heavy atom, donor atom, acceptor molecule, acceptor atom, score
      P1  H  7989  7998       L1    11  1.00
      L1  C     5    22       P1  8028  0.89

> <Gold.PLP.Chemscore.Internal.Correction>
0.0047

> <Gold.Rescore>
     Score         DG    S(hbond)    S(metal)    S(lipo)     H(rot)  DE(clash)    DE(int)     intcor
     11.68     -12.25       0.94        0.00      69.36       1.76       0.01       0.55       ----

> <Gold.Chemscore.Fitness>
11.6789

> <Gold.Chemscore.DG>
-12.2477

> <Gold.Chemscore.ZeroCoef>
-5.4800

> <Gold.Chemscore.Hbond>
0.9446

> <Gold.Chemscore.Metal>
0.0000

> <Gold.Chemscore.Lipo>
69.3567

> <Gold.Chemscore.Internal_Hbond>
0.0000

> <Gold.Chemscore.DEClash>
0.0149

> <Gold.Chemscore.DEInternal>
0.5539

> <Gold.Chemscore.Rot>
1.7585

> <Gold.Chemscore.Internal.Correction>
   9.000000E+99

> <Gold.Chemscore.Hbonds>
donor molecule, donor type, donor heavy atom, donor atom, acceptor molecule, acceptor atom, score
      P1  H  7989  7998       L1    11  0.55

> <Gold.Chemscore.Hbond.Weighted>
-3.1548

> <Gold.Chemscore.Metal.Weighted>
-0.0000

> <Gold.Chemscore.Lipo.Weighted>
-8.1147

> <Gold.Chemscore.Internal_Hbond.Weighted>
0.0000

> <Gold.Chemscore.DEClash.Weighted>
0.0149

> <Gold.Chemscore.DEInternal.Weighted>
0.5539

> <Gold.Chemscore.Rot.Weighted>
4.5018

> <Gold.Chemscore.Internal.Correction.Weighted>
   9.000000E+99

> <Gold.Protein.RotatedTorsions>
[ 6907 6896 6895 6894 ] final -160.04 input  -60.11 | X-H torsion
[ 7974 7965 7964 7962 ] final   20.12 input  175.53 | X-H torsion
[ 8008 7997 7996 7995 ] final   90.32 input   59.86 | X-H torsion
[ 10167 10162 10161 10158 ] final   44.26 input  -65.29 | X-H torsion
[ 10718 10713 10712 10709 ] final -156.28 input   66.30 | X-H torsion
[ 10763 10752 10751 10750 ] final  165.09 input  -60.55 | X-H torsion
[ 11005 11000 10999 10996 ] final  105.38 input  -57.11 | X-H torsion

> <Gold.Protein.ActiveResidues>
 VAL166  LYS551  ARG553  GLY616  TRP617  ASP618  TYR619  PRO620  LYS621  CYS622 
 ASP623  PHE694  ASN695  SER759  ASP760  ASP761  ALA762  ILE779  LEU786  VAL792 
 PHE793  MET794  SER795  GLU796  ALA797  LYS798  CYS799  TRP800  GLU811  SER814 

> <Gold.Protein.RotatedAtoms>
  151.3429  133.3955  159.2672 H   0  0  0  0  0  0  0  0  0  0  0  0  # atno 6907 bound_to 6896
  150.9863  134.9208  159.7884 H   0  0  0  0  0  0  0  0  0  0  0  0  # atno 6908 bound_to 6896
  152.5233  134.3394  159.9264 H   0  0  0  0  0  0  0  0  0  0  0  0  # atno 6909 bound_to 6896
  146.2123  139.8214  142.8679 H   0  0  0  0  0  0  0  0  0  0  0  0  # atno 7974 bound_to 7965
  156.0106  140.3350  155.6936 H   0  0  0  0  0  0  0  0  0  0  0  0  # atno 8008 bound_to 7997
  155.6163  140.0670  157.2709 H   0  0  0  0  0  0  0  0  0  0  0  0  # atno 8009 bound_to 7997
  154.4280  140.1784  156.1313 H   0  0  0  0  0  0  0  0  0  0  0  0  # atno 8010 bound_to 7997
  140.3361  144.2528  150.6161 H   0  0  0  0  0  0  0  0  0  0  0  0  # atno 10167 bound_to 10162
  156.5243  130.8492  151.2693 H   0  0  0  0  0  0  0  0  0  0  0  0  # atno 10718 bound_to 10713
  154.3187  135.2756  155.2530 H   0  0  0  0  0  0  0  0  0  0  0  0  # atno 10763 bound_to 10752
  154.4893  135.5838  153.6450 H   0  0  0  0  0  0  0  0  0  0  0  0  # atno 10764 bound_to 10752
  152.9879  135.6130  154.3370 H   0  0  0  0  0  0  0  0  0  0  0  0  # atno 10765 bound_to 10752
  139.8801  134.9333  156.5504 H   0  0  0  0  0  0  0  0  0  0  0  0  # atno 11005 bound_to 11000
  145.3092  141.0215  143.3564 LP  0  0  0  0  0  0  0  0  0  0  0  0  # atno 17320 bound_to 7965
  144.8948  139.4726  143.6660 LP  0  0  0  0  0  0  0  0  0  0  0  0  # atno 17321 bound_to 7965
  140.5352  143.2234  151.8174 LP  0  0  0  0  0  0  0  0  0  0  0  0  # atno 17342 bound_to 10162
  139.4848  144.4670  151.9472 LP  0  0  0  0  0  0  0  0  0  0  0  0  # atno 17343 bound_to 10162
  157.7432  130.9906  150.2573 LP  0  0  0  0  0  0  0  0  0  0  0  0  # atno 17370 bound_to 10713
  156.3119  130.3773  149.7653 LP  0  0  0  0  0  0  0  0  0  0  0  0  # atno 17371 bound_to 10713
  140.8244  133.8328  155.8925 LP  0  0  0  0  0  0  0  0  0  0  0  0  # atno 17394 bound_to 11000
  140.9388  134.1927  157.4812 LP  0  0  0  0  0  0  0  0  0  0  0  0  # atno 17395 bound_to 11000

$$$$
