AV-unprocessed.smi:2821|AV-procd|sdf|10857|dock6
  -GOLD-   2272015303D 1   1.00000     0.00000
 Structure written by MMmdl.
 36 37  0  0  0  0  0  0  0  0  1 V2000
  153.0965  139.1779  154.5734 C   0  0  0  0  0  0  0  0  0  0  0  0
  152.1288  138.0615  154.9720 C   0  0  0  0  0  0  0  0  0  0  0  0
  150.9468  138.1758  154.1850 O   0  0  0  0  0  0  0  0  0  0  0  0
  150.2121  139.3399  154.2773 C   0  0  0  0  0  0  0  0  0  0  0  0
  149.1090  139.5395  153.4202 C   0  0  0  0  0  0  0  0  0  0  0  0
  148.3482  140.6546  153.4817 N   0  0  0  0  0  0  0  0  0  0  0  0
  148.6941  141.5733  154.4107 C   0  0  0  0  0  0  0  0  0  0  0  0
  149.7964  141.3890  155.2743 C   0  0  0  0  0  0  0  0  0  0  0  0
  150.1024  142.3796  156.2199 N   0  0  0  0  0  0  0  0  0  0  0  0
  150.5804  142.0553  157.5617 C   0  0  1  0  0  0  0  0  0  0  0  0
  151.9554  141.3774  157.4454 C   0  0  0  0  0  0  0  0  0  0  0  0
  150.6380  143.3180  158.4536 C   0  0  2  0  0  0  0  0  0  0  0  0
  151.6046  144.3968  157.9582 C   0  0  0  0  0  0  0  0  0  0  0  0
  151.9214  145.1461  159.2311 C   0  0  0  0  0  0  0  0  0  0  0  0
  151.9994  144.0090  160.2419 C   0  0  0  0  0  0  0  0  0  0  0  0
  151.1065  143.0064  159.7661 O   0  0  0  0  0  0  0  0  0  0  0  0
  150.5600  140.2730  155.1983 N   0  0  0  0  0  0  0  0  0  0  0  0
  154.0156  139.1228  155.1569 H   0  0  0  0  0  0  0  0  0  0  0  0
  152.6520  140.1592  154.7404 H   0  0  0  0  0  0  0  0  0  0  0  0
  153.3647  139.1049  153.5192 H   0  0  0  0  0  0  0  0  0  0  0  0
  152.6034  137.0924  154.8092 H   0  0  0  0  0  0  0  0  0  0  0  0
  151.8885  138.1456  156.0330 H   0  0  0  0  0  0  0  0  0  0  0  0
  148.8325  138.7982  152.6852 H   0  0  0  0  0  0  0  0  0  0  0  0
  148.0833  142.4629  154.4642 H   0  0  0  0  0  0  0  0  0  0  0  0
  149.8702  143.3406  156.0150 H   0  0  0  0  0  0  0  0  0  0  0  0
  149.9054  141.3316  158.0197 H   0  0  0  0  0  0  0  0  0  0  0  0
  152.3231  141.0450  158.4161 H   0  0  0  0  0  0  0  0  0  0  0  0
  152.6984  142.0538  157.0214 H   0  0  0  0  0  0  0  0  0  0  0  0
  151.9040  140.4965  156.8045 H   0  0  0  0  0  0  0  0  0  0  0  0
  149.6430  143.7547  158.5541 H   0  0  0  0  0  0  0  0  0  0  0  0
  152.5132  143.9442  157.5581 H   0  0  0  0  0  0  0  0  0  0  0  0
  151.1720  145.0355  157.1877 H   0  0  0  0  0  0  0  0  0  0  0  0
  152.8411  145.7288  159.1714 H   0  0  0  0  0  0  0  0  0  0  0  0
  151.1015  145.8198  159.4833 H   0  0  0  0  0  0  0  0  0  0  0  0
  153.0061  143.5899  160.2690 H   0  0  0  0  0  0  0  0  0  0  0  0
  151.7381  144.3300  161.2504 H   0  0  0  0  0  0  0  0  0  0  0  0
  1  2  1  0  0  0  0
  1 18  1  0  0  0  0
  1 19  1  0  0  0  0
  1 20  1  0  0  0  0
  2  3  1  0  0  0  0
  2 21  1  0  0  0  0
  2 22  1  0  0  0  0
  3  4  1  0  0  0  0
  4 17  1  0  0  0  0
  4  5  2  0  0  0  0
  5  6  1  0  0  0  0
  5 23  1  0  0  0  0
  6  7  2  0  0  0  0
  7  8  1  0  0  0  0
  7 24  1  0  0  0  0
  8  9  1  0  0  0  0
  8 17  2  0  0  0  0
  9 10  1  0  0  0  0
  9 25  1  0  0  0  0
 10 11  1  0  0  0  0
 10 12  1  0  0  0  0
 10 26  1  0  0  0  0
 11 27  1  0  0  0  0
 11 28  1  0  0  0  0
 11 29  1  0  0  0  0
 12 16  1  0  0  0  0
 12 13  1  0  0  0  0
 12 30  1  0  0  0  0
 13 14  1  0  0  0  0
 13 31  1  0  0  0  0
 13 32  1  0  0  0  0
 14 15  1  0  0  0  0
 14 33  1  0  0  0  0
 14 34  1  0  0  0  0
 15 16  1  0  0  0  0
 15 35  1  0  0  0  0
 15 36  1  0  0  0  0
M  END
> <s_m_source_file>
AV-unprocessed.smi

> <i_m_source_file_index>
2821

> <i_lp_mmshare_version>
43012

> <i_f3d_flags>
0

> <s_epik_input>
W0NIM11bQ0gyXU9jMVtjSF1uW2NIXWMobjEpW05IXVtDQEhdKFtDSDNdKVtDQEBIXTJbQ0gyXVtDSDJdW0NIMl1PMg==

> <s_epik_cmdline>
J2VwaWtfcHl0aG9uJywgJy1waCcsICc3LjAnLCAnLXRuJywgJzgnLCAnLW1hJywgJzIwMCcsICctbWV0YWxfYmluZGluZycsICctaW1hZScsICc8aW5maWxlLm1hZT4nLCAnLW9tYWUnLCAnPG91dGZpbGUubWFlPic=

> <r_lp_tautomer_probability>
1

> <r_epik_Ionization_Penalty>
4.69533e-05

> <r_epik_Ionization_Penalty_Charging>
0

> <r_epik_Ionization_Penalty_Neutral>
4.69533e-05

> <r_epik_State_Penalty>
-0

> <r_epik_Charging_Adjusted_Penalty>
0

> <i_epik_Tot_Q>
0

> <i_epik_Tot_abs_Q>
0

> <r_epik_Metal_State_Penalty>
-0

> <b_epik_Metal_Only>
0

> <s_lp_Force_Field>
OPLS_2005

> <r_lp_Energy>
28.2268

> <b_lp_Chiralities_Consistent>
1

> <s_lp_Variant>
AV-unprocessed.smi:2821-2

> <Gold.Version>
5.8.1

> <Gold.Id.Protein>
6NUR|6NUR_protein|mol2

> <Gold.PLP.Fitness>
43.7220

> <Gold.PLP.PLP>
-36.6370

> <Gold.PLP.part.hbond>
-1.7381

> <Gold.PLP.part.metal>
0.0000

> <Gold.PLP.part.buried>
-3.3489

> <Gold.PLP.part.nonpolar>
-33.3703

> <Gold.PLP.part.repulsive>
1.9588

> <Gold.PLP.ligand.clash>
0.0000

> <Gold.PLP.ligand.torsion>
0.3646

> <Gold.PLP.Chemscore.Hbond>
1.0228

> <Gold.PLP.Chemscore.CHOScore>
1.5743

> <Gold.PLP.Chemscore.Metal>
0.0000

> <Gold.Chemscore.Hbonds>
donor molecule, donor type, donor heavy atom, donor atom, acceptor molecule, acceptor atom, score
      L1  H     9    25       P1  8028  1.00
      L1  C     5    23       P1  7948  0.67
      L1  C     5    23       P1  7957  0.22
      L1  C     7    24       P1  8028  0.62

> <Gold.PLP.Chemscore.Internal.Correction>
0.0230

> <Gold.Rescore>
     Score         DG    S(hbond)    S(metal)    S(lipo)     H(rot)  DE(clash)    DE(int)     intcor
     13.46     -15.29       1.00        0.00      89.37       1.55       0.21       1.62       ----

> <Gold.Chemscore.Fitness>
13.4559

> <Gold.Chemscore.DG>
-15.2895

> <Gold.Chemscore.ZeroCoef>
-5.4800

> <Gold.Chemscore.Hbond>
0.9955

> <Gold.Chemscore.Metal>
0.0000

> <Gold.Chemscore.Lipo>
89.3684

> <Gold.Chemscore.Internal_Hbond>
0.0000

> <Gold.Chemscore.DEClash>
0.2149

> <Gold.Chemscore.DEInternal>
1.6187

> <Gold.Chemscore.Rot>
1.5514

> <Gold.Chemscore.Internal.Correction>
   9.000000E+99

> <Gold.Chemscore.Hbonds>
donor molecule, donor type, donor heavy atom, donor atom, acceptor molecule, acceptor atom, score
      L1  H     9    25       P1  8028  0.99

> <Gold.Chemscore.Hbond.Weighted>
-3.3249

> <Gold.Chemscore.Metal.Weighted>
-0.0000

> <Gold.Chemscore.Lipo.Weighted>
-10.4561

> <Gold.Chemscore.Internal_Hbond.Weighted>
0.0000

> <Gold.Chemscore.DEClash.Weighted>
0.2149

> <Gold.Chemscore.DEInternal.Weighted>
1.6187

> <Gold.Chemscore.Rot.Weighted>
3.9715

> <Gold.Chemscore.Internal.Correction.Weighted>
   9.000000E+99

> <Gold.Protein.RotatedTorsions>
[ 6907 6896 6895 6894 ] final -117.39 input  -60.11 | X-H torsion
[ 7974 7965 7964 7962 ] final  135.23 input  175.53 | X-H torsion
[ 8008 7997 7996 7995 ] final  -32.76 input   59.86 | X-H torsion
[ 10167 10162 10161 10158 ] final   79.23 input  -65.29 | X-H torsion
[ 10718 10713 10712 10709 ] final   63.39 input   66.30 | X-H torsion
[ 10763 10752 10751 10750 ] final  -46.94 input  -60.55 | X-H torsion
[ 11005 11000 10999 10996 ] final   86.40 input  -57.11 | X-H torsion

> <Gold.Protein.ActiveResidues>
 VAL166  LYS551  ARG553  GLY616  TRP617  ASP618  TYR619  PRO620  LYS621  CYS622 
 ASP623  PHE694  ASN695  SER759  ASP760  ASP761  ALA762  ILE779  LEU786  VAL792 
 PHE793  MET794  SER795  GLU796  ALA797  LYS798  CYS799  TRP800  GLU811  SER814 

> <Gold.Protein.RotatedAtoms>
  150.8132  133.8383  159.3172 H   0  0  0  0  0  0  0  0  0  0  0  0  # atno 6907 bound_to 6896
  151.6163  135.1034  160.0101 H   0  0  0  0  0  0  0  0  0  0  0  0  # atno 6908 bound_to 6896
  152.4224  133.7098  159.6529 H   0  0  0  0  0  0  0  0  0  0  0  0  # atno 6909 bound_to 6896
  144.9684  139.4632  143.5445 H   0  0  0  0  0  0  0  0  0  0  0  0  # atno 7974 bound_to 7965
  154.4170  140.1729  156.1779 H   0  0  0  0  0  0  0  0  0  0  0  0  # atno 8008 bound_to 7997
  155.9707  140.3386  155.6549 H   0  0  0  0  0  0  0  0  0  0  0  0  # atno 8009 bound_to 7997
  155.6629  140.0703  157.2538 H   0  0  0  0  0  0  0  0  0  0  0  0  # atno 8010 bound_to 7997
  139.9625  144.5951  150.8059 H   0  0  0  0  0  0  0  0  0  0  0  0  # atno 10167 bound_to 10162
  157.5967  130.9102  149.9709 H   0  0  0  0  0  0  0  0  0  0  0  0  # atno 10718 bound_to 10713
  154.0533  135.6628  153.4803 H   0  0  0  0  0  0  0  0  0  0  0  0  # atno 10763 bound_to 10752
  153.0455  135.5117  154.7730 H   0  0  0  0  0  0  0  0  0  0  0  0  # atno 10764 bound_to 10752
  154.6743  135.3034  154.9666 H   0  0  0  0  0  0  0  0  0  0  0  0  # atno 10765 bound_to 10752
  139.8945  134.8353  156.2716 H   0  0  0  0  0  0  0  0  0  0  0  0  # atno 11005 bound_to 11000
  146.3375  139.8880  142.8813 LP  0  0  0  0  0  0  0  0  0  0  0  0  # atno 17320 bound_to 7965
  145.2595  141.0072  143.3834 LP  0  0  0  0  0  0  0  0  0  0  0  0  # atno 17321 bound_to 7965
  140.7548  143.3035  151.3021 LP  0  0  0  0  0  0  0  0  0  0  0  0  # atno 17342 bound_to 10162
  139.6543  144.0305  152.2648 LP  0  0  0  0  0  0  0  0  0  0  0  0  # atno 17343 bound_to 10162
  156.1032  130.3654  150.0181 LP  0  0  0  0  0  0  0  0  0  0  0  0  # atno 17370 bound_to 10713
  156.8293  130.9386  151.3638 LP  0  0  0  0  0  0  0  0  0  0  0  0  # atno 17371 bound_to 10713
  141.0097  133.7103  156.1092 LP  0  0  0  0  0  0  0  0  0  0  0  0  # atno 17394 bound_to 11000
  140.7384  134.4177  157.5558 LP  0  0  0  0  0  0  0  0  0  0  0  0  # atno 17395 bound_to 11000

$$$$
