AV-unprocessed.smi:2049|AV-procd|sdf|8323|dock2
  -GOLD-   2272010583D 1   1.00000     0.00000
 Structure written by MMmdl.
 50 52  0  0  0  0  0  0  0  0  1 V2000
  146.4918  138.2913  159.0539 O   0  0  0  0  0  0  0  0  0  0  0  0
  147.2049  137.5977  158.3287 C   0  0  0  0  0  0  0  0  0  0  0  0
  147.3526  136.0952  158.5964 C   0  0  0  0  0  0  0  0  0  0  0  0
  147.1716  135.7638  160.0183 N   0  0  0  0  0  0  0  0  0  0  0  0
  146.1966  134.8068  160.3460 C   0  0  0  0  0  0  0  0  0  0  0  0
  145.9830  134.4512  161.6209 C   0  0  0  0  0  0  0  0  0  0  0  0
  146.8172  135.1132  162.6321 C   0  0  0  0  0  0  0  0  0  0  0  0
  147.7095  135.9833  162.3367 N   0  0  0  0  0  0  0  0  0  0  0  0
  147.9340  136.3532  160.9970 C   0  0  0  0  0  0  0  0  0  0  0  0
  148.7935  137.1857  160.7051 O   0  0  0  0  0  0  0  0  0  0  0  0
  147.8890  138.0787  157.2806 N   0  0  0  0  0  0  0  0  0  0  0  0
  147.8305  139.4474  156.7689 C   0  0  0  0  0  0  0  0  0  0  0  0
  148.8755  139.7072  155.6303 C   0  0  0  0  0  0  0  0  0  0  0  0
  150.2288  139.2332  156.0694 N   0  0  0  0  0  0  0  0  0  0  0  0
  150.7484  139.8887  157.2786 C   0  0  0  0  0  0  0  0  0  0  0  0
  152.0640  139.2604  157.7663 C   0  0  0  0  0  0  0  0  0  0  0  0
  153.0325  139.3183  156.7282 O   0  0  0  0  0  0  0  0  0  0  0  0
  152.6029  138.6370  155.5572 C   0  0  0  0  0  0  0  0  0  0  0  0
  151.2863  139.2489  155.0475 C   0  0  0  0  0  0  0  0  0  0  0  0
  148.3995  138.9408  154.3489 C   0  0  0  0  0  0  0  0  0  0  0  0
  147.0692  139.4374  153.7512 C   0  0  0  0  0  0  0  0  0  0  0  0
  147.1335  140.9383  153.4437 C   0  0  0  0  0  0  0  0  0  0  0  0
  147.5418  141.7410  154.6855 C   0  0  0  0  0  0  0  0  0  0  0  0
  148.8666  141.2303  155.2863 C   0  0  0  0  0  0  0  0  0  0  0  0
  146.6392  135.5317  157.9915 H   0  0  0  0  0  0  0  0  0  0  0  0
  148.3375  135.7830  158.2465 H   0  0  0  0  0  0  0  0  0  0  0  0
  145.6528  134.3879  159.5117 H   0  0  0  0  0  0  0  0  0  0  0  0
  145.2534  133.7223  161.9410 H   0  0  0  0  0  0  0  0  0  0  0  0
  146.6256  134.8126  163.6653 H   0  0  0  0  0  0  0  0  0  0  0  0
  148.4472  137.4269  156.7488 H   0  0  0  0  0  0  0  0  0  0  0  0
  146.8144  139.6831  156.4588 H   0  0  0  0  0  0  0  0  0  0  0  0
  147.9974  140.1200  157.6092 H   0  0  0  0  0  0  0  0  0  0  0  0
  150.9178  140.9486  157.0884 H   0  0  0  0  0  0  0  0  0  0  0  0
  150.0384  139.8248  158.1000 H   0  0  0  0  0  0  0  0  0  0  0  0
  152.4417  139.7991  158.6353 H   0  0  0  0  0  0  0  0  0  0  0  0
  151.9071  138.2254  158.0739 H   0  0  0  0  0  0  0  0  0  0  0  0
  153.3778  138.7193  154.7950 H   0  0  0  0  0  0  0  0  0  0  0  0
  152.4765  137.5744  155.7713 H   0  0  0  0  0  0  0  0  0  0  0  0
  151.0008  138.6724  154.1717 H   0  0  0  0  0  0  0  0  0  0  0  0
  151.4797  140.2680  154.7138 H   0  0  0  0  0  0  0  0  0  0  0  0
  149.1198  139.0576  153.5425 H   0  0  0  0  0  0  0  0  0  0  0  0
  148.3425  137.8686  154.5375 H   0  0  0  0  0  0  0  0  0  0  0  0
  146.8595  138.8891  152.8325 H   0  0  0  0  0  0  0  0  0  0  0  0
  146.2326  139.2241  154.4145 H   0  0  0  0  0  0  0  0  0  0  0  0
  147.8531  141.1153  152.6434 H   0  0  0  0  0  0  0  0  0  0  0  0
  146.1684  141.2859  153.0740 H   0  0  0  0  0  0  0  0  0  0  0  0
  147.6461  142.7930  154.4186 H   0  0  0  0  0  0  0  0  0  0  0  0
  146.7466  141.7019  155.4296 H   0  0  0  0  0  0  0  0  0  0  0  0
  149.0899  141.8236  156.1730 H   0  0  0  0  0  0  0  0  0  0  0  0
  149.6550  141.4573  154.5696 H   0  0  0  0  0  0  0  0  0  0  0  0
  1  2  2  0  0  0  0
  2  3  1  0  0  0  0
  2 11  1  0  0  0  0
  3  4  1  0  0  0  0
  3 25  1  0  0  0  0
  3 26  1  0  0  0  0
  4  9  1  0  0  0  0
  4  5  1  0  0  0  0
  5  6  2  0  0  0  0
  5 27  1  0  0  0  0
  6  7  1  0  0  0  0
  6 28  1  0  0  0  0
  7  8  2  0  0  0  0
  7 29  1  0  0  0  0
  8  9  1  0  0  0  0
  9 10  2  0  0  0  0
 11 12  1  0  0  0  0
 11 30  1  0  0  0  0
 12 13  1  0  0  0  0
 12 31  1  0  0  0  0
 12 32  1  0  0  0  0
 13 24  1  0  0  0  0
 13 14  1  0  0  0  0
 13 20  1  0  0  0  0
 14 19  1  0  0  0  0
 14 15  1  0  0  0  0
 15 16  1  0  0  0  0
 15 33  1  0  0  0  0
 15 34  1  0  0  0  0
 16 17  1  0  0  0  0
 16 35  1  0  0  0  0
 16 36  1  0  0  0  0
 17 18  1  0  0  0  0
 18 19  1  0  0  0  0
 18 37  1  0  0  0  0
 18 38  1  0  0  0  0
 19 39  1  0  0  0  0
 19 40  1  0  0  0  0
 20 21  1  0  0  0  0
 20 41  1  0  0  0  0
 20 42  1  0  0  0  0
 21 22  1  0  0  0  0
 21 43  1  0  0  0  0
 21 44  1  0  0  0  0
 22 23  1  0  0  0  0
 22 45  1  0  0  0  0
 22 46  1  0  0  0  0
 23 24  1  0  0  0  0
 23 47  1  0  0  0  0
 23 48  1  0  0  0  0
 24 49  1  0  0  0  0
 24 50  1  0  0  0  0
M  END
> <s_m_source_file>
AV-unprocessed.smi

> <i_m_source_file_index>
2049

> <i_lp_mmshare_version>
43012

> <i_f3d_flags>
0

> <s_epik_input>
Tz1jMW5bY0hdW2NIXVtjSF1uMVtDSDJdQyg9TylbTkhdW0NIMl1DMihbQ0gyXVtDSDJdW0NIMl1bQ0gyXVtDSDJdMilOM1tDSDJdW0NIMl1PW0NIMl1bQ0gyXTM=

> <s_epik_cmdline>
J2VwaWtfcHl0aG9uJywgJy1waCcsICc3LjAnLCAnLXRuJywgJzgnLCAnLW1hJywgJzIwMCcsICctbWV0YWxfYmluZGluZycsICctaW1hZScsICc8aW5maWxlLm1hZT4nLCAnLW9tYWUnLCAnPG91dGZpbGUubWFlPic=

> <r_lp_tautomer_probability>
1

> <r_epik_Ionization_Penalty>
0.421133

> <r_epik_Ionization_Penalty_Charging>
1.67008e-08

> <r_epik_Ionization_Penalty_Neutral>
0.421133

> <r_epik_State_Penalty>
0.421833

> <r_epik_Charging_Adjusted_Penalty>
0.421833

> <i_epik_Tot_Q>
0

> <i_epik_Tot_abs_Q>
0

> <r_epik_Metal_State_Penalty>
0.421832

> <b_epik_Metal_Only>
0

> <s_lp_Force_Field>
OPLS_2005

> <r_lp_Energy>
55.5371

> <b_lp_Chiralities_Consistent>
1

> <s_lp_Variant>
AV-unprocessed.smi:2049-2

> <Gold.Version>
5.8.1

> <Gold.Id.Protein>
6NUR|6NUR_protein|mol2

> <Gold.PLP.Fitness>
40.1817

> <Gold.PLP.PLP>
-34.4403

> <Gold.PLP.part.hbond>
-3.2838

> <Gold.PLP.part.metal>
0.0000

> <Gold.PLP.part.buried>
-5.2440

> <Gold.PLP.part.nonpolar>
-27.2424

> <Gold.PLP.part.repulsive>
0.0402

> <Gold.PLP.ligand.clash>
0.0000

> <Gold.PLP.ligand.torsion>
0.5224

> <Gold.PLP.Chemscore.Hbond>
2.2320

> <Gold.PLP.Chemscore.CHOScore>
0.0000

> <Gold.PLP.Chemscore.Metal>
0.0000

> <Gold.Chemscore.Hbonds>
donor molecule, donor type, donor heavy atom, donor atom, acceptor molecule, acceptor atom, score
      P1  H  6931  6943       L1    10  0.77
      P1  H  6934  6947       L1     1  0.43
      P1  H  7997  8009       L1    17  1.00

> <Gold.PLP.Chemscore.Internal.Correction>
0.0902

> <Gold.Rescore>
     Score         DG    S(hbond)    S(metal)    S(lipo)     H(rot)  DE(clash)    DE(int)     intcor
     16.95     -17.29       2.48        0.00      72.93       1.95       0.00       0.34       ----

> <Gold.Chemscore.Fitness>
16.9473

> <Gold.Chemscore.DG>
-17.2913

> <Gold.Chemscore.ZeroCoef>
-5.4800

> <Gold.Chemscore.Hbond>
2.4785

> <Gold.Chemscore.Metal>
0.0000

> <Gold.Chemscore.Lipo>
72.9334

> <Gold.Chemscore.Internal_Hbond>
0.0000

> <Gold.Chemscore.DEClash>
0.0038

> <Gold.Chemscore.DEInternal>
0.3403

> <Gold.Chemscore.Rot>
1.9531

> <Gold.Chemscore.Internal.Correction>
   9.000000E+99

> <Gold.Chemscore.Hbonds>
donor molecule, donor type, donor heavy atom, donor atom, acceptor molecule, acceptor atom, score
      P1  H  6931  6943       L1    10  0.64
      P1  H  6934  6947       L1     1  0.42
      P1  H  7997  8009       L1    17  0.53

> <Gold.Chemscore.Hbond.Weighted>
-8.2781

> <Gold.Chemscore.Metal.Weighted>
-0.0000

> <Gold.Chemscore.Lipo.Weighted>
-8.5332

> <Gold.Chemscore.Internal_Hbond.Weighted>
0.0000

> <Gold.Chemscore.DEClash.Weighted>
0.0038

> <Gold.Chemscore.DEInternal.Weighted>
0.3403

> <Gold.Chemscore.Rot.Weighted>
5.0000

> <Gold.Chemscore.Internal.Correction.Weighted>
   9.000000E+99

> <Gold.Protein.RotatedTorsions>
[ 6907 6896 6895 6894 ] final  -51.41 input  -60.11 | X-H torsion
[ 7974 7965 7964 7962 ] final  134.35 input  175.53 | X-H torsion
[ 8008 7997 7996 7995 ] final -160.38 input   59.86 | X-H torsion
[ 10167 10162 10161 10158 ] final -171.66 input  -65.29 | X-H torsion
[ 10718 10713 10712 10709 ] final   81.29 input   66.30 | X-H torsion
[ 10763 10752 10751 10750 ] final  -33.86 input  -60.55 | X-H torsion
[ 11005 11000 10999 10996 ] final -121.31 input  -57.11 | X-H torsion

> <Gold.Protein.ActiveResidues>
 VAL166  LYS551  ARG553  GLY616  TRP617  ASP618  TYR619  PRO620  LYS621  CYS622 
 ASP623  PHE694  ASN695  SER759  ASP760  ASP761  ALA762  ILE779  LEU786  VAL792 
 PHE793  MET794  SER795  GLU796  ALA797  LYS798  CYS799  TRP800  GLU811  SER814 

> <Gold.Protein.RotatedAtoms>
  150.8614  134.7967  159.7085 H   0  0  0  0  0  0  0  0  0  0  0  0  # atno 6907 bound_to 6896
  152.4650  134.5094  159.9759 H   0  0  0  0  0  0  0  0  0  0  0  0  # atno 6908 bound_to 6896
  151.5197  133.3430  159.2935 H   0  0  0  0  0  0  0  0  0  0  0  0  # atno 6909 bound_to 6896
  144.9773  139.4542  143.5404 H   0  0  0  0  0  0  0  0  0  0  0  0  # atno 7974 bound_to 7965
  155.7765  140.0859  157.2081 H   0  0  0  0  0  0  0  0  0  0  0  0  # atno 8008 bound_to 7997
  154.3993  140.1515  156.3060 H   0  0  0  0  0  0  0  0  0  0  0  0  # atno 8009 bound_to 7997
  155.8695  140.3426  155.5814 H   0  0  0  0  0  0  0  0  0  0  0  0  # atno 8010 bound_to 7997
  139.5790  144.1467  152.1489 H   0  0  0  0  0  0  0  0  0  0  0  0  # atno 10167 bound_to 10162
  157.6829  130.9997  150.2204 H   0  0  0  0  0  0  0  0  0  0  0  0  # atno 10718 bound_to 10713
  153.8371  135.6861  153.4807 H   0  0  0  0  0  0  0  0  0  0  0  0  # atno 10763 bound_to 10752
  153.1476  135.4631  154.9587 H   0  0  0  0  0  0  0  0  0  0  0  0  # atno 10764 bound_to 10752
  154.7861  135.3285  154.7829 H   0  0  0  0  0  0  0  0  0  0  0  0  # atno 10765 bound_to 10752
  141.0079  134.0307  157.3452 H   0  0  0  0  0  0  0  0  0  0  0  0  # atno 11005 bound_to 11000
  146.3398  139.9023  142.8792 LP  0  0  0  0  0  0  0  0  0  0  0  0  # atno 17320 bound_to 7965
  145.2472  141.0031  143.3902 LP  0  0  0  0  0  0  0  0  0  0  0  0  # atno 17321 bound_to 7965
  140.1016  144.5534  150.6985 LP  0  0  0  0  0  0  0  0  0  0  0  0  # atno 17342 bound_to 10162
  140.7070  143.2475  151.4697 LP  0  0  0  0  0  0  0  0  0  0  0  0  # atno 17343 bound_to 10162
  156.2857  130.3739  149.7891 LP  0  0  0  0  0  0  0  0  0  0  0  0  # atno 17370 bound_to 10713
  156.5566  130.8365  151.3316 LP  0  0  0  0  0  0  0  0  0  0  0  0  # atno 17371 bound_to 10713
  139.9073  135.0182  156.7543 LP  0  0  0  0  0  0  0  0  0  0  0  0  # atno 17394 bound_to 11000
  140.6782  133.9498  155.7895 LP  0  0  0  0  0  0  0  0  0  0  0  0  # atno 17395 bound_to 11000

$$$$
