#       Name:                AV-unprocessed.smi:2057
#       Creating user name   scv26
#       Creation time:       Fri Mar 27 11:01:10 2020


#       File generated by GOLD software.
#

@<TRIPOS>MOLECULE
AV-unprocessed.smi:2057
    53    55     1
SMALL
NO_CHARGES


@<TRIPOS>ATOM
      1 ****        -3.9707  -3.5650  -0.6654 C.3            1 S1                 0.0000
      2 ****        -4.6430  -2.3141  -0.6425 O.3            1 S1                 0.0000
      3 ****        -3.8805  -1.1657  -0.6464 C.ar           1 S1                 0.0000
      4 ****        -4.5694   0.0604  -0.6080 C.ar           1 S1                 0.0000
      5 ****        -3.8706   1.2809  -0.5977 C.ar           1 S1                 0.0000
      6 ****        -2.4544   1.3030  -0.6325 C.ar           1 S1                 0.0000
      7 ****        -1.7129   2.4674  -0.6052 O.3            1 S1                 0.0000
      8 ****        -2.4010   3.7063  -0.5153 C.3            1 S1                 0.0000
      9 ****        -1.7536   0.0735  -0.6894 C.ar           1 S1                 0.0000
     10 ****        -0.2281   0.0667  -0.7241 C.3            1 S1                 0.0000
     11 ****         0.3042  -1.0164  -1.4637 O.3            1 S1                 0.0000
     12 ****         0.3549   0.0702   0.7025 C.3            1 S1                 0.0000
     13 ****         1.8167   0.2301   0.7215 N.pl3          1 S1                 0.0000
     14 ****         2.5690   1.3668   0.6871 C.2            1 S1                 0.0000
     15 ****         2.0527   2.7695   0.6213 C.3            1 S1                 0.0000
     16 ****         3.0688   3.7307   0.4256 O.3            1 S1                 0.0000
     17 ****         3.8772   0.9836   0.7299 N.pl3          1 S1                 1.0000
     18 ****         3.9620  -0.4079   0.7891 C.ar           1 S1                 0.0000
     19 ****         5.0668  -1.2519   0.8452 C.ar           1 S1                 0.0000
     20 ****         4.8035  -2.6367   0.8935 C.ar           1 S1                 0.0000
     21 ****         3.4841  -3.1338   0.8838 C.ar           1 S1                 0.0000
     22 ****         2.3721  -2.2681   0.8279 C.ar           1 S1                 0.0000
     23 ****         2.6407  -0.9001   0.7824 C.ar           1 S1                 0.0000
     24 ****        -2.4656  -1.1479  -0.6843 C.ar           1 S1                 0.0000
     25 ****        -4.7065  -4.3691  -0.6572 H              1 S1                 0.0000
     26 ****        -3.3347  -3.6914   0.2118 H              1 S1                 0.0000
     27 ****        -3.3689  -3.6789  -1.5681 H              1 S1                 0.0000
     28 ****        -5.6492   0.0663  -0.5798 H              1 S1                 0.0000
     29 ****        -4.4501   2.1905  -0.5589 H              1 S1                 0.0000
     30 ****        -1.6747   4.5184  -0.4851 H              1 S1                 0.0000
     31 ****        -2.9990   3.7659   0.3950 H              1 S1                 0.0000
     32 ****        -3.0427   3.8696  -1.3823 H              1 S1                 0.0000
     33 ****         0.1094   0.9624  -1.2457 H              1 S1                 0.0000
     34 ****         0.0144  -0.9362  -2.3598 H              1 S1                 0.0000
     35 ****        -0.0616   0.9035   1.2699 H              1 S1                 0.0000
     36 ****         0.0785  -0.8323   1.2479 H              1 S1                 0.0000
     37 ****         1.3316   2.8502  -0.1926 H              1 S1                 0.0000
     38 ****         1.5231   2.9974   1.5467 H              1 S1                 0.0000
     39 ****         2.6689   4.5867   0.3919 H              1 S1                 0.0000
     40 ****         6.0784  -0.8732   0.8508 H              1 S1                 0.0000
     41 ****         5.6299  -3.3314   0.9370 H              1 S1                 0.0000
     42 ****         3.3208  -4.2012   0.9186 H              1 S1                 0.0000
     43 ****         1.3662  -2.6605   0.8143 H              1 S1                 0.0000
     44 ****        -1.9067  -2.0707  -0.7056 H              1 S1                 0.0000
     45 ****         4.6521   1.6343   0.7171 H              1 S1                 0.0000
     46 ****        -5.2049  -2.2944   0.1844 LP             1 S1                 0.0000
     47 ****        -5.2344  -2.2804  -1.4482 LP             1 S1                 0.0000
     48 ****        -1.1699   2.4914  -1.4446 LP             1 S1                 0.0000
     49 ****        -1.1028   2.4104   0.1850 LP             1 S1                 0.0000
     50 ****        -0.0213  -1.8804  -1.0794 LP             1 S1                 0.0000
     51 ****         1.3032  -0.9912  -1.4282 LP             1 S1                 0.0000
     52 ****         3.5459   3.5471  -0.4338 LP             1 S1                 0.0000
     53 ****         3.7202   3.6921   1.1833 LP             1 S1                 0.0000
@<TRIPOS>BOND
    1    1    2 1     
    2    1   25 1     
    3    1   26 1     
    4    1   27 1     
    5    2    3 1     
    6    3   24 ar    
    7    3    4 ar    
    8    4    5 ar    
    9    4   28 1     
   10    5    6 ar    
   11    5   29 1     
   12    6    7 1     
   13    6    9 ar    
   14    7    8 1     
   15    8   30 1     
   16    8   31 1     
   17    8   32 1     
   18    9   10 1     
   19    9   24 ar    
   20   10   11 1     
   21   10   12 1     
   22   10   33 1     
   23   11   34 1     
   24   12   13 1     
   25   12   35 1     
   26   12   36 1     
   27   13   23 1     
   28   13   14 1     
   29   14   15 1     
   30   14   17 2     
   31   15   16 1     
   32   15   37 1     
   33   15   38 1     
   34   16   39 1     
   35   17   18 1     
   36   17   45 1     
   37   18   23 ar    
   38   18   19 ar    
   39   19   20 ar    
   40   19   40 1     
   41   20   21 ar    
   42   20   41 1     
   43   21   22 ar    
   44   21   42 1     
   45   22   23 ar    
   46   22   43 1     
   47   24   44 1     
   48    2   46 1     
   49    2   47 1     
   50    7   48 1     
   51    7   49 1     
   52   11   50 1     
   53   11   51 1     
   54   16   52 1     
   55   16   53 1     
@<TRIPOS>SUBSTRUCTURE
      1 S1             1
@<TRIPOS>SET
LONE_PAIRS      STATIC     ATOMS    <user>   **** ""
8 46 47 48 49 50 51 52 53
DONOR_HYDROGENS      STATIC     ATOMS    <user>   **** ""
3 34 39 45
ATOM$BLUE        STATIC     ATOMS    COLORGROUP SYSTEM
8 46 47 48 49 50 51 52 53
ATOM$RED        STATIC     ATOMS    COLORGROUP SYSTEM
3 34 39 45
