AV-unprocessed.smi:72|AV-procd|sdf|754|dock3
  -GOLD-   2262017 93D 1   1.00000     0.00000
 Structure written by MMmdl.
 29 30  0  0  0  0  0  0  0  0  1 V2000
  152.7645  137.9448  156.2861 N   0  0  0  0  0  0  0  0  0  0  0  0
  151.8144  138.8672  155.9016 C   0  0  0  0  0  0  0  0  0  0  0  0
  151.0567  138.5456  154.7684 N   0  0  0  0  0  0  0  0  0  0  0  0
  150.1430  139.3959  154.4230 C   0  0  0  0  0  0  0  0  0  0  0  0
  149.8830  140.5960  155.2052 N   0  0  0  0  0  0  0  0  0  0  0  0
  148.8397  141.6221  154.7774 C   0  0  1  0  0  0  0  0  0  0  0  0
  148.4901  141.4075  153.4364 O   0  0  0  0  0  0  0  0  0  0  0  0
  147.2090  140.7912  153.3118 C   0  0  1  0  0  0  0  0  0  0  0  0
  147.3267  139.2498  153.3491 C   0  0  0  0  0  0  0  0  0  0  0  0
  147.6277  138.7596  152.0599 O   0  0  0  0  0  0  0  0  0  0  0  0
  146.4606  141.4153  154.4938 C   0  0  1  0  0  0  0  0  0  0  0  0
  145.3484  140.6512  154.9173 O   0  0  0  0  0  0  0  0  0  0  0  0
  147.5214  141.5169  155.5831 C   0  0  2  0  0  0  0  0  0  0  0  0
  147.2802  142.6767  156.3553 O   0  0  0  0  0  0  0  0  0  0  0  0
  150.7634  140.9028  156.2834 C   0  0  0  0  0  0  0  0  0  0  0  0
  150.6727  141.9766  156.8771 O   0  0  0  0  0  0  0  0  0  0  0  0
  151.7234  139.9439  156.6266 N   0  0  0  0  0  0  0  0  0  0  0  0
  149.3498  142.5819  154.8759 H   0  0  0  0  0  0  0  0  0  0  0  0
  146.7400  141.0936  152.3743 H   0  0  0  0  0  0  0  0  0  0  0  0
  146.1207  142.4104  154.2012 H   0  0  0  0  0  0  0  0  0  0  0  0
  147.5244  140.6196  156.2042 H   0  0  0  0  0  0  0  0  0  0  0  0
  153.3709  138.0719  157.0833 H   0  0  0  0  0  0  0  0  0  0  0  0
  152.9246  137.0749  155.7990 H   0  0  0  0  0  0  0  0  0  0  0  0
  149.5234  139.2597  153.5363 H   0  0  0  0  0  0  0  0  0  0  0  0
  148.0602  138.9022  154.0749 H   0  0  0  0  0  0  0  0  0  0  0  0
  146.3743  138.8010  153.6310 H   0  0  0  0  0  0  0  0  0  0  0  0
  148.3016  138.1017  152.1383 H   0  0  0  0  0  0  0  0  0  0  0  0
  144.6941  140.6753  154.2356 H   0  0  0  0  0  0  0  0  0  0  0  0
  147.9766  143.2949  156.1943 H   0  0  0  0  0  0  0  0  0  0  0  0
  1  2  1  0  0  0  0
  1 22  1  0  0  0  0
  1 23  1  0  0  0  0
  2 17  2  0  0  0  0
  2  3  1  0  0  0  0
  3  4  2  0  0  0  0
  4  5  1  0  0  0  0
  4 24  1  0  0  0  0
  5  6  1  0  0  0  0
  5 15  1  0  0  0  0
  6 18  1  0  0  0  0
  6 13  1  0  0  0  0
  6  7  1  0  0  0  0
  7  8  1  0  0  0  0
  8 19  1  0  0  0  0
  8  9  1  0  0  0  0
  8 11  1  0  0  0  0
  9 10  1  0  0  0  0
  9 25  1  0  0  0  0
  9 26  1  0  0  0  0
 10 27  1  0  0  0  0
 11 20  1  0  0  0  0
 11 12  1  0  0  0  0
 11 13  1  0  0  0  0
 12 28  1  0  0  0  0
 13 21  1  0  0  0  0
 13 14  1  0  0  0  0
 14 29  1  0  0  0  0
 15 16  2  0  0  0  0
 15 17  1  0  0  0  0
M  END
> <s_m_source_file>
AV-unprocessed.smi

> <i_m_source_file_index>
72

> <i_lp_mmshare_version>
43012

> <i_f3d_flags>
0

> <s_epik_input>
W05IMl1jMW5bY0hdbihjKD1PKW4xKVtDQEBIXTJPW0NASF0oW0NIMl1bT0hdKVtDQEBIXShbT0hdKVtDQEhdMltPSF0=

> <s_epik_cmdline>
J2VwaWtfcHl0aG9uJywgJy1waCcsICc3LjAnLCAnLXRuJywgJzgnLCAnLW1hJywgJzIwMCcsICctbWV0YWxfYmluZGluZycsICctaW1hZScsICc8aW5maWxlLm1hZT4nLCAnLW9tYWUnLCAnPG91dGZpbGUubWFlPic=

> <r_lp_tautomer_probability>
4.77166e-05

> <r_epik_Ionization_Penalty>
1.3546

> <r_epik_Ionization_Penalty_Charging>
1.46833e-10

> <r_epik_Ionization_Penalty_Neutral>
1.3546

> <r_epik_State_Penalty>
3.51908

> <r_epik_Charging_Adjusted_Penalty>
3.51908

> <i_epik_Tot_Q>
0

> <i_epik_Tot_abs_Q>
0

> <r_epik_Metal_State_Penalty>
3.44088

> <b_epik_Metal_Only>
1

> <s_epik_Chemistry_Notes>
This compound contains an acetal/aminal-like group ( X-CH(R)-Y where X, Y are N, S, or O) that may be acid/base labile, releasing an aldehyde.

> <s_lp_Force_Field>
OPLS_2005

> <r_lp_Energy>
28.0207

> <b_lp_Chiralities_Consistent>
1

> <s_lp_Variant>
AV-unprocessed.smi:72-92

> <Gold.Version>
5.8.1

> <Gold.Id.Protein>
6NUR|6NUR_protein|mol2

> <Gold.PLP.Fitness>
38.0653

> <Gold.PLP.PLP>
-25.1405

> <Gold.PLP.part.hbond>
-4.9573

> <Gold.PLP.part.metal>
0.0000

> <Gold.PLP.part.buried>
-2.1577

> <Gold.PLP.part.nonpolar>
-19.3130

> <Gold.PLP.part.repulsive>
2.0580

> <Gold.PLP.ligand.clash>
0.0000

> <Gold.PLP.ligand.torsion>
0.7877

> <Gold.PLP.Chemscore.Hbond>
3.8000

> <Gold.PLP.Chemscore.CHOScore>
1.0000

> <Gold.PLP.Chemscore.Metal>
0.0000

> <Gold.Chemscore.Hbonds>
donor molecule, donor type, donor heavy atom, donor atom, acceptor molecule, acceptor atom, score
      L1  H    10    27       P1  7948  1.00
      L1  H    12    28       P1 10175  1.00
      L1  H    14    29       P1  8028  1.00
      P1  H  8011  8017       L1     7  0.78
      L1  C     4    24       P1  7957  1.00

> <Gold.PLP.Chemscore.Internal.Correction>
0.1001

> <Gold.Rescore>
     Score         DG    S(hbond)    S(metal)    S(lipo)     H(rot)  DE(clash)    DE(int)     intcor
      5.95      -8.60       3.19        0.00      24.37       4.06       1.79       0.86       ----

> <Gold.Chemscore.Fitness>
5.9476

> <Gold.Chemscore.DG>
-8.5982

> <Gold.Chemscore.ZeroCoef>
-5.4800

> <Gold.Chemscore.Hbond>
3.1918

> <Gold.Chemscore.Metal>
0.0000

> <Gold.Chemscore.Lipo>
24.3683

> <Gold.Chemscore.Internal_Hbond>
0.0000

> <Gold.Chemscore.DEClash>
1.7921

> <Gold.Chemscore.DEInternal>
0.8585

> <Gold.Chemscore.Rot>
4.0600

> <Gold.Chemscore.Internal.Correction>
   9.000000E+99

> <Gold.Chemscore.Hbonds>
donor molecule, donor type, donor heavy atom, donor atom, acceptor molecule, acceptor atom, score
      L1  H    10    27       P1  7948  0.94
      L1  H    12    28       P1 10175  0.93
      L1  H    14    29       P1  8028  0.26
      P1  H  8011  8017       L1     7  0.46

> <Gold.Chemscore.Hbond.Weighted>
-10.6607

> <Gold.Chemscore.Metal.Weighted>
-0.0000

> <Gold.Chemscore.Lipo.Weighted>
-2.8511

> <Gold.Chemscore.Internal_Hbond.Weighted>
0.0000

> <Gold.Chemscore.DEClash.Weighted>
1.7921

> <Gold.Chemscore.DEInternal.Weighted>
0.8585

> <Gold.Chemscore.Rot.Weighted>
10.3936

> <Gold.Chemscore.Internal.Correction.Weighted>
   9.000000E+99

> <Gold.Protein.RotatedTorsions>
[ 6907 6896 6895 6894 ] final  129.22 input  -60.11 | X-H torsion
[ 7974 7965 7964 7962 ] final -113.57 input  175.53 | X-H torsion
[ 8008 7997 7996 7995 ] final  -84.13 input   59.86 | X-H torsion
[ 10167 10162 10161 10158 ] final  139.06 input  -65.29 | X-H torsion
[ 10718 10713 10712 10709 ] final -108.56 input   66.30 | X-H torsion
[ 10763 10752 10751 10750 ] final   30.75 input  -60.55 | X-H torsion
[ 11005 11000 10999 10996 ] final   23.60 input  -57.11 | X-H torsion

> <Gold.Protein.ActiveResidues>
 VAL166  LYS551  ARG553  GLY616  TRP617  ASP618  TYR619  PRO620  LYS621  CYS622 
 ASP623  PHE694  ASN695  SER759  ASP760  ASP761  ALA762  ILE779  LEU786  VAL792 
 PHE793  MET794  SER795  GLU796  ALA797  LYS798  CYS799  TRP800  GLU811  SER814 

> <Gold.Protein.RotatedAtoms>
  152.3645  133.6339  159.6039 H   0  0  0  0  0  0  0  0  0  0  0  0  # atno 6907 bound_to 6896
  150.7624  133.9370  159.3453 H   0  0  0  0  0  0  0  0  0  0  0  0  # atno 6908 bound_to 6896
  151.7203  135.0896  160.0334 H   0  0  0  0  0  0  0  0  0  0  0  0  # atno 6909 bound_to 6896
  145.1305  140.8721  143.3761 H   0  0  0  0  0  0  0  0  0  0  0  0  # atno 7974 bound_to 7965
  154.6265  140.0609  156.9680 H   0  0  0  0  0  0  0  0  0  0  0  0  # atno 8008 bound_to 7997
  155.1734  140.3293  155.4370 H   0  0  0  0  0  0  0  0  0  0  0  0  # atno 8009 bound_to 7997
  156.2460  140.1910  156.6834 H   0  0  0  0  0  0  0  0  0  0  0  0  # atno 8010 bound_to 7997
  139.5090  144.6317  151.5801 H   0  0  0  0  0  0  0  0  0  0  0  0  # atno 10167 bound_to 10162
  156.0492  130.5719  150.7979 H   0  0  0  0  0  0  0  0  0  0  0  0  # atno 10718 bound_to 10713
  153.0354  135.6456  154.1093 H   0  0  0  0  0  0  0  0  0  0  0  0  # atno 10763 bound_to 10752
  154.0809  135.2873  155.3292 H   0  0  0  0  0  0  0  0  0  0  0  0  # atno 10764 bound_to 10752
  154.6531  135.5419  153.7989 H   0  0  0  0  0  0  0  0  0  0  0  0  # atno 10765 bound_to 10752
  140.3678  134.2055  155.7668 H   0  0  0  0  0  0  0  0  0  0  0  0  # atno 11005 bound_to 11000
  145.0641  139.3082  143.5865 LP  0  0  0  0  0  0  0  0  0  0  0  0  # atno 17320 bound_to 7965
  146.3514  140.0093  142.8668 LP  0  0  0  0  0  0  0  0  0  0  0  0  # atno 17321 bound_to 7965
  140.6052  143.9538  150.6413 LP  0  0  0  0  0  0  0  0  0  0  0  0  # atno 17342 bound_to 10162
  140.2762  143.3421  152.1193 LP  0  0  0  0  0  0  0  0  0  0  0  0  # atno 17343 bound_to 10162
  157.5400  131.0940  150.9840 LP  0  0  0  0  0  0  0  0  0  0  0  0  # atno 17370 bound_to 10713
  157.0125  130.5642  149.5322 LP  0  0  0  0  0  0  0  0  0  0  0  0  # atno 17371 bound_to 10713
  141.1964  133.8083  157.0673 LP  0  0  0  0  0  0  0  0  0  0  0  0  # atno 17394 bound_to 11000
  140.0575  134.9772  157.1247 LP  0  0  0  0  0  0  0  0  0  0  0  0  # atno 17395 bound_to 11000

$$$$
