AV-unprocessed.smi:2636|AV-procd|sdf|10257|dock9
  -GOLD-   2272014263D 1   1.00000     0.00000
 Structure written by MMmdl.
 36 37  0  0  0  0  0  0  0  0  1 V2000
  155.0763  144.1855  168.1026 C   0  0  0  0  0  0  0  0  0  0  0  0
  155.3561  142.7620  167.6503 C   0  0  0  0  0  0  0  0  0  0  0  0
  155.6767  142.4559  166.3669 C   0  0  0  0  0  0  0  0  0  0  0  0
  155.9372  141.1670  165.9314 N   0  0  0  0  0  0  0  0  0  0  0  0
  156.2227  140.8489  164.5438 C   0  0  0  0  0  0  0  0  0  0  0  0
  155.2815  139.9318  164.0870 O   0  0  0  0  0  0  0  0  0  0  0  0
  155.4715  139.5637  162.7311 C   0  0  0  0  0  0  0  0  0  0  0  0
  154.7574  140.5359  161.8184 C   0  0  0  0  0  0  0  0  0  0  0  0
  154.0047  141.5637  162.2507 C   0  0  0  0  0  0  0  0  0  0  0  0
  153.2876  142.5415  161.4129 C   0  0  0  0  0  0  0  0  0  0  0  0
  152.4720  143.5611  161.9586 C   0  0  0  0  0  0  0  0  0  0  0  0
  151.8083  144.4746  161.1162 C   0  0  0  0  0  0  0  0  0  0  0  0
  151.9517  144.3805  159.7196 C   0  0  0  0  0  0  0  0  0  0  0  0
  152.7605  143.3706  159.1664 C   0  0  0  0  0  0  0  0  0  0  0  0
  153.4234  142.4579  160.0097 C   0  0  0  0  0  0  0  0  0  0  0  0
  155.8484  140.0885  166.8362 C   0  0  0  0  0  0  0  0  0  0  0  0
  156.0447  138.9176  166.5100 O   0  0  0  0  0  0  0  0  0  0  0  0
  155.5220  140.4037  168.1543 N   0  0  0  0  0  0  0  0  0  0  0  0
  155.2662  141.6876  168.6445 C   0  0  0  0  0  0  0  0  0  0  0  0
  154.9891  141.8391  169.8331 O   0  0  0  0  0  0  0  0  0  0  0  0
  155.4612  139.6388  168.8104 H   0  0  0  0  0  0  0  0  0  0  0  0
  155.1862  144.8981  167.2847 H   0  0  0  0  0  0  0  0  0  0  0  0
  155.7667  144.4771  168.8949 H   0  0  0  0  0  0  0  0  0  0  0  0
  154.0589  144.2702  168.4858 H   0  0  0  0  0  0  0  0  0  0  0  0
  155.7329  143.2577  165.6444 H   0  0  0  0  0  0  0  0  0  0  0  0
  156.1695  141.7642  163.9514 H   0  0  0  0  0  0  0  0  0  0  0  0
  157.2392  140.4541  164.4691 H   0  0  0  0  0  0  0  0  0  0  0  0
  156.5359  139.5402  162.4909 H   0  0  0  0  0  0  0  0  0  0  0  0
  155.0703  138.5650  162.5530 H   0  0  0  0  0  0  0  0  0  0  0  0
  154.8897  140.3524  160.7634 H   0  0  0  0  0  0  0  0  0  0  0  0
  153.9054  141.7014  163.3179 H   0  0  0  0  0  0  0  0  0  0  0  0
  152.3415  143.6601  163.0250 H   0  0  0  0  0  0  0  0  0  0  0  0
  151.1885  145.2491  161.5434 H   0  0  0  0  0  0  0  0  0  0  0  0
  151.4428  145.0813  159.0742 H   0  0  0  0  0  0  0  0  0  0  0  0
  152.8734  143.2955  158.0950 H   0  0  0  0  0  0  0  0  0  0  0  0
  154.0416  141.6889  159.5699 H   0  0  0  0  0  0  0  0  0  0  0  0
  1  2  1  0  0  0  0
  1 22  1  0  0  0  0
  1 23  1  0  0  0  0
  1 24  1  0  0  0  0
  2 19  1  0  0  0  0
  2  3  2  0  0  0  0
  3  4  1  0  0  0  0
  3 25  1  0  0  0  0
  4  5  1  0  0  0  0
  4 16  1  0  0  0  0
  5  6  1  0  0  0  0
  5 26  1  0  0  0  0
  5 27  1  0  0  0  0
  6  7  1  0  0  0  0
  7  8  1  0  0  0  0
  7 28  1  0  0  0  0
  7 29  1  0  0  0  0
  8  9  2  0  0  0  0
  8 30  1  0  0  0  0
  9 10  1  0  0  0  0
  9 31  1  0  0  0  0
 10 15  1  0  0  0  0
 10 11  2  0  0  0  0
 11 12  1  0  0  0  0
 11 32  1  0  0  0  0
 12 13  2  0  0  0  0
 12 33  1  0  0  0  0
 13 14  1  0  0  0  0
 13 34  1  0  0  0  0
 14 15  2  0  0  0  0
 14 35  1  0  0  0  0
 15 36  1  0  0  0  0
 16 17  2  0  0  0  0
 16 18  1  0  0  0  0
 18 21  1  0  0  0  0
 18 19  1  0  0  0  0
 19 20  2  0  0  0  0
M  END
> <s_m_source_file>
AV-unprocessed.smi

> <i_m_source_file_index>
2636

> <i_lp_mmshare_version>
43012

> <i_f3d_flags>
0

> <s_epik_input>
Tz1jMVtuSF1jKD1PKW4oW2NIXWMxW0NIM10pW0NIMl1PW0NIMl0vW0NIXT1bQ0hdL2MyW2NIXVtjSF1bY0hdW2NIXVtjSF0y

> <s_epik_cmdline>
J2VwaWtfcHl0aG9uJywgJy1waCcsICc3LjAnLCAnLXRuJywgJzgnLCAnLW1hJywgJzIwMCcsICctbWV0YWxfYmluZGluZycsICctaW1hZScsICc8aW5maWxlLm1hZT4nLCAnLW9tYWUnLCAnPG91dGZpbGUubWFlPic=

> <r_lp_tautomer_probability>
0.999537

> <r_epik_Ionization_Penalty>
0.00179702

> <r_epik_Ionization_Penalty_Charging>
0.00179702

> <r_epik_Ionization_Penalty_Neutral>
9.83266e-13

> <r_epik_State_Penalty>
0.00121868

> <r_epik_Charging_Adjusted_Penalty>
0.0030157

> <i_epik_Tot_Q>
0

> <i_epik_Tot_abs_Q>
0

> <r_epik_Metal_State_Penalty>
0.826903

> <b_epik_Metal_Only>
0

> <s_epik_Chemistry_Notes>
This compound contains an acetal/aminal-like group ( X-CH(R)-Y where X, Y are N, S, or O) that may be acid/base labile, releasing an aldehyde.

> <s_lp_Force_Field>
OPLS_2005

> <r_lp_Energy>
1.95272

> <b_lp_Chiralities_Consistent>
1

> <s_lp_Variant>
AV-unprocessed.smi:2636-1

> <Gold.Version>
5.8.1

> <Gold.Id.Protein>
6NUR|6NUR_protein|mol2

> <Gold.PLP.Fitness>
46.7485

> <Gold.PLP.PLP>
-47.0931

> <Gold.PLP.part.hbond>
-0.8824

> <Gold.PLP.part.metal>
0.0000

> <Gold.PLP.part.buried>
-4.8709

> <Gold.PLP.part.nonpolar>
-41.9735

> <Gold.PLP.part.repulsive>
1.0163

> <Gold.PLP.ligand.clash>
0.0000

> <Gold.PLP.ligand.torsion>
0.1799

> <Gold.PLP.Chemscore.Hbond>
0.0000

> <Gold.PLP.Chemscore.CHOScore>
0.0000

> <Gold.PLP.Chemscore.Metal>
0.0000

> <Gold.PLP.Chemscore.Internal.Correction>
0.0152

> <Gold.Rescore>
     Score         DG    S(hbond)    S(metal)    S(lipo)     H(rot)  DE(clash)    DE(int)     intcor
     13.10     -14.68       0.00        0.00     120.64       1.92       0.11       1.46       ----

> <Gold.Chemscore.Fitness>
13.1011

> <Gold.Chemscore.DG>
-14.6752

> <Gold.Chemscore.ZeroCoef>
-5.4800

> <Gold.Chemscore.Hbond>
0.0000

> <Gold.Chemscore.Metal>
0.0000

> <Gold.Chemscore.Lipo>
120.6370

> <Gold.Chemscore.Internal_Hbond>
0.0000

> <Gold.Chemscore.DEClash>
0.1121

> <Gold.Chemscore.DEInternal>
1.4620

> <Gold.Chemscore.Rot>
1.9216

> <Gold.Chemscore.Internal.Correction>
   9.000000E+99

> <Gold.Chemscore.Hbond.Weighted>
-0.0000

> <Gold.Chemscore.Metal.Weighted>
-0.0000

> <Gold.Chemscore.Lipo.Weighted>
-14.1145

> <Gold.Chemscore.Internal_Hbond.Weighted>
0.0000

> <Gold.Chemscore.DEClash.Weighted>
0.1121

> <Gold.Chemscore.DEInternal.Weighted>
1.4620

> <Gold.Chemscore.Rot.Weighted>
4.9193

> <Gold.Chemscore.Internal.Correction.Weighted>
   9.000000E+99

> <Gold.Protein.RotatedTorsions>
[ 6907 6896 6895 6894 ] final   46.43 input  -60.11 | X-H torsion
[ 7974 7965 7964 7962 ] final   16.59 input  175.53 | X-H torsion
[ 8008 7997 7996 7995 ] final  -25.39 input   59.86 | X-H torsion
[ 10167 10162 10161 10158 ] final -100.45 input  -65.29 | X-H torsion
[ 10718 10713 10712 10709 ] final    5.07 input   66.30 | X-H torsion
[ 10763 10752 10751 10750 ] final -158.21 input  -60.55 | X-H torsion
[ 11005 11000 10999 10996 ] final -115.62 input  -57.11 | X-H torsion

> <Gold.Protein.ActiveResidues>
 VAL166  LYS551  ARG553  GLY616  TRP617  ASP618  TYR619  PRO620  LYS621  CYS622 
 ASP623  PHE694  ASN695  SER759  ASP760  ASP761  ALA762  ILE779  LEU786  VAL792 
 PHE793  MET794  SER795  GLU796  ALA797  LYS798  CYS799  TRP800  GLU811  SER814 

> <Gold.Protein.RotatedAtoms>
  152.2563  134.8081  160.0437 H   0  0  0  0  0  0  0  0  0  0  0  0  # atno 6907 bound_to 6896
  151.8743  133.3477  159.3753 H   0  0  0  0  0  0  0  0  0  0  0  0  # atno 6908 bound_to 6896
  150.7101  134.5008  159.5605 H   0  0  0  0  0  0  0  0  0  0  0  0  # atno 6909 bound_to 6896
  146.2245  139.8726  142.8585 H   0  0  0  0  0  0  0  0  0  0  0  0  # atno 7974 bound_to 7965
  154.4478  140.1927  156.0613 H   0  0  0  0  0  0  0  0  0  0  0  0  # atno 8008 bound_to 7997
  156.0581  140.3300  155.7402 H   0  0  0  0  0  0  0  0  0  0  0  0  # atno 8009 bound_to 7997
  155.5454  140.0590  157.2852 H   0  0  0  0  0  0  0  0  0  0  0  0  # atno 8010 bound_to 7997
  140.2517  143.3468  152.0708 H   0  0  0  0  0  0  0  0  0  0  0  0  # atno 10167 bound_to 10162
  156.9019  130.5725  149.5648 H   0  0  0  0  0  0  0  0  0  0  0  0  # atno 10718 bound_to 10713
  154.7575  135.3108  154.8442 H   0  0  0  0  0  0  0  0  0  0  0  0  # atno 10763 bound_to 10752
  153.9212  135.6795  153.4752 H   0  0  0  0  0  0  0  0  0  0  0  0  # atno 10764 bound_to 10752
  153.1173  135.4838  154.9067 H   0  0  0  0  0  0  0  0  0  0  0  0  # atno 10765 bound_to 10752
  141.0476  133.9739  157.2892 H   0  0  0  0  0  0  0  0  0  0  0  0  # atno 11005 bound_to 11000
  145.2593  141.0071  143.3836 LP  0  0  0  0  0  0  0  0  0  0  0  0  # atno 17320 bound_to 7965
  144.9311  139.4297  143.6494 LP  0  0  0  0  0  0  0  0  0  0  0  0  # atno 17321 bound_to 7965
  139.5044  144.6775  151.6093 LP  0  0  0  0  0  0  0  0  0  0  0  0  # atno 17342 bound_to 10162
  140.6035  143.9566  150.6402 LP  0  0  0  0  0  0  0  0  0  0  0  0  # atno 17343 bound_to 10162
  156.0578  130.5636  150.9128 LP  0  0  0  0  0  0  0  0  0  0  0  0  # atno 17370 bound_to 10713
  157.6021  131.0941  150.8943 LP  0  0  0  0  0  0  0  0  0  0  0  0  # atno 17371 bound_to 10713
  139.9324  135.0199  156.8444 LP  0  0  0  0  0  0  0  0  0  0  0  0  # atno 17394 bound_to 11000
  140.6118  134.0076  155.7580 LP  0  0  0  0  0  0  0  0  0  0  0  0  # atno 17395 bound_to 11000

$$$$
