AV-unprocessed.smi:2083|AV-procd|sdf|8497|dock3
  -GOLD-   2272011203D 1   1.00000     0.00000
 Structure written by MMmdl.
 45 46  0  0  0  0  0  0  0  0  2 V2000
  151.1927  140.8218  156.2882 C   0  0  0  0  0  0  0  0  0  0  0  0
  151.4135  139.5576  155.5308 C   0  0  0  0  0  0  0  0  0  0  0  0
  150.5968  138.5089  155.2133 C   0  0  0  0  0  0  0  0  0  0  0  0
  151.4548  137.6452  154.4824 C   0  0  0  0  0  0  0  0  0  0  0  0
  150.9777  136.4141  153.9649 N   0  0  0  0  0  0  0  0  0  0  0  0
  150.0787  135.5850  154.5220 C   0  0  0  0  0  0  0  0  0  0  0  0
  149.5147  135.7703  155.6006 O   0  0  0  0  0  0  0  0  0  0  0  0
  149.8655  134.5082  153.7509 N   0  0  0  0  0  0  0  0  0  0  0  0
  148.9205  133.4313  154.0384 C   0  0  0  0  0  0  0  0  0  0  0  0
  147.9738  133.1223  152.8453 C   0  0  1  0  0  0  0  0  0  0  0  0
  147.0602  131.9189  153.1686 C   0  0  0  0  0  0  0  0  0  0  0  0
  147.1319  134.2850  152.4061 N   0  3  2  0  0  0  0  0  0  0  0  0
  146.5319  135.0057  153.5655 C   0  0  0  0  0  0  0  0  0  0  0  0
  145.8501  136.3107  153.1304 C   0  0  0  0  0  0  0  0  0  0  0  0
  144.7675  136.0313  152.0847 C   0  0  0  0  0  0  0  0  0  0  0  0
  145.3744  135.2734  150.8953 C   0  0  2  0  0  0  0  0  0  0  0  0
  144.3109  134.9567  149.8340 C   0  0  0  0  0  0  0  0  0  0  0  0
  146.0931  133.9938  151.3733 C   0  0  0  0  0  0  0  0  0  0  0  0
  152.6835  138.1240  154.3614 N   0  0  0  0  0  0  0  0  0  0  0  0
  152.6633  139.3521  155.0334 O   0  0  0  0  0  0  0  0  0  0  0  0
  150.1286  141.0038  156.4401 H   0  0  0  0  0  0  0  0  0  0  0  0
  151.6074  141.6742  155.7497 H   0  0  0  0  0  0  0  0  0  0  0  0
  151.6707  140.7736  157.2666 H   0  0  0  0  0  0  0  0  0  0  0  0
  149.5548  138.3829  155.4673 H   0  0  0  0  0  0  0  0  0  0  0  0
  151.3584  136.1395  153.0716 H   0  0  0  0  0  0  0  0  0  0  0  0
  150.3784  134.4406  152.8838 H   0  0  0  0  0  0  0  0  0  0  0  0
  149.4468  132.5280  154.3523 H   0  0  0  0  0  0  0  0  0  0  0  0
  148.3498  133.7754  154.9009 H   0  0  0  0  0  0  0  0  0  0  0  0
  148.6150  132.8471  152.0061 H   0  0  0  0  0  0  0  0  0  0  0  0
  147.6368  131.0188  153.3798 H   0  0  0  0  0  0  0  0  0  0  0  0
  146.3945  131.6633  152.3460 H   0  0  0  0  0  0  0  0  0  0  0  0
  146.4379  132.1236  154.0406 H   0  0  0  0  0  0  0  0  0  0  0  0
  145.8070  134.3566  154.0592 H   0  0  0  0  0  0  0  0  0  0  0  0
  147.2883  135.2448  154.3114 H   0  0  0  0  0  0  0  0  0  0  0  0
  145.4104  136.8079  153.9957 H   0  0  0  0  0  0  0  0  0  0  0  0
  146.5926  136.9975  152.7221 H   0  0  0  0  0  0  0  0  0  0  0  0
  143.9643  135.4442  152.5328 H   0  0  0  0  0  0  0  0  0  0  0  0
  144.3216  136.9689  151.7509 H   0  0  0  0  0  0  0  0  0  0  0  0
  146.1187  135.9210  150.4289 H   0  0  0  0  0  0  0  0  0  0  0  0
  143.5289  134.3113  150.2354 H   0  0  0  0  0  0  0  0  0  0  0  0
  144.7507  134.4511  148.9741 H   0  0  0  0  0  0  0  0  0  0  0  0
  143.8352  135.8681  149.4705 H   0  0  0  0  0  0  0  0  0  0  0  0
  146.5477  133.5409  150.4930 H   0  0  0  0  0  0  0  0  0  0  0  0
  145.3724  133.2786  151.7734 H   0  0  0  0  0  0  0  0  0  0  0  0
  147.7710  134.9298  151.9633 H   0  0  0  0  0  0  0  0  0  0  0  0
  1  2  1  0  0  0  0
  1 21  1  0  0  0  0
  1 22  1  0  0  0  0
  1 23  1  0  0  0  0
  2 20  1  0  0  0  0
  2  3  2  0  0  0  0
  3  4  1  0  0  0  0
  3 24  1  0  0  0  0
  4  5  1  0  0  0  0
  4 19  2  0  0  0  0
  5  6  1  0  0  0  0
  5 25  1  0  0  0  0
  6  7  2  0  0  0  0
  6  8  1  0  0  0  0
  8  9  1  0  0  0  0
  8 26  1  0  0  0  0
  9 10  1  0  0  0  0
  9 27  1  0  0  0  0
  9 28  1  0  0  0  0
 10 11  1  0  0  0  0
 10 12  1  0  0  0  0
 10 29  1  0  0  0  0
 11 30  1  0  0  0  0
 11 31  1  0  0  0  0
 11 32  1  0  0  0  0
 12 18  1  0  0  0  0
 12 13  1  0  0  0  0
 12 45  1  0  0  0  0
 13 14  1  0  0  0  0
 13 33  1  0  0  0  0
 13 34  1  0  0  0  0
 14 15  1  0  0  0  0
 14 35  1  0  0  0  0
 14 36  1  0  0  0  0
 15 16  1  0  0  0  0
 15 37  1  0  0  0  0
 15 38  1  0  0  0  0
 16 17  1  0  0  0  0
 16 18  1  0  0  0  0
 16 39  1  0  0  0  0
 17 40  1  0  0  0  0
 17 41  1  0  0  0  0
 17 42  1  0  0  0  0
 18 43  1  0  0  0  0
 18 44  1  0  0  0  0
 19 20  1  0  0  0  0
M  CHG  1  12   1
M  END
> <s_m_source_file>
AV-unprocessed.smi

> <i_m_source_file_index>
2083

> <i_lp_mmshare_version>
43012

> <i_f3d_flags>
0

> <s_epik_input>
W0NIM11jMVtjSF1jKG5vMSlbTkhdQyg9TylbTkhdW0NIMl1bQ0BIXShbQ0gzXSlOMltDSDJdW0NIMl1bQ0gyXVtDQEBIXShbQ0gzXSlbQ0gyXTI=

> <s_epik_cmdline>
J2VwaWtfcHl0aG9uJywgJy1waCcsICc3LjAnLCAnLXRuJywgJzgnLCAnLW1hJywgJzIwMCcsICctbWV0YWxfYmluZGluZycsICctaW1hZScsICc8aW5maWxlLm1hZT4nLCAnLW9tYWUnLCAnPG91dGZpbGUubWFlPic=

> <r_epik_Ionization_Penalty>
0.00216453

> <r_epik_Ionization_Penalty_Charging>
0.00212879

> <r_epik_Ionization_Penalty_Neutral>
3.57418e-05

> <r_epik_State_Penalty>
0.00146033

> <r_epik_Charging_Adjusted_Penalty>
0.00358912

> <i_epik_Tot_Q>
1

> <i_epik_Tot_abs_Q>
1

> <r_epik_Metal_State_Penalty>
0.0215827

> <b_epik_Metal_Only>
0

> <s_lp_Force_Field>
OPLS_2005

> <r_lp_Energy>
20.5585

> <b_lp_Chiralities_Consistent>
1

> <s_lp_Variant>
AV-unprocessed.smi:2083-8

> <Gold.Version>
5.8.1

> <Gold.Id.Protein>
6NUR|6NUR_protein|mol2

> <Gold.PLP.Fitness>
44.6379

> <Gold.PLP.PLP>
-33.7038

> <Gold.PLP.part.hbond>
-6.5758

> <Gold.PLP.part.metal>
0.0000

> <Gold.PLP.part.buried>
-1.2221

> <Gold.PLP.part.nonpolar>
-26.2896

> <Gold.PLP.part.repulsive>
0.2710

> <Gold.PLP.ligand.clash>
0.0000

> <Gold.PLP.ligand.torsion>
0.4941

> <Gold.PLP.Chemscore.Hbond>
3.9440

> <Gold.PLP.Chemscore.CHOScore>
0.0000

> <Gold.PLP.Chemscore.Metal>
0.0000

> <Gold.Chemscore.Hbonds>
donor molecule, donor type, donor heavy atom, donor atom, acceptor molecule, acceptor atom, score
      L1  H     5    25       P1  7949  0.99
      L1  H    12    45       P1  7948  2.00
      P1  H  7997  8010       L1    20  0.70

> <Gold.PLP.Chemscore.Internal.Correction>
0.0903

> <Gold.Rescore>
     Score         DG    S(hbond)    S(metal)    S(lipo)     H(rot)  DE(clash)    DE(int)     intcor
     14.97     -16.80       2.57        0.00      57.27       1.55       0.20       1.64       ----

> <Gold.Chemscore.Fitness>
14.9657

> <Gold.Chemscore.DG>
-16.8041

> <Gold.Chemscore.ZeroCoef>
-5.4800

> <Gold.Chemscore.Hbond>
2.5701

> <Gold.Chemscore.Metal>
0.0000

> <Gold.Chemscore.Lipo>
57.2741

> <Gold.Chemscore.Internal_Hbond>
0.0000

> <Gold.Chemscore.DEClash>
0.1986

> <Gold.Chemscore.DEInternal>
1.6399

> <Gold.Chemscore.Rot>
1.5474

> <Gold.Chemscore.Internal.Correction>
   9.000000E+99

> <Gold.Chemscore.Hbonds>
donor molecule, donor type, donor heavy atom, donor atom, acceptor molecule, acceptor atom, score
      L1  H     5    25       P1  7949  0.68
      L1  H    12    45       P1  7948  0.65
      P1  H  7997  8010       L1    20  0.67

> <Gold.Chemscore.Hbond.Weighted>
-8.5843

> <Gold.Chemscore.Metal.Weighted>
-0.0000

> <Gold.Chemscore.Lipo.Weighted>
-6.7011

> <Gold.Chemscore.Internal_Hbond.Weighted>
0.0000

> <Gold.Chemscore.DEClash.Weighted>
0.1986

> <Gold.Chemscore.DEInternal.Weighted>
1.6399

> <Gold.Chemscore.Rot.Weighted>
3.9612

> <Gold.Chemscore.Internal.Correction.Weighted>
   9.000000E+99

> <Gold.Protein.RotatedTorsions>
[ 6907 6896 6895 6894 ] final  -36.44 input  -60.11 | X-H torsion
[ 7974 7965 7964 7962 ] final  -13.08 input  175.53 | X-H torsion
[ 8008 7997 7996 7995 ] final  104.64 input   59.86 | X-H torsion
[ 10167 10162 10161 10158 ] final   50.44 input  -65.29 | X-H torsion
[ 10718 10713 10712 10709 ] final -111.14 input   66.30 | X-H torsion
[ 10763 10752 10751 10750 ] final  110.68 input  -60.55 | X-H torsion
[ 11005 11000 10999 10996 ] final  131.27 input  -57.11 | X-H torsion

> <Gold.Protein.ActiveResidues>
 VAL166  LYS551  ARG553  GLY616  TRP617  ASP618  TYR619  PRO620  LYS621  CYS622 
 ASP623  PHE694  ASN695  SER759  ASP760  ASP761  ALA762  ILE779  LEU786  VAL792 
 PHE793  MET794  SER795  GLU796  ALA797  LYS798  CYS799  TRP800  GLU811  SER814 

> <Gold.Protein.RotatedAtoms>
  151.0272  134.9512  159.8091 H   0  0  0  0  0  0  0  0  0  0  0  0  # atno 6907 bound_to 6896
  152.5338  134.2827  159.9023 H   0  0  0  0  0  0  0  0  0  0  0  0  # atno 6908 bound_to 6896
  151.2836  133.4156  159.2662 H   0  0  0  0  0  0  0  0  0  0  0  0  # atno 6909 bound_to 6896
  146.2128  140.3151  142.8385 H   0  0  0  0  0  0  0  0  0  0  0  0  # atno 7974 bound_to 7965
  156.1590  140.3144  155.8775 H   0  0  0  0  0  0  0  0  0  0  0  0  # atno 8008 bound_to 7997
  155.3819  140.0488  157.3060 H   0  0  0  0  0  0  0  0  0  0  0  0  # atno 8009 bound_to 7997
  154.5129  140.2171  155.9133 H   0  0  0  0  0  0  0  0  0  0  0  0  # atno 8010 bound_to 7997
  140.2724  144.3250  150.6286 H   0  0  0  0  0  0  0  0  0  0  0  0  # atno 10167 bound_to 10162
  156.0630  130.5851  150.8332 H   0  0  0  0  0  0  0  0  0  0  0  0  # atno 10718 bound_to 10713
  153.4524  135.3741  155.2291 H   0  0  0  0  0  0  0  0  0  0  0  0  # atno 10763 bound_to 10752
  154.8756  135.3889  154.4023 H   0  0  0  0  0  0  0  0  0  0  0  0  # atno 10764 bound_to 10752
  153.4584  135.7086  153.6129 H   0  0  0  0  0  0  0  0  0  0  0  0  # atno 10765 bound_to 10752
  139.9720  134.9574  156.9413 H   0  0  0  0  0  0  0  0  0  0  0  0  # atno 11005 bound_to 11000
  144.8960  140.7584  143.5897 LP  0  0  0  0  0  0  0  0  0  0  0  0  # atno 17320 bound_to 7965
  145.3075  139.1829  143.4656 LP  0  0  0  0  0  0  0  0  0  0  0  0  # atno 17321 bound_to 7965
  140.5879  143.2169  151.7308 LP  0  0  0  0  0  0  0  0  0  0  0  0  # atno 17342 bound_to 10162
  139.4985  144.3984  152.0207 LP  0  0  0  0  0  0  0  0  0  0  0  0  # atno 17343 bound_to 10162
  157.5652  131.0946  150.9500 LP  0  0  0  0  0  0  0  0  0  0  0  0  # atno 17370 bound_to 10713
  156.9729  130.5498  149.5291 LP  0  0  0  0  0  0  0  0  0  0  0  0  # atno 17371 bound_to 10713
  140.5273  134.0848  155.7307 LP  0  0  0  0  0  0  0  0  0  0  0  0  # atno 17394 bound_to 11000
  141.1399  133.9156  157.2349 LP  0  0  0  0  0  0  0  0  0  0  0  0  # atno 17395 bound_to 11000

$$$$
