AV-unprocessed.smi:1621|AV-procd|sdf|6495|dock3
  -GOLD-   22720 7153D 1   1.00000     0.00000
 Structure written by MMmdl.
 40 41  0  0  0  0  0  0  0  0  3 V2000
  143.5298  132.7381  148.3140 C   0  0  0  0  0  0  0  0  0  0  0  0
  143.7683  133.4370  149.5952 N   0  3  2  0  0  0  0  0  0  0  0  0
  144.4869  134.7218  149.4112 C   0  0  0  0  0  0  0  0  0  0  0  0
  144.6128  135.4817  150.7422 C   0  0  0  0  0  0  0  0  0  0  0  0
  145.3093  134.6224  151.8163 C   0  0  1  0  0  0  0  0  0  0  0  0
  145.4186  135.3413  153.1779 C   0  0  0  0  0  0  0  0  0  0  0  0
  146.5301  136.2864  153.2302 N   0  0  0  0  0  0  0  0  0  0  0  0
  146.4617  137.5304  153.7259 C   0  0  0  0  0  0  0  0  0  0  0  0
  145.4357  138.0106  154.2060 O   0  0  0  0  0  0  0  0  0  0  0  0
  147.6434  138.1628  153.6152 N   0  0  0  0  0  0  0  0  0  0  0  0
  147.9916  139.4900  153.9918 C   0  0  0  0  0  0  0  0  0  0  0  0
  147.0014  140.4860  153.8374 C   0  0  0  0  0  0  0  0  0  0  0  0
  147.2938  141.8206  154.1850 C   0  0  0  0  0  0  0  0  0  0  0  0
  148.5185  142.1395  154.6551 N   0  3  0  0  0  0  0  0  0  0  0  0
  149.5010  141.2266  154.8091 C   0  0  0  0  0  0  0  0  0  0  0  0
  149.2676  139.8760  154.4781 C   0  0  0  0  0  0  0  0  0  0  0  0
  144.5575  133.2860  151.9530 C   0  0  0  0  0  0  0  0  0  0  0  0
  144.4325  132.5687  150.5983 C   0  0  0  0  0  0  0  0  0  0  0  0
  144.4714  132.4568  147.8406 H   0  0  0  0  0  0  0  0  0  0  0  0
  142.9774  133.3774  147.6245 H   0  0  0  0  0  0  0  0  0  0  0  0
  142.9419  131.8333  148.4716 H   0  0  0  0  0  0  0  0  0  0  0  0
  145.4767  134.5312  148.9926 H   0  0  0  0  0  0  0  0  0  0  0  0
  143.9505  135.3396  148.6897 H   0  0  0  0  0  0  0  0  0  0  0  0
  145.1667  136.4055  150.5737 H   0  0  0  0  0  0  0  0  0  0  0  0
  143.6214  135.7754  151.0901 H   0  0  0  0  0  0  0  0  0  0  0  0
  146.3192  134.3991  151.4684 H   0  0  0  0  0  0  0  0  0  0  0  0
  144.5000  135.8924  153.3819 H   0  0  0  0  0  0  0  0  0  0  0  0
  145.5221  134.6132  153.9844 H   0  0  0  0  0  0  0  0  0  0  0  0
  147.4105  135.9722  152.8483 H   0  0  0  0  0  0  0  0  0  0  0  0
  148.3739  137.6448  153.1491 H   0  0  0  0  0  0  0  0  0  0  0  0
  146.0212  140.2320  153.4604 H   0  0  0  0  0  0  0  0  0  0  0  0
  146.5906  142.6363  154.1006 H   0  0  0  0  0  0  0  0  0  0  0  0
  150.4415  141.6015  155.1858 H   0  0  0  0  0  0  0  0  0  0  0  0
  150.0763  139.1722  154.5966 H   0  0  0  0  0  0  0  0  0  0  0  0
  145.0737  132.6377  152.6621 H   0  0  0  0  0  0  0  0  0  0  0  0
  143.5622  133.4616  152.3641 H   0  0  0  0  0  0  0  0  0  0  0  0
  143.8562  131.6513  150.7250 H   0  0  0  0  0  0  0  0  0  0  0  0
  145.4190  132.2758  150.2347 H   0  0  0  0  0  0  0  0  0  0  0  0
  142.8585  133.6661  149.9698 H   0  0  0  0  0  0  0  0  0  0  0  0
  148.7108  143.1110  154.9011 H   0  0  0  0  0  0  0  0  0  0  0  0
  1  2  1  0  0  0  0
  1 19  1  0  0  0  0
  1 20  1  0  0  0  0
  1 21  1  0  0  0  0
  2 18  1  0  0  0  0
  2  3  1  0  0  0  0
  2 39  1  0  0  0  0
  3  4  1  0  0  0  0
  3 22  1  0  0  0  0
  3 23  1  0  0  0  0
  4  5  1  0  0  0  0
  4 24  1  0  0  0  0
  4 25  1  0  0  0  0
  5  6  1  0  0  0  0
  5 17  1  0  0  0  0
  5 26  1  0  0  0  0
  6  7  1  0  0  0  0
  6 27  1  0  0  0  0
  6 28  1  0  0  0  0
  7  8  1  0  0  0  0
  7 29  1  0  0  0  0
  8  9  2  0  0  0  0
  8 10  1  0  0  0  0
 10 11  1  0  0  0  0
 10 30  1  0  0  0  0
 11 16  1  0  0  0  0
 11 12  2  0  0  0  0
 12 13  1  0  0  0  0
 12 31  1  0  0  0  0
 13 14  2  0  0  0  0
 13 32  1  0  0  0  0
 14 15  1  0  0  0  0
 14 40  1  0  0  0  0
 15 16  2  0  0  0  0
 15 33  1  0  0  0  0
 16 34  1  0  0  0  0
 17 18  1  0  0  0  0
 17 35  1  0  0  0  0
 17 36  1  0  0  0  0
 18 37  1  0  0  0  0
 18 38  1  0  0  0  0
M  CHG  1   2   1
M  CHG  1  14   1
M  END
> <s_m_source_file>
AV-unprocessed.smi

> <i_m_source_file_index>
1621

> <i_lp_mmshare_version>
43012

> <i_f3d_flags>
0

> <s_epik_input>
W0NIM11OMVtDSDJdW0NIMl1bQ0hdKFtDSDJdW0NIMl0xKVtDSDJdW05IXUMoPU8pW05IXWMyW2NIXVtjSF1uW2NIXVtjSF0y

> <s_epik_cmdline>
J2VwaWtfcHl0aG9uJywgJy1waCcsICc3LjAnLCAnLXRuJywgJzgnLCAnLW1hJywgJzIwMCcsICctbWV0YWxfYmluZGluZycsICctaW1hZScsICc8aW5maWxlLm1hZT4nLCAnLW9tYWUnLCAnPG91dGZpbGUubWFlPic=

> <r_epik_Ionization_Penalty>
1.07214

> <r_epik_Ionization_Penalty_Charging>
1.07212

> <r_epik_Ionization_Penalty_Neutral>
1.90829e-05

> <r_epik_State_Penalty>
1.12559

> <r_epik_Charging_Adjusted_Penalty>
2.1977

> <i_epik_Tot_Q>
2

> <i_epik_Tot_abs_Q>
2

> <r_epik_Metal_State_Penalty>
1.21693

> <b_epik_Metal_Only>
0

> <s_lp_Force_Field>
OPLS_2005

> <r_lp_Energy>
28.1704

> <b_lp_Chiralities_Consistent>
1

> <s_lp_Variant>
AV-unprocessed.smi:1621-3

> <Gold.Version>
5.8.1

> <Gold.Id.Protein>
6NUR|6NUR_protein|mol2

> <Gold.PLP.Fitness>
47.7356

> <Gold.PLP.PLP>
-30.8764

> <Gold.PLP.part.hbond>
-4.0102

> <Gold.PLP.part.metal>
0.0000

> <Gold.PLP.part.buried>
0.5509

> <Gold.PLP.part.nonpolar>
-28.1904

> <Gold.PLP.part.repulsive>
0.9578

> <Gold.PLP.ligand.clash>
0.0000

> <Gold.PLP.ligand.torsion>
0.5479

> <Gold.PLP.Chemscore.Hbond>
5.9840

> <Gold.PLP.Chemscore.CHOScore>
0.0000

> <Gold.PLP.Chemscore.Metal>
0.0000

> <Gold.Chemscore.Hbonds>
donor molecule, donor type, donor heavy atom, donor atom, acceptor molecule, acceptor atom, score
      L1  H     2    39       P1 10186  1.78
      L1  H     7    29       P1  7948  1.00
      L1  H    10    30       P1  7948  1.00
      L1  H    14    40       P1  8028  2.00

> <Gold.PLP.Chemscore.Internal.Correction>
0.0031

> <Gold.Rescore>
     Score         DG    S(hbond)    S(metal)    S(lipo)     H(rot)  DE(clash)    DE(int)     intcor
     21.41     -25.15       3.88        0.00      85.10       1.26       1.95       1.79       ----

> <Gold.Chemscore.Fitness>
21.4084

> <Gold.Chemscore.DG>
-25.1454

> <Gold.Chemscore.ZeroCoef>
-5.4800

> <Gold.Chemscore.Hbond>
3.8759

> <Gold.Chemscore.Metal>
0.0000

> <Gold.Chemscore.Lipo>
85.0997

> <Gold.Chemscore.Internal_Hbond>
0.0000

> <Gold.Chemscore.DEClash>
1.9516

> <Gold.Chemscore.DEInternal>
1.7854

> <Gold.Chemscore.Rot>
1.2644

> <Gold.Chemscore.Internal.Correction>
   9.000000E+99

> <Gold.Chemscore.Hbonds>
donor molecule, donor type, donor heavy atom, donor atom, acceptor molecule, acceptor atom, score
      L1  H     2    39       P1 10186  0.80
      L1  H     7    29       P1  7948  0.97
      L1  H    10    30       P1  7948  0.93
      L1  H    14    40       P1  8028  1.00

> <Gold.Chemscore.Hbond.Weighted>
-12.9455

> <Gold.Chemscore.Metal.Weighted>
-0.0000

> <Gold.Chemscore.Lipo.Weighted>
-9.9567

> <Gold.Chemscore.Internal_Hbond.Weighted>
0.0000

> <Gold.Chemscore.DEClash.Weighted>
1.9516

> <Gold.Chemscore.DEInternal.Weighted>
1.7854

> <Gold.Chemscore.Rot.Weighted>
3.2368

> <Gold.Chemscore.Internal.Correction.Weighted>
   9.000000E+99

> <Gold.Protein.RotatedTorsions>
[ 6907 6896 6895 6894 ] final   70.34 input  -60.11 | X-H torsion
[ 7974 7965 7964 7962 ] final  133.82 input  175.53 | X-H torsion
[ 8008 7997 7996 7995 ] final -163.63 input   59.86 | X-H torsion
[ 10167 10162 10161 10158 ] final   87.38 input  -65.29 | X-H torsion
[ 10718 10713 10712 10709 ] final -107.01 input   66.30 | X-H torsion
[ 10763 10752 10751 10750 ] final  162.03 input  -60.55 | X-H torsion
[ 11005 11000 10999 10996 ] final -155.58 input  -57.11 | X-H torsion

> <Gold.Protein.ActiveResidues>
 VAL166  LYS551  ARG553  GLY616  TRP617  ASP618  TYR619  PRO620  LYS621  CYS622 
 ASP623  PHE694  ASN695  SER759  ASP760  ASP761  ALA762  ILE779  LEU786  VAL792 
 PHE793  MET794  SER795  GLU796  ALA797  LYS798  CYS799  TRP800  GLU811  SER814 

> <Gold.Protein.RotatedAtoms>
  152.4743  134.4882  159.9686 H   0  0  0  0  0  0  0  0  0  0  0  0  # atno 6907 bound_to 6896
  151.4902  133.3520  159.2860 H   0  0  0  0  0  0  0  0  0  0  0  0  # atno 6908 bound_to 6896
  150.8772  134.8184  159.7260 H   0  0  0  0  0  0  0  0  0  0  0  0  # atno 6909 bound_to 6896
  144.9826  139.4488  143.5379 H   0  0  0  0  0  0  0  0  0  0  0  0  # atno 7974 bound_to 7965
  155.8241  140.0924  157.1832 H   0  0  0  0  0  0  0  0  0  0  0  0  # atno 8008 bound_to 7997
  154.3979  140.1431  156.3595 H   0  0  0  0  0  0  0  0  0  0  0  0  # atno 8009 bound_to 7997
  155.8235  140.3445  155.5531 H   0  0  0  0  0  0  0  0  0  0  0  0  # atno 8010 bound_to 7997
  139.8780  144.6456  150.8875 H   0  0  0  0  0  0  0  0  0  0  0  0  # atno 10167 bound_to 10162
  156.0416  130.5641  150.7761 H   0  0  0  0  0  0  0  0  0  0  0  0  # atno 10718 bound_to 10713
  154.2721  135.2765  155.2734 H   0  0  0  0  0  0  0  0  0  0  0  0  # atno 10763 bound_to 10752
  154.5292  135.5734  153.6748 H   0  0  0  0  0  0  0  0  0  0  0  0  # atno 10764 bound_to 10752
  152.9943  135.6223  154.2876 H   0  0  0  0  0  0  0  0  0  0  0  0  # atno 10765 bound_to 10752
  140.6850  134.4104  157.5224 H   0  0  0  0  0  0  0  0  0  0  0  0  # atno 11005 bound_to 11000
  146.3412  139.9108  142.8780 LP  0  0  0  0  0  0  0  0  0  0  0  0  # atno 17320 bound_to 7965
  145.2399  141.0005  143.3942 LP  0  0  0  0  0  0  0  0  0  0  0  0  # atno 17321 bound_to 7965
  140.7749  143.3609  151.1830 LP  0  0  0  0  0  0  0  0  0  0  0  0  # atno 17342 bound_to 10162
  139.7222  143.9204  152.2990 LP  0  0  0  0  0  0  0  0  0  0  0  0  # atno 17343 bound_to 10162
  157.5241  131.0933  151.0040 LP  0  0  0  0  0  0  0  0  0  0  0  0  # atno 17370 bound_to 10713
  157.0363  130.5731  149.5350 LP  0  0  0  0  0  0  0  0  0  0  0  0  # atno 17371 bound_to 10713
  139.8940  134.8716  156.2196 LP  0  0  0  0  0  0  0  0  0  0  0  0  # atno 17394 bound_to 11000
  141.0287  133.7000  156.1393 LP  0  0  0  0  0  0  0  0  0  0  0  0  # atno 17395 bound_to 11000

$$$$
