#       Name:                AV-unprocessed.smi:1430
#       Creating user name   scv26
#       Creation time:       Fri Mar 27 05:48:05 2020


#       File generated by GOLD software.
#

@<TRIPOS>MOLECULE
AV-unprocessed.smi:1430
    54    55     1
SMALL
NO_CHARGES


@<TRIPOS>ATOM
      1 ****        -8.8367   0.0550  -0.8169 C.3            1 S1                 0.0000
      2 ****        -7.8573   1.0811  -0.6996 O.3            1 S1                 0.0000
      3 ****        -6.5327   0.7483  -0.8960 C.ar           1 S1                 0.0000
      4 ****        -5.5588   1.7595  -0.7772 C.ar           1 S1                 0.0000
      5 ****        -4.2043   1.4285  -0.9741 C.ar           1 S1                 0.0000
      6 ****        -3.8648   0.0884  -1.2782 C.ar           1 S1                 0.0000
      7 ****        -2.5412  -0.3717  -1.5164 N.am           1 S1                 0.0000
      8 ****        -1.3764   0.1966  -1.1598 C.2            1 S1                 0.0000
      9 ****        -1.2580   1.2418  -0.5205 O.2            1 S1                 0.0000
     10 ****        -0.3339  -0.5370  -1.5745 N.am           1 S1                 0.0000
     11 ****         1.0664  -0.2111  -1.3325 C.3            1 S1                 0.0000
     12 ****         1.4930  -0.6088   0.0928 C.3            1 S1                 0.0000
     13 ****         2.9119  -0.4199   0.3875 N.3            1 S1                 0.0000
     14 ****         3.2646  -1.0389   1.6590 C.3            1 S1                 0.0000
     15 ****         4.7626  -0.8890   1.9791 C.3            1 S1                 0.0000
     16 ****         5.1175  -1.4639   3.3543 C.3            1 S1                 0.0000
     17 ****         5.1113   0.4940   1.9743 O.3            1 S1                 0.0000
     18 ****         4.7782   1.2012   0.7786 C.3            1 S1                 0.0000
     19 ****         5.7331   0.8504  -0.3751 C.3            1 S1                 0.0000
     20 ****         3.2914   0.9912   0.4267 C.3            1 S1                 0.0000
     21 ****        -4.9163  -0.8449  -1.3882 C.ar           1 S1                 0.0000
     22 ****        -6.2162  -0.5347  -1.1999 N.ar           1 S1                 0.0000
     23 ****        -9.8250   0.4774  -0.6353 H              1 S1                 0.0000
     24 ****        -8.6753  -0.7362  -0.0833 H              1 S1                 0.0000
     25 ****        -8.8419  -0.3798  -1.8174 H              1 S1                 0.0000
     26 ****        -5.8461   2.7737  -0.5423 H              1 S1                 0.0000
     27 ****        -3.4629   2.2084  -0.9012 H              1 S1                 0.0000
     28 ****        -2.4734  -1.2705  -1.9711 H              1 S1                 0.0000
     29 ****        -0.5214  -1.3848  -2.0895 H              1 S1                 0.0000
     30 ****         1.6702  -0.7491  -2.0636 H              1 S1                 0.0000
     31 ****         1.2257   0.8518  -1.5173 H              1 S1                 0.0000
     32 ****         0.8924  -0.0648   0.8236 H              1 S1                 0.0000
     33 ****         1.2449  -1.6628   0.2276 H              1 S1                 0.0000
     34 ****         2.6736  -0.5946   2.4620 H              1 S1                 0.0000
     35 ****         3.0093  -2.0991   1.6355 H              1 S1                 0.0000
     36 ****         5.3507  -1.4140   1.2260 H              1 S1                 0.0000
     37 ****         4.8790  -2.5263   3.4095 H              1 S1                 0.0000
     38 ****         4.5693  -0.9551   4.1477 H              1 S1                 0.0000
     39 ****         6.1822  -1.3507   3.5601 H              1 S1                 0.0000
     40 ****         4.9233   2.2591   0.9988 H              1 S1                 0.0000
     41 ****         5.5367   1.4775  -1.2450 H              1 S1                 0.0000
     42 ****         5.6289  -0.1869  -0.6923 H              1 S1                 0.0000
     43 ****         6.7711   1.0081  -0.0816 H              1 S1                 0.0000
     44 ****         3.0861   1.4710  -0.5298 H              1 S1                 0.0000
     45 ****         2.6794   1.5086   1.1673 H              1 S1                 0.0000
     46 ****        -4.7092  -1.8771  -1.6309 H              1 S1                 0.0000
     47 ****        -7.9337   1.4589   0.2231 LP             1 S1                 0.0000
     48 ****        -8.0873   1.7875  -1.3691 LP             1 S1                 0.0000
     49 ****        -2.0719   1.7406  -0.2226 LP             1 S1                 0.0000
     50 ****        -0.3479   1.5921  -0.2991 LP             1 S1                 0.0000
     51 ****         3.4133  -0.8594  -0.3578 LP             1 S1                 0.0000
     52 ****         6.0995   0.5643   2.1102 LP             1 S1                 0.0000
     53 ****         4.6378   0.9351   2.7367 LP             1 S1                 0.0000
     54 ****        -6.9274  -1.2328  -1.2824 LP             1 S1                 0.0000
@<TRIPOS>BOND
    1    1    2 1     
    2    1   23 1     
    3    1   24 1     
    4    1   25 1     
    5    2    3 1     
    6    3   22 ar    
    7    3    4 ar    
    8    4    5 ar    
    9    4   26 1     
   10    5    6 ar    
   11    5   27 1     
   12    6    7 1     
   13    6   21 ar    
   14    7    8 am    
   15    7   28 1     
   16    8    9 2     
   17    8   10 am    
   18   10   11 1     
   19   10   29 1     
   20   11   12 1     
   21   11   30 1     
   22   11   31 1     
   23   12   13 1     
   24   12   32 1     
   25   12   33 1     
   26   13   20 1     
   27   13   14 1     
   28   14   15 1     
   29   14   34 1     
   30   14   35 1     
   31   15   16 1     
   32   15   17 1     
   33   15   36 1     
   34   16   37 1     
   35   16   38 1     
   36   16   39 1     
   37   17   18 1     
   38   18   19 1     
   39   18   20 1     
   40   18   40 1     
   41   19   41 1     
   42   19   42 1     
   43   19   43 1     
   44   20   44 1     
   45   20   45 1     
   46   21   22 ar    
   47   21   46 1     
   48    2   47 1     
   49    2   48 1     
   50    9   49 1     
   51    9   50 1     
   52   13   51 1     
   53   17   52 1     
   54   17   53 1     
   55   22   54 1     
@<TRIPOS>SUBSTRUCTURE
      1 S1             1
@<TRIPOS>SET
LONE_PAIRS      STATIC     ATOMS    <user>   **** ""
8 47 48 49 50 51 52 53 54
DONOR_HYDROGENS      STATIC     ATOMS    <user>   **** ""
2 28 29
ATOM$BLUE        STATIC     ATOMS    COLORGROUP SYSTEM
8 47 48 49 50 51 52 53 54
ATOM$RED        STATIC     ATOMS    COLORGROUP SYSTEM
2 28 29
