AV-unprocessed.smi:2976|AV-procd|sdf|11364|dock7
  -GOLD-   2272016283D 1   1.00000     0.00000
 Structure written by MMmdl.
 40 41  0  0  0  0  0  0  0  0  1 V2000
  153.1079  142.9434  160.0052 C   0  0  0  0  0  0  0  0  0  0  0  0
  153.1679  141.4923  159.4921 C   0  0  1  0  0  0  0  0  0  0  0  0
  153.9680  140.6284  160.4877 C   0  0  0  0  0  0  0  0  0  0  0  0
  154.0872  139.1745  160.0178 C   0  0  0  0  0  0  0  0  0  0  0  0
  152.7002  138.5654  159.7930 C   0  0  0  0  0  0  0  0  0  0  0  0
  151.8804  139.3930  158.7874 C   0  0  1  0  0  0  0  0  0  0  0  0
  150.5572  138.7825  158.6557 N   0  0  0  0  0  0  0  0  0  0  0  0
  150.2983  137.4680  158.5722 C   0  0  0  0  0  0  0  0  0  0  0  0
  151.1742  136.6019  158.5946 O   0  0  0  0  0  0  0  0  0  0  0  0
  148.8152  137.0930  158.4299 C   0  0  0  0  0  0  0  0  0  0  0  0
  148.4153  135.9349  159.2436 N   0  0  0  0  0  0  0  0  0  0  0  0
  148.5979  134.7160  158.6139 N   0  0  0  0  0  0  0  0  0  0  0  0
  148.3000  133.6287  159.2376 C   0  0  0  0  0  0  0  0  0  0  0  0
  147.7730  133.6326  160.5844 C   0  0  0  0  0  0  0  0  0  0  0  0
  147.3927  132.1411  161.3707 Cl  0  0  0  0  0  0  0  0  0  0  0  0
  147.5914  134.8330  161.1904 C   0  0  0  0  0  0  0  0  0  0  0  0
  146.9624  134.9184  162.8002 Cl  0  0  0  0  0  0  0  0  0  0  0  0
  147.9197  136.0934  160.5098 C   0  0  0  0  0  0  0  0  0  0  0  0
  147.7692  137.2020  161.0249 O   0  0  0  0  0  0  0  0  0  0  0  0
  151.7635  140.8811  159.2186 C   0  0  2  0  0  0  0  0  0  0  0  0
  150.9708  141.7009  158.1765 C   0  0  0  0  0  0  0  0  0  0  0  0
  152.4873  143.0226  160.8982 H   0  0  0  0  0  0  0  0  0  0  0  0
  152.7088  143.6254  159.2552 H   0  0  0  0  0  0  0  0  0  0  0  0
  154.1029  143.3087  160.2612 H   0  0  0  0  0  0  0  0  0  0  0  0
  153.7195  141.5022  158.5507 H   0  0  0  0  0  0  0  0  0  0  0  0
  154.9676  141.0439  160.6216 H   0  0  0  0  0  0  0  0  0  0  0  0
  153.4897  140.6559  161.4679 H   0  0  0  0  0  0  0  0  0  0  0  0
  154.6647  139.1305  159.0934 H   0  0  0  0  0  0  0  0  0  0  0  0
  154.6358  138.5887  160.7558 H   0  0  0  0  0  0  0  0  0  0  0  0
  152.8055  137.5400  159.4360 H   0  0  0  0  0  0  0  0  0  0  0  0
  152.1713  138.5081  160.7457 H   0  0  0  0  0  0  0  0  0  0  0  0
  152.4045  139.3632  157.8302 H   0  0  0  0  0  0  0  0  0  0  0  0
  149.7721  139.4165  158.6236 H   0  0  0  0  0  0  0  0  0  0  0  0
  148.2043  137.9618  158.6818 H   0  0  0  0  0  0  0  0  0  0  0  0
  148.6145  136.8933  157.3755 H   0  0  0  0  0  0  0  0  0  0  0  0
  148.4292  132.6465  158.7825 H   0  0  0  0  0  0  0  0  0  0  0  0
  151.2018  140.9116  160.1539 H   0  0  0  0  0  0  0  0  0  0  0  0
  151.5007  141.7463  157.2247 H   0  0  0  0  0  0  0  0  0  0  0  0
  150.7946  142.7221  158.5112 H   0  0  0  0  0  0  0  0  0  0  0  0
  149.9872  141.2726  157.9849 H   0  0  0  0  0  0  0  0  0  0  0  0
  1  2  1  0  0  0  0
  1 22  1  0  0  0  0
  1 23  1  0  0  0  0
  1 24  1  0  0  0  0
  2 20  1  0  0  0  0
  2  3  1  0  0  0  0
  2 25  1  0  0  0  0
  3  4  1  0  0  0  0
  3 26  1  0  0  0  0
  3 27  1  0  0  0  0
  4  5  1  0  0  0  0
  4 28  1  0  0  0  0
  4 29  1  0  0  0  0
  5  6  1  0  0  0  0
  5 30  1  0  0  0  0
  5 31  1  0  0  0  0
  6  7  1  0  0  0  0
  6 20  1  0  0  0  0
  6 32  1  0  0  0  0
  7  8  1  0  0  0  0
  7 33  1  0  0  0  0
  8  9  2  0  0  0  0
  8 10  1  0  0  0  0
 10 11  1  0  0  0  0
 10 34  1  0  0  0  0
 10 35  1  0  0  0  0
 11 18  1  0  0  0  0
 11 12  1  0  0  0  0
 12 13  2  0  0  0  0
 13 14  1  0  0  0  0
 13 36  1  0  0  0  0
 14 15  1  0  0  0  0
 14 16  2  0  0  0  0
 16 17  1  0  0  0  0
 16 18  1  0  0  0  0
 18 19  2  0  0  0  0
 20 21  1  0  0  0  0
 20 37  1  0  0  0  0
 21 38  1  0  0  0  0
 21 39  1  0  0  0  0
 21 40  1  0  0  0  0
M  END
> <s_m_source_file>
AV-unprocessed.smi

> <i_m_source_file_index>
2976

> <i_lp_mmshare_version>
43012

> <i_f3d_flags>
0

> <s_epik_input>
W0NIM11bQ0BASF0xW0NIMl1bQ0gyXVtDSDJdW0NASF0oW0NASF0xW0NIM10pW05IXUMoPU8pW0NIMl1uMm5bY0hdYyhDbCljKENsKWMyPU8=

> <s_epik_cmdline>
J2VwaWtfcHl0aG9uJywgJy1waCcsICc3LjAnLCAnLXRuJywgJzgnLCAnLW1hJywgJzIwMCcsICctbWV0YWxfYmluZGluZycsICctaW1hZScsICc8aW5maWxlLm1hZT4nLCAnLW9tYWUnLCAnPG91dGZpbGUubWFlPic=

> <r_lp_tautomer_probability>
1

> <r_epik_Ionization_Penalty>
1.90777e-08

> <r_epik_Ionization_Penalty_Charging>
3.07942e-11

> <r_epik_Ionization_Penalty_Neutral>
1.90469e-08

> <r_epik_State_Penalty>
-0

> <r_epik_Charging_Adjusted_Penalty>
3.07942e-11

> <i_epik_Tot_Q>
0

> <i_epik_Tot_abs_Q>
0

> <r_epik_Metal_State_Penalty>
-0

> <b_epik_Metal_Only>
0

> <s_lp_Force_Field>
OPLS_2005

> <r_lp_Energy>
26.9637

> <b_lp_Chiralities_Consistent>
1

> <s_lp_Variant>
AV-unprocessed.smi:2976-6

> <Gold.Version>
5.8.1

> <Gold.Id.Protein>
6NUR|6NUR_protein|mol2

> <Gold.PLP.Fitness>
45.4084

> <Gold.PLP.PLP>
-39.3708

> <Gold.PLP.part.hbond>
-3.3357

> <Gold.PLP.part.metal>
0.0000

> <Gold.PLP.part.buried>
-4.5836

> <Gold.PLP.part.nonpolar>
-31.4702

> <Gold.PLP.part.repulsive>
0.1642

> <Gold.PLP.ligand.clash>
0.0000

> <Gold.PLP.ligand.torsion>
0.8246

> <Gold.PLP.Chemscore.Hbond>
2.5600

> <Gold.PLP.Chemscore.CHOScore>
0.0000

> <Gold.PLP.Chemscore.Metal>
0.0000

> <Gold.Chemscore.Hbonds>
donor molecule, donor type, donor heavy atom, donor atom, acceptor molecule, acceptor atom, score
      P1  H  6896  6909       L1     9  0.80
      P1  H  6931  6943       L1    19  0.91
      P1  H  6934  6947       L1    19  0.85

> <Gold.PLP.Chemscore.Internal.Correction>
0.0070

> <Gold.Rescore>
     Score         DG    S(hbond)    S(metal)    S(lipo)     H(rot)  DE(clash)    DE(int)     intcor
     19.23     -21.65       2.61        0.00      96.20       1.49       0.03       2.39       ----

> <Gold.Chemscore.Fitness>
19.2279

> <Gold.Chemscore.DG>
-21.6499

> <Gold.Chemscore.ZeroCoef>
-5.4800

> <Gold.Chemscore.Hbond>
2.6108

> <Gold.Chemscore.Metal>
0.0000

> <Gold.Chemscore.Lipo>
96.2000

> <Gold.Chemscore.Internal_Hbond>
0.0000

> <Gold.Chemscore.DEClash>
0.0279

> <Gold.Chemscore.DEInternal>
2.3941

> <Gold.Chemscore.Rot>
1.4866

> <Gold.Chemscore.Internal.Correction>
   9.000000E+99

> <Gold.Chemscore.Hbonds>
donor molecule, donor type, donor heavy atom, donor atom, acceptor molecule, acceptor atom, score
      P1  H  6896  6909       L1     9  0.78
      P1  H  6931  6943       L1    19  0.88
      P1  H  6934  6947       L1    19  0.83

> <Gold.Chemscore.Hbond.Weighted>
-8.7201

> <Gold.Chemscore.Metal.Weighted>
-0.0000

> <Gold.Chemscore.Lipo.Weighted>
-11.2554

> <Gold.Chemscore.Internal_Hbond.Weighted>
0.0000

> <Gold.Chemscore.DEClash.Weighted>
0.0279

> <Gold.Chemscore.DEInternal.Weighted>
2.3941

> <Gold.Chemscore.Rot.Weighted>
3.8057

> <Gold.Chemscore.Internal.Correction.Weighted>
   9.000000E+99

> <Gold.Protein.RotatedTorsions>
[ 6907 6896 6895 6894 ] final   90.89 input  -60.11 | X-H torsion
[ 7974 7965 7964 7962 ] final -135.52 input  175.53 | X-H torsion
[ 8008 7997 7996 7995 ] final  -68.76 input   59.86 | X-H torsion
[ 10167 10162 10161 10158 ] final  154.80 input  -65.29 | X-H torsion
[ 10718 10713 10712 10709 ] final  -90.94 input   66.30 | X-H torsion
[ 10763 10752 10751 10750 ] final   74.89 input  -60.55 | X-H torsion
[ 11005 11000 10999 10996 ] final  111.14 input  -57.11 | X-H torsion

> <Gold.Protein.ActiveResidues>
 VAL166  LYS551  ARG553  GLY616  TRP617  ASP618  TYR619  PRO620  LYS621  CYS622 
 ASP623  PHE694  ASN695  SER759  ASP760  ASP761  ALA762  ILE779  LEU786  VAL792 
 PHE793  MET794  SER795  GLU796  ALA797  LYS798  CYS799  TRP800  GLU811  SER814 

> <Gold.Protein.RotatedAtoms>
  152.5447  134.1741  159.8608 H   0  0  0  0  0  0  0  0  0  0  0  0  # atno 6907 bound_to 6896
  151.1749  133.4754  159.2601 H   0  0  0  0  0  0  0  0  0  0  0  0  # atno 6908 bound_to 6896
  151.1237  135.0105  159.8606 H   0  0  0  0  0  0  0  0  0  0  0  0  # atno 6909 bound_to 6896
  144.9007  140.6767  143.5087 H   0  0  0  0  0  0  0  0  0  0  0  0  # atno 7974 bound_to 7965
  154.4890  140.0866  156.7552 H   0  0  0  0  0  0  0  0  0  0  0  0  # atno 8008 bound_to 7997
  155.4277  140.3448  155.4259 H   0  0  0  0  0  0  0  0  0  0  0  0  # atno 8009 bound_to 7997
  156.1303  140.1499  156.9063 H   0  0  0  0  0  0  0  0  0  0  0  0  # atno 8010 bound_to 7997
  139.4822  144.5154  151.7959 H   0  0  0  0  0  0  0  0  0  0  0  0  # atno 10167 bound_to 10162
  155.9990  130.4929  150.5399 H   0  0  0  0  0  0  0  0  0  0  0  0  # atno 10718 bound_to 10713
  153.0617  135.5009  154.8109 H   0  0  0  0  0  0  0  0  0  0  0  0  # atno 10763 bound_to 10752
  154.6893  135.2981  154.9505 H   0  0  0  0  0  0  0  0  0  0  0  0  # atno 10764 bound_to 10752
  154.0265  135.6735  153.4829 H   0  0  0  0  0  0  0  0  0  0  0  0  # atno 10765 bound_to 10752
  139.8897  134.9501  156.6387 H   0  0  0  0  0  0  0  0  0  0  0  0  # atno 11005 bound_to 11000
  145.3621  139.1679  143.4377 LP  0  0  0  0  0  0  0  0  0  0  0  0  # atno 17320 bound_to 7965
  146.3107  140.3684  142.8672 LP  0  0  0  0  0  0  0  0  0  0  0  0  # atno 17321 bound_to 7965
  140.4662  144.1651  150.5912 LP  0  0  0  0  0  0  0  0  0  0  0  0  # atno 17342 bound_to 10162
  140.4431  143.2518  151.9447 LP  0  0  0  0  0  0  0  0  0  0  0  0  # atno 17343 bound_to 10162
  157.3337  131.0704  151.1841 LP  0  0  0  0  0  0  0  0  0  0  0  0  # atno 17370 bound_to 10713
  157.2714  130.6706  149.6021 LP  0  0  0  0  0  0  0  0  0  0  0  0  # atno 17371 bound_to 10713
  140.7610  133.8817  155.8418 LP  0  0  0  0  0  0  0  0  0  0  0  0  # atno 17394 bound_to 11000
  140.9921  134.1264  157.4398 LP  0  0  0  0  0  0  0  0  0  0  0  0  # atno 17395 bound_to 11000

$$$$
