AV-unprocessed.smi:113|AV-procd|sdf|1092|dock2
  -GOLD-   2262018193D 1   1.00000     0.00000
 Structure written by MMmdl.
 52 55  0  0  0  0  0  0  0  0  1 V2000
  154.6853  137.2846  161.6514 C   0  0  0  0  0  0  0  0  0  0  0  0
  153.9432  138.3038  160.8122 C   0  0  0  0  0  0  0  0  0  0  0  0
  153.2199  137.9076  159.6733 C   0  0  0  0  0  0  0  0  0  0  0  0
  152.5442  138.8899  158.9133 C   0  0  0  0  0  0  0  0  0  0  0  0
  151.7438  138.5119  157.6619 C   0  0  0  0  0  0  0  0  0  0  0  0
  150.8043  137.4070  157.7925 N   0  0  0  0  0  0  0  0  0  0  0  0
  151.0305  136.2533  157.0048 C   0  0  0  0  0  0  0  0  0  0  0  0
  151.9833  136.1804  156.2256 O   0  0  0  0  0  0  0  0  0  0  0  0
  150.0666  135.1686  157.2009 C   0  0  0  0  0  0  0  0  0  0  0  0
  150.2304  133.9091  156.3640 C   0  0  0  0  0  0  0  0  0  0  0  0
  149.0676  135.3079  158.1062 C   0  0  0  0  0  0  0  0  0  0  0  0
  148.8861  136.4386  158.8909 N   0  0  0  0  0  0  0  0  0  0  0  0
  147.7980  136.5625  159.9418 C   0  0  1  0  0  0  0  0  0  0  0  0
  146.6743  135.5319  159.8681 C   0  0  0  0  0  0  0  0  0  0  0  0
  146.1006  135.6752  161.2628 C   0  0  1  0  0  0  0  0  0  0  0  0
  145.3703  134.5223  161.6332 O   0  0  0  0  0  0  0  0  0  0  0  0
  147.3501  135.9755  162.1237 C   0  0  1  0  0  0  0  0  0  0  0  0
  147.9045  134.8093  162.9644 C   0  0  0  0  0  0  0  0  0  0  0  0
  148.1599  133.6826  162.1514 O   0  0  0  0  0  0  0  0  0  0  0  0
  148.3693  136.3409  161.1918 O   0  0  0  0  0  0  0  0  0  0  0  0
  149.7643  137.5332  158.7401 C   0  0  0  0  0  0  0  0  0  0  0  0
  149.6288  138.5512  159.4239 O   0  0  0  0  0  0  0  0  0  0  0  0
  152.6306  140.2408  159.3457 C   0  0  0  0  0  0  0  0  0  0  0  0
  151.9801  141.2848  158.6443 C   0  0  0  0  0  0  0  0  0  0  0  0
  152.0802  142.6158  159.0873 C   0  0  0  0  0  0  0  0  0  0  0  0
  152.8318  142.9177  160.2347 C   0  0  0  0  0  0  0  0  0  0  0  0
  153.4799  141.8865  160.9380 C   0  0  0  0  0  0  0  0  0  0  0  0
  153.3924  140.5433  160.5131 C   0  0  0  0  0  0  0  0  0  0  0  0
  154.0298  139.5845  161.2206 N   0  0  0  0  0  0  0  0  0  0  0  0
  154.3122  136.2768  161.4653 H   0  0  0  0  0  0  0  0  0  0  0  0
  154.5660  137.4970  162.7144 H   0  0  0  0  0  0  0  0  0  0  0  0
  155.7491  137.3051  161.4132 H   0  0  0  0  0  0  0  0  0  0  0  0
  153.1943  136.8637  159.3998 H   0  0  0  0  0  0  0  0  0  0  0  0
  151.1858  139.3761  157.2984 H   0  0  0  0  0  0  0  0  0  0  0  0
  152.4199  138.2642  156.8420 H   0  0  0  0  0  0  0  0  0  0  0  0
  149.4635  133.1669  156.5872 H   0  0  0  0  0  0  0  0  0  0  0  0
  151.2012  133.4501  156.5547 H   0  0  0  0  0  0  0  0  0  0  0  0
  150.1659  134.1453  155.3013 H   0  0  0  0  0  0  0  0  0  0  0  0
  148.3814  134.4812  158.1897 H   0  0  0  0  0  0  0  0  0  0  0  0
  147.4244  137.5857  159.8585 H   0  0  0  0  0  0  0  0  0  0  0  0
  145.9702  135.7501  159.0645 H   0  0  0  0  0  0  0  0  0  0  0  0
  147.0854  134.5283  159.7537 H   0  0  0  0  0  0  0  0  0  0  0  0
  145.4311  136.5362  161.2891 H   0  0  0  0  0  0  0  0  0  0  0  0
  145.8111  133.7620  161.2849 H   0  0  0  0  0  0  0  0  0  0  0  0
  147.1574  136.8354  162.7667 H   0  0  0  0  0  0  0  0  0  0  0  0
  148.8071  135.1008  163.5027 H   0  0  0  0  0  0  0  0  0  0  0  0
  147.1707  134.5117  163.7142 H   0  0  0  0  0  0  0  0  0  0  0  0
  148.0039  133.9203  161.2500 H   0  0  0  0  0  0  0  0  0  0  0  0
  151.3950  141.0877  157.7591 H   0  0  0  0  0  0  0  0  0  0  0  0
  151.5800  143.4050  158.5453 H   0  0  0  0  0  0  0  0  0  0  0  0
  152.9115  143.9390  160.5766 H   0  0  0  0  0  0  0  0  0  0  0  0
  154.0542  142.1313  161.8197 H   0  0  0  0  0  0  0  0  0  0  0  0
  1  2  1  0  0  0  0
  1 30  1  0  0  0  0
  1 31  1  0  0  0  0
  1 32  1  0  0  0  0
  2 29  1  0  0  0  0
  2  3  2  0  0  0  0
  3  4  1  0  0  0  0
  3 33  1  0  0  0  0
  4  5  1  0  0  0  0
  4 23  2  0  0  0  0
  5  6  1  0  0  0  0
  5 34  1  0  0  0  0
  5 35  1  0  0  0  0
  6 21  1  0  0  0  0
  6  7  1  0  0  0  0
  7  8  2  0  0  0  0
  7  9  1  0  0  0  0
  9 10  1  0  0  0  0
  9 11  2  0  0  0  0
 10 36  1  0  0  0  0
 10 37  1  0  0  0  0
 10 38  1  0  0  0  0
 11 12  1  0  0  0  0
 11 39  1  0  0  0  0
 12 13  1  0  0  0  0
 12 21  1  0  0  0  0
 13 20  1  0  0  0  0
 13 14  1  0  0  0  0
 13 40  1  0  0  0  0
 14 15  1  0  0  0  0
 14 41  1  0  0  0  0
 14 42  1  0  0  0  0
 15 16  1  0  0  0  0
 15 17  1  0  0  0  0
 15 43  1  0  0  0  0
 16 44  1  0  0  0  0
 17 18  1  0  0  0  0
 17 20  1  0  0  0  0
 17 45  1  0  0  0  0
 18 19  1  0  0  0  0
 18 46  1  0  0  0  0
 18 47  1  0  0  0  0
 19 48  1  0  0  0  0
 21 22  2  0  0  0  0
 23 28  1  0  0  0  0
 23 24  1  0  0  0  0
 24 25  2  0  0  0  0
 24 49  1  0  0  0  0
 25 26  1  0  0  0  0
 25 50  1  0  0  0  0
 26 27  2  0  0  0  0
 26 51  1  0  0  0  0
 27 28  1  0  0  0  0
 27 52  1  0  0  0  0
 28 29  2  0  0  0  0
M  END
> <s_m_source_file>
AV-unprocessed.smi

> <i_m_source_file_index>
113

> <i_lp_mmshare_version>
43012

> <i_f3d_flags>
0

> <s_epik_input>
W2NIXTFbY0hdW2NIXVtjSF1jKGMxMiluYyhbQ0gzXSlbY0hdYzJbQ0gyXW4zYyg9TyljKFtDSDNdKVtjSF1uKGMzPU8pW0NAQEhdNFtDSDJdW0NAQEhdKFtPSF0pW0NASF0oTzQpW0NIMl1bT0hd

> <s_epik_cmdline>
J2VwaWtfcHl0aG9uJywgJy1waCcsICc3LjAnLCAnLXRuJywgJzgnLCAnLW1hJywgJzIwMCcsICctbWV0YWxfYmluZGluZycsICctaW1hZScsICc8aW5maWxlLm1hZT4nLCAnLW9tYWUnLCAnPG91dGZpbGUubWFlPic=

> <r_lp_tautomer_probability>
1

> <r_epik_Ionization_Penalty>
0.214728

> <r_epik_Ionization_Penalty_Charging>
3.04883e-08

> <r_epik_Ionization_Penalty_Neutral>
0.214728

> <r_epik_State_Penalty>
0.204913

> <r_epik_Charging_Adjusted_Penalty>
0.204913

> <i_epik_Tot_Q>
0

> <i_epik_Tot_abs_Q>
0

> <r_epik_Metal_State_Penalty>
0.000244761

> <b_epik_Metal_Only>
0

> <s_epik_Chemistry_Notes>
This compound contains an acetal/aminal-like group ( X-CH(R)-Y where X, Y are N, S, or O) that may be acid/base labile, releasing an aldehyde.

> <s_lp_Force_Field>
OPLS_2005

> <r_lp_Energy>
43.3088

> <b_lp_Chiralities_Consistent>
1

> <s_lp_Variant>
AV-unprocessed.smi:113-2

> <Gold.Version>
5.8.1

> <Gold.Id.Protein>
6NUR|6NUR_protein|mol2

> <Gold.PLP.Fitness>
48.8816

> <Gold.PLP.PLP>
-43.9573

> <Gold.PLP.part.hbond>
-4.3592

> <Gold.PLP.part.metal>
0.0000

> <Gold.PLP.part.buried>
-4.6833

> <Gold.PLP.part.nonpolar>
-35.7310

> <Gold.PLP.part.repulsive>
0.0058

> <Gold.PLP.ligand.clash>
0.0000

> <Gold.PLP.ligand.torsion>
0.5535

> <Gold.PLP.Chemscore.Hbond>
2.0000

> <Gold.PLP.Chemscore.CHOScore>
0.0000

> <Gold.PLP.Chemscore.Metal>
0.0000

> <Gold.Chemscore.Hbonds>
donor molecule, donor type, donor heavy atom, donor atom, acceptor molecule, acceptor atom, score
      P1  H  6931  6943       L1    20  0.73
      P1  H 10752 10763       L1     8  1.00

> <Gold.PLP.Chemscore.Internal.Correction>
0.0314

> <Gold.Rescore>
     Score         DG    S(hbond)    S(metal)    S(lipo)     H(rot)  DE(clash)    DE(int)     intcor
     14.73     -17.34       1.57        0.00     120.99       2.95       1.20       1.42       ----

> <Gold.Chemscore.Fitness>
14.7258

> <Gold.Chemscore.DG>
-17.3427

> <Gold.Chemscore.ZeroCoef>
-5.4800

> <Gold.Chemscore.Hbond>
1.5721

> <Gold.Chemscore.Metal>
0.0000

> <Gold.Chemscore.Lipo>
120.9898

> <Gold.Chemscore.Internal_Hbond>
0.0000

> <Gold.Chemscore.DEClash>
1.1985

> <Gold.Chemscore.DEInternal>
1.4184

> <Gold.Chemscore.Rot>
2.9469

> <Gold.Chemscore.Internal.Correction>
   9.000000E+99

> <Gold.Chemscore.Hbonds>
donor molecule, donor type, donor heavy atom, donor atom, acceptor molecule, acceptor atom, score
      P1  H  6931  6943       L1    20  0.20
      P1  H 10752 10763       L1     8  1.00

> <Gold.Chemscore.Hbond.Weighted>
-5.2508

> <Gold.Chemscore.Metal.Weighted>
-0.0000

> <Gold.Chemscore.Lipo.Weighted>
-14.1558

> <Gold.Chemscore.Internal_Hbond.Weighted>
0.0000

> <Gold.Chemscore.DEClash.Weighted>
1.1985

> <Gold.Chemscore.DEInternal.Weighted>
1.4184

> <Gold.Chemscore.Rot.Weighted>
7.5439

> <Gold.Chemscore.Internal.Correction.Weighted>
   9.000000E+99

> <Gold.Protein.RotatedTorsions>
[ 6907 6896 6895 6894 ] final   87.04 input  -60.11 | X-H torsion
[ 7974 7965 7964 7962 ] final  145.71 input  175.53 | X-H torsion
[ 8008 7997 7996 7995 ] final   74.49 input   59.86 | X-H torsion
[ 10167 10162 10161 10158 ] final  -68.53 input  -65.29 | X-H torsion
[ 10718 10713 10712 10709 ] final -147.01 input   66.30 | X-H torsion
[ 10763 10752 10751 10750 ] final   87.65 input  -60.55 | X-H torsion
[ 11005 11000 10999 10996 ] final  160.01 input  -57.11 | X-H torsion

> <Gold.Protein.ActiveResidues>
 VAL166  LYS551  ARG553  GLY616  TRP617  ASP618  TYR619  PRO620  LYS621  CYS622 
 ASP623  PHE694  ASN695  SER759  ASP760  ASP761  ALA762  ILE779  LEU786  VAL792 
 PHE793  MET794  SER795  GLU796  ALA797  LYS798  CYS799  TRP800  GLU811  SER814 

> <Gold.Protein.RotatedAtoms>
  152.5405  134.2338  159.8834 H   0  0  0  0  0  0  0  0  0  0  0  0  # atno 6907 bound_to 6896
  151.2308  133.4444  159.2611 H   0  0  0  0  0  0  0  0  0  0  0  0  # atno 6908 bound_to 6896
  151.0717  134.9816  159.8368 H   0  0  0  0  0  0  0  0  0  0  0  0  # atno 6909 bound_to 6896
  144.8730  139.5816  143.5878 H   0  0  0  0  0  0  0  0  0  0  0  0  # atno 7974 bound_to 7965
  155.7991  140.3477  155.5393 H   0  0  0  0  0  0  0  0  0  0  0  0  # atno 8008 bound_to 7997
  155.8556  140.0963  157.1667 H   0  0  0  0  0  0  0  0  0  0  0  0  # atno 8009 bound_to 7997
  154.4009  140.1368  156.3885 H   0  0  0  0  0  0  0  0  0  0  0  0  # atno 8010 bound_to 7997
  140.5500  143.2312  151.6929 H   0  0  0  0  0  0  0  0  0  0  0  0  # atno 10167 bound_to 10162
  156.4021  130.7939  151.2150 H   0  0  0  0  0  0  0  0  0  0  0  0  # atno 10718 bound_to 10713
  153.1690  135.4535  154.9876 H   0  0  0  0  0  0  0  0  0  0  0  0  # atno 10763 bound_to 10752
  154.7952  135.3235  154.7686 H   0  0  0  0  0  0  0  0  0  0  0  0  # atno 10764 bound_to 10752
  153.8165  135.6950  153.4888 H   0  0  0  0  0  0  0  0  0  0  0  0  # atno 10765 bound_to 10752
  140.2018  134.8332  157.3026 H   0  0  0  0  0  0  0  0  0  0  0  0  # atno 11005 bound_to 11000
  146.2943  139.7232  142.9138 LP  0  0  0  0  0  0  0  0  0  0  0  0  # atno 17320 bound_to 7965
  145.4095  141.0395  143.3025 LP  0  0  0  0  0  0  0  0  0  0  0  0  # atno 17321 bound_to 7965
  139.5023  144.3833  152.0354 LP  0  0  0  0  0  0  0  0  0  0  0  0  # atno 17342 bound_to 10162
  140.2949  144.3712  150.6077 LP  0  0  0  0  0  0  0  0  0  0  0  0  # atno 17343 bound_to 10162
  157.7504  131.0283  150.4046 LP  0  0  0  0  0  0  0  0  0  0  0  0  # atno 17370 bound_to 10713
  156.4327  130.3975  149.6749 LP  0  0  0  0  0  0  0  0  0  0  0  0  # atno 17371 bound_to 10713
  140.2046  134.4212  155.7644 LP  0  0  0  0  0  0  0  0  0  0  0  0  # atno 17394 bound_to 11000
  141.2227  133.7088  156.8240 LP  0  0  0  0  0  0  0  0  0  0  0  0  # atno 17395 bound_to 11000

$$$$
