AV-unprocessed.smi:3280|AV-procd|sdf|12552|dock3
  -GOLD-   2272018473D 1   1.00000     0.00000
 Structure written by MMmdl.
 39 40  0  0  0  0  0  0  0  0  2 V2000
  150.2577  135.0861  154.6770 C   0  0  0  0  0  0  0  0  0  0  0  0
  150.6787  135.9416  155.8815 C   0  0  0  0  0  0  0  0  0  0  0  0
  149.7351  135.7886  157.0836 C   0  0  0  0  0  0  0  0  0  0  0  0
  150.8658  137.3797  155.5053 C   0  0  0  0  0  0  0  0  0  0  0  0
  150.6957  137.7916  154.2539 N   0  0  0  0  0  0  0  0  0  0  0  0
  150.9828  139.1621  154.3195 O   0  0  0  0  0  0  0  0  0  0  0  0
  151.2780  139.4152  155.6164 C   0  0  0  0  0  0  0  0  0  0  0  0
  151.6818  140.7973  156.0066 C   0  0  0  0  0  0  0  0  0  0  0  0
  150.5262  141.5861  156.6351 C   0  0  0  0  0  0  0  0  0  0  0  0
  150.9473  142.9620  156.9751 N   0  3  0  0  0  0  0  0  0  0  0  0
  150.9966  143.2764  158.4211 C   0  0  2  0  0  0  0  0  0  0  0  0
  151.0577  144.8061  158.6031 C   0  0  0  0  0  0  0  0  0  0  0  0
  151.0200  145.2389  160.0778 C   0  0  0  0  0  0  0  0  0  0  0  0
  152.2072  144.6898  160.8797 C   0  0  0  0  0  0  0  0  0  0  0  0
  152.1971  142.8779  160.8978 S   0  0  0  0  0  0  0  0  0  0  0  0
  152.1934  142.5847  159.1080 C   0  0  0  0  0  0  0  0  0  0  0  0
  151.2435  138.3392  156.3970 N   0  0  0  0  0  0  0  0  0  0  0  0
  150.9840  135.1633  153.8672 H   0  0  0  0  0  0  0  0  0  0  0  0
  149.2885  135.3983  154.2869 H   0  0  0  0  0  0  0  0  0  0  0  0
  150.1807  134.0339  154.9522 H   0  0  0  0  0  0  0  0  0  0  0  0
  151.6502  135.5610  156.2021 H   0  0  0  0  0  0  0  0  0  0  0  0
  150.1026  136.3490  157.9439 H   0  0  0  0  0  0  0  0  0  0  0  0
  149.6478  134.7439  157.3832 H   0  0  0  0  0  0  0  0  0  0  0  0
  148.7336  136.1517  156.8513 H   0  0  0  0  0  0  0  0  0  0  0  0
  152.5168  140.7302  156.7054 H   0  0  0  0  0  0  0  0  0  0  0  0
  152.0539  141.3138  155.1206 H   0  0  0  0  0  0  0  0  0  0  0  0
  149.6874  141.6249  155.9385 H   0  0  0  0  0  0  0  0  0  0  0  0
  150.1793  141.0728  157.5320 H   0  0  0  0  0  0  0  0  0  0  0  0
  151.8539  143.1437  156.5682 H   0  0  0  0  0  0  0  0  0  0  0  0
  150.0699  142.9183  158.8725 H   0  0  0  0  0  0  0  0  0  0  0  0
  151.9594  145.2006  158.1323 H   0  0  0  0  0  0  0  0  0  0  0  0
  150.2173  145.2675  158.0829 H   0  0  0  0  0  0  0  0  0  0  0  0
  151.0250  146.3279  160.1321 H   0  0  0  0  0  0  0  0  0  0  0  0
  150.0844  144.9155  160.5358 H   0  0  0  0  0  0  0  0  0  0  0  0
  153.1494  145.0375  160.4547 H   0  0  0  0  0  0  0  0  0  0  0  0
  152.1679  145.0497  161.9081 H   0  0  0  0  0  0  0  0  0  0  0  0
  152.1660  141.5059  158.9593 H   0  0  0  0  0  0  0  0  0  0  0  0
  153.1355  142.9404  158.6892 H   0  0  0  0  0  0  0  0  0  0  0  0
  150.2774  143.5903  156.5545 H   0  0  0  0  0  0  0  0  0  0  0  0
  1  2  1  0  0  0  0
  1 18  1  0  0  0  0
  1 19  1  0  0  0  0
  1 20  1  0  0  0  0
  2  3  1  0  0  0  0
  2  4  1  0  0  0  0
  2 21  1  0  0  0  0
  3 22  1  0  0  0  0
  3 23  1  0  0  0  0
  3 24  1  0  0  0  0
  4 17  1  0  0  0  0
  4  5  2  0  0  0  0
  5  6  1  0  0  0  0
  6  7  1  0  0  0  0
  7  8  1  0  0  0  0
  7 17  2  0  0  0  0
  8  9  1  0  0  0  0
  8 25  1  0  0  0  0
  8 26  1  0  0  0  0
  9 10  1  0  0  0  0
  9 27  1  0  0  0  0
  9 28  1  0  0  0  0
 10 11  1  0  0  0  0
 10 29  1  0  0  0  0
 10 39  1  0  0  0  0
 11 16  1  0  0  0  0
 11 12  1  0  0  0  0
 11 30  1  0  0  0  0
 12 13  1  0  0  0  0
 12 31  1  0  0  0  0
 12 32  1  0  0  0  0
 13 14  1  0  0  0  0
 13 33  1  0  0  0  0
 13 34  1  0  0  0  0
 14 15  1  0  0  0  0
 14 35  1  0  0  0  0
 14 36  1  0  0  0  0
 15 16  1  0  0  0  0
 16 37  1  0  0  0  0
 16 38  1  0  0  0  0
M  CHG  1  10   1
M  END
> <s_m_source_file>
AV-unprocessed.smi

> <i_m_source_file_index>
3280

> <i_lp_mmshare_version>
43012

> <i_f3d_flags>
0

> <s_epik_input>
W0NIM11bQ0hdKFtDSDNdKWMxbm9jKG4xKVtDSDJdW0NIMl1bTkhdW0NAQEhdMltDSDJdW0NIMl1bQ0gyXVNbQ0gyXTI=

> <s_epik_cmdline>
J2VwaWtfcHl0aG9uJywgJy1waCcsICc3LjAnLCAnLXRuJywgJzgnLCAnLW1hJywgJzIwMCcsICctbWV0YWxfYmluZGluZycsICctaW1hZScsICc8aW5maWxlLm1hZT4nLCAnLW9tYWUnLCAnPG91dGZpbGUubWFlPic=

> <r_lp_tautomer_probability>
1

> <r_epik_Ionization_Penalty>
0.0103043

> <r_epik_Ionization_Penalty_Charging>
0.0103043

> <r_epik_Ionization_Penalty_Neutral>
2.61801e-13

> <r_epik_State_Penalty>
0.0078728

> <r_epik_Charging_Adjusted_Penalty>
0.0181771

> <i_epik_Tot_Q>
1

> <i_epik_Tot_abs_Q>
1

> <r_epik_Metal_State_Penalty>
0.0078728

> <b_epik_Metal_Only>
0

> <s_lp_Force_Field>
OPLS_2005

> <r_lp_Energy>
0.790669

> <b_lp_Chiralities_Consistent>
1

> <s_lp_Variant>
AV-unprocessed.smi:3280-1

> <Gold.Version>
5.8.1

> <Gold.Id.Protein>
6NUR|6NUR_protein|mol2

> <Gold.PLP.Fitness>
40.4076

> <Gold.PLP.PLP>
-32.9873

> <Gold.PLP.part.hbond>
-2.0000

> <Gold.PLP.part.metal>
0.0000

> <Gold.PLP.part.buried>
-5.8591

> <Gold.PLP.part.nonpolar>
-25.6806

> <Gold.PLP.part.repulsive>
0.4033

> <Gold.PLP.ligand.clash>
0.0000

> <Gold.PLP.ligand.torsion>
0.8370

> <Gold.PLP.Chemscore.Hbond>
3.0000

> <Gold.PLP.Chemscore.CHOScore>
0.0000

> <Gold.PLP.Chemscore.Metal>
0.0000

> <Gold.Chemscore.Hbonds>
donor molecule, donor type, donor heavy atom, donor atom, acceptor molecule, acceptor atom, score
      L1  H    10    39       P1  8028  2.00
      P1  H  7989  7998       L1     6  1.00

> <Gold.PLP.Chemscore.Internal.Correction>
0.0943

> <Gold.Rescore>
     Score         DG    S(hbond)    S(metal)    S(lipo)     H(rot)  DE(clash)    DE(int)     intcor
     16.15     -17.41       1.68        0.00      92.39       1.76       0.57       0.69       ----

> <Gold.Chemscore.Fitness>
16.1504

> <Gold.Chemscore.DG>
-17.4125

> <Gold.Chemscore.ZeroCoef>
-5.4800

> <Gold.Chemscore.Hbond>
1.6831

> <Gold.Chemscore.Metal>
0.0000

> <Gold.Chemscore.Lipo>
92.3880

> <Gold.Chemscore.Internal_Hbond>
0.0000

> <Gold.Chemscore.DEClash>
0.5719

> <Gold.Chemscore.DEInternal>
0.6902

> <Gold.Chemscore.Rot>
1.7572

> <Gold.Chemscore.Internal.Correction>
   9.000000E+99

> <Gold.Chemscore.Hbonds>
donor molecule, donor type, donor heavy atom, donor atom, acceptor molecule, acceptor atom, score
      L1  H    10    39       P1  8028  0.97
      P1  H  7989  7998       L1     6  0.25

> <Gold.Chemscore.Hbond.Weighted>
-5.6215

> <Gold.Chemscore.Metal.Weighted>
-0.0000

> <Gold.Chemscore.Lipo.Weighted>
-10.8094

> <Gold.Chemscore.Internal_Hbond.Weighted>
0.0000

> <Gold.Chemscore.DEClash.Weighted>
0.5719

> <Gold.Chemscore.DEInternal.Weighted>
0.6902

> <Gold.Chemscore.Rot.Weighted>
4.4984

> <Gold.Chemscore.Internal.Correction.Weighted>
   9.000000E+99

> <Gold.Protein.RotatedTorsions>
[ 6907 6896 6895 6894 ] final  -56.26 input  -60.11 | X-H torsion
[ 7974 7965 7964 7962 ] final  -25.22 input  175.53 | X-H torsion
[ 8008 7997 7996 7995 ] final  107.85 input   59.86 | X-H torsion
[ 10167 10162 10161 10158 ] final  -36.95 input  -65.29 | X-H torsion
[ 10718 10713 10712 10709 ] final   14.63 input   66.30 | X-H torsion
[ 10763 10752 10751 10750 ] final  166.36 input  -60.55 | X-H torsion
[ 11005 11000 10999 10996 ] final -167.71 input  -57.11 | X-H torsion

> <Gold.Protein.ActiveResidues>
 VAL166  LYS551  ARG553  GLY616  TRP617  ASP618  TYR619  PRO620  LYS621  CYS622 
 ASP623  PHE694  ASN695  SER759  ASP760  ASP761  ALA762  ILE779  LEU786  VAL792 
 PHE793  MET794  SER795  GLU796  ALA797  LYS798  CYS799  TRP800  GLU811  SER814 

> <Gold.Protein.RotatedAtoms>
  150.8182  134.7376  159.6748 H   0  0  0  0  0  0  0  0  0  0  0  0  # atno 6907 bound_to 6896
  152.4300  134.5793  159.9953 H   0  0  0  0  0  0  0  0  0  0  0  0  # atno 6908 bound_to 6896
  151.5984  133.3321  159.3078 H   0  0  0  0  0  0  0  0  0  0  0  0  # atno 6909 bound_to 6896
  146.1505  140.4858  142.8613 H   0  0  0  0  0  0  0  0  0  0  0  0  # atno 7974 bound_to 7965
  156.1857  140.3087  155.9233 H   0  0  0  0  0  0  0  0  0  0  0  0  # atno 8008 bound_to 7997
  155.3287  140.0459  157.3059 H   0  0  0  0  0  0  0  0  0  0  0  0  # atno 8009 bound_to 7997
  154.5392  140.2256  155.8679 H   0  0  0  0  0  0  0  0  0  0  0  0  # atno 8010 bound_to 7997
  140.7130  143.3374  151.2432 H   0  0  0  0  0  0  0  0  0  0  0  0  # atno 10167 bound_to 10162
  157.0419  130.6235  149.5752 H   0  0  0  0  0  0  0  0  0  0  0  0  # atno 10718 bound_to 10713
  154.3379  135.2754  155.2438 H   0  0  0  0  0  0  0  0  0  0  0  0  # atno 10763 bound_to 10752
  154.4722  135.5880  153.6333 H   0  0  0  0  0  0  0  0  0  0  0  0  # atno 10764 bound_to 10752
  152.9860  135.6091  154.3577 H   0  0  0  0  0  0  0  0  0  0  0  0  # atno 10765 bound_to 10752
  140.5502  134.5436  157.5120 H   0  0  0  0  0  0  0  0  0  0  0  0  # atno 11005 bound_to 11000
  144.7898  140.6009  143.6549 LP  0  0  0  0  0  0  0  0  0  0  0  0  # atno 17320 bound_to 7965
  145.4835  139.1493  143.3749 LP  0  0  0  0  0  0  0  0  0  0  0  0  # atno 17321 bound_to 7965
  139.6873  143.9752  152.2841 LP  0  0  0  0  0  0  0  0  0  0  0  0  # atno 17342 bound_to 10162
  139.9402  144.6686  150.8274 LP  0  0  0  0  0  0  0  0  0  0  0  0  # atno 17343 bound_to 10162
  156.0035  130.5118  150.7748 LP  0  0  0  0  0  0  0  0  0  0  0  0  # atno 17370 bound_to 10713
  157.5097  131.0924  151.0213 LP  0  0  0  0  0  0  0  0  0  0  0  0  # atno 17371 bound_to 10713
  139.9459  134.7703  156.0563 LP  0  0  0  0  0  0  0  0  0  0  0  0  # atno 17394 bound_to 11000
  141.1176  133.6623  156.3133 LP  0  0  0  0  0  0  0  0  0  0  0  0  # atno 17395 bound_to 11000

$$$$
