AV-unprocessed.smi:1060|AV-procd|sdf|4657|dock10
  -GOLD-   22720 3163D 1   1.00000     0.00000
 Structure written by MMmdl.
 37 38  0  0  0  0  0  0  0  0  1 V2000
  154.0792  141.9471  155.6095 O   0  0  0  0  0  0  0  0  0  0  0  0
  153.3629  140.9469  155.6050 C   0  0  0  0  0  0  0  0  0  0  0  0
  153.1633  140.1809  154.2978 C   0  0  0  0  0  0  0  0  0  0  0  0
  151.7748  140.0955  154.0164 O   0  0  0  0  0  0  0  0  0  0  0  0
  151.1913  141.3591  153.7481 C   0  0  0  0  0  0  0  0  0  0  0  0
  149.6648  141.2233  153.8050 C   0  0  1  0  0  0  0  0  0  0  0  0
  149.1004  141.2415  155.2242 C   0  0  0  0  0  0  0  0  0  0  0  0
  147.6799  141.6966  154.9797 C   0  0  0  0  0  0  0  0  0  0  0  0
  147.8684  142.7251  153.8681 C   0  0  0  0  0  0  0  0  0  0  0  0
  149.0412  142.3310  153.1592 O   0  0  0  0  0  0  0  0  0  0  0  0
  152.6894  140.4658  156.6690 N   0  0  0  0  0  0  0  0  0  0  0  0
  152.6783  140.9177  157.9994 C   0  0  0  0  0  0  0  0  0  0  0  0
  151.9348  141.9571  158.4612 C   0  0  0  0  0  0  0  0  0  0  0  0
  151.9801  142.3810  159.8507 C   0  0  0  0  0  0  0  0  0  0  0  0
  151.1862  143.5814  160.3433 C   0  0  0  0  0  0  0  0  0  0  0  0
  149.9729  143.6194  159.7910 F   0  0  0  0  0  0  0  0  0  0  0  0
  151.0416  143.5482  161.6682 F   0  0  0  0  0  0  0  0  0  0  0  0
  151.8230  144.7075  160.0240 F   0  0  0  0  0  0  0  0  0  0  0  0
  152.8231  141.7083  160.6558 C   0  0  0  0  0  0  0  0  0  0  0  0
  153.5906  140.6387  160.1893 N   0  0  0  0  0  0  0  0  0  0  0  0
  153.5801  140.1957  158.9122 C   0  0  0  0  0  0  0  0  0  0  0  0
  154.2918  139.2492  158.5774 O   0  0  0  0  0  0  0  0  0  0  0  0
  154.1925  140.1798  160.8577 H   0  0  0  0  0  0  0  0  0  0  0  0
  153.6866  140.7023  153.4948 H   0  0  0  0  0  0  0  0  0  0  0  0
  153.5940  139.1819  154.3857 H   0  0  0  0  0  0  0  0  0  0  0  0
  151.5254  142.0731  154.5026 H   0  0  0  0  0  0  0  0  0  0  0  0
  151.5065  141.7362  152.7739 H   0  0  0  0  0  0  0  0  0  0  0  0
  149.3451  140.3061  153.3076 H   0  0  0  0  0  0  0  0  0  0  0  0
  149.1606  140.2718  155.7190 H   0  0  0  0  0  0  0  0  0  0  0  0
  149.6257  141.9740  155.8387 H   0  0  0  0  0  0  0  0  0  0  0  0
  147.0761  140.8613  154.6219 H   0  0  0  0  0  0  0  0  0  0  0  0
  147.2007  142.1102  155.8675 H   0  0  0  0  0  0  0  0  0  0  0  0
  147.0040  142.7826  153.2063 H   0  0  0  0  0  0  0  0  0  0  0  0
  148.0379  143.7164  154.2899 H   0  0  0  0  0  0  0  0  0  0  0  0
  152.0826  139.6785  156.4885 H   0  0  0  0  0  0  0  0  0  0  0  0
  151.2917  142.5161  157.8016 H   0  0  0  0  0  0  0  0  0  0  0  0
  152.9776  141.9344  161.7005 H   0  0  0  0  0  0  0  0  0  0  0  0
  1  2  2  0  0  0  0
  2  3  1  0  0  0  0
  2 11  1  0  0  0  0
  3  4  1  0  0  0  0
  3 24  1  0  0  0  0
  3 25  1  0  0  0  0
  4  5  1  0  0  0  0
  5  6  1  0  0  0  0
  5 26  1  0  0  0  0
  5 27  1  0  0  0  0
  6 10  1  0  0  0  0
  6  7  1  0  0  0  0
  6 28  1  0  0  0  0
  7  8  1  0  0  0  0
  7 29  1  0  0  0  0
  7 30  1  0  0  0  0
  8  9  1  0  0  0  0
  8 31  1  0  0  0  0
  8 32  1  0  0  0  0
  9 10  1  0  0  0  0
  9 33  1  0  0  0  0
  9 34  1  0  0  0  0
 11 12  1  0  0  0  0
 11 35  1  0  0  0  0
 12 21  1  0  0  0  0
 12 13  2  0  0  0  0
 13 14  1  0  0  0  0
 13 36  1  0  0  0  0
 14 15  1  0  0  0  0
 14 19  2  0  0  0  0
 15 16  1  0  0  0  0
 15 17  1  0  0  0  0
 15 18  1  0  0  0  0
 19 20  1  0  0  0  0
 19 37  1  0  0  0  0
 20 23  1  0  0  0  0
 20 21  1  0  0  0  0
 21 22  2  0  0  0  0
M  END
> <s_m_source_file>
AV-unprocessed.smi

> <i_m_source_file_index>
1060

> <i_lp_mmshare_version>
43012

> <i_f3d_flags>
0

> <s_epik_input>
Tz1jMVtuSF1bY0hdYyhDKEYpKEYpRilbY0hdYzFbTkhdQyg9TylbQ0gyXU9bQ0gyXVtDQEBIXTJbQ0gyXVtDSDJdW0NIMl1PMg==

> <s_epik_cmdline>
J2VwaWtfcHl0aG9uJywgJy1waCcsICc3LjAnLCAnLXRuJywgJzgnLCAnLW1hJywgJzIwMCcsICctbWV0YWxfYmluZGluZycsICctaW1hZScsICc8aW5maWxlLm1hZT4nLCAnLW9tYWUnLCAnPG91dGZpbGUubWFlPic=

> <r_lp_tautomer_probability>
0.999

> <r_epik_Ionization_Penalty>
0.00950091

> <r_epik_Ionization_Penalty_Charging>
0.00950081

> <r_epik_Ionization_Penalty_Neutral>
1.00143e-07

> <r_epik_State_Penalty>
0.00721819

> <r_epik_Charging_Adjusted_Penalty>
0.016719

> <i_epik_Tot_Q>
0

> <i_epik_Tot_abs_Q>
0

> <r_epik_Metal_State_Penalty>
0.323303

> <b_epik_Metal_Only>
0

> <s_lp_Force_Field>
OPLS_2005

> <r_lp_Energy>
32.1884

> <b_lp_Chiralities_Consistent>
1

> <s_lp_Variant>
AV-unprocessed.smi:1060-2

> <Gold.Version>
5.8.1

> <Gold.Id.Protein>
6NUR|6NUR_protein|mol2

> <Gold.PLP.Fitness>
45.8236

> <Gold.PLP.PLP>
-45.0437

> <Gold.PLP.part.hbond>
-2.0000

> <Gold.PLP.part.metal>
0.0000

> <Gold.PLP.part.buried>
-4.4165

> <Gold.PLP.part.nonpolar>
-38.7828

> <Gold.PLP.part.repulsive>
0.5063

> <Gold.PLP.ligand.clash>
0.0000

> <Gold.PLP.ligand.torsion>
1.8983

> <Gold.PLP.Chemscore.Hbond>
1.4909

> <Gold.PLP.Chemscore.CHOScore>
0.0000

> <Gold.PLP.Chemscore.Metal>
0.0000

> <Gold.Chemscore.Hbonds>
donor molecule, donor type, donor heavy atom, donor atom, acceptor molecule, acceptor atom, score
      P1  H  7997  8008       L1    22  0.95

> <Gold.PLP.Chemscore.Internal.Correction>
0.1039

> <Gold.Rescore>
     Score         DG    S(hbond)    S(metal)    S(lipo)     H(rot)  DE(clash)    DE(int)     intcor
     12.45     -14.13       1.28        0.00      80.01       1.95       0.66       1.02       ----

> <Gold.Chemscore.Fitness>
12.4490

> <Gold.Chemscore.DG>
-14.1253

> <Gold.Chemscore.ZeroCoef>
-5.4800

> <Gold.Chemscore.Hbond>
1.2825

> <Gold.Chemscore.Metal>
0.0000

> <Gold.Chemscore.Lipo>
80.0069

> <Gold.Chemscore.Internal_Hbond>
0.0000

> <Gold.Chemscore.DEClash>
0.6610

> <Gold.Chemscore.DEInternal>
1.0154

> <Gold.Chemscore.Rot>
1.9527

> <Gold.Chemscore.Internal.Correction>
   9.000000E+99

> <Gold.Chemscore.Hbonds>
donor molecule, donor type, donor heavy atom, donor atom, acceptor molecule, acceptor atom, score
      P1  H  7997  8008       L1    22  0.21

> <Gold.Chemscore.Hbond.Weighted>
-4.2835

> <Gold.Chemscore.Metal.Weighted>
-0.0000

> <Gold.Chemscore.Lipo.Weighted>
-9.3608

> <Gold.Chemscore.Internal_Hbond.Weighted>
0.0000

> <Gold.Chemscore.DEClash.Weighted>
0.6610

> <Gold.Chemscore.DEInternal.Weighted>
1.0154

> <Gold.Chemscore.Rot.Weighted>
4.9990

> <Gold.Chemscore.Internal.Correction.Weighted>
   9.000000E+99

> <Gold.Protein.RotatedTorsions>
[ 6907 6896 6895 6894 ] final  -93.12 input  -60.11 | X-H torsion
[ 7974 7965 7964 7962 ] final -113.06 input  175.53 | X-H torsion
[ 8008 7997 7996 7995 ] final -124.44 input   59.86 | X-H torsion
[ 10167 10162 10161 10158 ] final  122.53 input  -65.29 | X-H torsion
[ 10718 10713 10712 10709 ] final   79.24 input   66.30 | X-H torsion
[ 10763 10752 10751 10750 ] final  -24.17 input  -60.55 | X-H torsion
[ 11005 11000 10999 10996 ] final   12.43 input  -57.11 | X-H torsion

> <Gold.Protein.ActiveResidues>
 VAL166  LYS551  ARG553  GLY616  TRP617  ASP618  TYR619  PRO620  LYS621  CYS622 
 ASP623  PHE694  ASN695  SER759  ASP760  ASP761  ALA762  ILE779  LEU786  VAL792 
 PHE793  MET794  SER795  GLU796  ALA797  LYS798  CYS799  TRP800  GLU811  SER814 

> <Gold.Protein.RotatedAtoms>
  150.6917  134.2016  159.4323 H   0  0  0  0  0  0  0  0  0  0  0  0  # atno 6907 bound_to 6896
  151.9982  134.9940  160.0573 H   0  0  0  0  0  0  0  0  0  0  0  0  # atno 6908 bound_to 6896
  152.1604  133.4543  159.4895 H   0  0  0  0  0  0  0  0  0  0  0  0  # atno 6909 bound_to 6896
  145.1365  140.8754  143.3727 H   0  0  0  0  0  0  0  0  0  0  0  0  # atno 7974 bound_to 7965
  155.1970  140.0415  157.2910 H   0  0  0  0  0  0  0  0  0  0  0  0  # atno 8008 bound_to 7997
  154.6100  140.2474  155.7652 H   0  0  0  0  0  0  0  0  0  0  0  0  # atno 8009 bound_to 7997
  156.2373  140.2916  156.0358 H   0  0  0  0  0  0  0  0  0  0  0  0  # atno 8010 bound_to 7997
  139.5853  144.7004  151.3424 H   0  0  0  0  0  0  0  0  0  0  0  0  # atno 10167 bound_to 10162
  157.6770  130.9905  150.1904 H   0  0  0  0  0  0  0  0  0  0  0  0  # atno 10718 bound_to 10713
  153.6795  135.6967  153.5122 H   0  0  0  0  0  0  0  0  0  0  0  0  # atno 10763 bound_to 10752
  153.2496  135.4279  155.0782 H   0  0  0  0  0  0  0  0  0  0  0  0  # atno 10764 bound_to 10752
  154.8404  135.3528  154.6338 H   0  0  0  0  0  0  0  0  0  0  0  0  # atno 10765 bound_to 10752
  140.4921  134.0830  155.7773 H   0  0  0  0  0  0  0  0  0  0  0  0  # atno 11005 bound_to 11000
  145.0579  139.3129  143.5895 LP  0  0  0  0  0  0  0  0  0  0  0  0  # atno 17320 bound_to 7965
  146.3509  140.0010  142.8676 LP  0  0  0  0  0  0  0  0  0  0  0  0  # atno 17321 bound_to 7965
  140.7126  143.7351  150.7595 LP  0  0  0  0  0  0  0  0  0  0  0  0  # atno 17342 bound_to 10162
  140.0894  143.4892  152.2487 LP  0  0  0  0  0  0  0  0  0  0  0  0  # atno 17343 bound_to 10162
  156.2616  130.3711  149.8124 LP  0  0  0  0  0  0  0  0  0  0  0  0  # atno 17370 bound_to 10713
  156.5867  130.8489  151.3397 LP  0  0  0  0  0  0  0  0  0  0  0  0  # atno 17371 bound_to 10713
  141.1479  133.9022  157.2171 LP  0  0  0  0  0  0  0  0  0  0  0  0  # atno 17394 bound_to 11000
  139.9763  135.0113  156.9640 LP  0  0  0  0  0  0  0  0  0  0  0  0  # atno 17395 bound_to 11000

$$$$
