AV-unprocessed.smi:2356|AV-procd|sdf|9397|dock7
  -GOLD-   2272013 33D 1   1.00000     0.00000
 Structure written by MMmdl.
 54 57  0  0  0  0  0  0  0  0  2 V2000
  149.2064  141.3492  154.4478 C   0  0  0  0  0  0  0  0  0  0  0  0
  150.0203  141.0959  155.7045 C   0  0  0  0  0  0  0  0  0  0  0  0
  150.3097  142.1613  156.4841 N   0  3  0  0  0  0  0  0  0  0  0  0
  151.0181  142.0879  157.6364 C   0  0  0  0  0  0  0  0  0  0  0  0
  151.2533  143.2729  158.3630 N   0  0  0  0  0  0  0  0  0  0  0  0
  151.8846  143.1889  159.6696 C   0  0  0  0  0  0  0  0  0  0  0  0
  152.1980  144.6331  160.0693 C   0  0  0  0  0  0  0  0  0  0  0  0
  152.1391  145.4422  158.7665 C   0  0  0  0  0  0  0  0  0  0  0  0
  151.7875  144.4323  157.6702 C   0  0  0  0  0  0  0  0  0  0  0  0
  151.4927  140.8221  158.0527 C   0  0  0  0  0  0  0  0  0  0  0  0
  151.2182  139.6795  157.2747 C   0  0  0  0  0  0  0  0  0  0  0  0
  150.4782  139.8092  156.0736 C   0  0  0  0  0  0  0  0  0  0  0  0
  150.1358  138.7097  155.2395 N   0  0  0  0  0  0  0  0  0  0  0  0
  149.7983  137.4513  155.5820 C   0  0  0  0  0  0  0  0  0  0  0  0
  149.7433  137.0300  156.7350 O   0  0  0  0  0  0  0  0  0  0  0  0
  149.5356  136.6505  154.5331 N   0  0  0  0  0  0  0  0  0  0  0  0
  149.1431  135.2391  154.5470 C   0  0  2  0  0  0  0  0  0  0  0  0
  147.7239  135.0998  155.1130 C   0  0  0  0  0  0  0  0  0  0  0  0
  147.3349  133.6189  155.2398 C   0  0  0  0  0  0  0  0  0  0  0  0
  148.2806  132.9237  156.0497 O   0  0  0  0  0  0  0  0  0  0  0  0
  149.6285  132.9532  155.5769 C   0  0  1  0  0  0  0  0  0  0  0  0
  149.8094  132.1093  154.3222 C   0  0  0  0  0  0  0  0  0  0  0  0
  148.6413  131.3580  153.7284 C   0  0  0  0  0  0  0  0  0  0  0  0
  149.7669  130.6008  154.3920 C   0  0  0  0  0  0  0  0  0  0  0  0
  150.1109  134.4072  155.4090 C   0  0  0  0  0  0  0  0  0  0  0  0
  148.2916  140.7559  154.4597 H   0  0  0  0  0  0  0  0  0  0  0  0
  149.7810  141.0771  153.5621 H   0  0  0  0  0  0  0  0  0  0  0  0
  148.9260  142.3992  154.3589 H   0  0  0  0  0  0  0  0  0  0  0  0
  151.2323  142.7076  160.3991 H   0  0  0  0  0  0  0  0  0  0  0  0
  152.8037  142.6058  159.5939 H   0  0  0  0  0  0  0  0  0  0  0  0
  151.4481  145.0027  160.7697 H   0  0  0  0  0  0  0  0  0  0  0  0
  153.1701  144.7095  160.5577 H   0  0  0  0  0  0  0  0  0  0  0  0
  151.3639  146.2059  158.8400 H   0  0  0  0  0  0  0  0  0  0  0  0
  153.0809  145.9487  158.5537 H   0  0  0  0  0  0  0  0  0  0  0  0
  152.6803  144.1452  157.1125 H   0  0  0  0  0  0  0  0  0  0  0  0
  151.0636  144.8503  156.9701 H   0  0  0  0  0  0  0  0  0  0  0  0
  152.0629  140.7084  158.9626 H   0  0  0  0  0  0  0  0  0  0  0  0
  151.5717  138.7235  157.6275 H   0  0  0  0  0  0  0  0  0  0  0  0
  150.2140  138.8829  154.2480 H   0  0  0  0  0  0  0  0  0  0  0  0
  149.6177  137.0704  153.6182 H   0  0  0  0  0  0  0  0  0  0  0  0
  149.1332  134.8543  153.5260 H   0  0  0  0  0  0  0  0  0  0  0  0
  147.6653  135.5710  156.0953 H   0  0  0  0  0  0  0  0  0  0  0  0
  147.0079  135.6182  154.4741 H   0  0  0  0  0  0  0  0  0  0  0  0
  146.3530  133.5325  155.7049 H   0  0  0  0  0  0  0  0  0  0  0  0
  147.2527  133.1529  154.2578 H   0  0  0  0  0  0  0  0  0  0  0  0
  150.2317  132.4941  156.3612 H   0  0  0  0  0  0  0  0  0  0  0  0
  150.5145  132.5186  153.6024 H   0  0  0  0  0  0  0  0  0  0  0  0
  147.6891  131.4038  154.2531 H   0  0  0  0  0  0  0  0  0  0  0  0
  148.5736  131.3130  152.6434 H   0  0  0  0  0  0  0  0  0  0  0  0
  150.4489  130.0489  153.7483 H   0  0  0  0  0  0  0  0  0  0  0  0
  149.5635  130.1423  155.3577 H   0  0  0  0  0  0  0  0  0  0  0  0
  151.1167  134.4190  154.9880 H   0  0  0  0  0  0  0  0  0  0  0  0
  150.1903  134.8635  156.3967 H   0  0  0  0  0  0  0  0  0  0  0  0
  149.9706  143.0764  156.1877 H   0  0  0  0  0  0  0  0  0  0  0  0
  1  2  1  0  0  0  0
  1 26  1  0  0  0  0
  1 27  1  0  0  0  0
  1 28  1  0  0  0  0
  2 12  1  0  0  0  0
  2  3  2  0  0  0  0
  3  4  1  0  0  0  0
  3 54  1  0  0  0  0
  4  5  1  0  0  0  0
  4 10  2  0  0  0  0
  5  9  1  0  0  0  0
  5  6  1  0  0  0  0
  6  7  1  0  0  0  0
  6 29  1  0  0  0  0
  6 30  1  0  0  0  0
  7  8  1  0  0  0  0
  7 31  1  0  0  0  0
  7 32  1  0  0  0  0
  8  9  1  0  0  0  0
  8 33  1  0  0  0  0
  8 34  1  0  0  0  0
  9 35  1  0  0  0  0
  9 36  1  0  0  0  0
 10 11  1  0  0  0  0
 10 37  1  0  0  0  0
 11 12  2  0  0  0  0
 11 38  1  0  0  0  0
 12 13  1  0  0  0  0
 13 14  1  0  0  0  0
 13 39  1  0  0  0  0
 14 15  2  0  0  0  0
 14 16  1  0  0  0  0
 16 17  1  0  0  0  0
 16 40  1  0  0  0  0
 17 25  1  0  0  0  0
 17 18  1  0  0  0  0
 17 41  1  0  0  0  0
 18 19  1  0  0  0  0
 18 42  1  0  0  0  0
 18 43  1  0  0  0  0
 19 20  1  0  0  0  0
 19 44  1  0  0  0  0
 19 45  1  0  0  0  0
 20 21  1  0  0  0  0
 21 22  1  0  0  0  0
 21 25  1  0  0  0  0
 21 46  1  0  0  0  0
 22 24  1  0  0  0  0
 22 23  1  0  0  0  0
 22 47  1  0  0  0  0
 23 24  1  0  0  0  0
 23 48  1  0  0  0  0
 23 49  1  0  0  0  0
 24 50  1  0  0  0  0
 24 51  1  0  0  0  0
 25 52  1  0  0  0  0
 25 53  1  0  0  0  0
M  CHG  1   3   1
M  END
> <s_m_source_file>
AV-unprocessed.smi

> <i_m_source_file_index>
2356

> <i_lp_mmshare_version>
43012

> <i_f3d_flags>
0

> <s_epik_input>
W0NIMl0xW0NIMl1bQ0gyXVtDSDJdTjFjKG5jMltDSDNdKVtjSF1bY0hdYzJbTkhdQyg9TylbTkhdW0NAQEhdM1tDSDJdW0NIMl1PW0NASF0oW0NIMl0zKVtDSF00W0NIMl1bQ0gyXTQ=

> <s_epik_cmdline>
J2VwaWtfcHl0aG9uJywgJy1waCcsICc3LjAnLCAnLXRuJywgJzgnLCAnLW1hJywgJzIwMCcsICctbWV0YWxfYmluZGluZycsICctaW1hZScsICc8aW5maWxlLm1hZT4nLCAnLW9tYWUnLCAnPG91dGZpbGUubWFlPic=

> <r_lp_tautomer_probability>
0.999994

> <r_epik_Ionization_Penalty>
0.534681

> <r_epik_Ionization_Penalty_Charging>
0.534661

> <r_epik_Ionization_Penalty_Neutral>
1.99132e-05

> <r_epik_State_Penalty>
0.543738

> <r_epik_Charging_Adjusted_Penalty>
1.0784

> <i_epik_Tot_Q>
1

> <i_epik_Tot_abs_Q>
1

> <r_epik_Metal_State_Penalty>
0.74699

> <b_epik_Metal_Only>
0

> <s_lp_Force_Field>
OPLS_2005

> <r_lp_Energy>
60.0457

> <b_lp_Chiralities_Consistent>
1

> <s_lp_Variant>
AV-unprocessed.smi:2356-5

> <Gold.Version>
5.8.1

> <Gold.Id.Protein>
6NUR|6NUR_protein|mol2

> <Gold.PLP.Fitness>
47.8323

> <Gold.PLP.PLP>
-41.6139

> <Gold.PLP.part.hbond>
-1.9649

> <Gold.PLP.part.metal>
0.0000

> <Gold.PLP.part.buried>
-2.6456

> <Gold.PLP.part.nonpolar>
-36.4608

> <Gold.PLP.part.repulsive>
0.2231

> <Gold.PLP.ligand.clash>
0.0000

> <Gold.PLP.ligand.torsion>
1.3277

> <Gold.PLP.Chemscore.Hbond>
2.5105

> <Gold.PLP.Chemscore.CHOScore>
0.0000

> <Gold.PLP.Chemscore.Metal>
0.0000

> <Gold.Chemscore.Hbonds>
donor molecule, donor type, donor heavy atom, donor atom, acceptor molecule, acceptor atom, score
      L1  H     3    54       P1  8028  1.95
      L1  H    16    40       P1  7948  0.53

> <Gold.PLP.Chemscore.Internal.Correction>
1.3423

> <Gold.Rescore>
     Score         DG    S(hbond)    S(metal)    S(lipo)     H(rot)  DE(clash)    DE(int)     intcor
     16.75     -20.04       1.45        0.00     111.60       1.31       0.05       3.24       ----

> <Gold.Chemscore.Fitness>
16.7510

> <Gold.Chemscore.DG>
-20.0416

> <Gold.Chemscore.ZeroCoef>
-5.4800

> <Gold.Chemscore.Hbond>
1.4513

> <Gold.Chemscore.Metal>
0.0000

> <Gold.Chemscore.Lipo>
111.6033

> <Gold.Chemscore.Internal_Hbond>
0.0000

> <Gold.Chemscore.DEClash>
0.0458

> <Gold.Chemscore.DEInternal>
3.2447

> <Gold.Chemscore.Rot>
1.3060

> <Gold.Chemscore.Internal.Correction>
   9.000000E+99

> <Gold.Chemscore.Hbonds>
donor molecule, donor type, donor heavy atom, donor atom, acceptor molecule, acceptor atom, score
      L1  H     3    54       P1  8028  0.92
      L1  H    16    40       P1  7948  0.40

> <Gold.Chemscore.Hbond.Weighted>
-4.8473

> <Gold.Chemscore.Metal.Weighted>
-0.0000

> <Gold.Chemscore.Lipo.Weighted>
-13.0576

> <Gold.Chemscore.Internal_Hbond.Weighted>
0.0000

> <Gold.Chemscore.DEClash.Weighted>
0.0458

> <Gold.Chemscore.DEInternal.Weighted>
3.2447

> <Gold.Chemscore.Rot.Weighted>
3.3433

> <Gold.Chemscore.Internal.Correction.Weighted>
   9.000000E+99

> <Gold.Protein.RotatedTorsions>
[ 6907 6896 6895 6894 ] final  -20.93 input  -60.11 | X-H torsion
[ 7974 7965 7964 7962 ] final  -96.15 input  175.53 | X-H torsion
[ 8008 7997 7996 7995 ] final -126.71 input   59.86 | X-H torsion
[ 10167 10162 10161 10158 ] final  114.75 input  -65.29 | X-H torsion
[ 10718 10713 10712 10709 ] final  112.28 input   66.30 | X-H torsion
[ 10763 10752 10751 10750 ] final  149.58 input  -60.55 | X-H torsion
[ 11005 11000 10999 10996 ] final   44.60 input  -57.11 | X-H torsion

> <Gold.Protein.ActiveResidues>
 VAL166  LYS551  ARG553  GLY616  TRP617  ASP618  TYR619  PRO620  LYS621  CYS622 
 ASP623  PHE694  ASN695  SER759  ASP760  ASP761  ALA762  ILE779  LEU786  VAL792 
 PHE793  MET794  SER795  GLU796  ALA797  LYS798  CYS799  TRP800  GLU811  SER814 

> <Gold.Protein.RotatedAtoms>
  151.2408  135.0588  159.9023 H   0  0  0  0  0  0  0  0  0  0  0  0  # atno 6907 bound_to 6896
  152.5393  134.0436  159.8089 H   0  0  0  0  0  0  0  0  0  0  0  0  # atno 6908 bound_to 6896
  151.0630  133.5480  159.2664 H   0  0  0  0  0  0  0  0  0  0  0  0  # atno 6909 bound_to 6896
  145.3507  140.9476  143.2556 H   0  0  0  0  0  0  0  0  0  0  0  0  # atno 7974 bound_to 7965
  155.2341  140.0426  157.2966 H   0  0  0  0  0  0  0  0  0  0  0  0  # atno 8008 bound_to 7997
  154.5869  140.2416  155.7944 H   0  0  0  0  0  0  0  0  0  0  0  0  # atno 8009 bound_to 7997
  156.2233  140.2963  156.0013 H   0  0  0  0  0  0  0  0  0  0  0  0  # atno 8010 bound_to 7997
  139.6366  144.7120  151.2322 H   0  0  0  0  0  0  0  0  0  0  0  0  # atno 10167 bound_to 10162
  157.6401  131.0965  150.6872 H   0  0  0  0  0  0  0  0  0  0  0  0  # atno 10718 bound_to 10713
  154.0735  135.2865  155.3304 H   0  0  0  0  0  0  0  0  0  0  0  0  # atno 10763 bound_to 10752
  154.6731  135.5292  153.8167 H   0  0  0  0  0  0  0  0  0  0  0  0  # atno 10764 bound_to 10752
  153.0476  135.6562  154.0915 H   0  0  0  0  0  0  0  0  0  0  0  0  # atno 10765 bound_to 10752
  140.1537  134.4429  155.8364 H   0  0  0  0  0  0  0  0  0  0  0  0  # atno 11005 bound_to 11000
  144.8720  139.5025  143.6763 LP  0  0  0  0  0  0  0  0  0  0  0  0  # atno 17320 bound_to 7965
  146.2969  139.7305  142.9120 LP  0  0  0  0  0  0  0  0  0  0  0  0  # atno 17321 bound_to 7965
  140.7469  143.6385  150.8357 LP  0  0  0  0  0  0  0  0  0  0  0  0  # atno 17342 bound_to 10162
  140.0017  143.5737  152.2873 LP  0  0  0  0  0  0  0  0  0  0  0  0  # atno 17343 bound_to 10162
  156.7197  130.4677  149.5526 LP  0  0  0  0  0  0  0  0  0  0  0  0  # atno 17370 bound_to 10713
  156.1673  130.6414  151.0794 LP  0  0  0  0  0  0  0  0  0  0  0  0  # atno 17371 bound_to 10713
  141.2202  133.6883  156.7467 LP  0  0  0  0  0  0  0  0  0  0  0  0  # atno 17394 bound_to 11000
  140.2574  134.8493  157.3726 LP  0  0  0  0  0  0  0  0  0  0  0  0  # atno 17395 bound_to 11000

$$$$
