AV-unprocessed.smi:2035|AV-procd|sdf|8271|dock9
  -GOLD-   2272010543D 1   1.00000     0.00000
 Structure written by MMmdl.
 35 36  0  0  0  0  0  0  0  0  2 V2000
  149.7795  140.6306  157.0771 O   0  0  0  0  0  0  0  0  0  0  0  0
  149.6295  141.7021  156.4901 C   0  0  0  0  0  0  0  0  0  0  0  0
  150.2048  142.8649  156.8421 N   0  0  0  0  0  0  0  0  0  0  0  0
  151.0890  143.1137  157.9263 C   0  0  0  0  0  0  0  0  0  0  0  0
  151.6591  141.9981  158.5786 C   0  0  0  0  0  0  0  0  0  0  0  0
  152.5504  142.2011  159.6519 C   0  0  0  0  0  0  0  0  0  0  0  0
  152.8610  143.4567  160.0397 N   0  3  0  0  0  0  0  0  0  0  0  0
  152.3553  144.5537  159.4359 C   0  0  0  0  0  0  0  0  0  0  0  0
  151.4582  144.4132  158.3573 C   0  0  0  0  0  0  0  0  0  0  0  0
  148.8788  141.8452  155.3885 N   0  0  0  0  0  0  0  0  0  0  0  0
  148.1288  140.7800  154.7227 C   0  0  2  0  0  0  0  0  0  0  0  0
  146.9983  140.2522  155.6438 C   0  0  0  0  0  0  0  0  0  0  0  0
  146.5227  138.8090  155.3763 C   0  0  0  0  0  0  0  0  0  0  0  0
  146.0971  138.5088  153.9248 C   0  0  0  0  0  0  0  0  0  0  0  0
  147.1363  138.8125  152.8191 C   0  0  0  0  0  0  0  0  0  0  0  0
  148.5248  138.8137  153.2783 N   0  0  0  0  0  0  0  0  0  0  0  0
  149.0593  139.7018  154.1343 C   0  0  0  0  0  0  0  0  0  0  0  0
  150.2452  139.6487  154.4577 O   0  0  0  0  0  0  0  0  0  0  0  0
  150.0562  143.6409  156.2136 H   0  0  0  0  0  0  0  0  0  0  0  0
  151.4109  140.9935  158.2674 H   0  0  0  0  0  0  0  0  0  0  0  0
  153.0212  141.4027  160.2067 H   0  0  0  0  0  0  0  0  0  0  0  0
  152.6855  145.5051  159.8269 H   0  0  0  0  0  0  0  0  0  0  0  0
  151.0798  145.3018  157.8749 H   0  0  0  0  0  0  0  0  0  0  0  0
  148.8089  142.7633  154.9739 H   0  0  0  0  0  0  0  0  0  0  0  0
  147.6538  141.2436  153.8571 H   0  0  0  0  0  0  0  0  0  0  0  0
  147.3281  140.2989  156.6827 H   0  0  0  0  0  0  0  0  0  0  0  0
  146.1452  140.9285  155.5775 H   0  0  0  0  0  0  0  0  0  0  0  0
  147.3044  138.1092  155.6745 H   0  0  0  0  0  0  0  0  0  0  0  0
  145.6837  138.5915  156.0378 H   0  0  0  0  0  0  0  0  0  0  0  0
  145.8389  137.4506  153.8715 H   0  0  0  0  0  0  0  0  0  0  0  0
  145.1746  139.0438  153.6976 H   0  0  0  0  0  0  0  0  0  0  0  0
  147.0395  138.0788  152.0185 H   0  0  0  0  0  0  0  0  0  0  0  0
  146.9151  139.7734  152.3533 H   0  0  0  0  0  0  0  0  0  0  0  0
  149.1298  138.0968  152.9041 H   0  0  0  0  0  0  0  0  0  0  0  0
  153.5089  143.5824  160.8182 H   0  0  0  0  0  0  0  0  0  0  0  0
  1  2  2  0  0  0  0
  2  3  1  0  0  0  0
  2 10  1  0  0  0  0
  3  4  1  0  0  0  0
  3 19  1  0  0  0  0
  4  9  1  0  0  0  0
  4  5  2  0  0  0  0
  5  6  1  0  0  0  0
  5 20  1  0  0  0  0
  6  7  2  0  0  0  0
  6 21  1  0  0  0  0
  7  8  1  0  0  0  0
  7 35  1  0  0  0  0
  8  9  2  0  0  0  0
  8 22  1  0  0  0  0
  9 23  1  0  0  0  0
 10 11  1  0  0  0  0
 10 24  1  0  0  0  0
 11 17  1  0  0  0  0
 11 12  1  0  0  0  0
 11 25  1  0  0  0  0
 12 13  1  0  0  0  0
 12 26  1  0  0  0  0
 12 27  1  0  0  0  0
 13 14  1  0  0  0  0
 13 28  1  0  0  0  0
 13 29  1  0  0  0  0
 14 15  1  0  0  0  0
 14 30  1  0  0  0  0
 14 31  1  0  0  0  0
 15 16  1  0  0  0  0
 15 32  1  0  0  0  0
 15 33  1  0  0  0  0
 16 17  1  0  0  0  0
 16 34  1  0  0  0  0
 17 18  2  0  0  0  0
M  CHG  1   7   1
M  END
> <s_m_source_file>
AV-unprocessed.smi

> <i_m_source_file_index>
2035

> <i_lp_mmshare_version>
43012

> <i_f3d_flags>
0

> <s_epik_input>
W2NIXTFbY0hdbltjSF1bY0hdYzFbTkhdQyg9TylbTkhdW0NAQEhdMltDSDJdW0NIMl1bQ0gyXVtDSDJdW05IXUMyPU8=

> <s_epik_cmdline>
J2VwaWtfcHl0aG9uJywgJy1waCcsICc3LjAnLCAnLXRuJywgJzgnLCAnLW1hJywgJzIwMCcsICctbWV0YWxfYmluZGluZycsICctaW1hZScsICc8aW5maWxlLm1hZT4nLCAnLW9tYWUnLCAnPG91dGZpbGUubWFlPic=

> <r_epik_Ionization_Penalty>
1.10339

> <r_epik_Ionization_Penalty_Charging>
1.10337

> <r_epik_Ionization_Penalty_Neutral>
1.85869e-05

> <r_epik_State_Penalty>
1.16071

> <r_epik_Charging_Adjusted_Penalty>
2.26408

> <i_epik_Tot_Q>
1

> <i_epik_Tot_abs_Q>
1

> <r_epik_Metal_State_Penalty>
1.24751

> <b_epik_Metal_Only>
0

> <s_lp_Force_Field>
OPLS_2005

> <r_lp_Energy>
25.3939

> <b_lp_Chiralities_Consistent>
1

> <s_lp_Variant>
AV-unprocessed.smi:2035-3

> <Gold.Version>
5.8.1

> <Gold.Id.Protein>
6NUR|6NUR_protein|mol2

> <Gold.PLP.Fitness>
41.8050

> <Gold.PLP.PLP>
-31.8399

> <Gold.PLP.part.hbond>
-5.0000

> <Gold.PLP.part.metal>
0.0000

> <Gold.PLP.part.buried>
-4.0755

> <Gold.PLP.part.nonpolar>
-24.0962

> <Gold.PLP.part.repulsive>
0.4268

> <Gold.PLP.ligand.clash>
0.0000

> <Gold.PLP.ligand.torsion>
0.0611

> <Gold.PLP.Chemscore.Hbond>
3.3450

> <Gold.PLP.Chemscore.CHOScore>
0.0000

> <Gold.PLP.Chemscore.Metal>
0.0000

> <Gold.Chemscore.Hbonds>
donor molecule, donor type, donor heavy atom, donor atom, acceptor molecule, acceptor atom, score
      L1  H     3    19       P1  8028  0.88
      L1  H    10    24       P1  8028  0.68
      L1  H    16    34       P1  7948  0.62
      P1  H  7989  7998       L1    18  0.88

> <Gold.PLP.Chemscore.Internal.Correction>
0.0523

> <Gold.Rescore>
     Score         DG    S(hbond)    S(metal)    S(lipo)     H(rot)  DE(clash)    DE(int)     intcor
     17.63     -20.88       2.97        0.00      68.62       1.00       0.04       3.21       ----

> <Gold.Chemscore.Fitness>
17.6341

> <Gold.Chemscore.DG>
-20.8753

> <Gold.Chemscore.ZeroCoef>
-5.4800

> <Gold.Chemscore.Hbond>
2.9722

> <Gold.Chemscore.Metal>
0.0000

> <Gold.Chemscore.Lipo>
68.6158

> <Gold.Chemscore.Internal_Hbond>
0.0000

> <Gold.Chemscore.DEClash>
0.0361

> <Gold.Chemscore.DEInternal>
3.2051

> <Gold.Chemscore.Rot>
1.0000

> <Gold.Chemscore.Internal.Correction>
   9.000000E+99

> <Gold.Chemscore.Hbonds>
donor molecule, donor type, donor heavy atom, donor atom, acceptor molecule, acceptor atom, score
      L1  H     3    19       P1  8028  0.86
      L1  H    10    24       P1  8028  0.65
      L1  H    16    34       P1  7948  0.62
      P1  H  7989  7998       L1    18  0.83

> <Gold.Chemscore.Hbond.Weighted>
-9.9272

> <Gold.Chemscore.Metal.Weighted>
-0.0000

> <Gold.Chemscore.Lipo.Weighted>
-8.0280

> <Gold.Chemscore.Internal_Hbond.Weighted>
0.0000

> <Gold.Chemscore.DEClash.Weighted>
0.0361

> <Gold.Chemscore.DEInternal.Weighted>
3.2051

> <Gold.Chemscore.Rot.Weighted>
2.5600

> <Gold.Chemscore.Internal.Correction.Weighted>
   9.000000E+99

> <Gold.Protein.RotatedTorsions>
[ 6907 6896 6895 6894 ] final  135.85 input  -60.11 | X-H torsion
[ 7974 7965 7964 7962 ] final  -42.46 input  175.53 | X-H torsion
[ 8008 7997 7996 7995 ] final   83.88 input   59.86 | X-H torsion
[ 10167 10162 10161 10158 ] final -152.23 input  -65.29 | X-H torsion
[ 10718 10713 10712 10709 ] final   11.17 input   66.30 | X-H torsion
[ 10763 10752 10751 10750 ] final -152.18 input  -60.55 | X-H torsion
[ 11005 11000 10999 10996 ] final  177.73 input  -57.11 | X-H torsion

> <Gold.Protein.ActiveResidues>
 VAL166  LYS551  ARG553  GLY616  TRP617  ASP618  TYR619  PRO620  LYS621  CYS622 
 ASP623  PHE694  ASN695  SER759  ASP760  ASP761  ALA762  ILE779  LEU786  VAL792 
 PHE793  MET794  SER795  GLU796  ALA797  LYS798  CYS799  TRP800  GLU811  SER814 

> <Gold.Protein.RotatedAtoms>
  152.2959  133.5607  159.5586 H   0  0  0  0  0  0  0  0  0  0  0  0  # atno 6907 bound_to 6896
  150.7255  134.0362  159.3759 H   0  0  0  0  0  0  0  0  0  0  0  0  # atno 6908 bound_to 6896
  151.8265  135.0635  160.0482 H   0  0  0  0  0  0  0  0  0  0  0  0  # atno 6909 bound_to 6896
  146.0114  140.6960  142.9222 H   0  0  0  0  0  0  0  0  0  0  0  0  # atno 7974 bound_to 7965
  155.9297  140.3415  155.6239 H   0  0  0  0  0  0  0  0  0  0  0  0  # atno 8008 bound_to 7997
  155.7173  140.0779  157.2364 H   0  0  0  0  0  0  0  0  0  0  0  0  # atno 8009 bound_to 7997
  154.4083  140.1612  156.2350 H   0  0  0  0  0  0  0  0  0  0  0  0  # atno 8010 bound_to 7997
  139.7199  143.8974  152.2499 H   0  0  0  0  0  0  0  0  0  0  0  0  # atno 10167 bound_to 10162
  156.9917  130.6045  149.5686 H   0  0  0  0  0  0  0  0  0  0  0  0  # atno 10718 bound_to 10713
  154.8010  135.3242  154.7549 H   0  0  0  0  0  0  0  0  0  0  0  0  # atno 10763 bound_to 10752
  153.8217  135.6887  153.4830 H   0  0  0  0  0  0  0  0  0  0  0  0  # atno 10764 bound_to 10752
  153.1727  135.4617  154.9868 H   0  0  0  0  0  0  0  0  0  0  0  0  # atno 10765 bound_to 10752
  140.3873  134.6894  157.4486 H   0  0  0  0  0  0  0  0  0  0  0  0  # atno 11005 bound_to 11000
  144.6954  140.3405  143.7200 LP  0  0  0  0  0  0  0  0  0  0  0  0  # atno 17320 bound_to 7965
  145.7336  139.1743  143.2416 LP  0  0  0  0  0  0  0  0  0  0  0  0  # atno 17321 bound_to 7965
  139.8867  144.6988  150.8816 LP  0  0  0  0  0  0  0  0  0  0  0  0  # atno 17342 bound_to 10162
  140.7751  143.3618  151.1813 LP  0  0  0  0  0  0  0  0  0  0  0  0  # atno 17343 bound_to 10162
  156.0205  130.5299  150.8260 LP  0  0  0  0  0  0  0  0  0  0  0  0  # atno 17370 bound_to 10713
  157.5454  131.0942  150.9770 LP  0  0  0  0  0  0  0  0  0  0  0  0  # atno 17371 bound_to 10713
  140.0433  134.6235  155.8953 LP  0  0  0  0  0  0  0  0  0  0  0  0  # atno 17394 bound_to 11000
  141.1903  133.6568  156.5406 LP  0  0  0  0  0  0  0  0  0  0  0  0  # atno 17395 bound_to 11000

$$$$
