#       Name:                AV-unprocessed.smi:160
#       Creating user name   scv26
#       Creation time:       Thu Mar 26 19:05:38 2020


#       File generated by GOLD software.
#

@<TRIPOS>MOLECULE
AV-unprocessed.smi:160
    41    42     1
SMALL
NO_CHARGES


@<TRIPOS>ATOM
      1 ****        -3.4991   1.2900   0.1974 N.am           1 S1                 0.0000
      2 ****        -3.6749   0.0116   0.5481 C.2            1 S1                 0.0000
      3 ****        -4.7814  -0.4499   0.8225 O.2            1 S1                 0.0000
      4 ****        -2.4370  -0.8409   0.5928 C.2            1 S1                 0.0000
      5 ****        -2.4968  -2.1548   0.9608 N.2            1 S1                 0.0000
      6 ****        -1.2106  -2.4608   0.8486 C.2            1 S1                 0.0000
      7 ****        -0.4384  -1.4475   0.4428 N.pl3          1 S1                 0.0000
      8 ****         1.0457  -1.4036   0.2225 C.3            1 S1                 0.0000
      9 ****         1.5563  -0.3917   1.0340 O.3            1 S1                 0.0000
     10 ****         1.9696   0.7377   0.2627 C.3            1 S1                 0.0000
     11 ****         1.3779   2.0245   0.8604 C.3            1 S1                 0.0000
     12 ****         2.1589   2.4584   1.9533 O.3            1 S1                 0.0000
     13 ****         1.5006   0.4634  -1.1752 C.3            1 S1                 0.0000
     14 ****         2.4493   0.9421  -2.1072 O.3            1 S1                 0.0000
     15 ****         1.4225  -1.0543  -1.2270 C.3            1 S1                 0.0000
     16 ****         0.4829  -1.4942  -2.1912 O.3            1 S1                 0.0000
     17 ****        -1.2332  -0.3599   0.2791 N.2            1 S1                 0.0000
     18 ****         1.3946  -2.3869   0.5403 H              1 S1                 0.0000
     19 ****         3.0609   0.7675   0.2874 H              1 S1                 0.0000
     20 ****         0.5252   0.9152  -1.3620 H              1 S1                 0.0000
     21 ****         2.4041  -1.4863  -1.4286 H              1 S1                 0.0000
     22 ****        -4.2923   1.9125   0.1492 H              1 S1                 0.0000
     23 ****        -2.5707   1.6240  -0.0174 H              1 S1                 0.0000
     24 ****        -0.8233  -3.4454   1.0658 H              1 S1                 0.0000
     25 ****         1.3886   2.8219   0.1167 H              1 S1                 0.0000
     26 ****         0.3415   1.8826   1.1673 H              1 S1                 0.0000
     27 ****         1.7822   3.2552   2.2945 H              1 S1                 0.0000
     28 ****         2.1577   0.7075  -2.9752 H              1 S1                 0.0000
     29 ****         0.4395  -2.4377  -2.1613 H              1 S1                 0.0000
     30 ****        -5.5905   0.1368   0.7876 LP             1 S1                 0.0000
     31 ****        -4.8720  -1.4118   1.0804 LP             1 S1                 0.0000
     32 ****        -3.2769  -2.7180   1.2333 LP             1 S1                 0.0000
     33 ****         2.3432  -0.7460   1.5392 LP             1 S1                 0.0000
     34 ****         0.8483  -0.1036   1.6788 LP             1 S1                 0.0000
     35 ****         3.0961   2.6313   1.6503 LP             1 S1                 0.0000
     36 ****         2.1629   1.7557   2.6648 LP             1 S1                 0.0000
     37 ****         3.3406   0.5264  -1.9262 LP             1 S1                 0.0000
     38 ****         2.5241   1.9365  -2.0330 LP             1 S1                 0.0000
     39 ****         0.7714  -1.1989  -3.1020 LP             1 S1                 0.0000
     40 ****        -0.4166  -1.1089  -1.9853 LP             1 S1                 0.0000
     41 ****        -0.9809   0.5653  -0.0042 LP             1 S1                 0.0000
@<TRIPOS>BOND
    1    1    2 am    
    2    1   22 1     
    3    1   23 1     
    4    2    3 2     
    5    2    4 1     
    6    4   17 2     
    7    4    5 1     
    8    5    6 2     
    9    6    7 1     
   10    6   24 1     
   11    7    8 1     
   12    7   17 1     
   13    8   18 1     
   14    8   15 1     
   15    8    9 1     
   16    9   10 1     
   17   10   19 1     
   18   10   11 1     
   19   10   13 1     
   20   11   12 1     
   21   11   25 1     
   22   11   26 1     
   23   12   27 1     
   24   13   20 1     
   25   13   14 1     
   26   13   15 1     
   27   14   28 1     
   28   15   21 1     
   29   15   16 1     
   30   16   29 1     
   31    3   30 1     
   32    3   31 1     
   33    5   32 1     
   34    9   33 1     
   35    9   34 1     
   36   12   35 1     
   37   12   36 1     
   38   14   37 1     
   39   14   38 1     
   40   16   39 1     
   41   16   40 1     
   42   17   41 1     
@<TRIPOS>SUBSTRUCTURE
      1 S1             1
@<TRIPOS>SET
LONE_PAIRS      STATIC     ATOMS    <user>   **** ""
12 30 31 32 33 34 35 36 37 38 39 40 41
DONOR_HYDROGENS      STATIC     ATOMS    <user>   **** ""
5 22 23 27 28 29
ATOM$BLUE        STATIC     ATOMS    COLORGROUP SYSTEM
12 30 31 32 33 34 35 36 37 38 39 40 41
ATOM$RED        STATIC     ATOMS    COLORGROUP SYSTEM
5 22 23 27 28 29
