AV-unprocessed.smi:2092|AV-procd|sdf|8543|dock7
  -GOLD-   2272011263D 1   1.00000     0.00000
 Structure written by MMmdl.
 44 45  0  0  0  0  0  0  0  0  1 V2000
  146.1097  133.6343  153.8207 C   0  0  0  0  0  0  0  0  0  0  0  0
  146.4761  134.4292  152.5584 C   0  0  1  0  0  0  0  0  0  0  0  0
  145.9679  133.7114  151.4364 O   0  0  0  0  0  0  0  0  0  0  0  0
  146.4250  132.3688  151.3039 C   0  0  0  0  0  0  0  0  0  0  0  0
  145.7458  131.7178  150.0932 C   0  0  0  0  0  0  0  0  0  0  0  0
  146.4203  132.0340  148.9884 F   0  0  0  0  0  0  0  0  0  0  0  0
  145.7412  130.3919  150.2262 F   0  0  0  0  0  0  0  0  0  0  0  0
  144.4947  132.1604  149.9720 F   0  0  0  0  0  0  0  0  0  0  0  0
  145.8908  135.8504  152.6002 C   0  0  0  0  0  0  0  0  0  0  0  0
  144.7455  136.0381  153.0110 O   0  0  0  0  0  0  0  0  0  0  0  0
  146.6893  136.8336  152.1579 N   0  0  0  0  0  0  0  0  0  0  0  0
  146.3557  138.2546  152.1261 C   0  0  0  0  0  0  0  0  0  0  0  0
  147.2700  139.1148  152.9850 C   0  0  0  0  0  0  0  0  0  0  0  0
  147.1085  140.5136  153.0828 C   0  0  0  0  0  0  0  0  0  0  0  0
  147.9959  141.2340  153.9038 C   0  0  0  0  0  0  0  0  0  0  0  0
  148.9982  140.6558  154.5978 N   0  0  0  0  0  0  0  0  0  0  0  0
  149.1742  139.3151  154.4984 C   0  0  0  0  0  0  0  0  0  0  0  0
  150.2327  138.7224  155.2188 N   0  0  0  0  0  0  0  0  0  0  0  0
  150.1568  137.2711  155.3630 C   0  0  0  0  0  0  0  0  0  0  0  0
  151.1740  136.7840  156.4092 C   0  0  0  0  0  0  0  0  0  0  0  0
  152.4784  137.2370  156.0613 O   0  0  0  0  0  0  0  0  0  0  0  0
  152.5557  138.6585  156.0334 C   0  0  0  0  0  0  0  0  0  0  0  0
  151.5884  139.2091  154.9718 C   0  0  0  0  0  0  0  0  0  0  0  0
  148.3251  138.5122  153.7002 C   0  0  0  0  0  0  0  0  0  0  0  0
  146.4488  134.1437  154.7234 H   0  0  0  0  0  0  0  0  0  0  0  0
  146.5750  132.6485  153.8047 H   0  0  0  0  0  0  0  0  0  0  0  0
  145.0323  133.4864  153.9033 H   0  0  0  0  0  0  0  0  0  0  0  0
  147.5647  134.4807  152.4923 H   0  0  0  0  0  0  0  0  0  0  0  0
  147.5073  132.3377  151.1731 H   0  0  0  0  0  0  0  0  0  0  0  0
  146.1879  131.8027  152.2058 H   0  0  0  0  0  0  0  0  0  0  0  0
  147.6122  136.5808  151.8357 H   0  0  0  0  0  0  0  0  0  0  0  0
  146.4179  138.5895  151.0900 H   0  0  0  0  0  0  0  0  0  0  0  0
  145.3290  138.4345  152.4485 H   0  0  0  0  0  0  0  0  0  0  0  0
  146.3287  141.0329  152.5454 H   0  0  0  0  0  0  0  0  0  0  0  0
  147.8995  142.3049  154.0049 H   0  0  0  0  0  0  0  0  0  0  0  0
  149.1597  136.9467  155.6580 H   0  0  0  0  0  0  0  0  0  0  0  0
  150.3670  136.8115  154.3962 H   0  0  0  0  0  0  0  0  0  0  0  0
  150.9066  137.1404  157.4054 H   0  0  0  0  0  0  0  0  0  0  0  0
  151.1760  135.6949  156.4512 H   0  0  0  0  0  0  0  0  0  0  0  0
  152.3245  139.0655  157.0192 H   0  0  0  0  0  0  0  0  0  0  0  0
  153.5783  138.9542  155.7988 H   0  0  0  0  0  0  0  0  0  0  0  0
  151.9101  138.8969  153.9773 H   0  0  0  0  0  0  0  0  0  0  0  0
  151.6071  140.2995  154.9948 H   0  0  0  0  0  0  0  0  0  0  0  0
  148.4652  137.4426  153.6444 H   0  0  0  0  0  0  0  0  0  0  0  0
  1  2  1  0  0  0  0
  1 25  1  0  0  0  0
  1 26  1  0  0  0  0
  1 27  1  0  0  0  0
  2  3  1  0  0  0  0
  2  9  1  0  0  0  0
  2 28  1  0  0  0  0
  3  4  1  0  0  0  0
  4  5  1  0  0  0  0
  4 29  1  0  0  0  0
  4 30  1  0  0  0  0
  5  6  1  0  0  0  0
  5  7  1  0  0  0  0
  5  8  1  0  0  0  0
  9 10  2  0  0  0  0
  9 11  1  0  0  0  0
 11 12  1  0  0  0  0
 11 31  1  0  0  0  0
 12 13  1  0  0  0  0
 12 32  1  0  0  0  0
 12 33  1  0  0  0  0
 13 24  1  0  0  0  0
 13 14  2  0  0  0  0
 14 15  1  0  0  0  0
 14 34  1  0  0  0  0
 15 16  2  0  0  0  0
 15 35  1  0  0  0  0
 16 17  1  0  0  0  0
 17 18  1  0  0  0  0
 17 24  2  0  0  0  0
 18 23  1  0  0  0  0
 18 19  1  0  0  0  0
 19 20  1  0  0  0  0
 19 36  1  0  0  0  0
 19 37  1  0  0  0  0
 20 21  1  0  0  0  0
 20 38  1  0  0  0  0
 20 39  1  0  0  0  0
 21 22  1  0  0  0  0
 22 23  1  0  0  0  0
 22 40  1  0  0  0  0
 22 41  1  0  0  0  0
 23 42  1  0  0  0  0
 23 43  1  0  0  0  0
 24 44  1  0  0  0  0
M  END
> <s_m_source_file>
AV-unprocessed.smi

> <i_m_source_file_index>
2092

> <i_lp_mmshare_version>
43012

> <i_f3d_flags>
0

> <s_epik_input>
RkMoRikoRilbQ0gyXU9bQ0BASF0oW0NIM10pQyg9TylbTkhdW0NIMl1jMVtjSF1bY0hdbmMoW2NIXTEpTjJbQ0gyXVtDSDJdT1tDSDJdW0NIMl0y

> <s_epik_cmdline>
J2VwaWtfcHl0aG9uJywgJy1waCcsICc3LjAnLCAnLXRuJywgJzgnLCAnLW1hJywgJzIwMCcsICctbWV0YWxfYmluZGluZycsICctaW1hZScsICc8aW5maWxlLm1hZT4nLCAnLW9tYWUnLCAnPG91dGZpbGUubWFlPic=

> <r_lp_tautomer_probability>
1

> <r_epik_Ionization_Penalty>
0.00451782

> <r_epik_Ionization_Penalty_Charging>
0

> <r_epik_Ionization_Penalty_Neutral>
0.00451782

> <r_epik_State_Penalty>
0.00326147

> <r_epik_Charging_Adjusted_Penalty>
0.00326147

> <i_epik_Tot_Q>
0

> <i_epik_Tot_abs_Q>
0

> <r_epik_Metal_State_Penalty>
-0

> <b_epik_Metal_Only>
0

> <s_lp_Force_Field>
OPLS_2005

> <r_lp_Energy>
17.1262

> <b_lp_Chiralities_Consistent>
1

> <s_lp_Variant>
AV-unprocessed.smi:2092-2

> <Gold.Version>
5.8.1

> <Gold.Id.Protein>
6NUR|6NUR_protein|mol2

> <Gold.PLP.Fitness>
41.5526

> <Gold.PLP.PLP>
-38.0602

> <Gold.PLP.part.hbond>
-2.0000

> <Gold.PLP.part.metal>
0.0000

> <Gold.PLP.part.buried>
-3.1267

> <Gold.PLP.part.nonpolar>
-34.1864

> <Gold.PLP.part.repulsive>
0.4191

> <Gold.PLP.ligand.clash>
0.0000

> <Gold.PLP.ligand.torsion>
1.1093

> <Gold.PLP.Chemscore.Hbond>
1.7520

> <Gold.PLP.Chemscore.CHOScore>
0.0000

> <Gold.PLP.Chemscore.Metal>
0.0000

> <Gold.Chemscore.Hbonds>
donor molecule, donor type, donor heavy atom, donor atom, acceptor molecule, acceptor atom, score
      L1  H    11    31       P1  7948  0.59
      P1  H 10752 10764       L1    21  0.59

> <Gold.PLP.Chemscore.Internal.Correction>
0.4550

> <Gold.Rescore>
     Score         DG    S(hbond)    S(metal)    S(lipo)     H(rot)  DE(clash)    DE(int)     intcor
     13.09     -14.20       1.90        0.00      74.78       2.49       0.10       1.01       ----

> <Gold.Chemscore.Fitness>
13.0946

> <Gold.Chemscore.DG>
-14.2047

> <Gold.Chemscore.ZeroCoef>
-5.4800

> <Gold.Chemscore.Hbond>
1.9011

> <Gold.Chemscore.Metal>
0.0000

> <Gold.Chemscore.Lipo>
74.7788

> <Gold.Chemscore.Internal_Hbond>
0.0000

> <Gold.Chemscore.DEClash>
0.1039

> <Gold.Chemscore.DEInternal>
1.0062

> <Gold.Chemscore.Rot>
2.4899

> <Gold.Chemscore.Internal.Correction>
   9.000000E+99

> <Gold.Chemscore.Hbonds>
donor molecule, donor type, donor heavy atom, donor atom, acceptor molecule, acceptor atom, score
      L1  H    11    31       P1  7948  0.58
      P1  H 10752 10764       L1    21  0.13

> <Gold.Chemscore.Hbond.Weighted>
-6.3498

> <Gold.Chemscore.Metal.Weighted>
-0.0000

> <Gold.Chemscore.Lipo.Weighted>
-8.7491

> <Gold.Chemscore.Internal_Hbond.Weighted>
0.0000

> <Gold.Chemscore.DEClash.Weighted>
0.1039

> <Gold.Chemscore.DEInternal.Weighted>
1.0062

> <Gold.Chemscore.Rot.Weighted>
6.3741

> <Gold.Chemscore.Internal.Correction.Weighted>
   9.000000E+99

> <Gold.Protein.RotatedTorsions>
[ 6907 6896 6895 6894 ] final -106.09 input  -60.11 | X-H torsion
[ 7974 7965 7964 7962 ] final  152.30 input  175.53 | X-H torsion
[ 8008 7997 7996 7995 ] final  -50.08 input   59.86 | X-H torsion
[ 10167 10162 10161 10158 ] final  -70.81 input  -65.29 | X-H torsion
[ 10718 10713 10712 10709 ] final -103.02 input   66.30 | X-H torsion
[ 10763 10752 10751 10750 ] final  -32.46 input  -60.55 | X-H torsion
[ 11005 11000 10999 10996 ] final  -44.92 input  -57.11 | X-H torsion

> <Gold.Protein.ActiveResidues>
 VAL166  LYS551  ARG553  GLY616  TRP617  ASP618  TYR619  PRO620  LYS621  CYS622 
 ASP623  PHE694  ASN695  SER759  ASP760  ASP761  ALA762  ILE779  LEU786  VAL792 
 PHE793  MET794  SER795  GLU796  ALA797  LYS798  CYS799  TRP800  GLU811  SER814 

> <Gold.Protein.RotatedAtoms>
  150.7371  134.0028  159.3643 H   0  0  0  0  0  0  0  0  0  0  0  0  # atno 6907 bound_to 6896
  151.7983  135.0714  160.0406 H   0  0  0  0  0  0  0  0  0  0  0  0  # atno 6908 bound_to 6896
  152.3159  133.5765  159.5748 H   0  0  0  0  0  0  0  0  0  0  0  0  # atno 6909 bound_to 6896
  144.8232  139.6651  143.6091 H   0  0  0  0  0  0  0  0  0  0  0  0  # atno 7974 bound_to 7965
  154.4055  140.1281  156.4608 H   0  0  0  0  0  0  0  0  0  0  0  0  # atno 8008 bound_to 7997
  155.7275  140.3492  155.5024 H   0  0  0  0  0  0  0  0  0  0  0  0  # atno 8009 bound_to 7997
  155.9158  140.1044  157.1235 H   0  0  0  0  0  0  0  0  0  0  0  0  # atno 8010 bound_to 7997
  140.5323  143.2320  151.7240 H   0  0  0  0  0  0  0  0  0  0  0  0  # atno 10167 bound_to 10162
  156.0250  130.5447  150.7192 H   0  0  0  0  0  0  0  0  0  0  0  0  # atno 10718 bound_to 10713
  153.8141  135.6880  153.4836 H   0  0  0  0  0  0  0  0  0  0  0  0  # atno 10763 bound_to 10752
  153.1610  135.4580  154.9770 H   0  0  0  0  0  0  0  0  0  0  0  0  # atno 10764 bound_to 10752
  154.7955  135.3317  154.7619 H   0  0  0  0  0  0  0  0  0  0  0  0  # atno 10765 bound_to 10752
  141.0482  133.6753  156.2941 H   0  0  0  0  0  0  0  0  0  0  0  0  # atno 11005 bound_to 11000
  146.2537  139.6255  142.9409 LP  0  0  0  0  0  0  0  0  0  0  0  0  # atno 17320 bound_to 7965
  145.5059  141.0436  143.2515 LP  0  0  0  0  0  0  0  0  0  0  0  0  # atno 17321 bound_to 7965
  139.4958  144.4096  152.0095 LP  0  0  0  0  0  0  0  0  0  0  0  0  # atno 17342 bound_to 10162
  140.3199  144.3440  150.6012 LP  0  0  0  0  0  0  0  0  0  0  0  0  # atno 17343 bound_to 10162
  157.4812  131.0902  151.0534 LP  0  0  0  0  0  0  0  0  0  0  0  0  # atno 17370 bound_to 10713
  157.0967  130.5965  149.5451 LP  0  0  0  0  0  0  0  0  0  0  0  0  # atno 17371 bound_to 10713
  140.6106  134.5462  157.5533 LP  0  0  0  0  0  0  0  0  0  0  0  0  # atno 17394 bound_to 11000
  139.9329  134.7930  156.0882 LP  0  0  0  0  0  0  0  0  0  0  0  0  # atno 17395 bound_to 11000

$$$$
