AV-unprocessed.smi:1803|AV-procd|sdf|7286|dock4
  -GOLD-   22720 8543D 1   1.00000     0.00000
 Structure written by MMmdl.
 36 38  0  0  0  0  0  0  0  0  2 V2000
  147.4794  133.5531  155.1244 O   0  0  0  0  0  0  0  0  0  0  0  0
  147.8972  134.3296  154.2674 C   0  0  0  0  0  0  0  0  0  0  0  0
  148.7887  135.2949  154.5791 N   0  0  0  0  0  0  0  0  0  0  0  0
  149.4183  135.6432  155.8099 C   0  0  0  0  0  0  0  0  0  0  0  0
  149.0890  135.1299  157.0065 N   0  0  0  0  0  0  0  0  0  0  0  0
  149.8600  135.6583  158.0327 N   0  0  0  0  0  0  0  0  0  0  0  0
  150.7369  136.5555  157.5744 C   0  0  0  0  0  0  0  0  0  0  0  0
  150.7044  136.8420  155.8437 S   0  0  0  0  0  0  0  0  0  0  0  0
  147.4992  134.2758  152.9856 N   0  0  0  0  0  0  0  0  0  0  0  0
  146.5537  133.3151  152.4271 C   0  0  1  0  0  0  0  0  0  0  0  0
  146.2794  133.5414  150.9451 C   0  0  0  0  0  0  0  0  0  0  0  0
  145.7162  132.1874  150.5107 C   0  0  0  0  0  0  0  0  0  0  0  0
  146.4182  131.1727  151.3297 N   0  3  2  0  0  0  0  0  0  0  0  0
  145.5898  129.9997  151.7021 C   0  0  0  0  0  0  0  0  0  0  0  0
  146.4076  128.9974  152.5376 C   0  0  0  0  0  0  0  0  0  0  0  0
  147.1523  129.6576  153.7171 C   0  0  0  0  0  0  0  0  0  0  0  0
  146.8694  131.1642  153.8199 C   0  0  0  0  0  0  0  0  0  0  0  0
  147.0868  131.8726  152.4634 C   0  0  2  0  0  0  0  0  0  0  0  0
  149.0410  135.8915  153.8043 H   0  0  0  0  0  0  0  0  0  0  0  0
  151.4062  137.0536  158.2601 H   0  0  0  0  0  0  0  0  0  0  0  0
  147.8897  134.9548  152.3471 H   0  0  0  0  0  0  0  0  0  0  0  0
  145.5993  133.3708  152.9550 H   0  0  0  0  0  0  0  0  0  0  0  0
  145.5896  134.3654  150.7601 H   0  0  0  0  0  0  0  0  0  0  0  0
  147.2081  133.7488  150.4106 H   0  0  0  0  0  0  0  0  0  0  0  0
  144.6459  132.1607  150.7221 H   0  0  0  0  0  0  0  0  0  0  0  0
  145.8496  132.0013  149.4448 H   0  0  0  0  0  0  0  0  0  0  0  0
  144.7146  130.3303  152.2640 H   0  0  0  0  0  0  0  0  0  0  0  0
  145.2176  129.5160  150.7983 H   0  0  0  0  0  0  0  0  0  0  0  0
  145.7484  128.2115  152.9078 H   0  0  0  0  0  0  0  0  0  0  0  0
  147.1335  128.4997  151.8932 H   0  0  0  0  0  0  0  0  0  0  0  0
  146.8846  129.1660  154.6532 H   0  0  0  0  0  0  0  0  0  0  0  0
  148.2249  129.5044  153.5925 H   0  0  0  0  0  0  0  0  0  0  0  0
  145.8444  131.3149  154.1616 H   0  0  0  0  0  0  0  0  0  0  0  0
  147.5087  131.6086  154.5831 H   0  0  0  0  0  0  0  0  0  0  0  0
  148.1527  131.8734  152.2288 H   0  0  0  0  0  0  0  0  0  0  0  0
  147.1699  130.8147  150.7581 H   0  0  0  0  0  0  0  0  0  0  0  0
  1  2  2  0  0  0  0
  2  3  1  0  0  0  0
  2  9  1  0  0  0  0
  3  4  1  0  0  0  0
  3 19  1  0  0  0  0
  4  8  1  0  0  0  0
  4  5  2  0  0  0  0
  5  6  1  0  0  0  0
  6  7  2  0  0  0  0
  7  8  1  0  0  0  0
  7 20  1  0  0  0  0
  9 10  1  0  0  0  0
  9 21  1  0  0  0  0
 10 18  1  0  0  0  0
 10 11  1  0  0  0  0
 10 22  1  0  0  0  0
 11 12  1  0  0  0  0
 11 23  1  0  0  0  0
 11 24  1  0  0  0  0
 12 13  1  0  0  0  0
 12 25  1  0  0  0  0
 12 26  1  0  0  0  0
 13 18  1  0  0  0  0
 13 14  1  0  0  0  0
 13 36  1  0  0  0  0
 14 15  1  0  0  0  0
 14 27  1  0  0  0  0
 14 28  1  0  0  0  0
 15 16  1  0  0  0  0
 15 29  1  0  0  0  0
 15 30  1  0  0  0  0
 16 17  1  0  0  0  0
 16 31  1  0  0  0  0
 16 32  1  0  0  0  0
 17 18  1  0  0  0  0
 17 33  1  0  0  0  0
 17 34  1  0  0  0  0
 18 35  1  0  0  0  0
M  CHG  1  13   1
M  END
> <s_m_source_file>
AV-unprocessed.smi

> <i_m_source_file_index>
1803

> <i_lp_mmshare_version>
43012

> <i_f3d_flags>
0

> <s_epik_input>
czFbY0hdbm5jMVtOSF1DKD1PKVtOSF1bQ0BIXShbQ0gyXVtDSDJdMilbQ0BASF0oTjIzKVtDSDJdW0NIMl1bQ0gyXVtDSDJdMw==

> <s_epik_cmdline>
J2VwaWtfcHl0aG9uJywgJy1waCcsICc3LjAnLCAnLXRuJywgJzgnLCAnLW1hJywgJzIwMCcsICctbWV0YWxfYmluZGluZycsICctaW1hZScsICc8aW5maWxlLm1hZT4nLCAnLW9tYWUnLCAnPG91dGZpbGUubWFlPic=

> <r_lp_tautomer_probability>
1

> <r_epik_Ionization_Penalty>
0.00213286

> <r_epik_Ionization_Penalty_Charging>
0.00107044

> <r_epik_Ionization_Penalty_Neutral>
0.00106242

> <r_epik_State_Penalty>
-0

> <r_epik_Charging_Adjusted_Penalty>
0.00107044

> <i_epik_Tot_Q>
1

> <i_epik_Tot_abs_Q>
1

> <r_epik_Metal_State_Penalty>
0.292783

> <b_epik_Metal_Only>
0

> <s_lp_Force_Field>
OPLS_2005

> <r_lp_Energy>
41.2336

> <b_lp_Chiralities_Consistent>
1

> <s_lp_Variant>
AV-unprocessed.smi:1803-8

> <Gold.Version>
5.8.1

> <Gold.Id.Protein>
6NUR|6NUR_protein|mol2

> <Gold.PLP.Fitness>
35.8907

> <Gold.PLP.PLP>
-24.0904

> <Gold.PLP.part.hbond>
-4.0000

> <Gold.PLP.part.metal>
0.0000

> <Gold.PLP.part.buried>
-2.9510

> <Gold.PLP.part.nonpolar>
-17.4855

> <Gold.PLP.part.repulsive>
0.0504

> <Gold.PLP.ligand.clash>
0.0000

> <Gold.PLP.ligand.torsion>
0.0319

> <Gold.PLP.Chemscore.Hbond>
3.9520

> <Gold.PLP.Chemscore.CHOScore>
0.0000

> <Gold.PLP.Chemscore.Metal>
0.0000

> <Gold.Chemscore.Hbonds>
donor molecule, donor type, donor heavy atom, donor atom, acceptor molecule, acceptor atom, score
      L1  H     3    19       P1  7948  0.96
      L1  H     9    21       P1  7948  1.00
      L1  H    13    36       P1 10747  0.99
      P1  H  6896  6908       L1     6  0.98

> <Gold.PLP.Chemscore.Internal.Correction>
0.0080

> <Gold.Rescore>
     Score         DG    S(hbond)    S(metal)    S(lipo)     H(rot)  DE(clash)    DE(int)     intcor
     19.14     -21.78       3.59        0.00      58.68       1.00       0.00       2.64       ----

> <Gold.Chemscore.Fitness>
19.1412

> <Gold.Chemscore.DG>
-21.7825

> <Gold.Chemscore.ZeroCoef>
-5.4800

> <Gold.Chemscore.Hbond>
3.5920

> <Gold.Chemscore.Metal>
0.0000

> <Gold.Chemscore.Lipo>
58.6770

> <Gold.Chemscore.Internal_Hbond>
0.0000

> <Gold.Chemscore.DEClash>
0.0000

> <Gold.Chemscore.DEInternal>
2.6413

> <Gold.Chemscore.Rot>
1.0000

> <Gold.Chemscore.Internal.Correction>
   9.000000E+99

> <Gold.Chemscore.Hbonds>
donor molecule, donor type, donor heavy atom, donor atom, acceptor molecule, acceptor atom, score
      L1  H     3    19       P1  7948  0.85
      L1  H     9    21       P1  7948  0.84
      L1  H    13    36       P1 10747  0.94
      P1  H  6896  6908       L1     6  0.65

> <Gold.Chemscore.Hbond.Weighted>
-11.9973

> <Gold.Chemscore.Metal.Weighted>
-0.0000

> <Gold.Chemscore.Lipo.Weighted>
-6.8652

> <Gold.Chemscore.Internal_Hbond.Weighted>
0.0000

> <Gold.Chemscore.DEClash.Weighted>
0.0000

> <Gold.Chemscore.DEInternal.Weighted>
2.6413

> <Gold.Chemscore.Rot.Weighted>
2.5600

> <Gold.Chemscore.Internal.Correction.Weighted>
   9.000000E+99

> <Gold.Protein.RotatedTorsions>
[ 6907 6896 6895 6894 ] final  169.75 input  -60.11 | X-H torsion
[ 7974 7965 7964 7962 ] final   45.34 input  175.53 | X-H torsion
[ 8008 7997 7996 7995 ] final -126.28 input   59.86 | X-H torsion
[ 10167 10162 10161 10158 ] final  -68.07 input  -65.29 | X-H torsion
[ 10718 10713 10712 10709 ] final   28.67 input   66.30 | X-H torsion
[ 10763 10752 10751 10750 ] final  -77.34 input  -60.55 | X-H torsion
[ 11005 11000 10999 10996 ] final -106.48 input  -57.11 | X-H torsion

> <Gold.Protein.ActiveResidues>
 VAL166  LYS551  ARG553  GLY616  TRP617  ASP618  TYR619  PRO620  LYS621  CYS622 
 ASP623  PHE694  ASN695  SER759  ASP760  ASP761  ALA762  ILE779  LEU786  VAL792 
 PHE793  MET794  SER795  GLU796  ALA797  LYS798  CYS799  TRP800  GLU811  SER814 

> <Gold.Protein.RotatedAtoms>
  151.8270  133.3403  159.3601 H   0  0  0  0  0  0  0  0  0  0  0  0  # atno 6907 bound_to 6896
  150.7276  134.5519  159.5808 H   0  0  0  0  0  0  0  0  0  0  0  0  # atno 6908 bound_to 6896
  152.2964  134.7663  160.0418 H   0  0  0  0  0  0  0  0  0  0  0  0  # atno 6909 bound_to 6896
  146.0488  139.4975  142.9731 H   0  0  0  0  0  0  0  0  0  0  0  0  # atno 7974 bound_to 7965
  155.2271  140.0424  157.2957 H   0  0  0  0  0  0  0  0  0  0  0  0  # atno 8008 bound_to 7997
  154.5912  140.2427  155.7889 H   0  0  0  0  0  0  0  0  0  0  0  0  # atno 8009 bound_to 7997
  156.2260  140.2954  156.0077 H   0  0  0  0  0  0  0  0  0  0  0  0  # atno 8010 bound_to 7997
  140.5535  143.2312  151.6865 H   0  0  0  0  0  0  0  0  0  0  0  0  # atno 10167 bound_to 10162
  157.2366  130.7049  149.6338 H   0  0  0  0  0  0  0  0  0  0  0  0  # atno 10718 bound_to 10713
  154.5117  135.5767  153.6610 H   0  0  0  0  0  0  0  0  0  0  0  0  # atno 10763 bound_to 10752
  152.9898  135.6160  154.2870 H   0  0  0  0  0  0  0  0  0  0  0  0  # atno 10764 bound_to 10752
  154.2785  135.2851  155.2687 H   0  0  0  0  0  0  0  0  0  0  0  0  # atno 10765 bound_to 10752
  141.1002  133.8897  157.1861 H   0  0  0  0  0  0  0  0  0  0  0  0  # atno 11005 bound_to 11000
  145.6759  141.0204  143.1632 LP  0  0  0  0  0  0  0  0  0  0  0  0  # atno 17320 bound_to 7965
  144.7112  139.8365  143.7414 LP  0  0  0  0  0  0  0  0  0  0  0  0  # atno 17321 bound_to 7965
  139.5038  144.3779  152.0406 LP  0  0  0  0  0  0  0  0  0  0  0  0  # atno 17342 bound_to 10162
  140.2898  144.3767  150.6092 LP  0  0  0  0  0  0  0  0  0  0  0  0  # atno 17343 bound_to 10162
  155.9672  130.4472  150.5569 LP  0  0  0  0  0  0  0  0  0  0  0  0  # atno 17370 bound_to 10713
  157.3423  131.0719  151.1778 LP  0  0  0  0  0  0  0  0  0  0  0  0  # atno 17371 bound_to 10713
  139.9852  135.0084  156.9844 LP  0  0  0  0  0  0  0  0  0  0  0  0  # atno 17394 bound_to 11000
  140.5040  134.1069  155.7256 LP  0  0  0  0  0  0  0  0  0  0  0  0  # atno 17395 bound_to 11000

$$$$
