AV-unprocessed.smi:1385|AV-procd|sdf|5629|dock1
  -GOLD-   22720 5243D 1   1.00000     0.00000
 Structure written by MMmdl.
 39 40  0  0  0  0  0  0  0  0  2 V2000
  153.3597  141.9911  161.2804 C   0  0  0  0  0  0  0  0  0  0  0  0
  152.5279  142.5090  160.1574 C   0  0  0  0  0  0  0  0  0  0  0  0
  152.4104  143.8145  159.8864 N   0  0  0  0  0  0  0  0  0  0  0  0
  151.5856  144.0531  158.7958 N   0  0  0  0  0  0  0  0  0  0  0  0
  151.1066  142.9158  158.2731 C   0  0  0  0  0  0  0  0  0  0  0  0
  150.2388  142.8675  157.1499 N   0  0  0  0  0  0  0  0  0  0  0  0
  149.5110  141.8282  156.7044 C   0  0  0  0  0  0  0  0  0  0  0  0
  149.4818  140.7077  157.2142 O   0  0  0  0  0  0  0  0  0  0  0  0
  148.8036  142.1606  155.6143 N   0  0  0  0  0  0  0  0  0  0  0  0
  147.9004  141.2655  154.8967 C   0  0  2  0  0  0  0  0  0  0  0  0
  148.6090  139.9510  154.5227 C   0  0  0  0  0  0  0  0  0  0  0  0
  147.6887  139.0460  153.6878 C   0  0  0  0  0  0  0  0  0  0  0  0
  147.2143  139.7466  152.4643 N   0  3  1  0  0  0  0  0  0  0  0  0
  146.4302  138.8690  151.5571 C   0  0  0  0  0  0  0  0  0  0  0  0
  145.6248  137.8004  152.3037 C   0  0  0  0  0  0  0  0  0  0  0  0
  146.0568  136.5415  152.2032 N   0  0  0  0  0  0  0  0  0  0  0  0
  144.6383  138.1037  152.9726 O   0  0  0  0  0  0  0  0  0  0  0  0
  146.4952  141.0024  152.7996 C   0  0  0  0  0  0  0  0  0  0  0  0
  147.3845  141.9515  153.6214 C   0  0  0  0  0  0  0  0  0  0  0  0
  151.6300  141.4471  159.0794 S   0  0  0  0  0  0  0  0  0  0  0  0
  153.4102  142.7232  162.0871 H   0  0  0  0  0  0  0  0  0  0  0  0
  154.3708  141.7843  160.9294 H   0  0  0  0  0  0  0  0  0  0  0  0
  152.9293  141.0700  161.6736 H   0  0  0  0  0  0  0  0  0  0  0  0
  150.1633  143.7268  156.6261 H   0  0  0  0  0  0  0  0  0  0  0  0
  148.8901  143.1025  155.2612 H   0  0  0  0  0  0  0  0  0  0  0  0
  147.0425  141.0395  155.5335 H   0  0  0  0  0  0  0  0  0  0  0  0
  149.5176  140.1646  153.9574 H   0  0  0  0  0  0  0  0  0  0  0  0
  148.9228  139.4208  155.4226 H   0  0  0  0  0  0  0  0  0  0  0  0
  148.2306  138.1393  153.4176 H   0  0  0  0  0  0  0  0  0  0  0  0
  146.8306  138.7330  154.2850 H   0  0  0  0  0  0  0  0  0  0  0  0
  145.7752  139.4722  150.9259 H   0  0  0  0  0  0  0  0  0  0  0  0
  147.1064  138.3357  150.8873 H   0  0  0  0  0  0  0  0  0  0  0  0
  145.5635  135.7954  152.6720 H   0  0  0  0  0  0  0  0  0  0  0  0
  146.8792  136.3368  151.6531 H   0  0  0  0  0  0  0  0  0  0  0  0
  146.1877  141.5069  151.8829 H   0  0  0  0  0  0  0  0  0  0  0  0
  145.5848  140.7652  153.3527 H   0  0  0  0  0  0  0  0  0  0  0  0
  146.8221  142.8493  153.8809 H   0  0  0  0  0  0  0  0  0  0  0  0
  148.2259  142.2798  153.0089 H   0  0  0  0  0  0  0  0  0  0  0  0
  148.0363  140.0201  151.9442 H   0  0  0  0  0  0  0  0  0  0  0  0
  1  2  1  0  0  0  0
  1 21  1  0  0  0  0
  1 22  1  0  0  0  0
  1 23  1  0  0  0  0
  2 20  1  0  0  0  0
  2  3  2  0  0  0  0
  3  4  1  0  0  0  0
  4  5  2  0  0  0  0
  5  6  1  0  0  0  0
  5 20  1  0  0  0  0
  6  7  1  0  0  0  0
  6 24  1  0  0  0  0
  7  8  2  0  0  0  0
  7  9  1  0  0  0  0
  9 10  1  0  0  0  0
  9 25  1  0  0  0  0
 10 19  1  0  0  0  0
 10 11  1  0  0  0  0
 10 26  1  0  0  0  0
 11 12  1  0  0  0  0
 11 27  1  0  0  0  0
 11 28  1  0  0  0  0
 12 13  1  0  0  0  0
 12 29  1  0  0  0  0
 12 30  1  0  0  0  0
 13 14  1  0  0  0  0
 13 18  1  0  0  0  0
 13 39  1  0  0  0  0
 14 15  1  0  0  0  0
 14 31  1  0  0  0  0
 14 32  1  0  0  0  0
 15 16  1  0  0  0  0
 15 17  2  0  0  0  0
 16 33  1  0  0  0  0
 16 34  1  0  0  0  0
 18 19  1  0  0  0  0
 18 35  1  0  0  0  0
 18 36  1  0  0  0  0
 19 37  1  0  0  0  0
 19 38  1  0  0  0  0
M  CHG  1  13   1
M  END
> <s_m_source_file>
AV-unprocessed.smi

> <i_m_source_file_index>
1385

> <i_lp_mmshare_version>
43012

> <i_f3d_flags>
0

> <s_epik_input>
W0NIM11jMW5uYyhzMSlbTkhdQyg9TylbTkhdW0NIXTJbQ0gyXVtDSDJdTihbQ0gyXVtDSDJdMilbQ0gyXUMoPU8pW05IMl0=

> <s_epik_cmdline>
J2VwaWtfcHl0aG9uJywgJy1waCcsICc3LjAnLCAnLXRuJywgJzgnLCAnLW1hJywgJzIwMCcsICctbWV0YWxfYmluZGluZycsICctaW1hZScsICc8aW5maWxlLm1hZT4nLCAnLW9tYWUnLCAnPG91dGZpbGUubWFlPic=

> <r_lp_tautomer_probability>
1

> <r_epik_Ionization_Penalty>
0.866317

> <r_epik_Ionization_Penalty_Charging>
0.862349

> <r_epik_Ionization_Penalty_Neutral>
0.00396799

> <r_epik_State_Penalty>
0.898939

> <r_epik_Charging_Adjusted_Penalty>
1.76129

> <i_epik_Tot_Q>
1

> <i_epik_Tot_abs_Q>
1

> <r_epik_Metal_State_Penalty>
1.25402

> <b_epik_Metal_Only>
0

> <s_lp_Force_Field>
OPLS_2005

> <r_lp_Energy>
10.5623

> <b_lp_Chiralities_Consistent>
1

> <s_lp_Variant>
AV-unprocessed.smi:1385-2

> <Gold.Version>
5.8.1

> <Gold.Id.Protein>
6NUR|6NUR_protein|mol2

> <Gold.PLP.Fitness>
44.7740

> <Gold.PLP.PLP>
-34.5699

> <Gold.PLP.part.hbond>
-3.8157

> <Gold.PLP.part.metal>
0.0000

> <Gold.PLP.part.buried>
-5.0503

> <Gold.PLP.part.nonpolar>
-26.8605

> <Gold.PLP.part.repulsive>
1.2277

> <Gold.PLP.ligand.clash>
0.0000

> <Gold.PLP.ligand.torsion>
0.6059

> <Gold.PLP.Chemscore.Hbond>
3.7920

> <Gold.PLP.Chemscore.CHOScore>
0.0000

> <Gold.PLP.Chemscore.Metal>
0.0000

> <Gold.Chemscore.Hbonds>
donor molecule, donor type, donor heavy atom, donor atom, acceptor molecule, acceptor atom, score
      L1  H     6    24       P1  8028  0.82
      L1  H     9    25       P1  8028  0.93
      L1  H    13    39       P1  7957  1.00
      L1  H    16    34       P1  7948  0.78

> <Gold.PLP.Chemscore.Internal.Correction>
0.0398

> <Gold.Rescore>
     Score         DG    S(hbond)    S(metal)    S(lipo)     H(rot)  DE(clash)    DE(int)     intcor
     17.40     -20.21       3.48        0.00      71.76       2.07       0.07       2.74       ----

> <Gold.Chemscore.Fitness>
17.4019

> <Gold.Chemscore.DG>
-20.2055

> <Gold.Chemscore.ZeroCoef>
-5.4800

> <Gold.Chemscore.Hbond>
3.4779

> <Gold.Chemscore.Metal>
0.0000

> <Gold.Chemscore.Lipo>
71.7582

> <Gold.Chemscore.Internal_Hbond>
0.0000

> <Gold.Chemscore.DEClash>
0.0659

> <Gold.Chemscore.DEInternal>
2.7377

> <Gold.Chemscore.Rot>
2.0650

> <Gold.Chemscore.Internal.Correction>
   9.000000E+99

> <Gold.Chemscore.Hbonds>
donor molecule, donor type, donor heavy atom, donor atom, acceptor molecule, acceptor atom, score
      L1  H     6    24       P1  8028  0.81
      L1  H     9    25       P1  8028  0.89
      L1  H    13    39       P1  7957  1.00
      L1  H    16    34       P1  7948  0.73

> <Gold.Chemscore.Hbond.Weighted>
-11.6162

> <Gold.Chemscore.Metal.Weighted>
-0.0000

> <Gold.Chemscore.Lipo.Weighted>
-8.3957

> <Gold.Chemscore.Internal_Hbond.Weighted>
0.0000

> <Gold.Chemscore.DEClash.Weighted>
0.0659

> <Gold.Chemscore.DEInternal.Weighted>
2.7377

> <Gold.Chemscore.Rot.Weighted>
5.2864

> <Gold.Chemscore.Internal.Correction.Weighted>
   9.000000E+99

> <Gold.Protein.RotatedTorsions>
[ 6907 6896 6895 6894 ] final -104.10 input  -60.11 | X-H torsion
[ 7974 7965 7964 7962 ] final  107.60 input  175.53 | X-H torsion
[ 8008 7997 7996 7995 ] final  -34.64 input   59.86 | X-H torsion
[ 10167 10162 10161 10158 ] final   -2.76 input  -65.29 | X-H torsion
[ 10718 10713 10712 10709 ] final   80.18 input   66.30 | X-H torsion
[ 10763 10752 10751 10750 ] final   -8.28 input  -60.55 | X-H torsion
[ 11005 11000 10999 10996 ] final  -96.30 input  -57.11 | X-H torsion

> <Gold.Protein.ActiveResidues>
 VAL166  LYS551  ARG553  GLY616  TRP617  ASP618  TYR619  PRO620  LYS621  CYS622 
 ASP623  PHE694  ASN695  SER759  ASP760  ASP761  ALA762  ILE779  LEU786  VAL792 
 PHE793  MET794  SER795  GLU796  ALA797  LYS798  CYS799  TRP800  GLU811  SER814 

> <Gold.Protein.RotatedAtoms>
  150.7271  134.0329  159.3739 H   0  0  0  0  0  0  0  0  0  0  0  0  # atno 6907 bound_to 6896
  151.8299  135.0623  160.0445 H   0  0  0  0  0  0  0  0  0  0  0  0  # atno 6908 bound_to 6896
  152.2941  133.5554  159.5613 H   0  0  0  0  0  0  0  0  0  0  0  0  # atno 6909 bound_to 6896
  145.2915  139.2598  143.3862 H   0  0  0  0  0  0  0  0  0  0  0  0  # atno 7974 bound_to 7965
  154.4115  140.1678  156.2082 H   0  0  0  0  0  0  0  0  0  0  0  0  # atno 8008 bound_to 7997
  155.9467  140.3404  155.6349 H   0  0  0  0  0  0  0  0  0  0  0  0  # atno 8009 bound_to 7997
  155.6922  140.0735  157.2434 H   0  0  0  0  0  0  0  0  0  0  0  0  # atno 8010 bound_to 7997
  140.6864  143.6619  150.8259 H   0  0  0  0  0  0  0  0  0  0  0  0  # atno 10167 bound_to 10162
  157.6799  130.9948  150.2042 H   0  0  0  0  0  0  0  0  0  0  0  0  # atno 10718 bound_to 10713
  153.4383  135.7013  153.6186 H   0  0  0  0  0  0  0  0  0  0  0  0  # atno 10763 bound_to 10752
  153.4571  135.3744  155.2317 H   0  0  0  0  0  0  0  0  0  0  0  0  # atno 10764 bound_to 10752
  154.8727  135.4011  154.3777 H   0  0  0  0  0  0  0  0  0  0  0  0  # atno 10765 bound_to 10752
  141.1415  133.8088  157.0552 H   0  0  0  0  0  0  0  0  0  0  0  0  # atno 11005 bound_to 11000
  146.3183  140.3408  142.8648 LP  0  0  0  0  0  0  0  0  0  0  0  0  # atno 17320 bound_to 7965
  144.9168  140.7822  143.5773 LP  0  0  0  0  0  0  0  0  0  0  0  0  # atno 17321 bound_to 7965
  140.0326  143.5427  152.2753 LP  0  0  0  0  0  0  0  0  0  0  0  0  # atno 17342 bound_to 10162
  139.6226  144.7631  151.2708 LP  0  0  0  0  0  0  0  0  0  0  0  0  # atno 17343 bound_to 10162
  156.2726  130.3723  149.8016 LP  0  0  0  0  0  0  0  0  0  0  0  0  # atno 17370 bound_to 10713
  156.5728  130.8432  151.3361 LP  0  0  0  0  0  0  0  0  0  0  0  0  # atno 17371 bound_to 10713
  140.0606  134.9757  157.1298 LP  0  0  0  0  0  0  0  0  0  0  0  0  # atno 17394 bound_to 11000
  140.3854  134.2242  155.7168 LP  0  0  0  0  0  0  0  0  0  0  0  0  # atno 17395 bound_to 11000

$$$$
