AV-unprocessed.smi:283|AV-procd|sdf|2151|dock6
  -GOLD-   2262021493D 1   1.00000     0.00000
 Structure written by MMmdl.
 48 51  0  0  0  0  0  0  0  0  1 V2000
  151.2985  140.9098  156.0620 C   0  0  0  0  0  0  0  0  0  0  0  0
  150.1154  141.4827  156.8635 C   0  0  2  0  0  0  0  0  0  0  0  0
  149.0138  141.8696  155.9824 N   0  0  0  0  0  0  0  0  0  0  0  0
  148.2701  140.9530  155.3238 C   0  0  0  0  0  0  0  0  0  0  0  0
  147.4872  141.3012  154.2698 N   0  0  0  0  0  0  0  0  0  0  0  0
  146.7645  140.3718  153.6389 C   0  0  0  0  0  0  0  0  0  0  0  0
  146.6853  139.0637  153.8914 N   0  0  0  0  0  0  0  0  0  0  0  0
  147.4754  138.7039  154.9441 C   0  0  0  0  0  0  0  0  0  0  0  0
  148.2916  139.5868  155.7061 C   0  0  0  0  0  0  0  0  0  0  0  0
  148.9552  138.8775  156.6976 N   0  0  0  0  0  0  0  0  0  0  0  0
  148.5512  137.6476  156.5286 C   0  0  0  0  0  0  0  0  0  0  0  0
  147.6641  137.4495  155.4931 N   0  0  0  0  0  0  0  0  0  0  0  0
  147.0298  136.1539  155.0895 C   0  0  1  0  0  0  0  0  0  0  0  0
  146.4566  135.5777  156.2268 O   0  0  0  0  0  0  0  0  0  0  0  0
  145.0456  135.4532  156.0691 C   0  0  2  0  0  0  0  0  0  0  0  0
  144.5045  134.2742  156.8977 C   0  0  0  0  0  0  0  0  0  0  0  0
  143.2252  133.8949  156.4362 O   0  0  0  0  0  0  0  0  0  0  0  0
  144.8410  135.3950  154.5491 C   0  0  2  0  0  0  0  0  0  0  0  0
  145.0284  134.0727  154.0679 O   0  0  0  0  0  0  0  0  0  0  0  0
  145.9155  136.3568  154.0501 C   0  0  2  0  0  0  0  0  0  0  0  0
  146.3149  136.0492  152.7282 O   0  0  0  0  0  0  0  0  0  0  0  0
  150.5945  142.6362  157.7434 C   0  0  0  0  0  0  0  0  0  0  0  0
  151.9609  143.0042  157.7432 C   0  0  0  0  0  0  0  0  0  0  0  0
  152.4218  144.0582  158.5541 C   0  0  0  0  0  0  0  0  0  0  0  0
  151.5220  144.7540  159.3809 C   0  0  0  0  0  0  0  0  0  0  0  0
  150.1634  144.3895  159.3993 C   0  0  0  0  0  0  0  0  0  0  0  0
  149.6959  143.3342  158.5901 C   0  0  0  0  0  0  0  0  0  0  0  0
  148.0186  142.9204  158.6694 Cl  0  0  0  0  0  0  0  0  0  0  0  0
  147.8498  135.5269  154.7368 H   0  0  0  0  0  0  0  0  0  0  0  0
  144.5927  136.3717  156.4417 H   0  0  0  0  0  0  0  0  0  0  0  0
  143.8414  135.7241  154.2626 H   0  0  0  0  0  0  0  0  0  0  0  0
  145.5434  137.3805  154.0928 H   0  0  0  0  0  0  0  0  0  0  0  0
  152.0948  140.5768  156.7284 H   0  0  0  0  0  0  0  0  0  0  0  0
  151.7205  141.6581  155.3904 H   0  0  0  0  0  0  0  0  0  0  0  0
  151.0048  140.0517  155.4580 H   0  0  0  0  0  0  0  0  0  0  0  0
  149.7313  140.7050  157.5226 H   0  0  0  0  0  0  0  0  0  0  0  0
  148.8738  142.8637  155.8737 H   0  0  0  0  0  0  0  0  0  0  0  0
  146.1649  140.7265  152.8135 H   0  0  0  0  0  0  0  0  0  0  0  0
  148.8943  136.8421  157.1617 H   0  0  0  0  0  0  0  0  0  0  0  0
  145.1774  133.4172  156.8658 H   0  0  0  0  0  0  0  0  0  0  0  0
  144.4187  134.5674  157.9443 H   0  0  0  0  0  0  0  0  0  0  0  0
  143.3244  133.1733  155.8335 H   0  0  0  0  0  0  0  0  0  0  0  0
  144.1781  133.6834  153.9294 H   0  0  0  0  0  0  0  0  0  0  0  0
  147.2054  136.3448  152.6129 H   0  0  0  0  0  0  0  0  0  0  0  0
  152.6709  142.4768  157.1231 H   0  0  0  0  0  0  0  0  0  0  0  0
  153.4669  144.3309  158.5431 H   0  0  0  0  0  0  0  0  0  0  0  0
  151.8743  145.5625  160.0043 H   0  0  0  0  0  0  0  0  0  0  0  0
  149.4767  144.9208  160.0416 H   0  0  0  0  0  0  0  0  0  0  0  0
  1  2  1  0  0  0  0
  1 33  1  0  0  0  0
  1 34  1  0  0  0  0
  1 35  1  0  0  0  0
  2  3  1  0  0  0  0
  2 22  1  0  0  0  0
  2 36  1  0  0  0  0
  3  4  1  0  0  0  0
  3 37  1  0  0  0  0
  4  9  1  0  0  0  0
  4  5  2  0  0  0  0
  5  6  1  0  0  0  0
  6  7  2  0  0  0  0
  6 38  1  0  0  0  0
  7  8  1  0  0  0  0
  8 12  1  0  0  0  0
  8  9  2  0  0  0  0
  9 10  1  0  0  0  0
 10 11  2  0  0  0  0
 11 12  1  0  0  0  0
 11 39  1  0  0  0  0
 12 13  1  0  0  0  0
 13 29  1  0  0  0  0
 13 20  1  0  0  0  0
 13 14  1  0  0  0  0
 14 15  1  0  0  0  0
 15 30  1  0  0  0  0
 15 16  1  0  0  0  0
 15 18  1  0  0  0  0
 16 17  1  0  0  0  0
 16 40  1  0  0  0  0
 16 41  1  0  0  0  0
 17 42  1  0  0  0  0
 18 31  1  0  0  0  0
 18 19  1  0  0  0  0
 18 20  1  0  0  0  0
 19 43  1  0  0  0  0
 20 32  1  0  0  0  0
 20 21  1  0  0  0  0
 21 44  1  0  0  0  0
 22 27  1  0  0  0  0
 22 23  2  0  0  0  0
 23 24  1  0  0  0  0
 23 45  1  0  0  0  0
 24 25  2  0  0  0  0
 24 46  1  0  0  0  0
 25 26  1  0  0  0  0
 25 47  1  0  0  0  0
 26 27  2  0  0  0  0
 26 48  1  0  0  0  0
 27 28  1  0  0  0  0
M  END
> <s_m_source_file>
AV-unprocessed.smi

> <i_m_source_file_index>
283

> <i_lp_mmshare_version>
43012

> <i_f3d_flags>
0

> <s_epik_input>
Q2xjMVtjSF1bY0hdW2NIXVtjSF1jMVtDQEhdKFtDSDNdKVtOSF1jKG5bY0hdbjIpYyhjMjMpbltjSF1uM1tDQEBIXTRPW0NASF0oW0NIMl1bT0hdKVtDQEBIXShbT0hdKVtDQEhdNFtPSF0=

> <s_epik_cmdline>
J2VwaWtfcHl0aG9uJywgJy1waCcsICc3LjAnLCAnLXRuJywgJzgnLCAnLW1hJywgJzIwMCcsICctbWV0YWxfYmluZGluZycsICctaW1hZScsICc8aW5maWxlLm1hZT4nLCAnLW9tYWUnLCAnPG91dGZpbGUubWFlPic=

> <r_lp_tautomer_probability>
1

> <r_epik_Ionization_Penalty>
0.000266407

> <r_epik_Ionization_Penalty_Charging>
0

> <r_epik_Ionization_Penalty_Neutral>
0.000266407

> <r_epik_State_Penalty>
-0

> <r_epik_Charging_Adjusted_Penalty>
0

> <i_epik_Tot_Q>
0

> <i_epik_Tot_abs_Q>
0

> <r_epik_Metal_State_Penalty>
-0

> <b_epik_Metal_Only>
0

> <s_epik_Chemistry_Notes>
This compound contains an acetal/aminal-like group ( X-CH(R)-Y where X, Y are N, S, or O) that may be acid/base labile, releasing an aldehyde.

> <s_lp_Force_Field>
OPLS_2005

> <r_lp_Energy>
49.1948

> <b_lp_Chiralities_Consistent>
1

> <s_lp_Variant>
AV-unprocessed.smi:283-27

> <Gold.Version>
5.8.1

> <Gold.Id.Protein>
6NUR|6NUR_protein|mol2

> <Gold.PLP.Fitness>
45.0957

> <Gold.PLP.PLP>
-31.2873

> <Gold.PLP.part.hbond>
-4.0000

> <Gold.PLP.part.metal>
0.0000

> <Gold.PLP.part.buried>
-7.3599

> <Gold.PLP.part.nonpolar>
-21.9514

> <Gold.PLP.part.repulsive>
0.3822

> <Gold.PLP.ligand.clash>
0.0000

> <Gold.PLP.ligand.torsion>
0.4997

> <Gold.PLP.Chemscore.Hbond>
3.9280

> <Gold.PLP.Chemscore.CHOScore>
0.9763

> <Gold.PLP.Chemscore.Metal>
0.0000

> <Gold.Chemscore.Hbonds>
donor molecule, donor type, donor heavy atom, donor atom, acceptor molecule, acceptor atom, score
      L1  H     3    37       P1  8028  1.00
      L1  H    17    42       P1 10957  1.00
      L1  H    21    44       P1  7948  1.00
      P1  H 11000 11005       L1    17  0.86
      L1  C     6    38       P1 10175  0.98

> <Gold.PLP.Chemscore.Internal.Correction>
0.0949

> <Gold.Rescore>
     Score         DG    S(hbond)    S(metal)    S(lipo)     H(rot)  DE(clash)    DE(int)     intcor
     12.14     -15.41       3.45        0.00      75.91       4.10       0.15       3.12       ----

> <Gold.Chemscore.Fitness>
12.1409

> <Gold.Chemscore.DG>
-15.4066

> <Gold.Chemscore.ZeroCoef>
-5.4800

> <Gold.Chemscore.Hbond>
3.4530

> <Gold.Chemscore.Metal>
0.0000

> <Gold.Chemscore.Lipo>
75.9099

> <Gold.Chemscore.Internal_Hbond>
0.0000

> <Gold.Chemscore.DEClash>
0.1461

> <Gold.Chemscore.DEInternal>
3.1196

> <Gold.Chemscore.Rot>
4.0968

> <Gold.Chemscore.Internal.Correction>
   9.000000E+99

> <Gold.Chemscore.Hbonds>
donor molecule, donor type, donor heavy atom, donor atom, acceptor molecule, acceptor atom, score
      L1  H     3    37       P1  8028  1.00
      L1  H    17    42       P1 10957  0.97
      L1  H    21    44       P1  7948  0.96
      P1  H 11000 11005       L1    17  0.18

> <Gold.Chemscore.Hbond.Weighted>
-11.5331

> <Gold.Chemscore.Metal.Weighted>
-0.0000

> <Gold.Chemscore.Lipo.Weighted>
-8.8815

> <Gold.Chemscore.Internal_Hbond.Weighted>
0.0000

> <Gold.Chemscore.DEClash.Weighted>
0.1461

> <Gold.Chemscore.DEInternal.Weighted>
3.1196

> <Gold.Chemscore.Rot.Weighted>
10.4879

> <Gold.Chemscore.Internal.Correction.Weighted>
   9.000000E+99

> <Gold.Protein.RotatedTorsions>
[ 6907 6896 6895 6894 ] final  -19.01 input  -60.11 | X-H torsion
[ 7974 7965 7964 7962 ] final  139.16 input  175.53 | X-H torsion
[ 8008 7997 7996 7995 ] final  -98.95 input   59.86 | X-H torsion
[ 10167 10162 10161 10158 ] final -157.94 input  -65.29 | X-H torsion
[ 10718 10713 10712 10709 ] final -157.33 input   66.30 | X-H torsion
[ 10763 10752 10751 10750 ] final -152.55 input  -60.55 | X-H torsion
[ 11005 11000 10999 10996 ] final  -80.90 input  -57.11 | X-H torsion

> <Gold.Protein.ActiveResidues>
 VAL166  LYS551  ARG553  GLY616  TRP617  ASP618  TYR619  PRO620  LYS621  CYS622 
 ASP623  PHE694  ASN695  SER759  ASP760  ASP761  ALA762  ILE779  LEU786  VAL792 
 PHE793  MET794  SER795  GLU796  ALA797  LYS798  CYS799  TRP800  GLU811  SER814 

> <Gold.Protein.RotatedAtoms>
  151.2695  135.0680  159.9128 H   0  0  0  0  0  0  0  0  0  0  0  0  # atno 6907 bound_to 6896
  152.5353  134.0145  159.7964 H   0  0  0  0  0  0  0  0  0  0  0  0  # atno 6908 bound_to 6896
  151.0381  133.5680  159.2685 H   0  0  0  0  0  0  0  0  0  0  0  0  # atno 6909 bound_to 6896
  144.9304  139.5054  143.5620 H   0  0  0  0  0  0  0  0  0  0  0  0  # atno 7974 bound_to 7965
  154.8082  140.0451  157.1323 H   0  0  0  0  0  0  0  0  0  0  0  0  # atno 8008 bound_to 7997
  154.9399  140.3051  155.5106 H   0  0  0  0  0  0  0  0  0  0  0  0  # atno 8009 bound_to 7997
  156.2969  140.2307  156.4467 H   0  0  0  0  0  0  0  0  0  0  0  0  # atno 8010 bound_to 7997
  139.6731  143.9710  152.2295 H   0  0  0  0  0  0  0  0  0  0  0  0  # atno 10167 bound_to 10162
  156.5388  130.8554  151.2741 H   0  0  0  0  0  0  0  0  0  0  0  0  # atno 10718 bound_to 10713
  154.7987  135.3233  154.7604 H   0  0  0  0  0  0  0  0  0  0  0  0  # atno 10763 bound_to 10752
  153.8277  135.6882  153.4823 H   0  0  0  0  0  0  0  0  0  0  0  0  # atno 10764 bound_to 10752
  153.1691  135.4630  154.9821 H   0  0  0  0  0  0  0  0  0  0  0  0  # atno 10765 bound_to 10752
  141.1667  133.7171  156.8343 H   0  0  0  0  0  0  0  0  0  0  0  0  # atno 11005 bound_to 11000
  146.3244  139.8251  142.8919 LP  0  0  0  0  0  0  0  0  0  0  0  0  # atno 17320 bound_to 7965
  145.3150  141.0229  143.3533 LP  0  0  0  0  0  0  0  0  0  0  0  0  # atno 17321 bound_to 7965
  139.9480  144.6639  150.8200 LP  0  0  0  0  0  0  0  0  0  0  0  0  # atno 17342 bound_to 10162
  140.7625  143.3201  151.2643 LP  0  0  0  0  0  0  0  0  0  0  0  0  # atno 17343 bound_to 10162
  157.7409  130.9859  150.2408 LP  0  0  0  0  0  0  0  0  0  0  0  0  # atno 17370 bound_to 10713
  156.2991  130.3756  149.7768 LP  0  0  0  0  0  0  0  0  0  0  0  0  # atno 17371 bound_to 10713
  140.2029  134.8884  157.3189 LP  0  0  0  0  0  0  0  0  0  0  0  0  # atno 17394 bound_to 11000
  140.2168  134.4071  155.7585 LP  0  0  0  0  0  0  0  0  0  0  0  0  # atno 17395 bound_to 11000

$$$$
