AV-unprocessed.smi:910|AV-procd|sdf|4126|dock2
  -GOLD-   22720 2 23D 1   1.00000     0.00000
 Structure written by MMmdl.
 46 47  0  0  0  0  0  0  0  0  1 V2000
  150.7437  130.9367  155.0360 C   0  0  0  0  0  0  0  0  0  0  0  0
  150.0546  132.2703  154.8496 C   0  0  0  0  0  0  0  0  0  0  0  0
  150.3670  133.3601  155.6132 N   0  0  0  0  0  0  0  0  0  0  0  0
  149.5611  134.4214  155.2072 C   0  0  0  0  0  0  0  0  0  0  0  0
  149.4574  135.6478  155.6180 N   0  0  0  0  0  0  0  0  0  0  0  0
  150.2871  136.0338  156.6543 C   0  0  0  0  0  0  0  0  0  0  0  0
  150.4933  135.4061  157.6972 O   0  0  0  0  0  0  0  0  0  0  0  0
  150.8041  137.2530  156.4336 N   0  0  0  0  0  0  0  0  0  0  0  0
  151.6424  137.9944  157.3708 C   0  0  0  0  0  0  0  0  0  0  0  0
  152.2076  139.2695  156.7296 C   0  0  0  0  0  0  0  0  0  0  0  0
  152.8172  140.0676  157.7316 O   0  0  0  0  0  0  0  0  0  0  0  0
  152.0209  140.2733  158.8910 C   0  0  2  0  0  0  0  0  0  0  0  0
  150.6667  140.8751  158.4665 C   0  0  0  0  0  0  0  0  0  0  0  0
  150.8377  142.2715  157.8433 C   0  0  0  0  0  0  0  0  0  0  0  0
  151.6007  143.2163  158.7848 C   0  0  0  0  0  0  0  0  0  0  0  0
  152.9526  142.6179  159.2059 C   0  0  0  0  0  0  0  0  0  0  0  0
  152.7752  141.2258  159.8440 C   0  0  2  0  0  0  0  0  0  0  0  0
  154.1096  140.6274  160.3151 C   0  0  0  0  0  0  0  0  0  0  0  0
  148.7784  133.9416  154.1878 O   0  0  0  0  0  0  0  0  0  0  0  0
  149.1002  132.6314  153.9956 C   0  0  0  0  0  0  0  0  0  0  0  0
  148.3753  131.8544  152.9201 C   0  0  0  0  0  0  0  0  0  0  0  0
  151.2324  130.6330  154.1101 H   0  0  0  0  0  0  0  0  0  0  0  0
  150.0172  130.1718  155.3109 H   0  0  0  0  0  0  0  0  0  0  0  0
  151.4980  130.9925  155.8209 H   0  0  0  0  0  0  0  0  0  0  0  0
  151.0619  133.3492  156.3460 H   0  0  0  0  0  0  0  0  0  0  0  0
  150.5743  137.7130  155.5646 H   0  0  0  0  0  0  0  0  0  0  0  0
  151.0924  138.2389  158.2810 H   0  0  0  0  0  0  0  0  0  0  0  0
  152.4636  137.3454  157.6752 H   0  0  0  0  0  0  0  0  0  0  0  0
  152.9360  138.9993  155.9641 H   0  0  0  0  0  0  0  0  0  0  0  0
  151.4125  139.8344  156.2405 H   0  0  0  0  0  0  0  0  0  0  0  0
  151.8536  139.3278  159.4108 H   0  0  0  0  0  0  0  0  0  0  0  0
  150.1598  140.2146  157.7628 H   0  0  0  0  0  0  0  0  0  0  0  0
  150.0154  140.9473  159.3384 H   0  0  0  0  0  0  0  0  0  0  0  0
  151.3753  142.1873  156.8979 H   0  0  0  0  0  0  0  0  0  0  0  0
  149.8613  142.6938  157.6050 H   0  0  0  0  0  0  0  0  0  0  0  0
  151.7564  144.1797  158.2983 H   0  0  0  0  0  0  0  0  0  0  0  0
  150.9971  143.4123  159.6719 H   0  0  0  0  0  0  0  0  0  0  0  0
  153.6084  142.5499  158.3369 H   0  0  0  0  0  0  0  0  0  0  0  0
  153.4428  143.2905  159.9100 H   0  0  0  0  0  0  0  0  0  0  0  0
  152.1576  141.3545  160.7342 H   0  0  0  0  0  0  0  0  0  0  0  0
  154.7736  140.4196  159.4769 H   0  0  0  0  0  0  0  0  0  0  0  0
  153.9501  139.6893  160.8470 H   0  0  0  0  0  0  0  0  0  0  0  0
  154.6291  141.3061  160.9919 H   0  0  0  0  0  0  0  0  0  0  0  0
  149.0042  131.7609  152.0347 H   0  0  0  0  0  0  0  0  0  0  0  0
  147.4530  132.3623  152.6377 H   0  0  0  0  0  0  0  0  0  0  0  0
  148.1245  130.8549  153.2750 H   0  0  0  0  0  0  0  0  0  0  0  0
  1 22  1  0  0  0  0
  1 23  1  0  0  0  0
  1 24  1  0  0  0  0
  1  2  1  0  0  0  0
  2  3  1  0  0  0  0
  2 20  2  0  0  0  0
  3 25  1  0  0  0  0
  3  4  1  0  0  0  0
  4 19  1  0  0  0  0
  4  5  2  0  0  0  0
  5  6  1  0  0  0  0
  6  8  1  0  0  0  0
  6  7  2  0  0  0  0
  8  9  1  0  0  0  0
  8 26  1  0  0  0  0
  9 10  1  0  0  0  0
  9 27  1  0  0  0  0
  9 28  1  0  0  0  0
 10 11  1  0  0  0  0
 10 29  1  0  0  0  0
 10 30  1  0  0  0  0
 11 12  1  0  0  0  0
 12 17  1  0  0  0  0
 12 13  1  0  0  0  0
 12 31  1  0  0  0  0
 13 14  1  0  0  0  0
 13 32  1  0  0  0  0
 13 33  1  0  0  0  0
 14 15  1  0  0  0  0
 14 34  1  0  0  0  0
 14 35  1  0  0  0  0
 15 16  1  0  0  0  0
 15 36  1  0  0  0  0
 15 37  1  0  0  0  0
 16 17  1  0  0  0  0
 16 38  1  0  0  0  0
 16 39  1  0  0  0  0
 17 18  1  0  0  0  0
 17 40  1  0  0  0  0
 18 41  1  0  0  0  0
 18 42  1  0  0  0  0
 18 43  1  0  0  0  0
 19 20  1  0  0  0  0
 20 21  1  0  0  0  0
 21 44  1  0  0  0  0
 21 45  1  0  0  0  0
 21 46  1  0  0  0  0
M  END
> <s_m_source_file>
AV-unprocessed.smi

> <i_m_source_file_index>
910

> <i_lp_mmshare_version>
43012

> <i_f3d_flags>
0

> <s_epik_input>
W0NIM11jMW5jKG9jMVtDSDNdKVtOSF1DKD1PKVtOSF1bQ0gyXVtDSDJdT1tDQEBIXTJbQ0gyXVtDSDJdW0NIMl1bQ0gyXVtDQEhdMltDSDNd

> <s_epik_cmdline>
J2VwaWtfcHl0aG9uJywgJy1waCcsICc3LjAnLCAnLXRuJywgJzgnLCAnLW1hJywgJzIwMCcsICctbWV0YWxfYmluZGluZycsICctaW1hZScsICc8aW5maWxlLm1hZT4nLCAnLW9tYWUnLCAnPG91dGZpbGUubWFlPic=

> <r_lp_tautomer_probability>
0.107061

> <r_epik_Ionization_Penalty>
0.727192

> <r_epik_Ionization_Penalty_Charging>
0.726719

> <r_epik_Ionization_Penalty_Neutral>
0.000473387

> <r_epik_State_Penalty>
2.53712

> <r_epik_Charging_Adjusted_Penalty>
3.26383

> <i_epik_Tot_Q>
0

> <i_epik_Tot_abs_Q>
0

> <r_epik_Metal_State_Penalty>
3.71015

> <b_epik_Metal_Only>
0

> <s_lp_Force_Field>
OPLS_2005

> <r_lp_Energy>
29.7751

> <b_lp_Chiralities_Consistent>
1

> <s_lp_Variant>
AV-unprocessed.smi:910-11

> <Gold.Version>
5.8.1

> <Gold.Id.Protein>
6NUR|6NUR_protein|mol2

> <Gold.PLP.Fitness>
36.7633

> <Gold.PLP.PLP>
-32.7957

> <Gold.PLP.part.hbond>
-2.0000

> <Gold.PLP.part.metal>
0.0000

> <Gold.PLP.part.buried>
-2.8940

> <Gold.PLP.part.nonpolar>
-28.4587

> <Gold.PLP.part.repulsive>
0.3252

> <Gold.PLP.ligand.clash>
0.0000

> <Gold.PLP.ligand.torsion>
0.4588

> <Gold.PLP.Chemscore.Hbond>
1.6000

> <Gold.PLP.Chemscore.CHOScore>
0.0000

> <Gold.PLP.Chemscore.Metal>
0.0000

> <Gold.Chemscore.Hbonds>
donor molecule, donor type, donor heavy atom, donor atom, acceptor molecule, acceptor atom, score
      P1  H  6896  6907       L1     7  0.58
      P1  H  7997  8009       L1    11  0.80

> <Gold.PLP.Chemscore.Internal.Correction>
0.0853

> <Gold.Rescore>
     Score         DG    S(hbond)    S(metal)    S(lipo)     H(rot)  DE(clash)    DE(int)     intcor
     14.45     -16.29       1.43        0.00      88.00       1.66       0.14       1.70       ----

> <Gold.Chemscore.Fitness>
14.4500

> <Gold.Chemscore.DG>
-16.2932

> <Gold.Chemscore.ZeroCoef>
-5.4800

> <Gold.Chemscore.Hbond>
1.4254

> <Gold.Chemscore.Metal>
0.0000

> <Gold.Chemscore.Lipo>
87.9983

> <Gold.Chemscore.Internal_Hbond>
0.0000

> <Gold.Chemscore.DEClash>
0.1426

> <Gold.Chemscore.DEInternal>
1.7006

> <Gold.Chemscore.Rot>
1.6576

> <Gold.Chemscore.Internal.Correction>
   9.000000E+99

> <Gold.Chemscore.Hbonds>
donor molecule, donor type, donor heavy atom, donor atom, acceptor molecule, acceptor atom, score
      P1  H  6896  6907       L1     7  0.55
      P1  H  7997  8009       L1    11  0.13

> <Gold.Chemscore.Hbond.Weighted>
-4.7609

> <Gold.Chemscore.Metal.Weighted>
-0.0000

> <Gold.Chemscore.Lipo.Weighted>
-10.2958

> <Gold.Chemscore.Internal_Hbond.Weighted>
0.0000

> <Gold.Chemscore.DEClash.Weighted>
0.1426

> <Gold.Chemscore.DEInternal.Weighted>
1.7006

> <Gold.Chemscore.Rot.Weighted>
4.2436

> <Gold.Chemscore.Internal.Correction.Weighted>
   9.000000E+99

> <Gold.Protein.RotatedTorsions>
[ 6907 6896 6895 6894 ] final  -73.57 input  -60.11 | X-H torsion
[ 7974 7965 7964 7962 ] final -124.84 input  175.53 | X-H torsion
[ 8008 7997 7996 7995 ] final  154.68 input   59.86 | X-H torsion
[ 10167 10162 10161 10158 ] final -151.36 input  -65.29 | X-H torsion
[ 10718 10713 10712 10709 ] final  174.42 input   66.30 | X-H torsion
[ 10763 10752 10751 10750 ] final  154.11 input  -60.55 | X-H torsion
[ 11005 11000 10999 10996 ] final  -49.46 input  -57.11 | X-H torsion

> <Gold.Protein.ActiveResidues>
 VAL166  LYS551  ARG553  GLY616  TRP617  ASP618  TYR619  PRO620  LYS621  CYS622 
 ASP623  PHE694  ASN695  SER759  ASP760  ASP761  ALA762  ILE779  LEU786  VAL792 
 PHE793  MET794  SER795  GLU796  ALA797  LYS798  CYS799  TRP800  GLU811  SER814 

> <Gold.Protein.RotatedAtoms>
  150.7125  134.4997  159.5554 H   0  0  0  0  0  0  0  0  0  0  0  0  # atno 6907 bound_to 6896
  152.2597  134.8044  160.0442 H   0  0  0  0  0  0  0  0  0  0  0  0  # atno 6908 bound_to 6896
  151.8762  133.3450  159.3788 H   0  0  0  0  0  0  0  0  0  0  0  0  # atno 6909 bound_to 6896
  145.0038  140.7844  143.4480 H   0  0  0  0  0  0  0  0  0  0  0  0  # atno 7974 bound_to 7965
  156.2519  140.1960  156.6683 H   0  0  0  0  0  0  0  0  0  0  0  0  # atno 8008 bound_to 7997
  154.6412  140.0583  156.9873 H   0  0  0  0  0  0  0  0  0  0  0  0  # atno 8009 bound_to 7997
  155.1560  140.3255  155.4424 H   0  0  0  0  0  0  0  0  0  0  0  0  # atno 8010 bound_to 7997
  139.7274  143.8861  152.2524 H   0  0  0  0  0  0  0  0  0  0  0  0  # atno 10167 bound_to 10162
  156.9498  131.0027  151.2951 H   0  0  0  0  0  0  0  0  0  0  0  0  # atno 10718 bound_to 10713
  154.1470  135.2817  155.3145 H   0  0  0  0  0  0  0  0  0  0  0  0  # atno 10763 bound_to 10752
  154.6245  135.5456  153.7615 H   0  0  0  0  0  0  0  0  0  0  0  0  # atno 10764 bound_to 10752
  153.0233  135.6447  154.1615 H   0  0  0  0  0  0  0  0  0  0  0  0  # atno 10765 bound_to 10752
  141.0760  133.6665  156.3589 H   0  0  0  0  0  0  0  0  0  0  0  0  # atno 11005 bound_to 11000
  145.2117  139.2202  143.5140 LP  0  0  0  0  0  0  0  0  0  0  0  0  # atno 17320 bound_to 7965
  146.3457  140.1956  142.8589 LP  0  0  0  0  0  0  0  0  0  0  0  0  # atno 17321 bound_to 7965
  139.8775  144.7035  150.8916 LP  0  0  0  0  0  0  0  0  0  0  0  0  # atno 17342 bound_to 10162
  140.7765  143.3688  151.1688 LP  0  0  0  0  0  0  0  0  0  0  0  0  # atno 17343 bound_to 10162
  157.5729  130.8323  149.8416 LP  0  0  0  0  0  0  0  0  0  0  0  0  # atno 17370 bound_to 10713
  156.0368  130.3749  150.1540 LP  0  0  0  0  0  0  0  0  0  0  0  0  # atno 17371 bound_to 10713
  140.5571  134.5970  157.5424 LP  0  0  0  0  0  0  0  0  0  0  0  0  # atno 17394 bound_to 11000
  139.9573  134.7513  156.0314 LP  0  0  0  0  0  0  0  0  0  0  0  0  # atno 17395 bound_to 11000

$$$$
