AV-unprocessed.smi:460|AV-procd|sdf|2629|dock6
  -GOLD-   2262023 33D 1   1.00000     0.00000
 Structure written by MMmdl.
 47 49  0  0  0  0  0  0  0  0  2 V2000
  148.1228  140.9789  154.1806 C   0  0  0  0  0  0  0  0  0  0  0  0
  149.3609  141.6300  154.8133 C   0  0  0  0  0  0  0  0  0  0  0  0
  150.0570  140.7497  155.8684 C   0  0  1  0  0  0  0  0  0  0  0  0
  151.0514  139.9829  155.2229 O   0  0  0  0  0  0  0  0  0  0  0  0
  150.6310  141.5669  156.9869 C   0  0  0  0  0  0  0  0  0  0  0  0
  150.6508  142.9293  157.0436 N   0  3  0  0  0  0  0  0  0  0  0  0
  151.2678  143.3468  158.2226 C   0  0  0  0  0  0  0  0  0  0  0  0
  151.5246  144.6228  158.7143 C   0  0  0  0  0  0  0  0  0  0  0  0
  152.1844  144.7003  159.9584 C   0  0  0  0  0  0  0  0  0  0  0  0
  152.5624  143.5385  160.6626 C   0  0  0  0  0  0  0  0  0  0  0  0
  152.2951  142.2501  160.1541 C   0  0  0  0  0  0  0  0  0  0  0  0
  151.6402  142.1826  158.9246 C   0  0  0  0  0  0  0  0  0  0  0  0
  151.2203  141.1094  158.1310 N   0  0  0  0  0  0  0  0  0  0  0  0
  151.4739  139.7368  158.5940 C   0  0  0  0  0  0  0  0  0  0  0  0
  150.4066  138.7552  158.0915 C   0  0  0  0  0  0  0  0  0  0  0  0
  149.8525  138.0726  159.2082 O   0  0  0  0  0  0  0  0  0  0  0  0
  149.2654  136.8416  159.0089 C   0  0  0  0  0  0  0  0  0  0  0  0
  149.4368  136.0707  157.8315 C   0  0  0  0  0  0  0  0  0  0  0  0
  148.8055  134.8207  157.6995 C   0  0  0  0  0  0  0  0  0  0  0  0
  147.9984  134.3282  158.7391 C   0  0  0  0  0  0  0  0  0  0  0  0
  147.8226  135.0850  159.9117 C   0  0  0  0  0  0  0  0  0  0  0  0
  148.4542  136.3465  160.0559 C   0  0  0  0  0  0  0  0  0  0  0  0
  148.3238  137.1433  161.1751 O   0  0  0  0  0  0  0  0  0  0  0  0
  147.5711  136.6455  162.2715 C   0  0  0  0  0  0  0  0  0  0  0  0
  147.6945  141.6271  153.4159 H   0  0  0  0  0  0  0  0  0  0  0  0
  147.3457  140.7870  154.9208 H   0  0  0  0  0  0  0  0  0  0  0  0
  148.3771  140.0310  153.7060 H   0  0  0  0  0  0  0  0  0  0  0  0
  150.0698  141.8625  154.0174 H   0  0  0  0  0  0  0  0  0  0  0  0
  149.0782  142.5863  155.2554 H   0  0  0  0  0  0  0  0  0  0  0  0
  149.3346  140.0428  156.2760 H   0  0  0  0  0  0  0  0  0  0  0  0
  151.3587  139.3241  155.8278 H   0  0  0  0  0  0  0  0  0  0  0  0
  151.2384  145.5140  158.1749 H   0  0  0  0  0  0  0  0  0  0  0  0
  152.4064  145.6701  160.3801 H   0  0  0  0  0  0  0  0  0  0  0  0
  153.0682  143.6369  161.6122 H   0  0  0  0  0  0  0  0  0  0  0  0
  152.5912  141.3670  160.7005 H   0  0  0  0  0  0  0  0  0  0  0  0
  152.4717  139.4302  158.2791 H   0  0  0  0  0  0  0  0  0  0  0  0
  151.4892  139.7482  159.6836 H   0  0  0  0  0  0  0  0  0  0  0  0
  149.6274  139.3031  157.5593 H   0  0  0  0  0  0  0  0  0  0  0  0
  150.8583  138.0459  157.3966 H   0  0  0  0  0  0  0  0  0  0  0  0
  150.0510  136.4157  157.0139 H   0  0  0  0  0  0  0  0  0  0  0  0
  148.9416  134.2391  156.7996 H   0  0  0  0  0  0  0  0  0  0  0  0
  147.5133  133.3685  158.6377 H   0  0  0  0  0  0  0  0  0  0  0  0
  147.1952  134.6741  160.6880 H   0  0  0  0  0  0  0  0  0  0  0  0
  147.5684  137.3859  163.0710 H   0  0  0  0  0  0  0  0  0  0  0  0
  148.0077  135.7300  162.6727 H   0  0  0  0  0  0  0  0  0  0  0  0
  146.5334  136.4600  161.9913 H   0  0  0  0  0  0  0  0  0  0  0  0
  150.2738  143.5255  156.3182 H   0  0  0  0  0  0  0  0  0  0  0  0
  1  2  1  0  0  0  0
  1 25  1  0  0  0  0
  1 26  1  0  0  0  0
  1 27  1  0  0  0  0
  2  3  1  0  0  0  0
  2 28  1  0  0  0  0
  2 29  1  0  0  0  0
  3  4  1  0  0  0  0
  3  5  1  0  0  0  0
  3 30  1  0  0  0  0
  4 31  1  0  0  0  0
  5 13  1  0  0  0  0
  5  6  2  0  0  0  0
  6  7  1  0  0  0  0
  6 47  1  0  0  0  0
  7 12  2  0  0  0  0
  7  8  1  0  0  0  0
  8  9  2  0  0  0  0
  8 32  1  0  0  0  0
  9 10  1  0  0  0  0
  9 33  1  0  0  0  0
 10 11  2  0  0  0  0
 10 34  1  0  0  0  0
 11 12  1  0  0  0  0
 11 35  1  0  0  0  0
 12 13  1  0  0  0  0
 13 14  1  0  0  0  0
 14 15  1  0  0  0  0
 14 36  1  0  0  0  0
 14 37  1  0  0  0  0
 15 16  1  0  0  0  0
 15 38  1  0  0  0  0
 15 39  1  0  0  0  0
 16 17  1  0  0  0  0
 17 22  1  0  0  0  0
 17 18  2  0  0  0  0
 18 19  1  0  0  0  0
 18 40  1  0  0  0  0
 19 20  2  0  0  0  0
 19 41  1  0  0  0  0
 20 21  1  0  0  0  0
 20 42  1  0  0  0  0
 21 22  2  0  0  0  0
 21 43  1  0  0  0  0
 22 23  1  0  0  0  0
 23 24  1  0  0  0  0
 24 44  1  0  0  0  0
 24 45  1  0  0  0  0
 24 46  1  0  0  0  0
M  CHG  1   6   1
M  END
> <s_m_source_file>
AV-unprocessed.smi

> <i_m_source_file_index>
460

> <i_lp_mmshare_version>
43012

> <i_f3d_flags>
0

> <s_epik_input>
W2NIXTFbY0hdW2NIXVtjSF1jKGMxMiluKGMobjIpW0NAQEhdKFtPSF0pW0NIMl1bQ0gzXSlbQ0gyXVtDSDJdT2MzW2NIXVtjSF1bY0hdW2NIXWMzT1tDSDNd

> <s_epik_cmdline>
J2VwaWtfcHl0aG9uJywgJy1waCcsICc3LjAnLCAnLXRuJywgJzgnLCAnLW1hJywgJzIwMCcsICctbWV0YWxfYmluZGluZycsICctaW1hZScsICc8aW5maWxlLm1hZT4nLCAnLW9tYWUnLCAnPG91dGZpbGUubWFlPic=

> <r_lp_tautomer_probability>
1

> <r_epik_Ionization_Penalty>
1.48085

> <r_epik_Ionization_Penalty_Charging>
1.48083

> <r_epik_Ionization_Penalty_Neutral>
1.80167e-05

> <r_epik_State_Penalty>
1.56944

> <r_epik_Charging_Adjusted_Penalty>
3.05027

> <i_epik_Tot_Q>
1

> <i_epik_Tot_abs_Q>
1

> <r_epik_Metal_State_Penalty>
5.61877

> <b_epik_Metal_Only>
0

> <s_lp_Force_Field>
OPLS_2005

> <r_lp_Energy>
21.4697

> <b_lp_Chiralities_Consistent>
1

> <s_lp_Variant>
AV-unprocessed.smi:460-4

> <Gold.Version>
5.8.1

> <Gold.Id.Protein>
6NUR|6NUR_protein|mol2

> <Gold.PLP.Fitness>
60.0235

> <Gold.PLP.PLP>
-50.3084

> <Gold.PLP.part.hbond>
-4.8727

> <Gold.PLP.part.metal>
0.0000

> <Gold.PLP.part.buried>
-4.9104

> <Gold.PLP.part.nonpolar>
-40.7123

> <Gold.PLP.part.repulsive>
0.0224

> <Gold.PLP.ligand.clash>
0.0000

> <Gold.PLP.ligand.torsion>
1.5386

> <Gold.PLP.Chemscore.Hbond>
4.2278

> <Gold.PLP.Chemscore.CHOScore>
0.0000

> <Gold.PLP.Chemscore.Metal>
0.0000

> <Gold.Chemscore.Hbonds>
donor molecule, donor type, donor heavy atom, donor atom, acceptor molecule, acceptor atom, score
      L1  H     6    47       P1  8028  2.00
      P1  H  6931  6943       L1    23  0.83
      P1  H  6934  6947       L1    23  0.28
      P1  H  7989  7998       L1     4  1.00

> <Gold.PLP.Chemscore.Internal.Correction>
0.1089

> <Gold.Rescore>
     Score         DG    S(hbond)    S(metal)    S(lipo)     H(rot)  DE(clash)    DE(int)     intcor
     18.09     -20.63       2.06        0.00     124.24       2.45       0.01       2.53       ----

> <Gold.Chemscore.Fitness>
18.0851

> <Gold.Chemscore.DG>
-20.6298

> <Gold.Chemscore.ZeroCoef>
-5.4800

> <Gold.Chemscore.Hbond>
2.0578

> <Gold.Chemscore.Metal>
0.0000

> <Gold.Chemscore.Lipo>
124.2395

> <Gold.Chemscore.Internal_Hbond>
0.0000

> <Gold.Chemscore.DEClash>
0.0133

> <Gold.Chemscore.DEInternal>
2.5314

> <Gold.Chemscore.Rot>
2.4450

> <Gold.Chemscore.Internal.Correction>
   9.000000E+99

> <Gold.Chemscore.Hbonds>
donor molecule, donor type, donor heavy atom, donor atom, acceptor molecule, acceptor atom, score
      L1  H     6    47       P1  8028  0.95
      P1  H  6931  6943       L1    23  0.16
      P1  H  6934  6947       L1    23  0.05
      P1  H  7989  7998       L1     4  0.73

> <Gold.Chemscore.Hbond.Weighted>
-6.8730

> <Gold.Chemscore.Metal.Weighted>
-0.0000

> <Gold.Chemscore.Lipo.Weighted>
-14.5360

> <Gold.Chemscore.Internal_Hbond.Weighted>
0.0000

> <Gold.Chemscore.DEClash.Weighted>
0.0133

> <Gold.Chemscore.DEInternal.Weighted>
2.5314

> <Gold.Chemscore.Rot.Weighted>
6.2593

> <Gold.Chemscore.Internal.Correction.Weighted>
   9.000000E+99

> <Gold.Protein.RotatedTorsions>
[ 6907 6896 6895 6894 ] final -104.79 input  -60.11 | X-H torsion
[ 7974 7965 7964 7962 ] final  -86.05 input  175.53 | X-H torsion
[ 8008 7997 7996 7995 ] final   59.00 input   59.86 | X-H torsion
[ 10167 10162 10161 10158 ] final -107.48 input  -65.29 | X-H torsion
[ 10718 10713 10712 10709 ] final  -14.84 input   66.30 | X-H torsion
[ 10763 10752 10751 10750 ] final   74.45 input  -60.55 | X-H torsion
[ 11005 11000 10999 10996 ] final -172.01 input  -57.11 | X-H torsion

> <Gold.Protein.ActiveResidues>
 VAL166  LYS551  ARG553  GLY616  TRP617  ASP618  TYR619  PRO620  LYS621  CYS622 
 ASP623  PHE694  ASN695  SER759  ASP760  ASP761  ALA762  ILE779  LEU786  VAL792 
 PHE793  MET794  SER795  GLU796  ALA797  LYS798  CYS799  TRP800  GLU811  SER814 

> <Gold.Protein.RotatedAtoms>
  150.7304  134.0225  159.3705 H   0  0  0  0  0  0  0  0  0  0  0  0  # atno 6907 bound_to 6896
  151.8190  135.0655  160.0432 H   0  0  0  0  0  0  0  0  0  0  0  0  # atno 6908 bound_to 6896
  152.3017  133.5626  159.5659 H   0  0  0  0  0  0  0  0  0  0  0  0  # atno 6909 bound_to 6896
  145.4851  140.9555  143.1843 H   0  0  0  0  0  0  0  0  0  0  0  0  # atno 7974 bound_to 7965
  155.5591  140.3488  155.4487 H   0  0  0  0  0  0  0  0  0  0  0  0  # atno 8008 bound_to 7997
  156.0528  140.1321  157.0057 H   0  0  0  0  0  0  0  0  0  0  0  0  # atno 8009 bound_to 7997
  154.4442  140.1001  156.6386 H   0  0  0  0  0  0  0  0  0  0  0  0  # atno 8010 bound_to 7997
  140.1765  143.4000  152.1314 H   0  0  0  0  0  0  0  0  0  0  0  0  # atno 10167 bound_to 10162
  156.6103  130.4848  149.6204 H   0  0  0  0  0  0  0  0  0  0  0  0  # atno 10718 bound_to 10713
  153.0588  135.5025  154.8044 H   0  0  0  0  0  0  0  0  0  0  0  0  # atno 10763 bound_to 10752
  154.6849  135.2974  154.9563 H   0  0  0  0  0  0  0  0  0  0  0  0  # atno 10764 bound_to 10752
  154.0337  135.6726  153.4836 H   0  0  0  0  0  0  0  0  0  0  0  0  # atno 10765 bound_to 10752
  140.5017  134.5887  157.4990 H   0  0  0  0  0  0  0  0  0  0  0  0  # atno 11005 bound_to 11000
  144.7866  139.6414  143.7131 LP  0  0  0  0  0  0  0  0  0  0  0  0  # atno 17320 bound_to 7965
  146.2318  139.5828  142.9550 LP  0  0  0  0  0  0  0  0  0  0  0  0  # atno 17321 bound_to 7965
  139.5315  144.7163  151.5041 LP  0  0  0  0  0  0  0  0  0  0  0  0  # atno 17342 bound_to 10162
  140.6548  143.8623  150.6823 LP  0  0  0  0  0  0  0  0  0  0  0  0  # atno 17343 bound_to 10162
  156.2395  130.6843  151.1542 LP  0  0  0  0  0  0  0  0  0  0  0  0  # atno 17370 bound_to 10713
  157.7256  131.0652  150.5946 LP  0  0  0  0  0  0  0  0  0  0  0  0  # atno 17371 bound_to 10713
  139.9709  134.7294  156.0043 LP  0  0  0  0  0  0  0  0  0  0  0  0  # atno 17394 bound_to 11000
  141.1432  133.6561  156.3790 LP  0  0  0  0  0  0  0  0  0  0  0  0  # atno 17395 bound_to 11000

$$$$
