AV-unprocessed.smi:50|AV-procd|sdf|493|dock7
  -GOLD-   2262016363D 1   1.00000     0.00000
 Structure written by MMmdl.
 43 44  0  0  0  0  0  0  0  0  1 V2000
  143.9793  134.1550  162.5197 C   0  0  0  0  0  0  0  0  0  0  0  0
  145.1756  134.5373  161.6305 C   0  0  0  0  0  0  0  0  0  0  0  0
  146.4674  133.8846  162.1614 C   0  0  0  0  0  0  0  0  0  0  0  0
  145.2661  136.0735  161.4116 C   0  0  2  0  0  0  0  0  0  0  0  0
  144.1918  136.5391  160.5333 N   0  0  0  0  0  0  0  0  0  0  0  0
  146.6568  136.5681  160.9683 C   0  0  0  0  0  0  0  0  0  0  0  0
  147.3405  137.3491  161.6308 O   0  0  0  0  0  0  0  0  0  0  0  0
  147.0229  136.0281  159.7901 O   0  0  0  0  0  0  0  0  0  0  0  0
  148.3947  135.7970  159.5179 C   0  0  0  0  0  0  0  0  0  0  0  0
  149.0432  137.1025  159.0505 C   0  0  0  0  0  0  0  0  0  0  0  0
  150.4018  136.8484  158.7334 O   0  0  0  0  0  0  0  0  0  0  0  0
  151.1446  138.0066  158.5440 C   0  0  0  0  0  0  0  0  0  0  0  0
  150.8751  138.4840  157.2020 N   0  0  0  0  0  0  0  0  0  0  0  0
  150.8806  137.7796  156.0240 C   0  0  0  0  0  0  0  0  0  0  0  0
  150.5997  138.5013  154.9747 N   0  0  0  0  0  0  0  0  0  0  0  0
  150.3948  139.7801  155.4852 C   0  0  0  0  0  0  0  0  0  0  0  0
  150.0579  141.0023  154.8119 C   0  0  0  0  0  0  0  0  0  0  0  0
  149.8730  141.1842  153.6105 O   0  0  0  0  0  0  0  0  0  0  0  0
  149.9427  142.0796  155.6998 N   0  0  0  0  0  0  0  0  0  0  0  0
  150.1320  141.9825  157.0765 C   0  0  0  0  0  0  0  0  0  0  0  0
  149.9854  143.1098  157.7852 N   0  0  0  0  0  0  0  0  0  0  0  0
  150.4417  140.8565  157.6956 N   0  0  0  0  0  0  0  0  0  0  0  0
  150.5620  139.7810  156.8565 C   0  0  0  0  0  0  0  0  0  0  0  0
  145.0703  136.5312  162.3818 H   0  0  0  0  0  0  0  0  0  0  0  0
  149.7078  142.9765  155.3005 H   0  0  0  0  0  0  0  0  0  0  0  0
  144.1010  134.5217  163.5392 H   0  0  0  0  0  0  0  0  0  0  0  0
  143.8609  133.0724  162.5721 H   0  0  0  0  0  0  0  0  0  0  0  0
  143.0493  134.5666  162.1266 H   0  0  0  0  0  0  0  0  0  0  0  0
  144.9798  134.0924  160.6536 H   0  0  0  0  0  0  0  0  0  0  0  0
  146.6823  134.1820  163.1881 H   0  0  0  0  0  0  0  0  0  0  0  0
  147.3292  134.1485  161.5481 H   0  0  0  0  0  0  0  0  0  0  0  0
  146.3831  132.7978  162.1522 H   0  0  0  0  0  0  0  0  0  0  0  0
  143.8381  137.4390  160.8250 H   0  0  0  0  0  0  0  0  0  0  0  0
  144.5162  136.6558  159.5840 H   0  0  0  0  0  0  0  0  0  0  0  0
  148.8956  135.4291  160.4146 H   0  0  0  0  0  0  0  0  0  0  0  0
  148.4923  135.0316  158.7467 H   0  0  0  0  0  0  0  0  0  0  0  0
  148.5195  137.4866  158.1736 H   0  0  0  0  0  0  0  0  0  0  0  0
  148.9731  137.8560  159.8365 H   0  0  0  0  0  0  0  0  0  0  0  0
  150.8477  138.7816  159.2531 H   0  0  0  0  0  0  0  0  0  0  0  0
  152.2130  137.8102  158.6509 H   0  0  0  0  0  0  0  0  0  0  0  0
  151.0992  136.7232  155.9661 H   0  0  0  0  0  0  0  0  0  0  0  0
  149.7490  143.9709  157.3136 H   0  0  0  0  0  0  0  0  0  0  0  0
  150.1102  143.1015  158.7871 H   0  0  0  0  0  0  0  0  0  0  0  0
  1  2  1  0  0  0  0
  1 26  1  0  0  0  0
  1 27  1  0  0  0  0
  1 28  1  0  0  0  0
  2  3  1  0  0  0  0
  2  4  1  0  0  0  0
  2 29  1  0  0  0  0
  3 30  1  0  0  0  0
  3 31  1  0  0  0  0
  3 32  1  0  0  0  0
  4 24  1  0  0  0  0
  4  5  1  0  0  0  0
  4  6  1  0  0  0  0
  5 33  1  0  0  0  0
  5 34  1  0  0  0  0
  6  7  2  0  0  0  0
  6  8  1  0  0  0  0
  8  9  1  0  0  0  0
  9 10  1  0  0  0  0
  9 35  1  0  0  0  0
  9 36  1  0  0  0  0
 10 11  1  0  0  0  0
 10 37  1  0  0  0  0
 10 38  1  0  0  0  0
 11 12  1  0  0  0  0
 12 13  1  0  0  0  0
 12 39  1  0  0  0  0
 12 40  1  0  0  0  0
 13 23  1  0  0  0  0
 13 14  1  0  0  0  0
 14 15  2  0  0  0  0
 14 41  1  0  0  0  0
 15 16  1  0  0  0  0
 16 23  2  0  0  0  0
 16 17  1  0  0  0  0
 17 18  2  0  0  0  0
 17 19  1  0  0  0  0
 19 25  1  0  0  0  0
 19 20  1  0  0  0  0
 20 21  1  0  0  0  0
 20 22  2  0  0  0  0
 21 42  1  0  0  0  0
 21 43  1  0  0  0  0
 22 23  1  0  0  0  0
M  END
> <s_m_source_file>
AV-unprocessed.smi

> <i_m_source_file_index>
50

> <i_lp_mmshare_version>
43012

> <i_f3d_flags>
0

> <s_epik_input>
W0NIM11bQ0hdKFtDSDNdKVtDQEhdKFtOSDJdKUMoPU8pT1tDSDJdW0NIMl1PW0NIMl1uKFtjSF1uMSljKGMxMiluYyhbTkgyXSlbbkhdYzI9Tw==

> <s_epik_cmdline>
J2VwaWtfcHl0aG9uJywgJy1waCcsICc3LjAnLCAnLXRuJywgJzgnLCAnLW1hJywgJzIwMCcsICctbWV0YWxfYmluZGluZycsICctaW1hZScsICc8aW5maWxlLm1hZT4nLCAnLW9tYWUnLCAnPG91dGZpbGUubWFlPic=

> <r_lp_tautomer_probability>
0.99994

> <r_epik_Ionization_Penalty>
0.704142

> <r_epik_Ionization_Penalty_Charging>
0.00148332

> <r_epik_Ionization_Penalty_Neutral>
0.702658

> <r_epik_State_Penalty>
0.725442

> <r_epik_Charging_Adjusted_Penalty>
0.726926

> <i_epik_Tot_Q>
0

> <i_epik_Tot_abs_Q>
0

> <r_epik_Metal_State_Penalty>
1.04557

> <b_epik_Metal_Only>
0

> <s_epik_Chemistry_Notes>
This compound has an ester and may undergo hydrolysis at high or low pH. This compound contains an acetal/aminal-like group ( X-CH(R)-Y where X, Y are N, S, or O) that may be acid/base labile, releasing an aldehyde.

> <s_lp_Force_Field>
OPLS_2005

> <r_lp_Energy>
11.3413

> <b_lp_Chiralities_Consistent>
1

> <s_lp_Variant>
AV-unprocessed.smi:50-3

> <Gold.Version>
5.8.1

> <Gold.Id.Protein>
6NUR|6NUR_protein|mol2

> <Gold.PLP.Fitness>
45.3000

> <Gold.PLP.PLP>
-31.5480

> <Gold.PLP.part.hbond>
-6.8843

> <Gold.PLP.part.metal>
0.0000

> <Gold.PLP.part.buried>
-4.2130

> <Gold.PLP.part.nonpolar>
-22.5155

> <Gold.PLP.part.repulsive>
3.0579

> <Gold.PLP.ligand.clash>
0.0000

> <Gold.PLP.ligand.torsion>
1.1397

> <Gold.PLP.Chemscore.Hbond>
5.2203

> <Gold.PLP.Chemscore.CHOScore>
0.0000

> <Gold.PLP.Chemscore.Metal>
0.0000

> <Gold.Chemscore.Hbonds>
donor molecule, donor type, donor heavy atom, donor atom, acceptor molecule, acceptor atom, score
      L1  H    19    25       P1  8028  0.91
      L1  H    21    42       P1  8028  0.90
      P1  H  6896  6909       L1    11  0.57
      P1  H  6931  6943       L1     7  0.82
      P1  H  6934  6947       L1     7  0.85
      P1  H  7989  7998       L1    18  0.06
      P1  H  8011  8017       L1    18  0.90

> <Gold.PLP.Chemscore.Internal.Correction>
0.3707

> <Gold.Rescore>
     Score         DG    S(hbond)    S(metal)    S(lipo)     H(rot)  DE(clash)    DE(int)     intcor
     10.03     -12.66       4.41        0.00      39.54       4.75       1.44       1.19       ----

> <Gold.Chemscore.Fitness>
10.0271

> <Gold.Chemscore.DG>
-12.6629

> <Gold.Chemscore.ZeroCoef>
-5.4800

> <Gold.Chemscore.Hbond>
4.4061

> <Gold.Chemscore.Metal>
0.0000

> <Gold.Chemscore.Lipo>
39.5449

> <Gold.Chemscore.Internal_Hbond>
0.0000

> <Gold.Chemscore.DEClash>
1.4433

> <Gold.Chemscore.DEInternal>
1.1925

> <Gold.Chemscore.Rot>
4.7501

> <Gold.Chemscore.Internal.Correction>
   9.000000E+99

> <Gold.Chemscore.Hbonds>
donor molecule, donor type, donor heavy atom, donor atom, acceptor molecule, acceptor atom, score
      L1  H    19    25       P1  8028  0.87
      L1  H    21    42       P1  8028  0.56
      P1  H  6896  6909       L1    11  0.33
      P1  H  6931  6943       L1     7  0.81
      P1  H  6934  6947       L1     7  0.62
      P1  H  8011  8017       L1    18  0.88

> <Gold.Chemscore.Hbond.Weighted>
-14.7165

> <Gold.Chemscore.Metal.Weighted>
-0.0000

> <Gold.Chemscore.Lipo.Weighted>
-4.6268

> <Gold.Chemscore.Internal_Hbond.Weighted>
0.0000

> <Gold.Chemscore.DEClash.Weighted>
1.4433

> <Gold.Chemscore.DEInternal.Weighted>
1.1925

> <Gold.Chemscore.Rot.Weighted>
12.1603

> <Gold.Chemscore.Internal.Correction.Weighted>
   9.000000E+99

> <Gold.Protein.RotatedTorsions>
[ 6907 6896 6895 6894 ] final   80.77 input  -60.11 | X-H torsion
[ 7974 7965 7964 7962 ] final  125.68 input  175.53 | X-H torsion
[ 8008 7997 7996 7995 ] final   45.48 input   59.86 | X-H torsion
[ 10167 10162 10161 10158 ] final  104.36 input  -65.29 | X-H torsion
[ 10718 10713 10712 10709 ] final   93.53 input   66.30 | X-H torsion
[ 10763 10752 10751 10750 ] final  168.79 input  -60.55 | X-H torsion
[ 11005 11000 10999 10996 ] final   14.78 input  -57.11 | X-H torsion

> <Gold.Protein.ActiveResidues>
 VAL166  LYS551  ARG553  GLY616  TRP617  ASP618  TYR619  PRO620  LYS621  CYS622 
 ASP623  PHE694  ASN695  SER759  ASP760  ASP761  ALA762  ILE779  LEU786  VAL792 
 PHE793  MET794  SER795  GLU796  ALA797  LYS798  CYS799  TRP800  GLU811  SER814 

> <Gold.Protein.RotatedAtoms>
  152.5246  134.3306  159.9181 H   0  0  0  0  0  0  0  0  0  0  0  0  # atno 6907 bound_to 6896
  151.3255  133.4015  159.2666 H   0  0  0  0  0  0  0  0  0  0  0  0  # atno 6908 bound_to 6896
  150.9923  134.9272  159.7964 H   0  0  0  0  0  0  0  0  0  0  0  0  # atno 6909 bound_to 6896
  145.0702  139.3736  143.4961 H   0  0  0  0  0  0  0  0  0  0  0  0  # atno 7974 bound_to 7965
  155.3366  140.3405  155.4239 H   0  0  0  0  0  0  0  0  0  0  0  0  # atno 8008 bound_to 7997
  156.1834  140.1672  156.8267 H   0  0  0  0  0  0  0  0  0  0  0  0  # atno 8009 bound_to 7997
  154.5359  140.0735  156.8410 H   0  0  0  0  0  0  0  0  0  0  0  0  # atno 8010 bound_to 7997
  139.7184  144.7063  151.0912 H   0  0  0  0  0  0  0  0  0  0  0  0  # atno 10167 bound_to 10162
  157.6954  131.0481  150.4047 H   0  0  0  0  0  0  0  0  0  0  0  0  # atno 10718 bound_to 10713
  154.3737  135.2753  155.2251 H   0  0  0  0  0  0  0  0  0  0  0  0  # atno 10763 bound_to 10752
  154.4387  135.5959  153.6119 H   0  0  0  0  0  0  0  0  0  0  0  0  # atno 10764 bound_to 10752
  152.9837  135.6013  154.3972 H   0  0  0  0  0  0  0  0  0  0  0  0  # atno 10765 bound_to 10752
  140.4657  134.1082  155.7724 H   0  0  0  0  0  0  0  0  0  0  0  0  # atno 11005 bound_to 11000
  146.3528  140.0443  142.8640 LP  0  0  0  0  0  0  0  0  0  0  0  0  # atno 17320 bound_to 7965
  145.1302  140.9513  143.4549 LP  0  0  0  0  0  0  0  0  0  0  0  0  # atno 17321 bound_to 7965
  140.7748  143.5199  150.9550 LP  0  0  0  0  0  0  0  0  0  0  0  0  # atno 17342 bound_to 10162
  139.8885  143.6983  152.3148 LP  0  0  0  0  0  0  0  0  0  0  0  0  # atno 17343 bound_to 10162
  156.4437  130.3997  149.6680 LP  0  0  0  0  0  0  0  0  0  0  0  0  # atno 17370 bound_to 10713
  156.3855  130.7600  151.2597 LP  0  0  0  0  0  0  0  0  0  0  0  0  # atno 17371 bound_to 10713
  141.1600  133.8810  157.1872 LP  0  0  0  0  0  0  0  0  0  0  0  0  # atno 17394 bound_to 11000
  139.9917  135.0062  156.9990 LP  0  0  0  0  0  0  0  0  0  0  0  0  # atno 17395 bound_to 11000

$$$$
