AV-unprocessed.smi:1473|AV-procd|sdf|5969|dock6
  -GOLD-   22720 6 53D 1   1.00000     0.00000
 Structure written by MMmdl.
 35 36  0  0  0  0  0  0  0  0  2 V2000
  149.1705  134.8873  154.1720 N   0  0  0  0  0  0  0  0  0  0  0  0
  149.9379  135.8703  155.3541 S   0  0  0  0  0  0  0  0  0  0  0  0
  149.0309  136.0364  156.4997 O   0  0  0  0  0  0  0  0  0  0  0  0
  151.3227  135.4096  155.5331 O   0  0  0  0  0  0  0  0  0  0  0  0
  149.9734  137.3530  154.4769 N   0  0  0  0  0  0  0  0  0  0  0  0
  151.0824  138.2887  154.6516 C   0  0  0  0  0  0  0  0  0  0  0  0
  150.6167  139.6743  155.0532 C   0  0  0  0  0  0  0  0  0  0  0  0
  149.5604  140.3006  154.3608 C   0  0  0  0  0  0  0  0  0  0  0  0
  149.1396  141.5780  154.7738 C   0  0  0  0  0  0  0  0  0  0  0  0
  149.7443  142.1790  155.8211 N   0  3  0  0  0  0  0  0  0  0  0  0
  150.7597  141.6262  156.5307 C   0  0  0  0  0  0  0  0  0  0  0  0
  151.3030  142.3646  157.6076 N   0  0  0  0  0  0  0  0  0  0  0  0
  152.2721  141.6732  158.4584 C   0  0  0  0  0  0  0  0  0  0  0  0
  152.5251  142.4659  159.7517 C   0  0  0  0  0  0  0  0  0  0  0  0
  152.9104  143.7973  159.4319 O   0  0  0  0  0  0  0  0  0  0  0  0
  151.8821  144.4858  158.7308 C   0  0  0  0  0  0  0  0  0  0  0  0
  151.5984  143.7796  157.3940 C   0  0  0  0  0  0  0  0  0  0  0  0
  151.2191  140.3413  156.1424 C   0  0  0  0  0  0  0  0  0  0  0  0
  149.7546  134.1040  153.8794 H   0  0  0  0  0  0  0  0  0  0  0  0
  148.8012  135.4327  153.3934 H   0  0  0  0  0  0  0  0  0  0  0  0
  149.5778  137.3073  153.5379 H   0  0  0  0  0  0  0  0  0  0  0  0
  151.7806  137.8916  155.3894 H   0  0  0  0  0  0  0  0  0  0  0  0
  151.6301  138.3588  153.7114 H   0  0  0  0  0  0  0  0  0  0  0  0
  149.0770  139.8090  153.5291 H   0  0  0  0  0  0  0  0  0  0  0  0
  148.3408  142.1331  154.3037 H   0  0  0  0  0  0  0  0  0  0  0  0
  151.9293  140.6746  158.7284 H   0  0  0  0  0  0  0  0  0  0  0  0
  153.2041  141.5537  157.9046 H   0  0  0  0  0  0  0  0  0  0  0  0
  151.6357  142.4736  160.3842 H   0  0  0  0  0  0  0  0  0  0  0  0
  153.3208  141.9955  160.3294 H   0  0  0  0  0  0  0  0  0  0  0  0
  150.9802  144.5360  159.3433 H   0  0  0  0  0  0  0  0  0  0  0  0
  152.2008  145.5128  158.5512 H   0  0  0  0  0  0  0  0  0  0  0  0
  152.4580  143.8715  156.7285 H   0  0  0  0  0  0  0  0  0  0  0  0
  150.7550  144.2784  156.9165 H   0  0  0  0  0  0  0  0  0  0  0  0
  152.0143  139.8404  156.6735 H   0  0  0  0  0  0  0  0  0  0  0  0
  149.4153  143.1050  156.0951 H   0  0  0  0  0  0  0  0  0  0  0  0
  1  2  1  0  0  0  0
  1 19  1  0  0  0  0
  1 20  1  0  0  0  0
  2  3  2  0  0  0  0
  2  4  2  0  0  0  0
  2  5  1  0  0  0  0
  5  6  1  0  0  0  0
  5 21  1  0  0  0  0
  6  7  1  0  0  0  0
  6 22  1  0  0  0  0
  6 23  1  0  0  0  0
  7 18  1  0  0  0  0
  7  8  2  0  0  0  0
  8  9  1  0  0  0  0
  8 24  1  0  0  0  0
  9 10  2  0  0  0  0
  9 25  1  0  0  0  0
 10 11  1  0  0  0  0
 10 35  1  0  0  0  0
 11 12  1  0  0  0  0
 11 18  2  0  0  0  0
 12 17  1  0  0  0  0
 12 13  1  0  0  0  0
 13 14  1  0  0  0  0
 13 26  1  0  0  0  0
 13 27  1  0  0  0  0
 14 15  1  0  0  0  0
 14 28  1  0  0  0  0
 14 29  1  0  0  0  0
 15 16  1  0  0  0  0
 16 17  1  0  0  0  0
 16 30  1  0  0  0  0
 16 31  1  0  0  0  0
 17 32  1  0  0  0  0
 17 33  1  0  0  0  0
 18 34  1  0  0  0  0
M  CHG  1  10   1
M  END
> <s_m_source_file>
AV-unprocessed.smi

> <i_m_source_file_index>
1473

> <i_lp_mmshare_version>
43012

> <i_f3d_flags>
0

> <s_epik_input>
W05IMl1TKD1PKSg9TylbTkhdW0NIMl1jMVtjSF1bY0hdbmMoW2NIXTEpTjJbQ0gyXVtDSDJdT1tDSDJdW0NIMl0y

> <s_epik_cmdline>
J2VwaWtfcHl0aG9uJywgJy1waCcsICc3LjAnLCAnLXRuJywgJzgnLCAnLW1hJywgJzIwMCcsICctbWV0YWxfYmluZGluZycsICctaW1hZScsICc8aW5maWxlLm1hZT4nLCAnLW9tYWUnLCAnPG91dGZpbGUubWFlPic=

> <r_lp_tautomer_probability>
0.999994

> <r_epik_Ionization_Penalty>
2.36475

> <r_epik_Ionization_Penalty_Charging>
1.69468

> <r_epik_Ionization_Penalty_Neutral>
0.670067

> <r_epik_State_Penalty>
1.95548

> <r_epik_Charging_Adjusted_Penalty>
3.65016

> <i_epik_Tot_Q>
1

> <i_epik_Tot_abs_Q>
1

> <r_epik_Metal_State_Penalty>
4.27053

> <b_epik_Metal_Only>
0

> <s_lp_Force_Field>
OPLS_2005

> <r_lp_Energy>
21.3801

> <b_lp_Chiralities_Consistent>
1

> <s_lp_Variant>
AV-unprocessed.smi:1473-4

> <Gold.Version>
5.8.1

> <Gold.Id.Protein>
6NUR|6NUR_protein|mol2

> <Gold.PLP.Fitness>
51.4244

> <Gold.PLP.PLP>
-37.1622

> <Gold.PLP.part.hbond>
-4.0000

> <Gold.PLP.part.metal>
0.0000

> <Gold.PLP.part.buried>
-3.1988

> <Gold.PLP.part.nonpolar>
-29.9539

> <Gold.PLP.part.repulsive>
0.3132

> <Gold.PLP.ligand.clash>
0.0000

> <Gold.PLP.ligand.torsion>
0.9583

> <Gold.PLP.Chemscore.Hbond>
4.9100

> <Gold.PLP.Chemscore.CHOScore>
0.0000

> <Gold.PLP.Chemscore.Metal>
0.0000

> <Gold.Chemscore.Hbonds>
donor molecule, donor type, donor heavy atom, donor atom, acceptor molecule, acceptor atom, score
      L1  H     1    20       P1  7948  1.00
      L1  H     5    21       P1  7948  0.94
      L1  H    10    35       P1  8028  2.00
      P1  H 10752 10764       L1     4  1.00

> <Gold.PLP.Chemscore.Internal.Correction>
1.4488

> <Gold.Rescore>
     Score         DG    S(hbond)    S(metal)    S(lipo)     H(rot)  DE(clash)    DE(int)     intcor
     21.28     -22.31       3.64        0.00      82.27       1.93       0.05       0.98       ----

> <Gold.Chemscore.Fitness>
21.2804

> <Gold.Chemscore.DG>
-22.3097

> <Gold.Chemscore.ZeroCoef>
-5.4800

> <Gold.Chemscore.Hbond>
3.6356

> <Gold.Chemscore.Metal>
0.0000

> <Gold.Chemscore.Lipo>
82.2676

> <Gold.Chemscore.Internal_Hbond>
0.0000

> <Gold.Chemscore.DEClash>
0.0484

> <Gold.Chemscore.DEInternal>
0.9809

> <Gold.Chemscore.Rot>
1.9292

> <Gold.Chemscore.Internal.Correction>
   9.000000E+99

> <Gold.Chemscore.Hbonds>
donor molecule, donor type, donor heavy atom, donor atom, acceptor molecule, acceptor atom, score
      L1  H     1    20       P1  7948  0.81
      L1  H     5    21       P1  7948  0.73
      L1  H    10    35       P1  8028  0.94
      P1  H 10752 10764       L1     4  0.99

> <Gold.Chemscore.Hbond.Weighted>
-12.1431

> <Gold.Chemscore.Metal.Weighted>
-0.0000

> <Gold.Chemscore.Lipo.Weighted>
-9.6253

> <Gold.Chemscore.Internal_Hbond.Weighted>
0.0000

> <Gold.Chemscore.DEClash.Weighted>
0.0484

> <Gold.Chemscore.DEInternal.Weighted>
0.9809

> <Gold.Chemscore.Rot.Weighted>
4.9386

> <Gold.Chemscore.Internal.Correction.Weighted>
   9.000000E+99

> <Gold.Protein.RotatedTorsions>
[ 6907 6896 6895 6894 ] final  147.56 input  -60.11 | X-H torsion
[ 7974 7965 7964 7962 ] final -134.45 input  175.53 | X-H torsion
[ 8008 7997 7996 7995 ] final -152.49 input   59.86 | X-H torsion
[ 10167 10162 10161 10158 ] final  -28.64 input  -65.29 | X-H torsion
[ 10718 10713 10712 10709 ] final  138.84 input   66.30 | X-H torsion
[ 10763 10752 10751 10750 ] final  -45.36 input  -60.55 | X-H torsion
[ 11005 11000 10999 10996 ] final  -17.39 input  -57.11 | X-H torsion

> <Gold.Protein.ActiveResidues>
 VAL166  LYS551  ARG553  GLY616  TRP617  ASP618  TYR619  PRO620  LYS621  CYS622 
 ASP623  PHE694  ASN695  SER759  ASP760  ASP761  ALA762  ILE779  LEU786  VAL792 
 PHE793  MET794  SER795  GLU796  ALA797  LYS798  CYS799  TRP800  GLU811  SER814 

> <Gold.Protein.RotatedAtoms>
  152.1531  133.4534  159.4823 H   0  0  0  0  0  0  0  0  0  0  0  0  # atno 6907 bound_to 6896
  150.6898  134.2164  159.4388 H   0  0  0  0  0  0  0  0  0  0  0  0  # atno 6908 bound_to 6896
  152.0062  134.9901  160.0617 H   0  0  0  0  0  0  0  0  0  0  0  0  # atno 6909 bound_to 6896
  144.9102  140.6885  143.5030 H   0  0  0  0  0  0  0  0  0  0  0  0  # atno 7974 bound_to 7965
  155.6559  140.0717  157.2571 H   0  0  0  0  0  0  0  0  0  0  0  0  # atno 8008 bound_to 7997
  154.4152  140.1725  156.1775 H   0  0  0  0  0  0  0  0  0  0  0  0  # atno 8009 bound_to 7997
  155.9738  140.3359  155.6603 H   0  0  0  0  0  0  0  0  0  0  0  0  # atno 8010 bound_to 7997
  140.7268  143.3994  151.1292 H   0  0  0  0  0  0  0  0  0  0  0  0  # atno 10167 bound_to 10162
  157.4209  131.1038  151.0354 H   0  0  0  0  0  0  0  0  0  0  0  0  # atno 10718 bound_to 10713
  154.0273  135.6661  153.4777 H   0  0  0  0  0  0  0  0  0  0  0  0  # atno 10763 bound_to 10752
  153.0555  135.5059  154.7966 H   0  0  0  0  0  0  0  0  0  0  0  0  # atno 10764 bound_to 10752
  154.6900  135.3060  154.9458 H   0  0  0  0  0  0  0  0  0  0  0  0  # atno 10765 bound_to 10752
  140.8163  133.8102  155.9614 H   0  0  0  0  0  0  0  0  0  0  0  0  # atno 11005 bound_to 11000
  145.3467  139.1717  143.4456 LP  0  0  0  0  0  0  0  0  0  0  0  0  # atno 17320 bound_to 7965
  146.3154  140.3515  142.8656 LP  0  0  0  0  0  0  0  0  0  0  0  0  # atno 17321 bound_to 7965
  139.7611  143.8634  152.3100 LP  0  0  0  0  0  0  0  0  0  0  0  0  # atno 17342 bound_to 10162
  139.8520  144.7160  150.9202 LP  0  0  0  0  0  0  0  0  0  0  0  0  # atno 17343 bound_to 10162
  157.1285  130.6092  149.5523 LP  0  0  0  0  0  0  0  0  0  0  0  0  # atno 17370 bound_to 10713
  155.9880  130.4922  150.7152 LP  0  0  0  0  0  0  0  0  0  0  0  0  # atno 17371 bound_to 10713
  140.9145  134.2219  157.4965 LP  0  0  0  0  0  0  0  0  0  0  0  0  # atno 17394 bound_to 11000
  139.8711  134.9765  156.4923 LP  0  0  0  0  0  0  0  0  0  0  0  0  # atno 17395 bound_to 11000

$$$$
