AV-unprocessed.smi:3243|AV-procd|sdf|12397|dock10
  -GOLD-   2272018273D 1   1.00000     0.00000
 Structure written by MMmdl.
 37 38  0  0  0  0  0  0  0  0  1 V2000
  154.2611  141.1574  160.2031 C   0  0  0  0  0  0  0  0  0  0  0  0
  153.6822  142.5547  160.4673 C   0  0  0  0  0  0  0  0  0  0  0  0
  153.2013  142.7442  161.9131 C   0  0  0  0  0  0  0  0  0  0  0  0
  152.6299  142.9258  159.4700 C   0  0  0  0  0  0  0  0  0  0  0  0
  152.2927  142.1612  158.4266 N   0  0  0  0  0  0  0  0  0  0  0  0
  151.2852  142.7305  157.6418 C   0  0  0  0  0  0  0  0  0  0  0  0
  150.7810  142.0057  156.4309 C   0  0  0  0  0  0  0  0  0  0  0  0
  149.8810  140.8177  156.7974 C   0  0  0  0  0  0  0  0  0  0  0  0
  148.5754  140.9478  156.1648 N   0  0  0  0  0  0  0  0  0  0  0  0
  148.3758  141.0069  154.8406 C   0  0  0  0  0  0  0  0  0  0  0  0
  149.2946  140.9523  154.0218 O   0  0  0  0  0  0  0  0  0  0  0  0
  146.9403  141.1453  154.4500 C   0  0  1  0  0  0  0  0  0  0  0  0
  145.8983  140.9494  155.5325 C   0  0  0  0  0  0  0  0  0  0  0  0
  146.1693  142.3334  154.9947 C   0  0  2  0  0  0  0  0  0  0  0  0
  145.1497  143.0444  154.1313 C   0  0  0  0  0  0  0  0  0  0  0  0
  150.8578  143.9478  158.1100 C   0  0  0  0  0  0  0  0  0  0  0  0
  151.7080  144.4232  159.5541 S   0  0  0  0  0  0  0  0  0  0  0  0
  154.6681  141.0857  159.1941 H   0  0  0  0  0  0  0  0  0  0  0  0
  153.4985  140.3854  160.3104 H   0  0  0  0  0  0  0  0  0  0  0  0
  155.0665  140.9275  160.9010 H   0  0  0  0  0  0  0  0  0  0  0  0
  154.5027  143.2588  160.3227 H   0  0  0  0  0  0  0  0  0  0  0  0
  152.8734  143.7696  162.0862 H   0  0  0  0  0  0  0  0  0  0  0  0
  153.9994  142.5286  162.6238 H   0  0  0  0  0  0  0  0  0  0  0  0
  152.3648  142.0833  162.1424 H   0  0  0  0  0  0  0  0  0  0  0  0
  150.2291  142.6951  155.7905 H   0  0  0  0  0  0  0  0  0  0  0  0
  151.6235  141.6533  155.8341 H   0  0  0  0  0  0  0  0  0  0  0  0
  150.3443  139.8823  156.4793 H   0  0  0  0  0  0  0  0  0  0  0  0
  149.7554  140.7644  157.8802 H   0  0  0  0  0  0  0  0  0  0  0  0
  147.7713  141.0000  156.7733 H   0  0  0  0  0  0  0  0  0  0  0  0
  146.6750  140.8012  153.4514 H   0  0  0  0  0  0  0  0  0  0  0  0
  144.9746  140.4539  155.2410 H   0  0  0  0  0  0  0  0  0  0  0  0
  146.2336  140.7332  156.5454 H   0  0  0  0  0  0  0  0  0  0  0  0
  146.7027  143.0045  155.6661 H   0  0  0  0  0  0  0  0  0  0  0  0
  144.6366  142.3395  153.4763 H   0  0  0  0  0  0  0  0  0  0  0  0
  145.6411  143.7972  153.5150 H   0  0  0  0  0  0  0  0  0  0  0  0
  144.4080  143.5385  154.7591 H   0  0  0  0  0  0  0  0  0  0  0  0
  150.0958  144.5909  157.6951 H   0  0  0  0  0  0  0  0  0  0  0  0
  1  2  1  0  0  0  0
  1 18  1  0  0  0  0
  1 19  1  0  0  0  0
  1 20  1  0  0  0  0
  2  3  1  0  0  0  0
  2  4  1  0  0  0  0
  2 21  1  0  0  0  0
  3 22  1  0  0  0  0
  3 23  1  0  0  0  0
  3 24  1  0  0  0  0
  4 17  1  0  0  0  0
  4  5  2  0  0  0  0
  5  6  1  0  0  0  0
  6  7  1  0  0  0  0
  6 16  2  0  0  0  0
  7  8  1  0  0  0  0
  7 25  1  0  0  0  0
  7 26  1  0  0  0  0
  8  9  1  0  0  0  0
  8 27  1  0  0  0  0
  8 28  1  0  0  0  0
  9 10  1  0  0  0  0
  9 29  1  0  0  0  0
 10 11  2  0  0  0  0
 10 12  1  0  0  0  0
 12 14  1  0  0  0  0
 12 13  1  0  0  0  0
 12 30  1  0  0  0  0
 13 14  1  0  0  0  0
 13 31  1  0  0  0  0
 13 32  1  0  0  0  0
 14 15  1  0  0  0  0
 14 33  1  0  0  0  0
 15 34  1  0  0  0  0
 15 35  1  0  0  0  0
 15 36  1  0  0  0  0
 16 17  1  0  0  0  0
 16 37  1  0  0  0  0
M  END
> <s_m_source_file>
AV-unprocessed.smi

> <i_m_source_file_index>
3243

> <i_lp_mmshare_version>
43012

> <i_f3d_flags>
0

> <s_epik_input>
W0NIM11bQ0hdKFtDSDNdKWMxbmMoW2NIXXMxKVtDSDJdW0NIMl1bTkhdQyg9TylbQ0BASF0yW0NIMl1bQ0BIXTJbQ0gzXQ==

> <s_epik_cmdline>
J2VwaWtfcHl0aG9uJywgJy1waCcsICc3LjAnLCAnLXRuJywgJzgnLCAnLW1hJywgJzIwMCcsICctbWV0YWxfYmluZGluZycsICctaW1hZScsICc8aW5maWxlLm1hZT4nLCAnLW9tYWUnLCAnPG91dGZpbGUubWFlPic=

> <r_epik_Ionization_Penalty>
0.00084212

> <r_epik_Ionization_Penalty_Charging>
0

> <r_epik_Ionization_Penalty_Neutral>
0.00084212

> <r_epik_State_Penalty>
0.000542609

> <r_epik_Charging_Adjusted_Penalty>
0.000542609

> <i_epik_Tot_Q>
0

> <i_epik_Tot_abs_Q>
0

> <r_epik_Metal_State_Penalty>
-0

> <b_epik_Metal_Only>
0

> <s_lp_Force_Field>
OPLS_2005

> <r_lp_Energy>
-2.05964

> <b_lp_Chiralities_Consistent>
1

> <s_lp_Variant>
AV-unprocessed.smi:3243-4

> <Gold.Version>
5.8.1

> <Gold.Id.Protein>
6NUR|6NUR_protein|mol2

> <Gold.PLP.Fitness>
50.3274

> <Gold.PLP.PLP>
-45.2725

> <Gold.PLP.part.hbond>
-2.0000

> <Gold.PLP.part.metal>
0.0000

> <Gold.PLP.part.buried>
-5.1005

> <Gold.PLP.part.nonpolar>
-39.8711

> <Gold.PLP.part.repulsive>
1.6406

> <Gold.PLP.ligand.clash>
0.0000

> <Gold.PLP.ligand.torsion>
0.8120

> <Gold.PLP.Chemscore.Hbond>
1.1417

> <Gold.PLP.Chemscore.CHOScore>
1.0344

> <Gold.PLP.Chemscore.Metal>
0.0000

> <Gold.Chemscore.Hbonds>
donor molecule, donor type, donor heavy atom, donor atom, acceptor molecule, acceptor atom, score
      P1  H  7989  7998       L1    11  0.07
      P1  H  8011  8017       L1    11  0.33
      L1  C    16    37       P1  8028  0.85
      L1  C    16    37       P1  8029  0.20

> <Gold.PLP.Chemscore.Internal.Correction>
0.1508

> <Gold.Rescore>
     Score         DG    S(hbond)    S(metal)    S(lipo)     H(rot)  DE(clash)    DE(int)     intcor
     16.17     -18.63       1.05        0.00     114.94       1.49       1.33       1.13       ----

> <Gold.Chemscore.Fitness>
16.1690

> <Gold.Chemscore.DG>
-18.6338

> <Gold.Chemscore.ZeroCoef>
-5.4800

> <Gold.Chemscore.Hbond>
1.0515

> <Gold.Chemscore.Metal>
0.0000

> <Gold.Chemscore.Lipo>
114.9442

> <Gold.Chemscore.Internal_Hbond>
0.0000

> <Gold.Chemscore.DEClash>
1.3345

> <Gold.Chemscore.DEInternal>
1.1302

> <Gold.Chemscore.Rot>
1.4870

> <Gold.Chemscore.Internal.Correction>
   9.000000E+99

> <Gold.Chemscore.Hbonds>
donor molecule, donor type, donor heavy atom, donor atom, acceptor molecule, acceptor atom, score
      P1  H  7989  7998       L1    11  0.08
      P1  H  8011  8017       L1    11  0.31

> <Gold.Chemscore.Hbond.Weighted>
-3.5119

> <Gold.Chemscore.Metal.Weighted>
-0.0000

> <Gold.Chemscore.Lipo.Weighted>
-13.4485

> <Gold.Chemscore.Internal_Hbond.Weighted>
0.0000

> <Gold.Chemscore.DEClash.Weighted>
1.3345

> <Gold.Chemscore.DEInternal.Weighted>
1.1302

> <Gold.Chemscore.Rot.Weighted>
3.8067

> <Gold.Chemscore.Internal.Correction.Weighted>
   9.000000E+99

> <Gold.Protein.RotatedTorsions>
[ 6907 6896 6895 6894 ] final  -25.36 input  -60.11 | X-H torsion
[ 7974 7965 7964 7962 ] final  139.95 input  175.53 | X-H torsion
[ 8008 7997 7996 7995 ] final   32.55 input   59.86 | X-H torsion
[ 10167 10162 10161 10158 ] final  -91.48 input  -65.29 | X-H torsion
[ 10718 10713 10712 10709 ] final   89.79 input   66.30 | X-H torsion
[ 10763 10752 10751 10750 ] final  -36.41 input  -60.55 | X-H torsion
[ 11005 11000 10999 10996 ] final  -44.65 input  -57.11 | X-H torsion

> <Gold.Protein.ActiveResidues>
 VAL166  LYS551  ARG553  GLY616  TRP617  ASP618  TYR619  PRO620  LYS621  CYS622 
 ASP623  PHE694  ASN695  SER759  ASP760  ASP761  ALA762  ILE779  LEU786  VAL792 
 PHE793  MET794  SER795  GLU796  ALA797  LYS798  CYS799  TRP800  GLU811  SER814 

> <Gold.Protein.RotatedAtoms>
  151.1763  135.0341  159.8773 H   0  0  0  0  0  0  0  0  0  0  0  0  # atno 6907 bound_to 6896
  152.5447  134.1113  159.8370 H   0  0  0  0  0  0  0  0  0  0  0  0  # atno 6908 bound_to 6896
  151.1225  133.5047  159.2634 H   0  0  0  0  0  0  0  0  0  0  0  0  # atno 6909 bound_to 6896
  144.9231  139.5142  143.5654 H   0  0  0  0  0  0  0  0  0  0  0  0  # atno 7974 bound_to 7965
  155.1243  140.3251  155.4490 H   0  0  0  0  0  0  0  0  0  0  0  0  # atno 8008 bound_to 7997
  156.2654  140.2022  156.6312 H   0  0  0  0  0  0  0  0  0  0  0  0  # atno 8009 bound_to 7997
  154.6660  140.0542  157.0101 H   0  0  0  0  0  0  0  0  0  0  0  0  # atno 8010 bound_to 7997
  140.3445  143.2924  151.9797 H   0  0  0  0  0  0  0  0  0  0  0  0  # atno 10167 bound_to 10162
  157.6957  131.0346  150.3480 H   0  0  0  0  0  0  0  0  0  0  0  0  # atno 10718 bound_to 10713
  153.8793  135.6823  153.4768 H   0  0  0  0  0  0  0  0  0  0  0  0  # atno 10763 bound_to 10752
  153.1243  135.4726  154.9244 H   0  0  0  0  0  0  0  0  0  0  0  0  # atno 10764 bound_to 10752
  154.7676  135.3229  154.8206 H   0  0  0  0  0  0  0  0  0  0  0  0  # atno 10765 bound_to 10752
  141.0465  133.6759  156.2903 H   0  0  0  0  0  0  0  0  0  0  0  0  # atno 11005 bound_to 11000
  146.3214  139.8126  142.8943 LP  0  0  0  0  0  0  0  0  0  0  0  0  # atno 17320 bound_to 7965
  145.3263  141.0256  143.3471 LP  0  0  0  0  0  0  0  0  0  0  0  0  # atno 17321 bound_to 7965
  139.4835  144.6129  151.7401 LP  0  0  0  0  0  0  0  0  0  0  0  0  # atno 17342 bound_to 10162
  140.5278  144.0778  150.6043 LP  0  0  0  0  0  0  0  0  0  0  0  0  # atno 17343 bound_to 10162
  156.3932  130.3902  149.7014 LP  0  0  0  0  0  0  0  0  0  0  0  0  # atno 17370 bound_to 10713
  156.4357  130.7837  151.2857 LP  0  0  0  0  0  0  0  0  0  0  0  0  # atno 17371 bound_to 10713
  140.6137  134.5432  157.5537 LP  0  0  0  0  0  0  0  0  0  0  0  0  # atno 17394 bound_to 11000
  139.9315  134.7954  156.0917 LP  0  0  0  0  0  0  0  0  0  0  0  0  # atno 17395 bound_to 11000

$$$$
