#       Name:                AV-unprocessed.smi:766
#       Creating user name   scv26
#       Creation time:       Fri Mar 27 01:06:31 2020


#       File generated by GOLD software.
#

@<TRIPOS>MOLECULE
AV-unprocessed.smi:766
    51    53     1
SMALL
NO_CHARGES


@<TRIPOS>ATOM
      1 ****        -1.7056   1.4892   5.2251 C.3            1 S1                 0.0000
      2 ****        -1.5990   1.0660   3.7708 C.ar           1 S1                 0.0000
      3 ****        -0.7212   1.7673   2.9137 C.ar           1 S1                 0.0000
      4 ****        -0.5963   1.4084   1.5538 C.ar           1 S1                 0.0000
      5 ****         0.1861   1.9515   0.5493 N.2            1 S1                 0.0000
      6 ****        -0.1451   1.1883  -0.4879 C.2            1 S1                 0.0000
      7 ****        -1.0469   0.2108  -0.2733 N.pl3          1 S1                 0.0000
      8 ****        -1.5606  -0.7380  -1.2452 C.3            1 S1                 0.0000
      9 ****        -0.9426  -2.1450  -1.0933 C.3            1 S1                 0.0000
     10 ****        -1.4117  -2.9925  -2.1213 O.3            1 S1                 0.0000
     11 ****         0.5980  -2.1982  -1.0457 C.3            1 S1                 0.0000
     12 ****         1.2078  -1.4494  -2.1410 N.3            1 S1                 0.0000
     13 ****         2.6668  -1.4427  -2.1041 C.3            1 S1                 0.0000
     14 ****         3.2518  -0.5535  -3.2132 C.3            1 S1                 0.0000
     15 ****         2.9337   0.8505  -3.0189 N.pl3          1 S1                 0.0000
     16 ****         2.0864   1.6487  -3.7585 C.2            1 S1                 0.0000
     17 ****         2.1064   2.8932  -3.1965 C.2            1 S1                 0.0000
     18 ****         3.0098   2.7569  -2.1056 C.2            1 S1                 0.0000
     19 ****         3.5071   1.5348  -2.0050 N.2            1 S1                 0.0000
     20 ****        -1.3789   0.3186   1.0717 C.ar           1 S1                 0.0000
     21 ****        -2.2531  -0.3891   1.9150 C.ar           1 S1                 0.0000
     22 ****        -2.3669  -0.0163   3.2706 C.ar           1 S1                 0.0000
     23 ****        -3.3168  -0.7846   4.1723 C.3            1 S1                 0.0000
     24 ****        -1.0737   2.3523   5.4367 H              1 S1                 0.0000
     25 ****        -1.3941   0.6768   5.8818 H              1 S1                 0.0000
     26 ****        -2.7327   1.7599   5.4708 H              1 S1                 0.0000
     27 ****        -0.1359   2.5917   3.2936 H              1 S1                 0.0000
     28 ****         0.2954   1.3446  -1.4610 H              1 S1                 0.0000
     29 ****        -2.6446  -0.7884  -1.1353 H              1 S1                 0.0000
     30 ****        -1.3708  -0.3432  -2.2444 H              1 S1                 0.0000
     31 ****        -1.3093  -2.5742  -0.1602 H              1 S1                 0.0000
     32 ****        -1.0875  -3.8656  -1.9608 H              1 S1                 0.0000
     33 ****         0.9356  -1.7833  -0.0949 H              1 S1                 0.0000
     34 ****         0.9348  -3.2355  -1.0612 H              1 S1                 0.0000
     35 ****         0.8846  -1.8178  -3.0300 H              1 S1                 0.0000
     36 ****         3.0181  -1.0960  -1.1315 H              1 S1                 0.0000
     37 ****         3.0407  -2.4600  -2.2235 H              1 S1                 0.0000
     38 ****         4.3375  -0.6558  -3.2372 H              1 S1                 0.0000
     39 ****         2.8867  -0.8680  -4.1919 H              1 S1                 0.0000
     40 ****         1.5419   1.2677  -4.6099 H              1 S1                 0.0000
     41 ****         1.5574   3.7673  -3.5140 H              1 S1                 0.0000
     42 ****         3.3169   3.5043  -1.3890 H              1 S1                 0.0000
     43 ****        -2.8324  -1.2101   1.5193 H              1 S1                 0.0000
     44 ****        -3.8083  -1.5949   3.6331 H              1 S1                 0.0000
     45 ****        -4.0912  -0.1235   4.5621 H              1 S1                 0.0000
     46 ****        -2.7777  -1.2212   5.0132 H              1 S1                 0.0000
     47 ****         0.8299   2.7154   0.5923 LP             1 S1                 0.0000
     48 ****        -1.0787  -2.6662  -3.0059 LP             1 S1                 0.0000
     49 ****        -2.4117  -2.9990  -2.1233 LP             1 S1                 0.0000
     50 ****         0.9198  -0.4981  -2.0314 LP             1 S1                 0.0000
     51 ****         4.1610   1.1940  -1.3295 LP             1 S1                 0.0000
@<TRIPOS>BOND
    1    1    2 1     
    2    1   24 1     
    3    1   25 1     
    4    1   26 1     
    5    2   22 ar    
    6    2    3 ar    
    7    3    4 ar    
    8    3   27 1     
    9    4   20 ar    
   10    4    5 1     
   11    5    6 2     
   12    6    7 1     
   13    6   28 1     
   14    7    8 1     
   15    7   20 1     
   16    8    9 1     
   17    8   29 1     
   18    8   30 1     
   19    9   10 1     
   20    9   11 1     
   21    9   31 1     
   22   10   32 1     
   23   11   12 1     
   24   11   33 1     
   25   11   34 1     
   26   12   13 1     
   27   12   35 1     
   28   13   14 1     
   29   13   36 1     
   30   13   37 1     
   31   14   15 1     
   32   14   38 1     
   33   14   39 1     
   34   15   19 1     
   35   15   16 1     
   36   16   17 2     
   37   16   40 1     
   38   17   18 1     
   39   17   41 1     
   40   18   19 2     
   41   18   42 1     
   42   20   21 ar    
   43   21   22 ar    
   44   21   43 1     
   45   22   23 1     
   46   23   44 1     
   47   23   45 1     
   48   23   46 1     
   49    5   47 1     
   50   10   48 1     
   51   10   49 1     
   52   12   50 1     
   53   19   51 1     
@<TRIPOS>SUBSTRUCTURE
      1 S1             1
@<TRIPOS>SET
LONE_PAIRS      STATIC     ATOMS    <user>   **** ""
5 47 48 49 50 51
DONOR_HYDROGENS      STATIC     ATOMS    <user>   **** ""
2 32 35
ATOM$BLUE        STATIC     ATOMS    COLORGROUP SYSTEM
5 47 48 49 50 51
ATOM$RED        STATIC     ATOMS    COLORGROUP SYSTEM
2 32 35
