AV-unprocessed.smi:2792|AV-procd|sdf|10773|dock7
  -GOLD-   2272015213D 1   1.00000     0.00000
 Structure written by MMmdl.
 44 46  0  0  0  0  0  0  0  0  1 V2000
  153.8887  132.1453  163.7606 C   0  0  0  0  0  0  0  0  0  0  0  0
  155.2487  132.7045  163.3109 C   0  0  0  0  0  0  0  0  0  0  0  0
  155.2095  134.1040  162.6436 C   0  0  2  0  0  0  0  0  0  0  0  0
  154.8276  134.0303  161.1532 C   0  0  0  0  0  0  0  0  0  0  0  0
  156.5110  134.6550  162.7168 O   0  0  0  0  0  0  0  0  0  0  0  0
  154.2370  135.0683  163.3721 C   0  0  0  0  0  0  0  0  0  0  0  0
  154.3322  136.4560  162.9443 N   0  0  0  0  0  0  0  0  0  0  0  0
  154.7911  137.5197  163.6899 C   0  0  0  0  0  0  0  0  0  0  0  0
  154.7824  138.6739  163.0802 N   0  0  0  0  0  0  0  0  0  0  0  0
  154.2665  138.3846  161.8236 C   0  0  0  0  0  0  0  0  0  0  0  0
  153.9905  139.1638  160.6708 C   0  0  0  0  0  0  0  0  0  0  0  0
  154.2354  140.4924  160.6499 N   0  0  0  0  0  0  0  0  0  0  0  0
  153.8221  141.2985  159.5056 C   0  0  0  0  0  0  0  0  0  0  0  0
  153.0799  142.5783  159.8575 C   0  0  0  0  0  0  0  0  0  0  0  0
  152.6957  143.4846  158.8456 C   0  0  0  0  0  0  0  0  0  0  0  0
  152.0052  144.6663  159.1775 C   0  0  0  0  0  0  0  0  0  0  0  0
  151.6975  144.9482  160.5224 C   0  0  0  0  0  0  0  0  0  0  0  0
  152.0817  144.0484  161.5353 C   0  0  0  0  0  0  0  0  0  0  0  0
  152.7731  142.8668  161.2038 C   0  0  0  0  0  0  0  0  0  0  0  0
  153.4628  138.5305  159.5903 N   0  0  0  0  0  0  0  0  0  0  0  0
  153.2293  137.2150  159.6330 C   0  0  0  0  0  0  0  0  0  0  0  0
  153.4434  136.3609  160.6367 N   0  0  0  0  0  0  0  0  0  0  0  0
  153.9707  136.9965  161.7227 C   0  0  0  0  0  0  0  0  0  0  0  0
  154.0013  131.1306  164.1423 H   0  0  0  0  0  0  0  0  0  0  0  0
  153.1779  132.1073  162.9350 H   0  0  0  0  0  0  0  0  0  0  0  0
  153.4501  132.7429  164.5594 H   0  0  0  0  0  0  0  0  0  0  0  0
  155.9118  132.7378  164.1762 H   0  0  0  0  0  0  0  0  0  0  0  0
  155.6907  131.9826  162.6234 H   0  0  0  0  0  0  0  0  0  0  0  0
  153.8559  133.5538  161.0203 H   0  0  0  0  0  0  0  0  0  0  0  0
  155.5563  133.4666  160.5705 H   0  0  0  0  0  0  0  0  0  0  0  0
  154.7680  135.0249  160.7099 H   0  0  0  0  0  0  0  0  0  0  0  0
  156.8709  134.4663  163.5701 H   0  0  0  0  0  0  0  0  0  0  0  0
  153.2046  134.7427  163.2351 H   0  0  0  0  0  0  0  0  0  0  0  0
  154.4216  135.0369  164.4469 H   0  0  0  0  0  0  0  0  0  0  0  0
  155.1439  137.4093  164.7049 H   0  0  0  0  0  0  0  0  0  0  0  0
  154.8865  140.9344  161.2828 H   0  0  0  0  0  0  0  0  0  0  0  0
  154.6948  141.5299  158.8936 H   0  0  0  0  0  0  0  0  0  0  0  0
  153.1673  140.6886  158.8830 H   0  0  0  0  0  0  0  0  0  0  0  0
  152.9272  143.2748  157.8115 H   0  0  0  0  0  0  0  0  0  0  0  0
  151.7105  145.3556  158.4001 H   0  0  0  0  0  0  0  0  0  0  0  0
  151.1665  145.8538  160.7770 H   0  0  0  0  0  0  0  0  0  0  0  0
  151.8453  144.2634  162.5670 H   0  0  0  0  0  0  0  0  0  0  0  0
  153.0619  142.1800  161.9859 H   0  0  0  0  0  0  0  0  0  0  0  0
  152.8112  136.7857  158.7346 H   0  0  0  0  0  0  0  0  0  0  0  0
  1  2  1  0  0  0  0
  1 24  1  0  0  0  0
  1 25  1  0  0  0  0
  1 26  1  0  0  0  0
  2  3  1  0  0  0  0
  2 27  1  0  0  0  0
  2 28  1  0  0  0  0
  3  4  1  0  0  0  0
  3  5  1  0  0  0  0
  3  6  1  0  0  0  0
  4 29  1  0  0  0  0
  4 30  1  0  0  0  0
  4 31  1  0  0  0  0
  5 32  1  0  0  0  0
  6  7  1  0  0  0  0
  6 33  1  0  0  0  0
  6 34  1  0  0  0  0
  7 23  1  0  0  0  0
  7  8  1  0  0  0  0
  8  9  2  0  0  0  0
  8 35  1  0  0  0  0
  9 10  1  0  0  0  0
 10 23  2  0  0  0  0
 10 11  1  0  0  0  0
 11 12  1  0  0  0  0
 11 20  2  0  0  0  0
 12 13  1  0  0  0  0
 12 36  1  0  0  0  0
 13 14  1  0  0  0  0
 13 37  1  0  0  0  0
 13 38  1  0  0  0  0
 14 19  1  0  0  0  0
 14 15  2  0  0  0  0
 15 16  1  0  0  0  0
 15 39  1  0  0  0  0
 16 17  2  0  0  0  0
 16 40  1  0  0  0  0
 17 18  1  0  0  0  0
 17 41  1  0  0  0  0
 18 19  2  0  0  0  0
 18 42  1  0  0  0  0
 19 43  1  0  0  0  0
 20 21  1  0  0  0  0
 21 22  2  0  0  0  0
 21 44  1  0  0  0  0
 22 23  1  0  0  0  0
M  END
> <s_m_source_file>
AV-unprocessed.smi

> <i_m_source_file_index>
2792

> <i_lp_mmshare_version>
43012

> <i_f3d_flags>
0

> <s_epik_input>
W0NIM11bQ0gyXVtDQEBdKFtDSDNdKShbT0hdKVtDSDJdbihbY0hdbjEpYyhjMTIpbltjSF1uYzJbTkhdW0NIMl1jM1tjSF1bY0hdW2NIXVtjSF1bY0hdMw==

> <s_epik_cmdline>
J2VwaWtfcHl0aG9uJywgJy1waCcsICc3LjAnLCAnLXRuJywgJzgnLCAnLW1hJywgJzIwMCcsICctbWV0YWxfYmluZGluZycsICctaW1hZScsICc8aW5maWxlLm1hZT4nLCAnLW9tYWUnLCAnPG91dGZpbGUubWFlPic=

> <r_lp_tautomer_probability>
1

> <r_epik_Ionization_Penalty>
0.00163025

> <r_epik_Ionization_Penalty_Charging>
0

> <r_epik_Ionization_Penalty_Neutral>
0.00163025

> <r_epik_State_Penalty>
-0

> <r_epik_Charging_Adjusted_Penalty>
0

> <i_epik_Tot_Q>
0

> <i_epik_Tot_abs_Q>
0

> <r_epik_Metal_State_Penalty>
-0

> <b_epik_Metal_Only>
0

> <s_lp_Force_Field>
OPLS_2005

> <r_lp_Energy>
12.9035

> <b_lp_Chiralities_Consistent>
1

> <s_lp_Variant>
AV-unprocessed.smi:2792-2

> <Gold.Version>
5.8.1

> <Gold.Id.Protein>
6NUR|6NUR_protein|mol2

> <Gold.PLP.Fitness>
50.1922

> <Gold.PLP.PLP>
-48.0117

> <Gold.PLP.part.hbond>
-1.0000

> <Gold.PLP.part.metal>
0.0000

> <Gold.PLP.part.buried>
-5.3630

> <Gold.PLP.part.nonpolar>
-41.8608

> <Gold.PLP.part.repulsive>
0.0362

> <Gold.PLP.ligand.clash>
0.0000

> <Gold.PLP.ligand.torsion>
0.4872

> <Gold.PLP.Chemscore.Hbond>
1.0000

> <Gold.PLP.Chemscore.CHOScore>
0.0000

> <Gold.PLP.Chemscore.Metal>
0.0000

> <Gold.Chemscore.Hbonds>
donor molecule, donor type, donor heavy atom, donor atom, acceptor molecule, acceptor atom, score
      P1  H  6896  6907       L1    22  0.95

> <Gold.PLP.Chemscore.Internal.Correction>
0.1550

> <Gold.Rescore>
     Score         DG    S(hbond)    S(metal)    S(lipo)     H(rot)  DE(clash)    DE(int)     intcor
     14.45     -15.30       0.89        0.00     113.79       2.52       0.17       0.68       ----

> <Gold.Chemscore.Fitness>
14.4539

> <Gold.Chemscore.DG>
-15.3040

> <Gold.Chemscore.ZeroCoef>
-5.4800

> <Gold.Chemscore.Hbond>
0.8904

> <Gold.Chemscore.Metal>
0.0000

> <Gold.Chemscore.Lipo>
113.7939

> <Gold.Chemscore.Internal_Hbond>
0.0000

> <Gold.Chemscore.DEClash>
0.1722

> <Gold.Chemscore.DEInternal>
0.6778

> <Gold.Chemscore.Rot>
2.5250

> <Gold.Chemscore.Internal.Correction>
   9.000000E+99

> <Gold.Chemscore.Hbonds>
donor molecule, donor type, donor heavy atom, donor atom, acceptor molecule, acceptor atom, score
      P1  H  6896  6907       L1    22  0.21

> <Gold.Chemscore.Hbond.Weighted>
-2.9740

> <Gold.Chemscore.Metal.Weighted>
-0.0000

> <Gold.Chemscore.Lipo.Weighted>
-13.3139

> <Gold.Chemscore.Internal_Hbond.Weighted>
0.0000

> <Gold.Chemscore.DEClash.Weighted>
0.1722

> <Gold.Chemscore.DEInternal.Weighted>
0.6778

> <Gold.Chemscore.Rot.Weighted>
6.4639

> <Gold.Chemscore.Internal.Correction.Weighted>
   9.000000E+99

> <Gold.Protein.RotatedTorsions>
[ 6907 6896 6895 6894 ] final   42.09 input  -60.11 | X-H torsion
[ 7974 7965 7964 7962 ] final  -78.84 input  175.53 | X-H torsion
[ 8008 7997 7996 7995 ] final  -96.64 input   59.86 | X-H torsion
[ 10167 10162 10161 10158 ] final  -12.56 input  -65.29 | X-H torsion
[ 10718 10713 10712 10709 ] final  -17.30 input   66.30 | X-H torsion
[ 10763 10752 10751 10750 ] final  -58.04 input  -60.55 | X-H torsion
[ 11005 11000 10999 10996 ] final  -22.30 input  -57.11 | X-H torsion

> <Gold.Protein.ActiveResidues>
 VAL166  LYS551  ARG553  GLY616  TRP617  ASP618  TYR619  PRO620  LYS621  CYS622 
 ASP623  PHE694  ASN695  SER759  ASP760  ASP761  ALA762  ILE779  LEU786  VAL792 
 PHE793  MET794  SER795  GLU796  ALA797  LYS798  CYS799  TRP800  GLU811  SER814 

> <Gold.Protein.RotatedAtoms>
  152.2035  134.8566  160.0505 H   0  0  0  0  0  0  0  0  0  0  0  0  # atno 6907 bound_to 6896
  151.9411  133.3633  159.3974 H   0  0  0  0  0  0  0  0  0  0  0  0  # atno 6908 bound_to 6896
  150.6960  134.4362  159.5315 H   0  0  0  0  0  0  0  0  0  0  0  0  # atno 6909 bound_to 6896
  145.5812  140.9448  143.1343 H   0  0  0  0  0  0  0  0  0  0  0  0  # atno 7974 bound_to 7965
  154.7772  140.0469  157.1098 H   0  0  0  0  0  0  0  0  0  0  0  0  # atno 8008 bound_to 7997
  154.9748  140.3094  155.4952 H   0  0  0  0  0  0  0  0  0  0  0  0  # atno 8009 bound_to 7997
  156.2931  140.2246  156.4844 H   0  0  0  0  0  0  0  0  0  0  0  0  # atno 8010 bound_to 7997
  140.7164  143.5519  150.9291 H   0  0  0  0  0  0  0  0  0  0  0  0  # atno 10167 bound_to 10162
  156.5754  130.4760  149.6344 H   0  0  0  0  0  0  0  0  0  0  0  0  # atno 10718 bound_to 10713
  154.2319  135.6359  153.5178 H   0  0  0  0  0  0  0  0  0  0  0  0  # atno 10763 bound_to 10752
  152.9947  135.5521  154.6003 H   0  0  0  0  0  0  0  0  0  0  0  0  # atno 10764 bound_to 10752
  154.5488  135.2900  155.1002 H   0  0  0  0  0  0  0  0  0  0  0  0  # atno 10765 bound_to 10752
  140.8643  133.7765  156.0112 H   0  0  0  0  0  0  0  0  0  0  0  0  # atno 11005 bound_to 11000
  144.7393  139.7494  143.7317 LP  0  0  0  0  0  0  0  0  0  0  0  0  # atno 17320 bound_to 7965
  146.1715  139.4867  142.9924 LP  0  0  0  0  0  0  0  0  0  0  0  0  # atno 17321 bound_to 7965
  139.9244  143.6568  152.3090 LP  0  0  0  0  0  0  0  0  0  0  0  0  # atno 17342 bound_to 10162
  139.6996  144.7637  151.1296 LP  0  0  0  0  0  0  0  0  0  0  0  0  # atno 17343 bound_to 10162
  156.2678  130.6999  151.1787 LP  0  0  0  0  0  0  0  0  0  0  0  0  # atno 17370 bound_to 10713
  157.7338  131.0587  150.5555 LP  0  0  0  0  0  0  0  0  0  0  0  0  # atno 17371 bound_to 10713
  140.8646  134.2799  157.5219 LP  0  0  0  0  0  0  0  0  0  0  0  0  # atno 17394 bound_to 11000
  139.8708  134.9536  156.4150 LP  0  0  0  0  0  0  0  0  0  0  0  0  # atno 17395 bound_to 11000

$$$$
