AV-unprocessed.smi:1033|AV-procd|sdf|4512|dock4
  -GOLD-   22720 2523D 1   1.00000     0.00000
 Structure written by MMmdl.
 57 59  0  0  0  0  0  0  0  0  3 V2000
  148.2249  127.1146  151.6129 C   0  0  0  0  0  0  0  0  0  0  0  0
  148.2381  128.3356  152.5157 C   0  0  0  0  0  0  0  0  0  0  0  0
  149.3756  128.5858  153.3155 C   0  0  0  0  0  0  0  0  0  0  0  0
  149.4294  129.7110  154.1660 C   0  0  0  0  0  0  0  0  0  0  0  0
  150.4267  130.1428  155.0228 N   0  0  0  0  0  0  0  0  0  0  0  0
  149.8847  131.2444  155.5327 C   0  0  0  0  0  0  0  0  0  0  0  0
  148.6441  131.5692  155.1197 N   0  0  0  0  0  0  0  0  0  0  0  0
  147.8508  132.7084  155.5443 C   0  0  0  0  0  0  0  0  0  0  0  0
  148.1099  133.9655  154.6889 C   0  0  2  0  0  0  0  0  0  0  0  0
  148.8786  134.8644  155.4620 O   0  0  0  0  0  0  0  0  0  0  0  0
  146.8163  134.6791  154.2349 C   0  0  0  0  0  0  0  0  0  0  0  0
  146.6948  134.7708  152.7568 N   0  3  2  0  0  0  0  0  0  0  0  0
  145.5680  135.6425  152.3404 C   0  0  0  0  0  0  0  0  0  0  0  0
  145.5276  135.8047  150.8093 C   0  0  0  0  0  0  0  0  0  0  0  0
  145.4503  134.4939  150.1175 N   0  3  2  0  0  0  0  0  0  0  0  0
  144.0975  133.8756  150.1633 C   0  0  0  0  0  0  0  0  0  0  0  0
  144.0873  132.4252  149.6395 C   0  0  1  0  0  0  0  0  0  0  0  0
  144.3898  131.4157  150.7543 C   0  0  0  0  0  0  0  0  0  0  0  0
  142.8088  132.1219  149.1186 O   0  0  0  0  0  0  0  0  0  0  0  0
  146.5569  133.5986  150.5477 C   0  0  0  0  0  0  0  0  0  0  0  0
  146.6293  133.4478  152.0821 C   0  0  0  0  0  0  0  0  0  0  0  0
  148.3029  130.5845  154.1986 C   0  0  0  0  0  0  0  0  0  0  0  0
  147.1661  130.3477  153.4055 C   0  0  0  0  0  0  0  0  0  0  0  0
  147.1302  129.2197  152.5594 C   0  0  0  0  0  0  0  0  0  0  0  0
  145.8998  128.9731  151.7045 C   0  0  0  0  0  0  0  0  0  0  0  0
  149.1486  126.5424  151.7035 H   0  0  0  0  0  0  0  0  0  0  0  0
  148.1172  127.4117  150.5695 H   0  0  0  0  0  0  0  0  0  0  0  0
  147.3967  126.4553  151.8732 H   0  0  0  0  0  0  0  0  0  0  0  0
  150.2206  127.9135  153.2806 H   0  0  0  0  0  0  0  0  0  0  0  0
  150.4166  131.8439  156.2571 H   0  0  0  0  0  0  0  0  0  0  0  0
  146.7966  132.4301  155.4983 H   0  0  0  0  0  0  0  0  0  0  0  0
  148.0754  132.9078  156.5931 H   0  0  0  0  0  0  0  0  0  0  0  0
  148.7053  133.6740  153.8251 H   0  0  0  0  0  0  0  0  0  0  0  0
  149.6275  135.1371  154.9527 H   0  0  0  0  0  0  0  0  0  0  0  0
  145.9308  134.1761  154.6259 H   0  0  0  0  0  0  0  0  0  0  0  0
  146.8103  135.6816  154.6662 H   0  0  0  0  0  0  0  0  0  0  0  0
  144.6277  135.2258  152.7051 H   0  0  0  0  0  0  0  0  0  0  0  0
  145.6756  136.6256  152.8003 H   0  0  0  0  0  0  0  0  0  0  0  0
  144.6957  136.4439  150.5105 H   0  0  0  0  0  0  0  0  0  0  0  0
  146.4330  136.3142  150.4766 H   0  0  0  0  0  0  0  0  0  0  0  0
  143.7100  133.9113  151.1815 H   0  0  0  0  0  0  0  0  0  0  0  0
  143.4015  134.4619  149.5611 H   0  0  0  0  0  0  0  0  0  0  0  0
  144.8231  132.2894  148.8477 H   0  0  0  0  0  0  0  0  0  0  0  0
  145.3790  131.5870  151.1792 H   0  0  0  0  0  0  0  0  0  0  0  0
  144.3685  130.3931  150.3758 H   0  0  0  0  0  0  0  0  0  0  0  0
  143.6629  131.4848  151.5644 H   0  0  0  0  0  0  0  0  0  0  0  0
  142.2270  132.8487  149.2789 H   0  0  0  0  0  0  0  0  0  0  0  0
  146.4745  132.6205  150.0752 H   0  0  0  0  0  0  0  0  0  0  0  0
  147.4937  134.0264  150.1876 H   0  0  0  0  0  0  0  0  0  0  0  0
  147.5074  132.8531  152.3305 H   0  0  0  0  0  0  0  0  0  0  0  0
  145.7676  132.8914  152.4527 H   0  0  0  0  0  0  0  0  0  0  0  0
  146.3298  131.0297  153.4438 H   0  0  0  0  0  0  0  0  0  0  0  0
  145.1481  129.7484  151.8549 H   0  0  0  0  0  0  0  0  0  0  0  0
  145.4466  128.0139  151.9550 H   0  0  0  0  0  0  0  0  0  0  0  0
  146.1646  128.9656  150.6470 H   0  0  0  0  0  0  0  0  0  0  0  0
  145.6065  134.6964  149.1399 H   0  0  0  0  0  0  0  0  0  0  0  0
  147.5379  135.2271  152.4369 H   0  0  0  0  0  0  0  0  0  0  0  0
  1  2  1  0  0  0  0
  1 26  1  0  0  0  0
  1 27  1  0  0  0  0
  1 28  1  0  0  0  0
  2 24  1  0  0  0  0
  2  3  2  0  0  0  0
  3  4  1  0  0  0  0
  3 29  1  0  0  0  0
  4 22  2  0  0  0  0
  4  5  1  0  0  0  0
  5  6  2  0  0  0  0
  6  7  1  0  0  0  0
  6 30  1  0  0  0  0
  7  8  1  0  0  0  0
  7 22  1  0  0  0  0
  8  9  1  0  0  0  0
  8 31  1  0  0  0  0
  8 32  1  0  0  0  0
  9 10  1  0  0  0  0
  9 11  1  0  0  0  0
  9 33  1  0  0  0  0
 10 34  1  0  0  0  0
 11 12  1  0  0  0  0
 11 35  1  0  0  0  0
 11 36  1  0  0  0  0
 12 21  1  0  0  0  0
 12 13  1  0  0  0  0
 12 57  1  0  0  0  0
 13 14  1  0  0  0  0
 13 37  1  0  0  0  0
 13 38  1  0  0  0  0
 14 15  1  0  0  0  0
 14 39  1  0  0  0  0
 14 40  1  0  0  0  0
 15 16  1  0  0  0  0
 15 20  1  0  0  0  0
 15 56  1  0  0  0  0
 16 17  1  0  0  0  0
 16 41  1  0  0  0  0
 16 42  1  0  0  0  0
 17 18  1  0  0  0  0
 17 19  1  0  0  0  0
 17 43  1  0  0  0  0
 18 44  1  0  0  0  0
 18 45  1  0  0  0  0
 18 46  1  0  0  0  0
 19 47  1  0  0  0  0
 20 21  1  0  0  0  0
 20 48  1  0  0  0  0
 20 49  1  0  0  0  0
 21 50  1  0  0  0  0
 21 51  1  0  0  0  0
 22 23  1  0  0  0  0
 23 24  2  0  0  0  0
 23 52  1  0  0  0  0
 24 25  1  0  0  0  0
 25 53  1  0  0  0  0
 25 54  1  0  0  0  0
 25 55  1  0  0  0  0
M  CHG  1  12   1
M  CHG  1  15   1
M  END
> <s_m_source_file>
AV-unprocessed.smi

> <i_m_source_file_index>
1033

> <i_lp_mmshare_version>
43012

> <i_f3d_flags>
0

> <s_epik_input>
W0NIM11jKFtjSF0xKWMoW0NIM10pW2NIXWMoYzEyKW4oW2NIXW4yKVtDSDJdW0NASF0oW09IXSlbQ0gyXU4zW0NIMl1bQ0gyXU4oW0NIMl1bQ0gyXTMpW0NIMl1bQ0BIXShbQ0gzXSlbT0hd

> <s_epik_cmdline>
J2VwaWtfcHl0aG9uJywgJy1waCcsICc3LjAnLCAnLXRuJywgJzgnLCAnLW1hJywgJzIwMCcsICctbWV0YWxfYmluZGluZycsICctaW1hZScsICc8aW5maWxlLm1hZT4nLCAnLW9tYWUnLCAnPG91dGZpbGUubWFlPic=

> <r_epik_Ionization_Penalty>
3.16016

> <r_epik_Ionization_Penalty_Charging>
3.07679

> <r_epik_Ionization_Penalty_Neutral>
0.083365

> <r_epik_State_Penalty>
2.09701

> <r_epik_Charging_Adjusted_Penalty>
5.1738

> <i_epik_Tot_Q>
2

> <i_epik_Tot_abs_Q>
2

> <r_epik_Metal_State_Penalty>
2.02534

> <b_epik_Metal_Only>
0

> <s_lp_Force_Field>
OPLS_2005

> <r_lp_Energy>
31.6916

> <b_lp_Chiralities_Consistent>
1

> <s_lp_Variant>
AV-unprocessed.smi:1033-23

> <Gold.Version>
5.8.1

> <Gold.Id.Protein>
6NUR|6NUR_protein|mol2

> <Gold.PLP.Fitness>
55.7600

> <Gold.PLP.PLP>
-45.4526

> <Gold.PLP.part.hbond>
-5.0000

> <Gold.PLP.part.metal>
0.0000

> <Gold.PLP.part.buried>
-6.6012

> <Gold.PLP.part.nonpolar>
-34.3889

> <Gold.PLP.part.repulsive>
0.1181

> <Gold.PLP.ligand.clash>
0.0000

> <Gold.PLP.ligand.torsion>
2.2339

> <Gold.PLP.Chemscore.Hbond>
4.9000

> <Gold.PLP.Chemscore.CHOScore>
0.0000

> <Gold.PLP.Chemscore.Metal>
0.0000

> <Gold.Chemscore.Hbonds>
donor molecule, donor type, donor heavy atom, donor atom, acceptor molecule, acceptor atom, score
      L1  H    12    57       P1  7948  2.00
      L1  H    15    56       P1  7921  1.00
      L1  H    19    47       P1 10186  1.00
      P1  H 10785 10796       L1    19  0.77

> <Gold.PLP.Chemscore.Internal.Correction>
0.0751

> <Gold.Rescore>
     Score         DG    S(hbond)    S(metal)    S(lipo)     H(rot)  DE(clash)    DE(int)     intcor
     18.53     -20.96       3.08        0.00     113.02       3.14       0.15       2.29       ----

> <Gold.Chemscore.Fitness>
18.5283

> <Gold.Chemscore.DG>
-20.9592

> <Gold.Chemscore.ZeroCoef>
-5.4800

> <Gold.Chemscore.Hbond>
3.0804

> <Gold.Chemscore.Metal>
0.0000

> <Gold.Chemscore.Lipo>
113.0237

> <Gold.Chemscore.Internal_Hbond>
0.0000

> <Gold.Chemscore.DEClash>
0.1458

> <Gold.Chemscore.DEInternal>
2.2851

> <Gold.Chemscore.Rot>
3.1380

> <Gold.Chemscore.Internal.Correction>
   9.000000E+99

> <Gold.Chemscore.Hbonds>
donor molecule, donor type, donor heavy atom, donor atom, acceptor molecule, acceptor atom, score
      L1  H    12    57       P1  7948  1.00
      L1  H    15    56       P1  7921  0.96
      L1  H    19    47       P1 10186  0.96
      P1  H 10785 10796       L1    19  0.11

> <Gold.Chemscore.Hbond.Weighted>
-10.2887

> <Gold.Chemscore.Metal.Weighted>
-0.0000

> <Gold.Chemscore.Lipo.Weighted>
-13.2238

> <Gold.Chemscore.Internal_Hbond.Weighted>
0.0000

> <Gold.Chemscore.DEClash.Weighted>
0.1458

> <Gold.Chemscore.DEInternal.Weighted>
2.2851

> <Gold.Chemscore.Rot.Weighted>
8.0332

> <Gold.Chemscore.Internal.Correction.Weighted>
   9.000000E+99

> <Gold.Protein.RotatedTorsions>
[ 6907 6896 6895 6894 ] final  -68.31 input  -60.11 | X-H torsion
[ 7974 7965 7964 7962 ] final   78.14 input  175.53 | X-H torsion
[ 8008 7997 7996 7995 ] final  -34.94 input   59.86 | X-H torsion
[ 10167 10162 10161 10158 ] final   81.87 input  -65.29 | X-H torsion
[ 10718 10713 10712 10709 ] final  103.08 input   66.30 | X-H torsion
[ 10763 10752 10751 10750 ] final  151.73 input  -60.55 | X-H torsion
[ 11005 11000 10999 10996 ] final  158.79 input  -57.11 | X-H torsion

> <Gold.Protein.ActiveResidues>
 VAL166  LYS551  ARG553  GLY616  TRP617  ASP618  TYR619  PRO620  LYS621  CYS622 
 ASP623  PHE694  ASN695  SER759  ASP760  ASP761  ALA762  ILE779  LEU786  VAL792 
 PHE793  MET794  SER795  GLU796  ALA797  LYS798  CYS799  TRP800  GLU811  SER814 

> <Gold.Protein.RotatedAtoms>
  150.7363  134.5757  159.5912 H   0  0  0  0  0  0  0  0  0  0  0  0  # atno 6907 bound_to 6896
  152.3184  134.7408  160.0329 H   0  0  0  0  0  0  0  0  0  0  0  0  # atno 6908 bound_to 6896
  151.7932  133.3326  159.3542 H   0  0  0  0  0  0  0  0  0  0  0  0  # atno 6909 bound_to 6896
  145.6810  139.2524  143.1814 H   0  0  0  0  0  0  0  0  0  0  0  0  # atno 7974 bound_to 7965
  154.4108  140.1670  156.2132 H   0  0  0  0  0  0  0  0  0  0  0  0  # atno 8008 bound_to 7997
  155.9427  140.3407  155.6317 H   0  0  0  0  0  0  0  0  0  0  0  0  # atno 8009 bound_to 7997
  155.6969  140.0740  157.2416 H   0  0  0  0  0  0  0  0  0  0  0  0  # atno 8010 bound_to 7997
  139.9347  144.6129  150.8310 H   0  0  0  0  0  0  0  0  0  0  0  0  # atno 10167 bound_to 10162
  157.6783  131.0770  150.5502 H   0  0  0  0  0  0  0  0  0  0  0  0  # atno 10718 bound_to 10713
  154.1086  135.2840  155.3236 H   0  0  0  0  0  0  0  0  0  0  0  0  # atno 10763 bound_to 10752
  154.6506  135.5370  153.7900 H   0  0  0  0  0  0  0  0  0  0  0  0  # atno 10764 bound_to 10752
  153.0353  135.6509  154.1245 H   0  0  0  0  0  0  0  0  0  0  0  0  # atno 10765 bound_to 10752
  140.1899  134.8415  157.2900 H   0  0  0  0  0  0  0  0  0  0  0  0  # atno 11005 bound_to 11000
  146.0964  140.7595  142.9570 LP  0  0  0  0  0  0  0  0  0  0  0  0  # atno 17320 bound_to 7965
  144.7026  140.3718  143.7144 LP  0  0  0  0  0  0  0  0  0  0  0  0  # atno 17321 bound_to 7965
  140.7628  143.3206  151.2630 LP  0  0  0  0  0  0  0  0  0  0  0  0  # atno 17342 bound_to 10162
  139.6753  143.9948  152.2777 LP  0  0  0  0  0  0  0  0  0  0  0  0  # atno 17343 bound_to 10162
  156.5807  130.4303  149.5979 LP  0  0  0  0  0  0  0  0  0  0  0  0  # atno 17370 bound_to 10713
  156.2664  130.6992  151.1776 LP  0  0  0  0  0  0  0  0  0  0  0  0  # atno 17371 bound_to 10713
  140.2172  134.4067  155.7583 LP  0  0  0  0  0  0  0  0  0  0  0  0  # atno 17394 bound_to 11000
  141.2226  133.7147  156.8432 LP  0  0  0  0  0  0  0  0  0  0  0  0  # atno 17395 bound_to 11000

$$$$
