AV-unprocessed.smi:3168|AV-procd|sdf|12102|dock3
  -GOLD-   2272017533D 1   1.00000     0.00000
 Structure written by MMmdl.
 33 34  0  0  0  0  0  0  0  0  1 V2000
  152.7042  138.1664  154.9917 C   0  0  0  0  0  0  0  0  0  0  0  0
  151.3205  137.7090  154.4860 C   0  0  1  0  0  0  0  0  0  0  0  0
  150.7808  136.4746  155.2324 C   0  0  0  0  0  0  0  0  0  0  0  0
  151.2986  136.0971  156.2842 O   0  0  0  0  0  0  0  0  0  0  0  0
  149.7420  135.8405  154.6646 N   0  0  0  0  0  0  0  0  0  0  0  0
  149.0906  134.6496  155.1960 C   0  0  0  0  0  0  0  0  0  0  0  0
  149.0767  133.5082  154.1665 C   0  0  1  0  0  0  0  0  0  0  0  0
  148.7944  132.1365  154.7753 C   0  0  0  0  0  0  0  0  0  0  0  0
  148.2457  131.3837  153.5851 C   0  0  0  0  0  0  0  0  0  0  0  0
  147.4169  132.4604  152.8904 C   0  0  0  0  0  0  0  0  0  0  0  0
  148.0344  133.7041  153.2130 O   0  0  0  0  0  0  0  0  0  0  0  0
  150.3512  138.7998  154.5101 N   0  0  0  0  0  0  0  0  0  0  0  0
  149.0097  138.7502  154.1891 C   0  0  0  0  0  0  0  0  0  0  0  0
  148.4927  139.9979  154.3896 C   0  0  0  0  0  0  0  0  0  0  0  0
  149.6064  140.7552  154.8472 C   0  0  0  0  0  0  0  0  0  0  0  0
  150.7142  140.0365  154.9238 N   0  0  0  0  0  0  0  0  0  0  0  0
  153.4465  137.3749  154.8837 H   0  0  0  0  0  0  0  0  0  0  0  0
  152.6794  138.4556  156.0432 H   0  0  0  0  0  0  0  0  0  0  0  0
  153.0603  139.0254  154.4223 H   0  0  0  0  0  0  0  0  0  0  0  0
  151.4411  137.4112  153.4433 H   0  0  0  0  0  0  0  0  0  0  0  0
  149.3767  136.2099  153.7990 H   0  0  0  0  0  0  0  0  0  0  0  0
  149.5910  134.3277  156.1109 H   0  0  0  0  0  0  0  0  0  0  0  0
  148.0709  134.9130  155.4777 H   0  0  0  0  0  0  0  0  0  0  0  0
  150.0248  133.4661  153.6274 H   0  0  0  0  0  0  0  0  0  0  0  0
  149.6818  131.6711  155.2055 H   0  0  0  0  0  0  0  0  0  0  0  0
  148.0333  132.2077  155.5538 H   0  0  0  0  0  0  0  0  0  0  0  0
  149.0624  131.0605  152.9377 H   0  0  0  0  0  0  0  0  0  0  0  0
  147.6602  130.5068  153.8627 H   0  0  0  0  0  0  0  0  0  0  0  0
  147.3638  132.3105  151.8120 H   0  0  0  0  0  0  0  0  0  0  0  0
  146.3989  132.4692  153.2812 H   0  0  0  0  0  0  0  0  0  0  0  0
  148.5385  137.8396  153.8494 H   0  0  0  0  0  0  0  0  0  0  0  0
  147.4734  140.3196  154.2360 H   0  0  0  0  0  0  0  0  0  0  0  0
  149.6420  141.7974  155.1282 H   0  0  0  0  0  0  0  0  0  0  0  0
  1  2  1  0  0  0  0
  1 17  1  0  0  0  0
  1 18  1  0  0  0  0
  1 19  1  0  0  0  0
  2  3  1  0  0  0  0
  2 12  1  0  0  0  0
  2 20  1  0  0  0  0
  3  4  2  0  0  0  0
  3  5  1  0  0  0  0
  5  6  1  0  0  0  0
  5 21  1  0  0  0  0
  6  7  1  0  0  0  0
  6 22  1  0  0  0  0
  6 23  1  0  0  0  0
  7 11  1  0  0  0  0
  7  8  1  0  0  0  0
  7 24  1  0  0  0  0
  8  9  1  0  0  0  0
  8 25  1  0  0  0  0
  8 26  1  0  0  0  0
  9 10  1  0  0  0  0
  9 27  1  0  0  0  0
  9 28  1  0  0  0  0
 10 11  1  0  0  0  0
 10 29  1  0  0  0  0
 10 30  1  0  0  0  0
 12 16  1  0  0  0  0
 12 13  1  0  0  0  0
 13 14  2  0  0  0  0
 13 31  1  0  0  0  0
 14 15  1  0  0  0  0
 14 32  1  0  0  0  0
 15 16  2  0  0  0  0
 15 33  1  0  0  0  0
M  END
> <s_m_source_file>
AV-unprocessed.smi

> <i_m_source_file_index>
3168

> <i_lp_mmshare_version>
43012

> <i_f3d_flags>
0

> <s_epik_input>
bjFbY0hdW2NIXVtjSF1uMVtDQEhdKFtDSDNdKUMoPU8pW05IXVtDSDJdW0NAQEhdMltDSDJdW0NIMl1bQ0gyXU8y

> <s_epik_cmdline>
J2VwaWtfcHl0aG9uJywgJy1waCcsICc3LjAnLCAnLXRuJywgJzgnLCAnLW1hJywgJzIwMCcsICctbWV0YWxfYmluZGluZycsICctaW1hZScsICc8aW5maWxlLm1hZT4nLCAnLW9tYWUnLCAnPG91dGZpbGUubWFlPic=

> <r_lp_tautomer_probability>
1

> <r_epik_Ionization_Penalty>
4.14877e-05

> <r_epik_Ionization_Penalty_Charging>
0

> <r_epik_Ionization_Penalty_Neutral>
4.14877e-05

> <r_epik_State_Penalty>
-0

> <r_epik_Charging_Adjusted_Penalty>
0

> <i_epik_Tot_Q>
0

> <i_epik_Tot_abs_Q>
0

> <r_epik_Metal_State_Penalty>
-0

> <b_epik_Metal_Only>
0

> <s_lp_Force_Field>
OPLS_2005

> <r_lp_Energy>
21.2002

> <b_lp_Chiralities_Consistent>
1

> <s_lp_Variant>
AV-unprocessed.smi:3168-4

> <Gold.Version>
5.8.1

> <Gold.Id.Protein>
6NUR|6NUR_protein|mol2

> <Gold.PLP.Fitness>
44.2868

> <Gold.PLP.PLP>
-33.1246

> <Gold.PLP.part.hbond>
-3.2673

> <Gold.PLP.part.metal>
0.0000

> <Gold.PLP.part.buried>
-3.0887

> <Gold.PLP.part.nonpolar>
-28.7088

> <Gold.PLP.part.repulsive>
1.3847

> <Gold.PLP.ligand.clash>
0.0000

> <Gold.PLP.ligand.torsion>
0.4828

> <Gold.PLP.Chemscore.Hbond>
3.0000

> <Gold.PLP.Chemscore.CHOScore>
1.0000

> <Gold.PLP.Chemscore.Metal>
0.0000

> <Gold.Chemscore.Hbonds>
donor molecule, donor type, donor heavy atom, donor atom, acceptor molecule, acceptor atom, score
      L1  H     5    21       P1  7948  1.00
      P1  H  7989  7998       L1    16  0.85
      P1  H 10752 10765       L1     4  0.11
      L1  C    13    31       P1  7948  0.88

> <Gold.PLP.Chemscore.Internal.Correction>
0.1277

> <Gold.Rescore>
     Score         DG    S(hbond)    S(metal)    S(lipo)     H(rot)  DE(clash)    DE(int)     intcor
     14.50     -15.98       2.16        0.00      63.28       1.61       0.93       0.56       ----

> <Gold.Chemscore.Fitness>
14.4963

> <Gold.Chemscore.DG>
-15.9816

> <Gold.Chemscore.ZeroCoef>
-5.4800

> <Gold.Chemscore.Hbond>
2.1611

> <Gold.Chemscore.Metal>
0.0000

> <Gold.Chemscore.Lipo>
63.2789

> <Gold.Chemscore.Internal_Hbond>
0.0000

> <Gold.Chemscore.DEClash>
0.9268

> <Gold.Chemscore.DEInternal>
0.5585

> <Gold.Chemscore.Rot>
1.6094

> <Gold.Chemscore.Internal.Correction>
   9.000000E+99

> <Gold.Chemscore.Hbonds>
donor molecule, donor type, donor heavy atom, donor atom, acceptor molecule, acceptor atom, score
      L1  H     5    21       P1  7948  0.76
      P1  H  7989  7998       L1    16  0.10
      P1  H 10752 10765       L1     4  0.01

> <Gold.Chemscore.Hbond.Weighted>
-7.2180

> <Gold.Chemscore.Metal.Weighted>
-0.0000

> <Gold.Chemscore.Lipo.Weighted>
-7.4036

> <Gold.Chemscore.Internal_Hbond.Weighted>
0.0000

> <Gold.Chemscore.DEClash.Weighted>
0.9268

> <Gold.Chemscore.DEInternal.Weighted>
0.5585

> <Gold.Chemscore.Rot.Weighted>
4.1201

> <Gold.Chemscore.Internal.Correction.Weighted>
   9.000000E+99

> <Gold.Protein.RotatedTorsions>
[ 6907 6896 6895 6894 ] final  -37.71 input  -60.11 | X-H torsion
[ 7974 7965 7964 7962 ] final  138.53 input  175.53 | X-H torsion
[ 8008 7997 7996 7995 ] final  162.82 input   59.86 | X-H torsion
[ 10167 10162 10161 10158 ] final  136.60 input  -65.29 | X-H torsion
[ 10718 10713 10712 10709 ] final  -15.66 input   66.30 | X-H torsion
[ 10763 10752 10751 10750 ] final -137.82 input  -60.55 | X-H torsion
[ 11005 11000 10999 10996 ] final  137.50 input  -57.11 | X-H torsion

> <Gold.Protein.ActiveResidues>
 VAL166  LYS551  ARG553  GLY616  TRP617  ASP618  TYR619  PRO620  LYS621  CYS622 
 ASP623  PHE694  ASN695  SER759  ASP760  ASP761  ALA762  ILE779  LEU786  VAL792 
 PHE793  MET794  SER795  GLU796  ALA797  LYS798  CYS799  TRP800  GLU811  SER814 

> <Gold.Protein.RotatedAtoms>
  151.0113  134.9399  159.8008 H   0  0  0  0  0  0  0  0  0  0  0  0  # atno 6907 bound_to 6896
  152.5303  134.3024  159.9093 H   0  0  0  0  0  0  0  0  0  0  0  0  # atno 6908 bound_to 6896
  151.3030  133.4072  159.2675 H   0  0  0  0  0  0  0  0  0  0  0  0  # atno 6909 bound_to 6896
  144.9364  139.4984  143.5593 H   0  0  0  0  0  0  0  0  0  0  0  0  # atno 7974 bound_to 7965
  156.2003  140.1740  156.7914 H   0  0  0  0  0  0  0  0  0  0  0  0  # atno 8008 bound_to 7997
  154.5583  140.0704  156.8809 H   0  0  0  0  0  0  0  0  0  0  0  0  # atno 8009 bound_to 7997
  155.2897  140.3354  155.4255 H   0  0  0  0  0  0  0  0  0  0  0  0  # atno 8010 bound_to 7997
  139.5174  144.6456  151.5449 H   0  0  0  0  0  0  0  0  0  0  0  0  # atno 10167 bound_to 10162
  156.5986  130.4818  149.6249 H   0  0  0  0  0  0  0  0  0  0  0  0  # atno 10718 bound_to 10713
  154.8652  135.3630  154.5285 H   0  0  0  0  0  0  0  0  0  0  0  0  # atno 10763 bound_to 10752
  153.5911  135.7015  153.5427 H   0  0  0  0  0  0  0  0  0  0  0  0  # atno 10764 bound_to 10752
  153.3372  135.4108  155.1505 H   0  0  0  0  0  0  0  0  0  0  0  0  # atno 10765 bound_to 10752
  140.0118  134.9435  157.0294 H   0  0  0  0  0  0  0  0  0  0  0  0  # atno 11005 bound_to 11000
  146.3268  139.8351  142.8901 LP  0  0  0  0  0  0  0  0  0  0  0  0  # atno 17320 bound_to 7965
  145.3061  141.0207  143.3581 LP  0  0  0  0  0  0  0  0  0  0  0  0  # atno 17321 bound_to 7965
  140.6239  143.9205  150.6549 LP  0  0  0  0  0  0  0  0  0  0  0  0  # atno 17342 bound_to 10162
  140.2488  143.3609  152.1424 LP  0  0  0  0  0  0  0  0  0  0  0  0  # atno 17343 bound_to 10162
  156.2488  130.6895  151.1626 LP  0  0  0  0  0  0  0  0  0  0  0  0  # atno 17370 bound_to 10713
  157.7285  131.0631  150.5815 LP  0  0  0  0  0  0  0  0  0  0  0  0  # atno 17371 bound_to 10713
  140.4541  134.1552  155.7184 LP  0  0  0  0  0  0  0  0  0  0  0  0  # atno 17394 bound_to 11000
  141.1716  133.8597  157.1552 LP  0  0  0  0  0  0  0  0  0  0  0  0  # atno 17395 bound_to 11000

$$$$
