AV-unprocessed.smi:1410|AV-procd|sdf|5734|dock2
  -GOLD-   22720 5363D 1   1.00000     0.00000
 Structure written by MMmdl.
 41 42  0  0  0  0  0  0  0  0  3 V2000
  150.3735  137.9267  153.8014 N   0  0  0  0  0  0  0  0  0  0  0  0
  149.9794  139.1106  154.2757 C   0  0  0  0  0  0  0  0  0  0  0  0
  150.7711  139.9235  154.7499 O   0  0  0  0  0  0  0  0  0  0  0  0
  148.4831  139.4285  154.1851 C   0  0  0  0  0  0  0  0  0  0  0  0
  147.7210  138.4154  153.4105 N   0  3  2  0  0  0  0  0  0  0  0  0
  147.0937  138.9701  152.1814 C   0  0  0  0  0  0  0  0  0  0  0  0
  146.4478  137.8564  151.3390 C   0  0  0  0  0  0  0  0  0  0  0  0
  145.4239  137.0359  152.1494 C   0  0  2  0  0  0  0  0  0  0  0  0
  144.2077  137.7987  152.4333 N   0  0  0  0  0  0  0  0  0  0  0  0
  143.0609  137.2816  152.8991 C   0  0  0  0  0  0  0  0  0  0  0  0
  142.8973  136.0805  153.1098 O   0  0  0  0  0  0  0  0  0  0  0  0
  142.1333  138.2376  153.0824 N   0  0  0  0  0  0  0  0  0  0  0  0
  140.7963  138.1027  153.5491 C   0  0  0  0  0  0  0  0  0  0  0  0
  140.3359  136.7983  153.8371 C   0  0  0  0  0  0  0  0  0  0  0  0
  139.0148  136.6100  154.2918 C   0  0  0  0  0  0  0  0  0  0  0  0
  138.1971  137.6739  154.4405 N   0  3  0  0  0  0  0  0  0  0  0  0
  138.5860  138.9371  154.1652 C   0  0  0  0  0  0  0  0  0  0  0  0
  139.8954  139.1874  153.7062 C   0  0  0  0  0  0  0  0  0  0  0  0
  146.0700  136.5432  153.4562 C   0  0  0  0  0  0  0  0  0  0  0  0
  146.7322  137.6876  154.2457 C   0  0  0  0  0  0  0  0  0  0  0  0
  151.3511  137.6737  153.8361 H   0  0  0  0  0  0  0  0  0  0  0  0
  149.6996  137.2869  153.4061 H   0  0  0  0  0  0  0  0  0  0  0  0
  148.1117  139.4627  155.2101 H   0  0  0  0  0  0  0  0  0  0  0  0
  148.3253  140.4221  153.7617 H   0  0  0  0  0  0  0  0  0  0  0  0
  146.3479  139.7180  152.4550 H   0  0  0  0  0  0  0  0  0  0  0  0
  147.8425  139.4828  151.5767 H   0  0  0  0  0  0  0  0  0  0  0  0
  145.9848  138.2817  150.4478 H   0  0  0  0  0  0  0  0  0  0  0  0
  147.2313  137.1889  150.9776 H   0  0  0  0  0  0  0  0  0  0  0  0
  145.1372  136.1593  151.5655 H   0  0  0  0  0  0  0  0  0  0  0  0
  144.2530  138.7970  152.2892 H   0  0  0  0  0  0  0  0  0  0  0  0
  142.3989  139.1699  152.8008 H   0  0  0  0  0  0  0  0  0  0  0  0
  140.9886  135.9456  153.7173 H   0  0  0  0  0  0  0  0  0  0  0  0
  138.5907  135.6474  154.5377 H   0  0  0  0  0  0  0  0  0  0  0  0
  137.8413  139.7054  154.3141 H   0  0  0  0  0  0  0  0  0  0  0  0
  140.1744  140.2036  153.4746 H   0  0  0  0  0  0  0  0  0  0  0  0
  145.3306  136.0367  154.0780 H   0  0  0  0  0  0  0  0  0  0  0  0
  146.8270  135.7945  153.2184 H   0  0  0  0  0  0  0  0  0  0  0  0
  147.2279  137.2716  155.1237 H   0  0  0  0  0  0  0  0  0  0  0  0
  145.9781  138.3865  154.6108 H   0  0  0  0  0  0  0  0  0  0  0  0
  148.3994  137.7291  153.1103 H   0  0  0  0  0  0  0  0  0  0  0  0
  137.2444  137.5164  154.7704 H   0  0  0  0  0  0  0  0  0  0  0  0
  1  2  1  0  0  0  0
  1 21  1  0  0  0  0
  1 22  1  0  0  0  0
  2  3  2  0  0  0  0
  2  4  1  0  0  0  0
  4  5  1  0  0  0  0
  4 23  1  0  0  0  0
  4 24  1  0  0  0  0
  5 20  1  0  0  0  0
  5  6  1  0  0  0  0
  5 40  1  0  0  0  0
  6  7  1  0  0  0  0
  6 25  1  0  0  0  0
  6 26  1  0  0  0  0
  7  8  1  0  0  0  0
  7 27  1  0  0  0  0
  7 28  1  0  0  0  0
  8  9  1  0  0  0  0
  8 19  1  0  0  0  0
  8 29  1  0  0  0  0
  9 10  1  0  0  0  0
  9 30  1  0  0  0  0
 10 11  2  0  0  0  0
 10 12  1  0  0  0  0
 12 13  1  0  0  0  0
 12 31  1  0  0  0  0
 13 18  1  0  0  0  0
 13 14  2  0  0  0  0
 14 15  1  0  0  0  0
 14 32  1  0  0  0  0
 15 16  2  0  0  0  0
 15 33  1  0  0  0  0
 16 17  1  0  0  0  0
 16 41  1  0  0  0  0
 17 18  2  0  0  0  0
 17 34  1  0  0  0  0
 18 35  1  0  0  0  0
 19 20  1  0  0  0  0
 19 36  1  0  0  0  0
 19 37  1  0  0  0  0
 20 38  1  0  0  0  0
 20 39  1  0  0  0  0
M  CHG  1   5   1
M  CHG  1  16   1
M  END
> <s_m_source_file>
AV-unprocessed.smi

> <i_m_source_file_index>
1410

> <i_lp_mmshare_version>
43012

> <i_f3d_flags>
0

> <s_epik_input>
W05IMl1DKD1PKVtDSDJdTjFbQ0gyXVtDSDJdW0NIXShbQ0gyXVtDSDJdMSlbTkhdQyg9TylbTkhdYzJbY0hdW2NIXW5bY0hdW2NIXTI=

> <s_epik_cmdline>
J2VwaWtfcHl0aG9uJywgJy1waCcsICc3LjAnLCAnLXRuJywgJzgnLCAnLW1hJywgJzIwMCcsICctbWV0YWxfYmluZGluZycsICctaW1hZScsICc8aW5maWxlLm1hZT4nLCAnLW9tYWUnLCAnPG91dGZpbGUubWFlPic=

> <r_epik_Ionization_Penalty>
1.97414

> <r_epik_Ionization_Penalty_Charging>
1.97408

> <r_epik_Ionization_Penalty_Neutral>
5.94508e-05

> <r_epik_State_Penalty>
2.00676

> <r_epik_Charging_Adjusted_Penalty>
3.98084

> <i_epik_Tot_Q>
2

> <i_epik_Tot_abs_Q>
2

> <r_epik_Metal_State_Penalty>
2.12108

> <b_epik_Metal_Only>
0

> <s_lp_Force_Field>
OPLS_2005

> <r_lp_Energy>
26.1476

> <b_lp_Chiralities_Consistent>
1

> <s_lp_Variant>
AV-unprocessed.smi:1410-6

> <Gold.Version>
5.8.1

> <Gold.Id.Protein>
6NUR|6NUR_protein|mol2

> <Gold.PLP.Fitness>
49.4814

> <Gold.PLP.PLP>
-33.3017

> <Gold.PLP.part.hbond>
-6.6932

> <Gold.PLP.part.metal>
0.0000

> <Gold.PLP.part.buried>
1.4695

> <Gold.PLP.part.nonpolar>
-28.8796

> <Gold.PLP.part.repulsive>
0.3937

> <Gold.PLP.ligand.clash>
0.0000

> <Gold.PLP.ligand.torsion>
0.9229

> <Gold.PLP.Chemscore.Hbond>
6.0000

> <Gold.PLP.Chemscore.CHOScore>
0.0000

> <Gold.PLP.Chemscore.Metal>
0.0000

> <Gold.Chemscore.Hbonds>
donor molecule, donor type, donor heavy atom, donor atom, acceptor molecule, acceptor atom, score
      L1  H     1    22       P1  7948  1.00
      L1  H     5    40       P1  7948  2.00
      L1  H     9    30       P1 10175  1.00
      L1  H    12    31       P1 10175  1.00
      P1  H  7989  7998       L1     3  1.00

> <Gold.PLP.Chemscore.Internal.Correction>
0.0255

> <Gold.Rescore>
     Score         DG    S(hbond)    S(metal)    S(lipo)     H(rot)  DE(clash)    DE(int)     intcor
     19.08     -23.76       4.52        0.00      70.72       1.99       2.27       2.41       ----

> <Gold.Chemscore.Fitness>
19.0843

> <Gold.Chemscore.DG>
-23.7601

> <Gold.Chemscore.ZeroCoef>
-5.4800

> <Gold.Chemscore.Hbond>
4.5205

> <Gold.Chemscore.Metal>
0.0000

> <Gold.Chemscore.Lipo>
70.7217

> <Gold.Chemscore.Internal_Hbond>
0.0000

> <Gold.Chemscore.DEClash>
2.2701

> <Gold.Chemscore.DEInternal>
2.4057

> <Gold.Chemscore.Rot>
1.9894

> <Gold.Chemscore.Internal.Correction>
   9.000000E+99

> <Gold.Chemscore.Hbonds>
donor molecule, donor type, donor heavy atom, donor atom, acceptor molecule, acceptor atom, score
      L1  H     1    22       P1  7948  0.65
      L1  H     5    40       P1  7948  0.91
      L1  H     9    30       P1 10175  0.98
      L1  H    12    31       P1 10175  0.96
      P1  H  7989  7998       L1     3  0.85

> <Gold.Chemscore.Hbond.Weighted>
-15.0985

> <Gold.Chemscore.Metal.Weighted>
-0.0000

> <Gold.Chemscore.Lipo.Weighted>
-8.2744

> <Gold.Chemscore.Internal_Hbond.Weighted>
0.0000

> <Gold.Chemscore.DEClash.Weighted>
2.2701

> <Gold.Chemscore.DEInternal.Weighted>
2.4057

> <Gold.Chemscore.Rot.Weighted>
5.0927

> <Gold.Chemscore.Internal.Correction.Weighted>
   9.000000E+99

> <Gold.Protein.RotatedTorsions>
[ 6907 6896 6895 6894 ] final  -54.44 input  -60.11 | X-H torsion
[ 7974 7965 7964 7962 ] final -147.19 input  175.53 | X-H torsion
[ 8008 7997 7996 7995 ] final -138.21 input   59.86 | X-H torsion
[ 10167 10162 10161 10158 ] final   49.39 input  -65.29 | X-H torsion
[ 10718 10713 10712 10709 ] final  157.47 input   66.30 | X-H torsion
[ 10763 10752 10751 10750 ] final  -97.52 input  -60.55 | X-H torsion
[ 11005 11000 10999 10996 ] final  149.28 input  -57.11 | X-H torsion

> <Gold.Protein.ActiveResidues>
 VAL166  LYS551  ARG553  GLY616  TRP617  ASP618  TYR619  PRO620  LYS621  CYS622 
 ASP623  PHE694  ASN695  SER759  ASP760  ASP761  ALA762  ILE779  LEU786  VAL792 
 PHE793  MET794  SER795  GLU796  ALA797  LYS798  CYS799  TRP800  GLU811  SER814 

> <Gold.Protein.RotatedAtoms>
  150.8338  134.7602  159.6875 H   0  0  0  0  0  0  0  0  0  0  0  0  # atno 6907 bound_to 6896
  152.4438  134.5533  159.9883 H   0  0  0  0  0  0  0  0  0  0  0  0  # atno 6908 bound_to 6896
  151.5688  133.3355  159.3021 H   0  0  0  0  0  0  0  0  0  0  0  0  # atno 6909 bound_to 6896
  144.8110  140.5359  143.5642 H   0  0  0  0  0  0  0  0  0  0  0  0  # atno 7974 bound_to 7965
  155.4246  140.0521  157.3023 H   0  0  0  0  0  0  0  0  0  0  0  0  # atno 8008 bound_to 7997
  154.4887  140.2111  155.9556 H   0  0  0  0  0  0  0  0  0  0  0  0  # atno 8009 bound_to 7997
  156.1311  140.3171  155.8356 H   0  0  0  0  0  0  0  0  0  0  0  0  # atno 8010 bound_to 7997
  140.2833  144.3131  150.6258 H   0  0  0  0  0  0  0  0  0  0  0  0  # atno 10167 bound_to 10162
  157.1911  131.0655  151.2079 H   0  0  0  0  0  0  0  0  0  0  0  0  # atno 10718 bound_to 10713
  154.7335  135.5043  153.9002 H   0  0  0  0  0  0  0  0  0  0  0  0  # atno 10763 bound_to 10752
  153.0972  135.6675  153.9749 H   0  0  0  0  0  0  0  0  0  0  0  0  # atno 10764 bound_to 10752
  153.9544  135.3054  155.3416 H   0  0  0  0  0  0  0  0  0  0  0  0  # atno 10765 bound_to 10752
  140.1032  134.8970  157.1826 H   0  0  0  0  0  0  0  0  0  0  0  0  # atno 11005 bound_to 11000
  145.5325  139.1475  143.3492 LP  0  0  0  0  0  0  0  0  0  0  0  0  # atno 17320 bound_to 7965
  146.2408  140.5465  142.8935 LP  0  0  0  0  0  0  0  0  0  0  0  0  # atno 17321 bound_to 7965
  140.5793  143.2174  151.7457 LP  0  0  0  0  0  0  0  0  0  0  0  0  # atno 17342 bound_to 10162
  139.4957  144.4103  152.0087 LP  0  0  0  0  0  0  0  0  0  0  0  0  # atno 17343 bound_to 10162
  157.3860  130.7256  149.6663 LP  0  0  0  0  0  0  0  0  0  0  0  0  # atno 17370 bound_to 10713
  155.9711  130.4159  150.4207 LP  0  0  0  0  0  0  0  0  0  0  0  0  # atno 17371 bound_to 10713
  140.3192  134.2936  155.7250 LP  0  0  0  0  0  0  0  0  0  0  0  0  # atno 17394 bound_to 11000
  141.2111  133.7699  156.9886 LP  0  0  0  0  0  0  0  0  0  0  0  0  # atno 17395 bound_to 11000

$$$$
