AV-unprocessed.smi:3136|AV-procd|sdf|11949|dock2
  -GOLD-   2272017343D 1   1.00000     0.00000
 Structure written by MMmdl.
 40 40  0  0  0  0  0  0  0  0  2 V2000
  144.6293  134.5550  150.4398 C   0  0  0  0  0  0  0  0  0  0  0  0
  144.1111  135.5894  151.4484 C   0  0  0  0  0  0  0  0  0  0  0  0
  144.9084  136.8106  151.4238 N   0  0  0  0  0  0  0  0  0  0  0  0
  145.7812  137.1829  152.3724 C   0  0  0  0  0  0  0  0  0  0  0  0
  146.0050  136.5150  153.3826 O   0  0  0  0  0  0  0  0  0  0  0  0
  146.5023  138.5136  152.1324 C   0  0  0  0  0  0  0  0  0  0  0  0
  147.2484  139.0399  153.3708 C   0  0  0  0  0  0  0  0  0  0  0  0
  148.7013  138.7992  153.2538 N   0  3  0  0  0  0  0  0  0  0  0  0
  149.4829  139.0447  154.4884 C   0  0  1  0  0  0  0  0  0  0  0  0
  150.9829  138.9596  154.1601 C   0  0  0  0  0  0  0  0  0  0  0  0
  149.1023  140.3919  155.1629 C   0  0  2  0  0  0  0  0  0  0  0  0
  148.8720  141.5435  154.1667 C   0  0  0  0  0  0  0  0  0  0  0  0
  150.0216  140.7802  156.2281 N   0  0  0  0  0  0  0  0  0  0  0  0
  150.6609  141.9914  156.3998 C   0  0  0  0  0  0  0  0  0  0  0  0
  151.4112  141.9018  157.5369 C   0  0  0  0  0  0  0  0  0  0  0  0
  151.1626  140.5812  158.0026 C   0  0  0  0  0  0  0  0  0  0  0  0
  150.3286  139.9144  157.2214 N   0  0  0  0  0  0  0  0  0  0  0  0
  144.0582  133.6287  150.5074 H   0  0  0  0  0  0  0  0  0  0  0  0
  145.6768  134.3137  150.6246 H   0  0  0  0  0  0  0  0  0  0  0  0
  144.5444  134.9203  149.4159 H   0  0  0  0  0  0  0  0  0  0  0  0
  143.0613  135.8169  151.2552 H   0  0  0  0  0  0  0  0  0  0  0  0
  144.1577  135.1748  152.4557 H   0  0  0  0  0  0  0  0  0  0  0  0
  144.7851  137.4173  150.6257 H   0  0  0  0  0  0  0  0  0  0  0  0
  147.2044  138.3819  151.3076 H   0  0  0  0  0  0  0  0  0  0  0  0
  145.7660  139.2492  151.8055 H   0  0  0  0  0  0  0  0  0  0  0  0
  147.0649  140.1076  153.4936 H   0  0  0  0  0  0  0  0  0  0  0  0
  146.8822  138.5430  154.2706 H   0  0  0  0  0  0  0  0  0  0  0  0
  148.8307  137.8329  152.9903 H   0  0  0  0  0  0  0  0  0  0  0  0
  149.2731  138.2429  155.1985 H   0  0  0  0  0  0  0  0  0  0  0  0
  151.5893  139.1292  155.0502 H   0  0  0  0  0  0  0  0  0  0  0  0
  151.2779  139.6955  153.4113 H   0  0  0  0  0  0  0  0  0  0  0  0
  151.2415  137.9741  153.7713 H   0  0  0  0  0  0  0  0  0  0  0  0
  148.1382  140.2261  155.6464 H   0  0  0  0  0  0  0  0  0  0  0  0
  148.1362  141.2671  153.4111 H   0  0  0  0  0  0  0  0  0  0  0  0
  149.7889  141.8283  153.6505 H   0  0  0  0  0  0  0  0  0  0  0  0
  148.4974  142.4304  154.6785 H   0  0  0  0  0  0  0  0  0  0  0  0
  150.5306  142.8090  155.7060 H   0  0  0  0  0  0  0  0  0  0  0  0
  152.0420  142.6638  157.9703 H   0  0  0  0  0  0  0  0  0  0  0  0
  151.5596  140.0921  158.8799 H   0  0  0  0  0  0  0  0  0  0  0  0
  149.0794  139.3821  152.5197 H   0  0  0  0  0  0  0  0  0  0  0  0
  1  2  1  0  0  0  0
  1 18  1  0  0  0  0
  1 19  1  0  0  0  0
  1 20  1  0  0  0  0
  2  3  1  0  0  0  0
  2 21  1  0  0  0  0
  2 22  1  0  0  0  0
  3  4  1  0  0  0  0
  3 23  1  0  0  0  0
  4  5  2  0  0  0  0
  4  6  1  0  0  0  0
  6  7  1  0  0  0  0
  6 24  1  0  0  0  0
  6 25  1  0  0  0  0
  7  8  1  0  0  0  0
  7 26  1  0  0  0  0
  7 27  1  0  0  0  0
  8  9  1  0  0  0  0
  8 28  1  0  0  0  0
  8 40  1  0  0  0  0
  9 10  1  0  0  0  0
  9 11  1  0  0  0  0
  9 29  1  0  0  0  0
 10 30  1  0  0  0  0
 10 31  1  0  0  0  0
 10 32  1  0  0  0  0
 11 12  1  0  0  0  0
 11 13  1  0  0  0  0
 11 33  1  0  0  0  0
 12 34  1  0  0  0  0
 12 35  1  0  0  0  0
 12 36  1  0  0  0  0
 13 17  1  0  0  0  0
 13 14  1  0  0  0  0
 14 15  2  0  0  0  0
 14 37  1  0  0  0  0
 15 16  1  0  0  0  0
 15 38  1  0  0  0  0
 16 17  2  0  0  0  0
 16 39  1  0  0  0  0
M  CHG  1   8   1
M  END
> <s_m_source_file>
AV-unprocessed.smi

> <i_m_source_file_index>
3136

> <i_lp_mmshare_version>
43012

> <i_f3d_flags>
0

> <s_epik_input>
W0NIM11bQ0gyXVtOSF1DKD1PKVtDSDJdW0NIMl1bTkhdW0NASF0oW0NIM10pW0NASF0oW0NIM10pbjFbY0hdW2NIXVtjSF1uMQ==

> <s_epik_cmdline>
J2VwaWtfcHl0aG9uJywgJy1waCcsICc3LjAnLCAnLXRuJywgJzgnLCAnLW1hJywgJzIwMCcsICctbWV0YWxfYmluZGluZycsICctaW1hZScsICc8aW5maWxlLm1hZT4nLCAnLW9tYWUnLCAnPG91dGZpbGUubWFlPic=

> <r_lp_tautomer_probability>
1

> <r_epik_Ionization_Penalty>
0.00463447

> <r_epik_Ionization_Penalty_Charging>
0.00462393

> <r_epik_Ionization_Penalty_Neutral>
1.05394e-05

> <r_epik_State_Penalty>
-0

> <r_epik_Charging_Adjusted_Penalty>
0.00462393

> <i_epik_Tot_Q>
1

> <i_epik_Tot_abs_Q>
1

> <r_epik_Metal_State_Penalty>
-0

> <b_epik_Metal_Only>
0

> <s_lp_Force_Field>
OPLS_2005

> <r_lp_Energy>
10.5289

> <b_lp_Chiralities_Consistent>
1

> <s_lp_Variant>
AV-unprocessed.smi:3136-2

> <Gold.Version>
5.8.1

> <Gold.Id.Protein>
6NUR|6NUR_protein|mol2

> <Gold.PLP.Fitness>
45.6435

> <Gold.PLP.PLP>
-32.1338

> <Gold.PLP.part.hbond>
-3.0000

> <Gold.PLP.part.metal>
0.0000

> <Gold.PLP.part.buried>
-2.4401

> <Gold.PLP.part.nonpolar>
-26.9632

> <Gold.PLP.part.repulsive>
0.2366

> <Gold.PLP.ligand.clash>
0.0000

> <Gold.PLP.ligand.torsion>
0.9731

> <Gold.PLP.Chemscore.Hbond>
4.0000

> <Gold.PLP.Chemscore.CHOScore>
0.9996

> <Gold.PLP.Chemscore.Metal>
0.0000

> <Gold.Chemscore.Hbonds>
donor molecule, donor type, donor heavy atom, donor atom, acceptor molecule, acceptor atom, score
      L1  H     3    23       P1 10171  0.99
      L1  H     8    28       P1  7948  2.00
      L1  H     8    40       P1  7957  1.00
      L1  C    14    37       P1  8028  1.00

> <Gold.PLP.Chemscore.Internal.Correction>
0.4570

> <Gold.Rescore>
     Score         DG    S(hbond)    S(metal)    S(lipo)     H(rot)  DE(clash)    DE(int)     intcor
     16.33     -18.05       2.90        0.00      75.37       2.32       0.93       0.80       ----

> <Gold.Chemscore.Fitness>
16.3263

> <Gold.Chemscore.DG>
-18.0521

> <Gold.Chemscore.ZeroCoef>
-5.4800

> <Gold.Chemscore.Hbond>
2.8988

> <Gold.Chemscore.Metal>
0.0000

> <Gold.Chemscore.Lipo>
75.3733

> <Gold.Chemscore.Internal_Hbond>
0.0000

> <Gold.Chemscore.DEClash>
0.9286

> <Gold.Chemscore.DEInternal>
0.7971

> <Gold.Chemscore.Rot>
2.3159

> <Gold.Chemscore.Internal.Correction>
   9.000000E+99

> <Gold.Chemscore.Hbonds>
donor molecule, donor type, donor heavy atom, donor atom, acceptor molecule, acceptor atom, score
      L1  H     3    23       P1 10171  0.94
      L1  H     8    28       P1  7948  0.99
      L1  H     8    40       P1  7957  0.98

> <Gold.Chemscore.Hbond.Weighted>
-9.6820

> <Gold.Chemscore.Metal.Weighted>
-0.0000

> <Gold.Chemscore.Lipo.Weighted>
-8.8187

> <Gold.Chemscore.Internal_Hbond.Weighted>
0.0000

> <Gold.Chemscore.DEClash.Weighted>
0.9286

> <Gold.Chemscore.DEInternal.Weighted>
0.7971

> <Gold.Chemscore.Rot.Weighted>
5.9286

> <Gold.Chemscore.Internal.Correction.Weighted>
   9.000000E+99

> <Gold.Protein.RotatedTorsions>
[ 6907 6896 6895 6894 ] final -102.12 input  -60.11 | X-H torsion
[ 7974 7965 7964 7962 ] final  100.08 input  175.53 | X-H torsion
[ 8008 7997 7996 7995 ] final   87.53 input   59.86 | X-H torsion
[ 10167 10162 10161 10158 ] final  -63.97 input  -65.29 | X-H torsion
[ 10718 10713 10712 10709 ] final  142.95 input   66.30 | X-H torsion
[ 10763 10752 10751 10750 ] final   82.45 input  -60.55 | X-H torsion
[ 11005 11000 10999 10996 ] final    1.91 input  -57.11 | X-H torsion

> <Gold.Protein.ActiveResidues>
 VAL166  LYS551  ARG553  GLY616  TRP617  ASP618  TYR619  PRO620  LYS621  CYS622 
 ASP623  PHE694  ASN695  SER759  ASP760  ASP761  ALA762  ILE779  LEU786  VAL792 
 PHE793  MET794  SER795  GLU796  ALA797  LYS798  CYS799  TRP800  GLU811  SER814 

> <Gold.Protein.RotatedAtoms>
  150.7183  134.0629  159.3837 H   0  0  0  0  0  0  0  0  0  0  0  0  # atno 6907 bound_to 6896
  151.8610  135.0522  160.0478 H   0  0  0  0  0  0  0  0  0  0  0  0  # atno 6908 bound_to 6896
  152.2717  133.5353  159.5480 H   0  0  0  0  0  0  0  0  0  0  0  0  # atno 6909 bound_to 6896
  145.3903  139.2364  143.3355 H   0  0  0  0  0  0  0  0  0  0  0  0  # atno 7974 bound_to 7965
  155.9765  140.3381  155.6624 H   0  0  0  0  0  0  0  0  0  0  0  0  # atno 8008 bound_to 7997
  155.6605  140.0715  157.2574 H   0  0  0  0  0  0  0  0  0  0  0  0  # atno 8009 bound_to 7997
  154.4180  140.1709  156.1759 H   0  0  0  0  0  0  0  0  0  0  0  0  # atno 8010 bound_to 7997
  140.5833  143.2330  151.6295 H   0  0  0  0  0  0  0  0  0  0  0  0  # atno 10167 bound_to 10162
  157.3746  131.0983  151.0796 H   0  0  0  0  0  0  0  0  0  0  0  0  # atno 10718 bound_to 10713
  153.1203  135.4728  154.9185 H   0  0  0  0  0  0  0  0  0  0  0  0  # atno 10763 bound_to 10752
  154.7569  135.3121  154.8455 H   0  0  0  0  0  0  0  0  0  0  0  0  # atno 10764 bound_to 10752
  153.9021  135.6874  153.4808 H   0  0  0  0  0  0  0  0  0  0  0  0  # atno 10765 bound_to 10752
  140.6102  133.9755  155.8174 H   0  0  0  0  0  0  0  0  0  0  0  0  # atno 11005 bound_to 11000
  146.2801  140.4584  142.8780 LP  0  0  0  0  0  0  0  0  0  0  0  0  # atno 17320 bound_to 7965
  144.8445  140.6908  143.6208 LP  0  0  0  0  0  0  0  0  0  0  0  0  # atno 17321 bound_to 7965
  139.5183  144.3289  152.0844 LP  0  0  0  0  0  0  0  0  0  0  0  0  # atno 17342 bound_to 10162
  140.2443  144.4237  150.6247 LP  0  0  0  0  0  0  0  0  0  0  0  0  # atno 17343 bound_to 10162
  157.1888  130.6342  149.5697 LP  0  0  0  0  0  0  0  0  0  0  0  0  # atno 17370 bound_to 10713
  155.9762  130.4729  150.6515 LP  0  0  0  0  0  0  0  0  0  0  0  0  # atno 17371 bound_to 10713
  141.0813  134.0058  157.3382 LP  0  0  0  0  0  0  0  0  0  0  0  0  # atno 17394 bound_to 11000
  139.9195  135.0199  156.8011 LP  0  0  0  0  0  0  0  0  0  0  0  0  # atno 17395 bound_to 11000

$$$$
