AV-unprocessed.smi:3268|AV-procd|sdf|12509|dock6
  -GOLD-   2272018413D 1   1.00000     0.00000
 Structure written by MMmdl.
 40 41  0  0  0  0  0  0  0  0  2 V2000
  147.1088  142.0329  154.3765 C   0  0  0  0  0  0  0  0  0  0  0  0
  148.0546  141.0217  153.6966 C   0  0  1  0  0  0  0  0  0  0  0  0
  149.3111  140.7175  154.5319 C   0  0  0  0  0  0  0  0  0  0  0  0
  150.1695  139.9357  154.1204 O   0  0  0  0  0  0  0  0  0  0  0  0
  149.4063  141.3410  155.7177 N   0  0  0  0  0  0  0  0  0  0  0  0
  150.5315  141.2170  156.6365 C   0  0  0  0  0  0  0  0  0  0  0  0
  150.9949  142.5921  157.1552 C   0  0  0  0  0  0  0  0  0  0  0  0
  151.4887  142.5361  158.5547 N   0  3  0  0  0  0  0  0  0  0  0  0
  151.9884  143.8553  159.0244 C   0  0  0  0  0  0  0  0  0  0  0  0
  152.3605  143.8130  160.5162 C   0  0  0  0  0  0  0  0  0  0  0  0
  153.3898  142.7106  160.7956 C   0  0  0  0  0  0  0  0  0  0  0  0
  152.8691  141.3656  160.2740 C   0  0  0  0  0  0  0  0  0  0  0  0
  152.4903  141.4602  158.7863 C   0  0  0  0  0  0  0  0  0  0  0  0
  147.3599  139.7892  153.3437 N   0  0  0  0  0  0  0  0  0  0  0  0
  147.1164  138.7003  154.0762 C   0  0  0  0  0  0  0  0  0  0  0  0
  146.4186  137.7690  153.4415 N   0  0  0  0  0  0  0  0  0  0  0  0
  146.2494  138.3915  152.2375 C   0  0  0  0  0  0  0  0  0  0  0  0
  146.7856  139.6070  152.1283 N   0  0  0  0  0  0  0  0  0  0  0  0
  147.6141  142.9803  154.5671 H   0  0  0  0  0  0  0  0  0  0  0  0
  146.7313  141.6614  155.3301 H   0  0  0  0  0  0  0  0  0  0  0  0
  146.2477  142.2454  153.7423 H   0  0  0  0  0  0  0  0  0  0  0  0
  148.3972  141.4749  152.7650 H   0  0  0  0  0  0  0  0  0  0  0  0
  148.6600  141.9657  155.9873 H   0  0  0  0  0  0  0  0  0  0  0  0
  150.2631  140.5642  157.4689 H   0  0  0  0  0  0  0  0  0  0  0  0
  151.3319  140.7149  156.0945 H   0  0  0  0  0  0  0  0  0  0  0  0
  151.7655  143.0119  156.5068 H   0  0  0  0  0  0  0  0  0  0  0  0
  150.1475  143.2778  157.1099 H   0  0  0  0  0  0  0  0  0  0  0  0
  152.8538  144.1505  158.4286 H   0  0  0  0  0  0  0  0  0  0  0  0
  151.2233  144.6175  158.8710 H   0  0  0  0  0  0  0  0  0  0  0  0
  152.7560  144.7797  160.8298 H   0  0  0  0  0  0  0  0  0  0  0  0
  151.4641  143.6372  161.1123 H   0  0  0  0  0  0  0  0  0  0  0  0
  154.3346  142.9550  160.3083 H   0  0  0  0  0  0  0  0  0  0  0  0
  153.5956  142.6473  161.8647 H   0  0  0  0  0  0  0  0  0  0  0  0
  153.6246  140.5927  160.4186 H   0  0  0  0  0  0  0  0  0  0  0  0
  151.9982  141.0590  160.8550 H   0  0  0  0  0  0  0  0  0  0  0  0
  152.0977  140.4963  158.4654 H   0  0  0  0  0  0  0  0  0  0  0  0
  153.3798  141.6542  158.1848 H   0  0  0  0  0  0  0  0  0  0  0  0
  147.4532  138.5876  155.0962 H   0  0  0  0  0  0  0  0  0  0  0  0
  145.7098  137.9377  151.4194 H   0  0  0  0  0  0  0  0  0  0  0  0
  150.6869  142.3208  159.1302 H   0  0  0  0  0  0  0  0  0  0  0  0
  1  2  1  0  0  0  0
  1 19  1  0  0  0  0
  1 20  1  0  0  0  0
  1 21  1  0  0  0  0
  2  3  1  0  0  0  0
  2 14  1  0  0  0  0
  2 22  1  0  0  0  0
  3  4  2  0  0  0  0
  3  5  1  0  0  0  0
  5  6  1  0  0  0  0
  5 23  1  0  0  0  0
  6  7  1  0  0  0  0
  6 24  1  0  0  0  0
  6 25  1  0  0  0  0
  7  8  1  0  0  0  0
  7 26  1  0  0  0  0
  7 27  1  0  0  0  0
  8 13  1  0  0  0  0
  8  9  1  0  0  0  0
  8 40  1  0  0  0  0
  9 10  1  0  0  0  0
  9 28  1  0  0  0  0
  9 29  1  0  0  0  0
 10 11  1  0  0  0  0
 10 30  1  0  0  0  0
 10 31  1  0  0  0  0
 11 12  1  0  0  0  0
 11 32  1  0  0  0  0
 11 33  1  0  0  0  0
 12 13  1  0  0  0  0
 12 34  1  0  0  0  0
 12 35  1  0  0  0  0
 13 36  1  0  0  0  0
 13 37  1  0  0  0  0
 14 18  1  0  0  0  0
 14 15  1  0  0  0  0
 15 16  2  0  0  0  0
 15 38  1  0  0  0  0
 16 17  1  0  0  0  0
 17 18  2  0  0  0  0
 17 39  1  0  0  0  0
M  CHG  1   8   1
M  END
> <s_m_source_file>
AV-unprocessed.smi

> <i_m_source_file_index>
3268

> <i_lp_mmshare_version>
43012

> <i_f3d_flags>
0

> <s_epik_input>
bjFbY0hdbltjSF1uMVtDQEhdKFtDSDNdKUMoPU8pW05IXVtDSDJdW0NIMl1OMltDSDJdW0NIMl1bQ0gyXVtDSDJdW0NIMl0y

> <s_epik_cmdline>
J2VwaWtfcHl0aG9uJywgJy1waCcsICc3LjAnLCAnLXRuJywgJzgnLCAnLW1hJywgJzIwMCcsICctbWV0YWxfYmluZGluZycsICctaW1hZScsICc8aW5maWxlLm1hZT4nLCAnLW9tYWUnLCAnPG91dGZpbGUubWFlPic=

> <r_lp_tautomer_probability>
1

> <r_epik_Ionization_Penalty>
0.00266407

> <r_epik_Ionization_Penalty_Charging>
0.00265606

> <r_epik_Ionization_Penalty_Neutral>
8.01095e-06

> <r_epik_State_Penalty>
0.00184955

> <r_epik_Charging_Adjusted_Penalty>
0.00450561

> <i_epik_Tot_Q>
1

> <i_epik_Tot_abs_Q>
1

> <r_epik_Metal_State_Penalty>
-0

> <b_epik_Metal_Only>
0

> <s_lp_Force_Field>
OPLS_2005

> <r_lp_Energy>
21.812

> <b_lp_Chiralities_Consistent>
1

> <s_lp_Variant>
AV-unprocessed.smi:3268-2

> <Gold.Version>
5.8.1

> <Gold.Id.Protein>
6NUR|6NUR_protein|mol2

> <Gold.PLP.Fitness>
41.0792

> <Gold.PLP.PLP>
-36.9893

> <Gold.PLP.part.hbond>
-1.0000

> <Gold.PLP.part.metal>
0.0000

> <Gold.PLP.part.buried>
-4.6962

> <Gold.PLP.part.nonpolar>
-33.6253

> <Gold.PLP.part.repulsive>
2.6668

> <Gold.PLP.ligand.clash>
0.0441

> <Gold.PLP.ligand.torsion>
0.9994

> <Gold.PLP.Chemscore.Hbond>
1.0000

> <Gold.PLP.Chemscore.CHOScore>
1.0000

> <Gold.PLP.Chemscore.Metal>
0.0000

> <Gold.Chemscore.Hbonds>
donor molecule, donor type, donor heavy atom, donor atom, acceptor molecule, acceptor atom, score
      P1  H  7989  7998       L1     4  1.00
      L1  C    17    39       P1 10171  1.00

> <Gold.PLP.Chemscore.Internal.Correction>
0.1328

> <Gold.Rescore>
     Score         DG    S(hbond)    S(metal)    S(lipo)     H(rot)  DE(clash)    DE(int)     intcor
     10.60     -11.88       0.93        0.00      84.42       2.57       0.36       0.92       ----

> <Gold.Chemscore.Fitness>
10.5982

> <Gold.Chemscore.DG>
-11.8813

> <Gold.Chemscore.ZeroCoef>
-5.4800

> <Gold.Chemscore.Hbond>
0.9282

> <Gold.Chemscore.Metal>
0.0000

> <Gold.Chemscore.Lipo>
84.4249

> <Gold.Chemscore.Internal_Hbond>
0.0000

> <Gold.Chemscore.DEClash>
0.3611

> <Gold.Chemscore.DEInternal>
0.9221

> <Gold.Chemscore.Rot>
2.5690

> <Gold.Chemscore.Internal.Correction>
   9.000000E+99

> <Gold.Chemscore.Hbonds>
donor molecule, donor type, donor heavy atom, donor atom, acceptor molecule, acceptor atom, score
      P1  H  7989  7998       L1     4  0.71

> <Gold.Chemscore.Hbond.Weighted>
-3.1002

> <Gold.Chemscore.Metal.Weighted>
-0.0000

> <Gold.Chemscore.Lipo.Weighted>
-9.8777

> <Gold.Chemscore.Internal_Hbond.Weighted>
0.0000

> <Gold.Chemscore.DEClash.Weighted>
0.3611

> <Gold.Chemscore.DEInternal.Weighted>
0.9221

> <Gold.Chemscore.Rot.Weighted>
6.5766

> <Gold.Chemscore.Internal.Correction.Weighted>
   9.000000E+99

> <Gold.Protein.RotatedTorsions>
[ 6907 6896 6895 6894 ] final  134.95 input  -60.11 | X-H torsion
[ 7974 7965 7964 7962 ] final  102.18 input  175.53 | X-H torsion
[ 8008 7997 7996 7995 ] final -137.77 input   59.86 | X-H torsion
[ 10167 10162 10161 10158 ] final  -84.14 input  -65.29 | X-H torsion
[ 10718 10713 10712 10709 ] final  151.25 input   66.30 | X-H torsion
[ 10763 10752 10751 10750 ] final   92.29 input  -60.55 | X-H torsion
[ 11005 11000 10999 10996 ] final  168.31 input  -57.11 | X-H torsion

> <Gold.Protein.ActiveResidues>
 VAL166  LYS551  ARG553  GLY616  TRP617  ASP618  TYR619  PRO620  LYS621  CYS622 
 ASP623  PHE694  ASN695  SER759  ASP760  ASP761  ALA762  ILE779  LEU786  VAL792 
 PHE793  MET794  SER795  GLU796  ALA797  LYS798  CYS799  TRP800  GLU811  SER814 

> <Gold.Protein.RotatedAtoms>
  152.3057  133.5701  159.5647 H   0  0  0  0  0  0  0  0  0  0  0  0  # atno 6907 bound_to 6896
  150.7299  134.0225  159.3715 H   0  0  0  0  0  0  0  0  0  0  0  0  # atno 6908 bound_to 6896
  151.8122  135.0678  160.0465 H   0  0  0  0  0  0  0  0  0  0  0  0  # atno 6909 bound_to 6896
  145.3625  139.2415  143.3499 H   0  0  0  0  0  0  0  0  0  0  0  0  # atno 7974 bound_to 7965
  155.4173  140.0516  157.3028 H   0  0  0  0  0  0  0  0  0  0  0  0  # atno 8008 bound_to 7997
  154.4918  140.2123  155.9490 H   0  0  0  0  0  0  0  0  0  0  0  0  # atno 8009 bound_to 7997
  156.1353  140.3164  155.8416 H   0  0  0  0  0  0  0  0  0  0  0  0  # atno 8010 bound_to 7997
  140.4160  143.2603  151.8954 H   0  0  0  0  0  0  0  0  0  0  0  0  # atno 10167 bound_to 10162
  157.2731  131.0821  151.1585 H   0  0  0  0  0  0  0  0  0  0  0  0  # atno 10718 bound_to 10713
  153.2175  135.4367  155.0451 H   0  0  0  0  0  0  0  0  0  0  0  0  # atno 10763 bound_to 10752
  154.8233  135.3348  154.6977 H   0  0  0  0  0  0  0  0  0  0  0  0  # atno 10764 bound_to 10752
  153.7410  135.7004  153.5023 H   0  0  0  0  0  0  0  0  0  0  0  0  # atno 10765 bound_to 10752
  140.2859  134.7713  157.3797 H   0  0  0  0  0  0  0  0  0  0  0  0  # atno 11005 bound_to 11000
  146.2921  140.4261  142.8735 LP  0  0  0  0  0  0  0  0  0  0  0  0  # atno 17320 bound_to 7965
  144.8636  140.7174  143.6092 LP  0  0  0  0  0  0  0  0  0  0  0  0  # atno 17321 bound_to 7965
  139.4782  144.5487  151.8419 LP  0  0  0  0  0  0  0  0  0  0  0  0  # atno 17342 bound_to 10162
  140.4586  144.1755  150.5904 LP  0  0  0  0  0  0  0  0  0  0  0  0  # atno 17343 bound_to 10162
  157.3049  130.6861  149.6184 LP  0  0  0  0  0  0  0  0  0  0  0  0  # atno 17370 bound_to 10713
  155.9663  130.4381  150.5203 LP  0  0  0  0  0  0  0  0  0  0  0  0  # atno 17371 bound_to 10713
  140.1240  134.5182  155.8160 LP  0  0  0  0  0  0  0  0  0  0  0  0  # atno 17394 bound_to 11000
  141.2155  133.6766  156.6918 LP  0  0  0  0  0  0  0  0  0  0  0  0  # atno 17395 bound_to 11000

$$$$
