AV-unprocessed.smi:34|AV-procd|sdf|226|dock8
  -GOLD-   2262015553D 1   1.00000     0.00000
 Structure written by MMmdl.
 55 59  0  0  0  0  0  0  0  0  1 V2000
  154.2820  139.8323  158.8997 O   0  0  0  0  0  0  0  0  0  0  0  0
  153.8945  139.8844  160.0674 C   0  0  0  0  0  0  0  0  0  0  0  0
  153.9278  138.7281  160.9452 N   0  0  0  0  0  0  0  0  0  0  0  0
  154.3007  137.4612  160.6480 C   0  0  0  0  0  0  0  0  0  0  0  0
  154.5606  137.0565  159.3774 N   0  0  0  0  0  0  0  0  0  0  0  0
  154.9244  135.7945  159.1364 C   0  0  0  0  0  0  0  0  0  0  0  0
  155.0917  134.7967  160.0059 N   0  0  0  0  0  0  0  0  0  0  0  0
  154.8441  135.1931  161.2890 C   0  0  0  0  0  0  0  0  0  0  0  0
  154.4385  136.4995  161.6830 C   0  0  0  0  0  0  0  0  0  0  0  0
  154.2507  136.5400  163.0571 N   0  0  0  0  0  0  0  0  0  0  0  0
  154.5256  135.3255  163.4483 C   0  0  0  0  0  0  0  0  0  0  0  0
  154.9311  134.4550  162.4576 N   0  0  0  0  0  0  0  0  0  0  0  0
  155.2874  132.9983  162.6061 C   0  0  1  0  0  0  0  0  0  0  0  0
  155.1084  132.6206  163.9361 O   0  0  0  0  0  0  0  0  0  0  0  0
  153.7711  132.1749  164.1039 C   0  0  2  0  0  0  0  0  0  0  0  0
  153.5973  131.4309  165.4356 C   0  0  0  0  0  0  0  0  0  0  0  0
  154.8230  130.8101  165.7996 O   0  0  0  0  0  0  0  0  0  0  0  0
  154.8627  129.5029  166.1399 C   0  0  0  0  0  0  0  0  0  0  0  0
  154.0892  128.6547  165.6908 O   0  0  0  0  0  0  0  0  0  0  0  0
  155.9545  129.1880  167.1048 C   0  0  0  0  0  0  0  0  0  0  0  0
  156.3563  127.8434  167.2809 C   0  0  0  0  0  0  0  0  0  0  0  0
  157.3966  127.5164  168.1718 C   0  0  0  0  0  0  0  0  0  0  0  0
  158.0483  128.5305  168.8973 C   0  0  0  0  0  0  0  0  0  0  0  0
  157.6586  129.8721  168.7304 C   0  0  0  0  0  0  0  0  0  0  0  0
  156.6181  130.2010  167.8400 C   0  0  0  0  0  0  0  0  0  0  0  0
  153.6172  131.2977  162.8670 C   0  0  1  0  0  0  0  0  0  0  0  0
  152.3364  131.0818  162.5656 F   0  0  0  0  0  0  0  0  0  0  0  0
  154.3212  132.1122  161.7873 C   0  0  2  0  0  0  0  0  0  0  0  0
  154.9990  131.2652  160.8828 O   0  0  0  0  0  0  0  0  0  0  0  0
  153.4318  141.1705  160.6889 C   0  0  0  0  0  0  0  0  0  0  0  0
  153.6367  141.4028  162.0678 C   0  0  0  0  0  0  0  0  0  0  0  0
  153.2187  142.6117  162.6576 C   0  0  0  0  0  0  0  0  0  0  0  0
  152.5995  143.6020  161.8725 C   0  0  0  0  0  0  0  0  0  0  0  0
  152.4024  143.3846  160.4960 C   0  0  0  0  0  0  0  0  0  0  0  0
  152.8197  142.1761  159.9050 C   0  0  0  0  0  0  0  0  0  0  0  0
  153.6122  138.8839  161.8915 H   0  0  0  0  0  0  0  0  0  0  0  0
  155.1096  135.5506  158.1006 H   0  0  0  0  0  0  0  0  0  0  0  0
  154.4442  135.0324  164.4851 H   0  0  0  0  0  0  0  0  0  0  0  0
  156.3339  132.9425  162.3043 H   0  0  0  0  0  0  0  0  0  0  0  0
  153.0845  133.0225  164.0488 H   0  0  0  0  0  0  0  0  0  0  0  0
  153.3538  132.1487  166.2189 H   0  0  0  0  0  0  0  0  0  0  0  0
  152.7693  130.7217  165.3935 H   0  0  0  0  0  0  0  0  0  0  0  0
  155.8721  127.0483  166.7323 H   0  0  0  0  0  0  0  0  0  0  0  0
  157.6948  126.4861  168.2978 H   0  0  0  0  0  0  0  0  0  0  0  0
  158.8470  128.2798  169.5798 H   0  0  0  0  0  0  0  0  0  0  0  0
  158.1597  130.6519  169.2849 H   0  0  0  0  0  0  0  0  0  0  0  0
  156.3478  131.2411  167.7311 H   0  0  0  0  0  0  0  0  0  0  0  0
  154.1015  130.3318  163.0217 H   0  0  0  0  0  0  0  0  0  0  0  0
  153.5978  132.7229  161.2467 H   0  0  0  0  0  0  0  0  0  0  0  0
  155.6222  131.7837  160.3967 H   0  0  0  0  0  0  0  0  0  0  0  0
  154.1117  140.6533  162.6844 H   0  0  0  0  0  0  0  0  0  0  0  0
  153.3743  142.7792  163.7132 H   0  0  0  0  0  0  0  0  0  0  0  0
  152.2792  144.5290  162.3249 H   0  0  0  0  0  0  0  0  0  0  0  0
  151.9324  144.1466  159.8918 H   0  0  0  0  0  0  0  0  0  0  0  0
  152.6662  142.0348  158.8450 H   0  0  0  0  0  0  0  0  0  0  0  0
  1  2  2  0  0  0  0
  2  3  1  0  0  0  0
  2 30  1  0  0  0  0
  3  4  1  0  0  0  0
  3 36  1  0  0  0  0
  4  9  1  0  0  0  0
  4  5  2  0  0  0  0
  5  6  1  0  0  0  0
  6  7  2  0  0  0  0
  6 37  1  0  0  0  0
  7  8  1  0  0  0  0
  8 12  1  0  0  0  0
  8  9  2  0  0  0  0
  9 10  1  0  0  0  0
 10 11  2  0  0  0  0
 11 12  1  0  0  0  0
 11 38  1  0  0  0  0
 12 13  1  0  0  0  0
 13 28  1  0  0  0  0
 13 14  1  0  0  0  0
 13 39  1  0  0  0  0
 14 15  1  0  0  0  0
 15 16  1  0  0  0  0
 15 26  1  0  0  0  0
 15 40  1  0  0  0  0
 16 17  1  0  0  0  0
 16 41  1  0  0  0  0
 16 42  1  0  0  0  0
 17 18  1  0  0  0  0
 18 19  2  0  0  0  0
 18 20  1  0  0  0  0
 20 25  1  0  0  0  0
 20 21  2  0  0  0  0
 21 22  1  0  0  0  0
 21 43  1  0  0  0  0
 22 23  2  0  0  0  0
 22 44  1  0  0  0  0
 23 24  1  0  0  0  0
 23 45  1  0  0  0  0
 24 25  2  0  0  0  0
 24 46  1  0  0  0  0
 25 47  1  0  0  0  0
 26 27  1  0  0  0  0
 26 28  1  0  0  0  0
 26 48  1  0  0  0  0
 28 29  1  0  0  0  0
 28 49  1  0  0  0  0
 29 50  1  0  0  0  0
 30 35  1  0  0  0  0
 30 31  2  0  0  0  0
 31 32  1  0  0  0  0
 31 51  1  0  0  0  0
 32 33  2  0  0  0  0
 32 52  1  0  0  0  0
 33 34  1  0  0  0  0
 33 53  1  0  0  0  0
 34 35  2  0  0  0  0
 34 54  1  0  0  0  0
 35 55  1  0  0  0  0
M  END
> <s_m_source_file>
AV-unprocessed.smi

> <i_m_source_file_index>
34

> <i_lp_mmshare_version>
43012

> <i_f3d_flags>
0

> <s_epik_input>
W2NIXTFbY0hdW2NIXVtjSF1bY0hdYzFDKD1PKVtOSF1jKG5bY0hdbjIpYyhjMjMpbltjSF1uM1tDQEBIXTRPW0NASF0oW0NAQEhdKEYpW0NASF00W09IXSlbQ0gyXU9DKD1PKWM1W2NIXVtjSF1bY0hdW2NIXVtjSF01

> <s_epik_cmdline>
J2VwaWtfcHl0aG9uJywgJy1waCcsICc3LjAnLCAnLXRuJywgJzgnLCAnLW1hJywgJzIwMCcsICctbWV0YWxfYmluZGluZycsICctaW1hZScsICc8aW5maWxlLm1hZT4nLCAnLW9tYWUnLCAnPG91dGZpbGUubWFlPic=

> <r_lp_tautomer_probability>
1

> <r_epik_Ionization_Penalty>
0.00257489

> <r_epik_Ionization_Penalty_Charging>
0

> <r_epik_Ionization_Penalty_Neutral>
0.00257489

> <r_epik_State_Penalty>
0.00519398

> <r_epik_Charging_Adjusted_Penalty>
0.00519398

> <i_epik_Tot_Q>
0

> <i_epik_Tot_abs_Q>
0

> <r_epik_Metal_State_Penalty>
0.335891

> <b_epik_Metal_Only>
0

> <s_epik_Chemistry_Notes>
This compound has an ester and may undergo hydrolysis at high or low pH. This compound contains an acetal/aminal-like group ( X-CH(R)-Y where X, Y are N, S, or O) that may be acid/base labile, releasing an aldehyde.

> <s_lp_Force_Field>
OPLS_2005

> <r_lp_Energy>
40.9193

> <b_lp_Chiralities_Consistent>
1

> <s_lp_Variant>
AV-unprocessed.smi:34-12

> <Gold.Version>
5.8.1

> <Gold.Id.Protein>
6NUR|6NUR_protein|mol2

> <Gold.PLP.Fitness>
55.5782

> <Gold.PLP.PLP>
-55.5569

> <Gold.PLP.part.hbond>
-1.0000

> <Gold.PLP.part.metal>
0.0000

> <Gold.PLP.part.buried>
-6.6397

> <Gold.PLP.part.nonpolar>
-47.2054

> <Gold.PLP.part.repulsive>
0.0567

> <Gold.PLP.ligand.clash>
0.0000

> <Gold.PLP.ligand.torsion>
1.5746

> <Gold.PLP.Chemscore.Hbond>
0.9920

> <Gold.PLP.Chemscore.CHOScore>
0.0000

> <Gold.PLP.Chemscore.Metal>
0.0000

> <Gold.Chemscore.Hbonds>
donor molecule, donor type, donor heavy atom, donor atom, acceptor molecule, acceptor atom, score
      P1  H  7997  8009       L1     1  0.99

> <Gold.PLP.Chemscore.Internal.Correction>
0.1945

> <Gold.Rescore>
     Score         DG    S(hbond)    S(metal)    S(lipo)     H(rot)  DE(clash)    DE(int)     intcor
     14.05     -17.15       0.98        0.00     131.25       2.72       0.20       2.90       ----

> <Gold.Chemscore.Fitness>
14.0451

> <Gold.Chemscore.DG>
-17.1477

> <Gold.Chemscore.ZeroCoef>
-5.4800

> <Gold.Chemscore.Hbond>
0.9817

> <Gold.Chemscore.Metal>
0.0000

> <Gold.Chemscore.Lipo>
131.2478

> <Gold.Chemscore.Internal_Hbond>
0.0000

> <Gold.Chemscore.DEClash>
0.2002

> <Gold.Chemscore.DEInternal>
2.9025

> <Gold.Chemscore.Rot>
2.7215

> <Gold.Chemscore.Internal.Correction>
   9.000000E+99

> <Gold.Chemscore.Hbonds>
donor molecule, donor type, donor heavy atom, donor atom, acceptor molecule, acceptor atom, score
      P1  H  7997  8009       L1     1  0.94

> <Gold.Chemscore.Hbond.Weighted>
-3.2788

> <Gold.Chemscore.Metal.Weighted>
-0.0000

> <Gold.Chemscore.Lipo.Weighted>
-15.3560

> <Gold.Chemscore.Internal_Hbond.Weighted>
0.0000

> <Gold.Chemscore.DEClash.Weighted>
0.2002

> <Gold.Chemscore.DEInternal.Weighted>
2.9025

> <Gold.Chemscore.Rot.Weighted>
6.9670

> <Gold.Chemscore.Internal.Correction.Weighted>
   9.000000E+99

> <Gold.Protein.RotatedTorsions>
[ 6907 6896 6895 6894 ] final -106.47 input  -60.11 | X-H torsion
[ 7974 7965 7964 7962 ] final -159.10 input  175.53 | X-H torsion
[ 8008 7997 7996 7995 ] final  115.35 input   59.86 | X-H torsion
[ 10167 10162 10161 10158 ] final -103.18 input  -65.29 | X-H torsion
[ 10718 10713 10712 10709 ] final   -3.91 input   66.30 | X-H torsion
[ 10763 10752 10751 10750 ] final   72.29 input  -60.55 | X-H torsion
[ 11005 11000 10999 10996 ] final   79.89 input  -57.11 | X-H torsion

> <Gold.Protein.ActiveResidues>
 VAL166  LYS551  ARG553  GLY616  TRP617  ASP618  TYR619  PRO620  LYS621  CYS622 
 ASP623  PHE694  ASN695  SER759  ASP760  ASP761  ALA762  ILE779  LEU786  VAL792 
 PHE793  MET794  SER795  GLU796  ALA797  LYS798  CYS799  TRP800  GLU811  SER814 

> <Gold.Protein.RotatedAtoms>
  150.7391  133.9971  159.3625 H   0  0  0  0  0  0  0  0  0  0  0  0  # atno 6907 bound_to 6896
  151.7923  135.0730  160.0398 H   0  0  0  0  0  0  0  0  0  0  0  0  # atno 6908 bound_to 6896
  152.3199  133.5806  159.5773 H   0  0  0  0  0  0  0  0  0  0  0  0  # atno 6909 bound_to 6896
  144.7478  140.3733  143.6071 H   0  0  0  0  0  0  0  0  0  0  0  0  # atno 7974 bound_to 7965
  156.2376  140.2940  156.0355 H   0  0  0  0  0  0  0  0  0  0  0  0  # atno 8008 bound_to 7997
  155.2046  140.0410  157.2940 H   0  0  0  0  0  0  0  0  0  0  0  0  # atno 8009 bound_to 7997
  154.6107  140.2451  155.7679 H   0  0  0  0  0  0  0  0  0  0  0  0  # atno 8010 bound_to 7997
  140.2227  143.3664  152.0955 H   0  0  0  0  0  0  0  0  0  0  0  0  # atno 10167 bound_to 10162
  156.7691  130.5294  149.5770 H   0  0  0  0  0  0  0  0  0  0  0  0  # atno 10718 bound_to 10713
  153.0450  135.5105  154.7722 H   0  0  0  0  0  0  0  0  0  0  0  0  # atno 10763 bound_to 10752
  154.6629  135.2941  154.9845 H   0  0  0  0  0  0  0  0  0  0  0  0  # atno 10764 bound_to 10752
  154.0690  135.6680  153.4874 H   0  0  0  0  0  0  0  0  0  0  0  0  # atno 10765 bound_to 10752
  139.9155  134.7878  156.1838 H   0  0  0  0  0  0  0  0  0  0  0  0  # atno 11005 bound_to 11000
  145.7055  139.1671  143.2568 LP  0  0  0  0  0  0  0  0  0  0  0  0  # atno 17320 bound_to 7965
  146.1385  140.7090  142.9378 LP  0  0  0  0  0  0  0  0  0  0  0  0  # atno 17321 bound_to 7965
  139.5138  144.6938  151.5686 LP  0  0  0  0  0  0  0  0  0  0  0  0  # atno 17342 bound_to 10162
  140.6243  143.9199  150.6551 LP  0  0  0  0  0  0  0  0  0  0  0  0  # atno 17343 bound_to 10162
  156.1289  130.6164  151.0305 LP  0  0  0  0  0  0  0  0  0  0  0  0  # atno 17370 bound_to 10713
  157.6699  131.0863  150.7637 LP  0  0  0  0  0  0  0  0  0  0  0  0  # atno 17371 bound_to 10713
  141.0626  133.6834  156.1982 LP  0  0  0  0  0  0  0  0  0  0  0  0  # atno 17394 bound_to 11000
  140.6636  134.4941  157.5584 LP  0  0  0  0  0  0  0  0  0  0  0  0  # atno 17395 bound_to 11000

$$$$
