AV-unprocessed.smi:1201|AV-procd|sdf|5027|dock7
  -GOLD-   22720 4 53D 1   1.00000     0.00000
 Structure written by MMmdl.
 31 32  0  0  0  0  0  0  0  0  1 V2000
  150.7853  141.9624  155.9731 C   0  0  0  0  0  0  0  0  0  0  0  0
  150.7745  140.8360  155.1030 O   0  0  0  0  0  0  0  0  0  0  0  0
  149.5643  140.4149  154.5912 C   0  0  0  0  0  0  0  0  0  0  0  0
  148.5484  141.3701  154.3900 C   0  0  0  0  0  0  0  0  0  0  0  0
  147.3098  140.9494  153.8690 C   0  0  0  0  0  0  0  0  0  0  0  0
  147.1281  139.5805  153.5569 C   0  0  0  0  0  0  0  0  0  0  0  0
  145.9264  139.0216  153.0422 N   0  0  0  0  0  0  0  0  0  0  0  0
  145.6129  137.7300  152.8411 C   0  0  0  0  0  0  0  0  0  0  0  0
  146.3375  136.7695  153.0997 O   0  0  0  0  0  0  0  0  0  0  0  0
  144.3809  137.6078  152.3280 N   0  0  0  0  0  0  0  0  0  0  0  0
  143.7413  136.3443  151.9858 C   0  0  0  0  0  0  0  0  0  0  0  0
  144.4389  135.5515  150.8972 C   0  0  0  0  0  0  0  0  0  0  0  0
  144.4054  134.0411  150.9148 C   0  0  0  0  0  0  0  0  0  0  0  0
  145.7004  134.7690  151.1821 C   0  0  0  0  0  0  0  0  0  0  0  0
  148.2047  138.7042  153.8054 C   0  0  0  0  0  0  0  0  0  0  0  0
  149.3942  139.1005  154.3048 N   0  0  0  0  0  0  0  0  0  0  0  0
  151.8080  142.1612  156.2931 H   0  0  0  0  0  0  0  0  0  0  0  0
  150.1886  141.7815  156.8683 H   0  0  0  0  0  0  0  0  0  0  0  0
  150.4160  142.8574  155.4705 H   0  0  0  0  0  0  0  0  0  0  0  0
  148.7143  142.4086  154.6357 H   0  0  0  0  0  0  0  0  0  0  0  0
  146.5299  141.6819  153.7343 H   0  0  0  0  0  0  0  0  0  0  0  0
  145.1959  139.6881  152.8392 H   0  0  0  0  0  0  0  0  0  0  0  0
  143.8507  138.4488  152.1531 H   0  0  0  0  0  0  0  0  0  0  0  0
  143.6296  135.7258  152.8783 H   0  0  0  0  0  0  0  0  0  0  0  0
  142.7312  136.5703  151.6444 H   0  0  0  0  0  0  0  0  0  0  0  0
  144.3677  136.0070  149.9112 H   0  0  0  0  0  0  0  0  0  0  0  0
  143.9230  133.5526  151.7592 H   0  0  0  0  0  0  0  0  0  0  0  0
  144.3026  133.5303  149.9596 H   0  0  0  0  0  0  0  0  0  0  0  0
  146.4615  134.7460  150.4051 H   0  0  0  0  0  0  0  0  0  0  0  0
  146.0770  134.7659  152.2031 H   0  0  0  0  0  0  0  0  0  0  0  0
  148.1117  137.6488  153.5941 H   0  0  0  0  0  0  0  0  0  0  0  0
  1  2  1  0  0  0  0
  1 17  1  0  0  0  0
  1 18  1  0  0  0  0
  1 19  1  0  0  0  0
  2  3  1  0  0  0  0
  3 16  1  0  0  0  0
  3  4  2  0  0  0  0
  4  5  1  0  0  0  0
  4 20  1  0  0  0  0
  5  6  2  0  0  0  0
  5 21  1  0  0  0  0
  6  7  1  0  0  0  0
  6 15  1  0  0  0  0
  7  8  1  0  0  0  0
  7 22  1  0  0  0  0
  8  9  2  0  0  0  0
  8 10  1  0  0  0  0
 10 11  1  0  0  0  0
 10 23  1  0  0  0  0
 11 12  1  0  0  0  0
 11 24  1  0  0  0  0
 11 25  1  0  0  0  0
 12 14  1  0  0  0  0
 12 13  1  0  0  0  0
 12 26  1  0  0  0  0
 13 14  1  0  0  0  0
 13 27  1  0  0  0  0
 13 28  1  0  0  0  0
 14 29  1  0  0  0  0
 14 30  1  0  0  0  0
 15 16  2  0  0  0  0
 15 31  1  0  0  0  0
M  END
> <s_m_source_file>
AV-unprocessed.smi

> <i_m_source_file_index>
1201

> <i_lp_mmshare_version>
43012

> <i_f3d_flags>
0

> <s_epik_input>
W0NIM11PYzFbY0hdW2NIXWMoW2NIXW4xKVtOSF1DKD1PKVtOSF1bQ0gyXVtDSF0yW0NIMl1bQ0gyXTI=

> <s_epik_cmdline>
J2VwaWtfcHl0aG9uJywgJy1waCcsICc3LjAnLCAnLXRuJywgJzgnLCAnLW1hJywgJzIwMCcsICctbWV0YWxfYmluZGluZycsICctaW1hZScsICc8aW5maWxlLm1hZT4nLCAnLW9tYWUnLCAnPG91dGZpbGUubWFlPic=

> <r_lp_tautomer_probability>
1

> <r_epik_Ionization_Penalty>
9.92182e-05

> <r_epik_Ionization_Penalty_Charging>
0

> <r_epik_Ionization_Penalty_Neutral>
9.92182e-05

> <r_epik_State_Penalty>
-0

> <r_epik_Charging_Adjusted_Penalty>
0

> <i_epik_Tot_Q>
0

> <i_epik_Tot_abs_Q>
0

> <r_epik_Metal_State_Penalty>
-0

> <b_epik_Metal_Only>
0

> <s_lp_Force_Field>
OPLS_2005

> <r_lp_Energy>
14.9196

> <b_lp_Chiralities_Consistent>
1

> <s_lp_Variant>
AV-unprocessed.smi:1201-1

> <Gold.Version>
5.8.1

> <Gold.Id.Protein>
6NUR|6NUR_protein|mol2

> <Gold.PLP.Fitness>
38.3711

> <Gold.PLP.PLP>
-28.4474

> <Gold.PLP.part.hbond>
-4.0000

> <Gold.PLP.part.metal>
0.0000

> <Gold.PLP.part.buried>
-4.2311

> <Gold.PLP.part.nonpolar>
-21.3517

> <Gold.PLP.part.repulsive>
1.1456

> <Gold.PLP.ligand.clash>
0.0000

> <Gold.PLP.ligand.torsion>
0.6655

> <Gold.PLP.Chemscore.Hbond>
2.5720

> <Gold.PLP.Chemscore.CHOScore>
1.0000

> <Gold.PLP.Chemscore.Metal>
0.0000

> <Gold.Chemscore.Hbonds>
donor molecule, donor type, donor heavy atom, donor atom, acceptor molecule, acceptor atom, score
      L1  H     7    22       P1 10175  1.00
      L1  H    10    23       P1 10175  0.98
      P1  H  7989  7998       L1     2  0.65
      L1  C    15    31       P1  7948  1.00

> <Gold.PLP.Chemscore.Internal.Correction>
0.5387

> <Gold.Rescore>
     Score         DG    S(hbond)    S(metal)    S(lipo)     H(rot)  DE(clash)    DE(int)     intcor
     12.50     -14.78       2.02        0.00      53.71       1.45       0.16       2.13       ----

> <Gold.Chemscore.Fitness>
12.4969

> <Gold.Chemscore.DG>
-14.7844

> <Gold.Chemscore.ZeroCoef>
-5.4800

> <Gold.Chemscore.Hbond>
2.0155

> <Gold.Chemscore.Metal>
0.0000

> <Gold.Chemscore.Lipo>
53.7083

> <Gold.Chemscore.Internal_Hbond>
0.0000

> <Gold.Chemscore.DEClash>
0.1579

> <Gold.Chemscore.DEInternal>
2.1295

> <Gold.Chemscore.Rot>
1.4497

> <Gold.Chemscore.Internal.Correction>
   9.000000E+99

> <Gold.Chemscore.Hbonds>
donor molecule, donor type, donor heavy atom, donor atom, acceptor molecule, acceptor atom, score
      L1  H     7    22       P1 10175  1.00
      L1  H    10    23       P1 10175  0.88
      P1  H  7989  7998       L1     2  0.09

> <Gold.Chemscore.Hbond.Weighted>
-6.7316

> <Gold.Chemscore.Metal.Weighted>
-0.0000

> <Gold.Chemscore.Lipo.Weighted>
-6.2839

> <Gold.Chemscore.Internal_Hbond.Weighted>
0.0000

> <Gold.Chemscore.DEClash.Weighted>
0.1579

> <Gold.Chemscore.DEInternal.Weighted>
2.1295

> <Gold.Chemscore.Rot.Weighted>
3.7111

> <Gold.Chemscore.Internal.Correction.Weighted>
   9.000000E+99

> <Gold.Protein.RotatedTorsions>
[ 6907 6896 6895 6894 ] final   69.20 input  -60.11 | X-H torsion
[ 7974 7965 7964 7962 ] final   10.87 input  175.53 | X-H torsion
[ 8008 7997 7996 7995 ] final  -40.05 input   59.86 | X-H torsion
[ 10167 10162 10161 10158 ] final   20.80 input  -65.29 | X-H torsion
[ 10718 10713 10712 10709 ] final -156.94 input   66.30 | X-H torsion
[ 10763 10752 10751 10750 ] final  -79.64 input  -60.55 | X-H torsion
[ 11005 11000 10999 10996 ] final  -14.40 input  -57.11 | X-H torsion

> <Gold.Protein.ActiveResidues>
 VAL166  LYS551  ARG553  GLY616  TRP617  ASP618  TYR619  PRO620  LYS621  CYS622 
 ASP623  PHE694  ASN695  SER759  ASP760  ASP761  ALA762  ILE779  LEU786  VAL792 
 PHE793  MET794  SER795  GLU796  ALA797  LYS798  CYS799  TRP800  GLU811  SER814 

> <Gold.Protein.RotatedAtoms>
  152.4671  134.5050  159.9736 H   0  0  0  0  0  0  0  0  0  0  0  0  # atno 6907 bound_to 6896
  151.5086  133.3483  159.2889 H   0  0  0  0  0  0  0  0  0  0  0  0  # atno 6908 bound_to 6896
  150.8660  134.8052  159.7181 H   0  0  0  0  0  0  0  0  0  0  0  0  # atno 6909 bound_to 6896
  146.2381  139.9570  142.8463 H   0  0  0  0  0  0  0  0  0  0  0  0  # atno 7974 bound_to 7965
  154.4016  140.1535  156.2964 H   0  0  0  0  0  0  0  0  0  0  0  0  # atno 8008 bound_to 7997
  155.8739  140.3447  155.5819 H   0  0  0  0  0  0  0  0  0  0  0  0  # atno 8009 bound_to 7997
  155.7743  140.0834  157.2082 H   0  0  0  0  0  0  0  0  0  0  0  0  # atno 8010 bound_to 7997
  140.5476  143.9567  150.6557 H   0  0  0  0  0  0  0  0  0  0  0  0  # atno 10167 bound_to 10162
  156.5335  130.8531  151.2724 H   0  0  0  0  0  0  0  0  0  0  0  0  # atno 10718 bound_to 10713
  154.5412  135.5688  153.6841 H   0  0  0  0  0  0  0  0  0  0  0  0  # atno 10763 bound_to 10752
  152.9964  135.6228  154.2500 H   0  0  0  0  0  0  0  0  0  0  0  0  # atno 10764 bound_to 10752
  154.2431  135.2861  155.2826 H   0  0  0  0  0  0  0  0  0  0  0  0  # atno 10765 bound_to 10752
  140.7860  133.8325  155.9335 H   0  0  0  0  0  0  0  0  0  0  0  0  # atno 11005 bound_to 11000
  145.1807  140.9766  143.4268 LP  0  0  0  0  0  0  0  0  0  0  0  0  # atno 17320 bound_to 7965
  144.9944  139.3658  143.6198 LP  0  0  0  0  0  0  0  0  0  0  0  0  # atno 17321 bound_to 7965
  140.2984  143.3277  152.0995 LP  0  0  0  0  0  0  0  0  0  0  0  0  # atno 17342 bound_to 10162
  139.5013  144.6712  151.6238 LP  0  0  0  0  0  0  0  0  0  0  0  0  # atno 17343 bound_to 10162
  157.7418  130.9876  150.2468 LP  0  0  0  0  0  0  0  0  0  0  0  0  # atno 17370 bound_to 10713
  156.3038  130.3762  149.7725 LP  0  0  0  0  0  0  0  0  0  0  0  0  # atno 17371 bound_to 10713
  140.9436  134.1869  157.4779 LP  0  0  0  0  0  0  0  0  0  0  0  0  # atno 17394 bound_to 11000
  139.8737  134.9882  156.5400 LP  0  0  0  0  0  0  0  0  0  0  0  0  # atno 17395 bound_to 11000

$$$$
