AV-unprocessed.smi:3156|AV-procd|sdf|12031|dock10
  -GOLD-   2272017453D 1   1.00000     0.00000
 Structure written by MMmdl.
 41 42  0  0  0  0  0  0  0  0  2 V2000
  147.6026  142.1056  154.3207 C   0  0  0  0  0  0  0  0  0  0  0  0
  148.5414  141.2221  155.1653 C   0  0  2  0  0  0  0  0  0  0  0  0
  149.5471  142.0676  155.8517 N   0  3  0  0  0  0  0  0  0  0  0  0
  150.0271  141.5540  157.1523 C   0  0  0  0  0  0  0  0  0  0  0  0
  151.2587  142.3318  157.6406 C   0  0  1  0  0  0  0  0  0  0  0  0
  150.9382  143.8044  157.9726 C   0  0  0  0  0  0  0  0  0  0  0  0
  152.1703  144.5085  158.5520 C   0  0  0  0  0  0  0  0  0  0  0  0
  152.7172  143.7028  159.7347 C   0  0  0  0  0  0  0  0  0  0  0  0
  152.9457  142.2399  159.3233 C   0  0  0  0  0  0  0  0  0  0  0  0
  151.7354  141.6838  158.8176 O   0  0  0  0  0  0  0  0  0  0  0  0
  149.2572  140.1373  154.3134 C   0  0  2  0  0  0  0  0  0  0  0  0
  148.3005  139.0571  153.7751 C   0  0  0  0  0  0  0  0  0  0  0  0
  150.3438  139.4973  155.0479 N   0  0  0  0  0  0  0  0  0  0  0  0
  150.2550  138.6547  156.1372 C   0  0  0  0  0  0  0  0  0  0  0  0
  151.5277  138.3214  156.5020 C   0  0  0  0  0  0  0  0  0  0  0  0
  152.3418  139.0274  155.5734 C   0  0  0  0  0  0  0  0  0  0  0  0
  151.6318  139.7330  154.7082 N   0  0  0  0  0  0  0  0  0  0  0  0
  146.8015  141.5229  153.8674 H   0  0  0  0  0  0  0  0  0  0  0  0
  148.1451  142.6076  153.5191 H   0  0  0  0  0  0  0  0  0  0  0  0
  147.1197  142.8739  154.9236 H   0  0  0  0  0  0  0  0  0  0  0  0
  147.9441  140.7180  155.9270 H   0  0  0  0  0  0  0  0  0  0  0  0
  150.3524  142.1279  155.2445 H   0  0  0  0  0  0  0  0  0  0  0  0
  149.2361  141.5982  157.9005 H   0  0  0  0  0  0  0  0  0  0  0  0
  150.2906  140.5026  157.0296 H   0  0  0  0  0  0  0  0  0  0  0  0
  152.0360  142.2819  156.8755 H   0  0  0  0  0  0  0  0  0  0  0  0
  150.5974  144.3337  157.0824 H   0  0  0  0  0  0  0  0  0  0  0  0
  150.1215  143.8498  158.6943 H   0  0  0  0  0  0  0  0  0  0  0  0
  152.9383  144.5993  157.7829 H   0  0  0  0  0  0  0  0  0  0  0  0
  151.9182  145.5218  158.8659 H   0  0  0  0  0  0  0  0  0  0  0  0
  153.6466  144.1443  160.0953 H   0  0  0  0  0  0  0  0  0  0  0  0
  152.0093  143.7414  160.5637 H   0  0  0  0  0  0  0  0  0  0  0  0
  153.7351  142.1646  158.5737 H   0  0  0  0  0  0  0  0  0  0  0  0
  153.2694  141.6553  160.1846 H   0  0  0  0  0  0  0  0  0  0  0  0
  149.7104  140.6315  153.4524 H   0  0  0  0  0  0  0  0  0  0  0  0
  147.5781  139.4686  153.0712 H   0  0  0  0  0  0  0  0  0  0  0  0
  147.7464  138.5766  154.5821 H   0  0  0  0  0  0  0  0  0  0  0  0
  148.8503  138.2792  153.2440 H   0  0  0  0  0  0  0  0  0  0  0  0
  149.3036  138.3645  156.5588 H   0  0  0  0  0  0  0  0  0  0  0  0
  151.8317  137.6768  157.3134 H   0  0  0  0  0  0  0  0  0  0  0  0
  153.4194  139.0503  155.5044 H   0  0  0  0  0  0  0  0  0  0  0  0
  149.1676  142.9955  155.9736 H   0  0  0  0  0  0  0  0  0  0  0  0
  1  2  1  0  0  0  0
  1 18  1  0  0  0  0
  1 19  1  0  0  0  0
  1 20  1  0  0  0  0
  2  3  1  0  0  0  0
  2 11  1  0  0  0  0
  2 21  1  0  0  0  0
  3  4  1  0  0  0  0
  3 22  1  0  0  0  0
  3 41  1  0  0  0  0
  4  5  1  0  0  0  0
  4 23  1  0  0  0  0
  4 24  1  0  0  0  0
  5 10  1  0  0  0  0
  5  6  1  0  0  0  0
  5 25  1  0  0  0  0
  6  7  1  0  0  0  0
  6 26  1  0  0  0  0
  6 27  1  0  0  0  0
  7  8  1  0  0  0  0
  7 28  1  0  0  0  0
  7 29  1  0  0  0  0
  8  9  1  0  0  0  0
  8 30  1  0  0  0  0
  8 31  1  0  0  0  0
  9 10  1  0  0  0  0
  9 32  1  0  0  0  0
  9 33  1  0  0  0  0
 11 12  1  0  0  0  0
 11 13  1  0  0  0  0
 11 34  1  0  0  0  0
 12 35  1  0  0  0  0
 12 36  1  0  0  0  0
 12 37  1  0  0  0  0
 13 17  1  0  0  0  0
 13 14  1  0  0  0  0
 14 15  2  0  0  0  0
 14 38  1  0  0  0  0
 15 16  1  0  0  0  0
 15 39  1  0  0  0  0
 16 17  2  0  0  0  0
 16 40  1  0  0  0  0
M  CHG  1   3   1
M  END
> <s_m_source_file>
AV-unprocessed.smi

> <i_m_source_file_index>
3156

> <i_lp_mmshare_version>
43012

> <i_f3d_flags>
0

> <s_epik_input>
bjFbY0hdW2NIXVtjSF1uMVtDQEBIXShbQ0gzXSlbQ0BIXShbQ0gzXSlbTkhdW0NIMl1bQ0BASF0yW0NIMl1bQ0gyXVtDSDJdW0NIMl1PMg==

> <s_epik_cmdline>
J2VwaWtfcHl0aG9uJywgJy1waCcsICc3LjAnLCAnLXRuJywgJzgnLCAnLW1hJywgJzIwMCcsICctbWV0YWxfYmluZGluZycsICctaW1hZScsICc8aW5maWxlLm1hZT4nLCAnLW9tYWUnLCAnPG91dGZpbGUubWFlPic=

> <r_lp_tautomer_probability>
1

> <r_epik_Ionization_Penalty>
0.00658015

> <r_epik_Ionization_Penalty_Charging>
0.00656881

> <r_epik_Ionization_Penalty_Neutral>
1.13431e-05

> <r_epik_State_Penalty>
0.0048654

> <r_epik_Charging_Adjusted_Penalty>
0.0114342

> <i_epik_Tot_Q>
1

> <i_epik_Tot_abs_Q>
1

> <r_epik_Metal_State_Penalty>
-0

> <b_epik_Metal_Only>
0

> <s_lp_Force_Field>
OPLS_2005

> <r_lp_Energy>
18.0883

> <b_lp_Chiralities_Consistent>
1

> <s_lp_Variant>
AV-unprocessed.smi:3156-3

> <Gold.Version>
5.8.1

> <Gold.Id.Protein>
6NUR|6NUR_protein|mol2

> <Gold.PLP.Fitness>
44.7415

> <Gold.PLP.PLP>
-36.9098

> <Gold.PLP.part.hbond>
-2.0000

> <Gold.PLP.part.metal>
0.0000

> <Gold.PLP.part.buried>
-2.7089

> <Gold.PLP.part.nonpolar>
-32.7201

> <Gold.PLP.part.repulsive>
0.1855

> <Gold.PLP.ligand.clash>
0.0000

> <Gold.PLP.ligand.torsion>
0.6271

> <Gold.PLP.Chemscore.Hbond>
3.0000

> <Gold.PLP.Chemscore.CHOScore>
0.0000

> <Gold.PLP.Chemscore.Metal>
0.0000

> <Gold.Chemscore.Hbonds>
donor molecule, donor type, donor heavy atom, donor atom, acceptor molecule, acceptor atom, score
      L1  H     3    41       P1  8028  2.00
      P1  H  7989  7998       L1    17  1.00

> <Gold.PLP.Chemscore.Internal.Correction>
0.0858

> <Gold.Rescore>
     Score         DG    S(hbond)    S(metal)    S(lipo)     H(rot)  DE(clash)    DE(int)     intcor
     18.69     -20.01       1.88        0.00     105.38       1.59       0.02       1.30       ----

> <Gold.Chemscore.Fitness>
18.6948

> <Gold.Chemscore.DG>
-20.0095

> <Gold.Chemscore.ZeroCoef>
-5.4800

> <Gold.Chemscore.Hbond>
1.8803

> <Gold.Chemscore.Metal>
0.0000

> <Gold.Chemscore.Lipo>
105.3806

> <Gold.Chemscore.Internal_Hbond>
0.0000

> <Gold.Chemscore.DEClash>
0.0166

> <Gold.Chemscore.DEInternal>
1.2981

> <Gold.Chemscore.Rot>
1.5938

> <Gold.Chemscore.Internal.Correction>
   9.000000E+99

> <Gold.Chemscore.Hbonds>
donor molecule, donor type, donor heavy atom, donor atom, acceptor molecule, acceptor atom, score
      L1  H     3    41       P1  8028  0.99
      P1  H  7989  7998       L1    17  0.69

> <Gold.Chemscore.Hbond.Weighted>
-6.2802

> <Gold.Chemscore.Metal.Weighted>
-0.0000

> <Gold.Chemscore.Lipo.Weighted>
-12.3295

> <Gold.Chemscore.Internal_Hbond.Weighted>
0.0000

> <Gold.Chemscore.DEClash.Weighted>
0.0166

> <Gold.Chemscore.DEInternal.Weighted>
1.2981

> <Gold.Chemscore.Rot.Weighted>
4.0802

> <Gold.Chemscore.Internal.Correction.Weighted>
   9.000000E+99

> <Gold.Protein.RotatedTorsions>
[ 6907 6896 6895 6894 ] final  100.82 input  -60.11 | X-H torsion
[ 7974 7965 7964 7962 ] final -100.77 input  175.53 | X-H torsion
[ 8008 7997 7996 7995 ] final   -4.59 input   59.86 | X-H torsion
[ 10167 10162 10161 10158 ] final  144.99 input  -65.29 | X-H torsion
[ 10718 10713 10712 10709 ] final  -24.54 input   66.30 | X-H torsion
[ 10763 10752 10751 10750 ] final   42.98 input  -60.55 | X-H torsion
[ 11005 11000 10999 10996 ] final   51.77 input  -57.11 | X-H torsion

> <Gold.Protein.ActiveResidues>
 VAL166  LYS551  ARG553  GLY616  TRP617  ASP618  TYR619  PRO620  LYS621  CYS622 
 ASP623  PHE694  ASN695  SER759  ASP760  ASP761  ALA762  ILE779  LEU786  VAL792 
 PHE793  MET794  SER795  GLU796  ALA797  LYS798  CYS799  TRP800  GLU811  SER814 

> <Gold.Protein.RotatedAtoms>
  152.5363  134.0219  159.7985 H   0  0  0  0  0  0  0  0  0  0  0  0  # atno 6907 bound_to 6896
  151.0404  133.5703  159.2659 H   0  0  0  0  0  0  0  0  0  0  0  0  # atno 6908 bound_to 6896
  151.2675  135.0681  159.9175 H   0  0  0  0  0  0  0  0  0  0  0  0  # atno 6909 bound_to 6896
  145.2902  140.9350  143.2882 H   0  0  0  0  0  0  0  0  0  0  0  0  # atno 7974 bound_to 7965
  154.6127  140.2480  155.7648 H   0  0  0  0  0  0  0  0  0  0  0  0  # atno 8008 bound_to 7997
  156.2380  140.2943  156.0316 H   0  0  0  0  0  0  0  0  0  0  0  0  # atno 8009 bound_to 7997
  155.2026  140.0395  157.2910 H   0  0  0  0  0  0  0  0  0  0  0  0  # atno 8010 bound_to 7997
  139.4935  144.5933  151.6636 H   0  0  0  0  0  0  0  0  0  0  0  0  # atno 10167 bound_to 10162
  156.4762  130.4535  149.6839 H   0  0  0  0  0  0  0  0  0  0  0  0  # atno 10718 bound_to 10713
  152.9870  135.6115  154.3038 H   0  0  0  0  0  0  0  0  0  0  0  0  # atno 10763 bound_to 10752
  154.2757  135.2778  155.2721 H   0  0  0  0  0  0  0  0  0  0  0  0  # atno 10764 bound_to 10752
  154.5083  135.5848  153.6641 H   0  0  0  0  0  0  0  0  0  0  0  0  # atno 10765 bound_to 10752
  140.0905  134.5216  155.8857 H   0  0  0  0  0  0  0  0  0  0  0  0  # atno 11005 bound_to 11000
  144.9179  139.4447  143.6555 LP  0  0  0  0  0  0  0  0  0  0  0  0  # atno 17320 bound_to 7965
  146.3187  139.8023  142.8963 LP  0  0  0  0  0  0  0  0  0  0  0  0  # atno 17321 bound_to 7965
  140.5565  144.0340  150.6150 LP  0  0  0  0  0  0  0  0  0  0  0  0  # atno 17342 bound_to 10162
  140.3411  143.3019  152.0587 LP  0  0  0  0  0  0  0  0  0  0  0  0  # atno 17343 bound_to 10162
  156.3567  130.7460  151.2427 LP  0  0  0  0  0  0  0  0  0  0  0  0  # atno 17370 bound_to 10713
  157.7487  131.0362  150.4397 LP  0  0  0  0  0  0  0  0  0  0  0  0  # atno 17371 bound_to 10713
  141.2076  133.6666  156.6317 LP  0  0  0  0  0  0  0  0  0  0  0  0  # atno 17394 bound_to 11000
  140.3359  134.7889  157.4362 LP  0  0  0  0  0  0  0  0  0  0  0  0  # atno 17395 bound_to 11000

$$$$
