AV-unprocessed.smi:749|AV-procd|sdf|3584|dock6
  -GOLD-   22720 0583D 1   1.00000     0.00000
 Structure written by MMmdl.
 43 44  0  0  0  0  0  0  0  0  1 V2000
  145.9419  130.5340  151.6078 C   0  0  0  0  0  0  0  0  0  0  0  0
  145.5407  131.9397  151.5326 N   0  0  0  0  0  0  0  0  0  0  0  0
  146.4254  132.8740  152.2460 C   0  0  0  0  0  0  0  0  0  0  0  0
  145.8229  134.2761  152.4596 C   0  0  1  0  0  0  0  0  0  0  0  0
  146.8530  135.2289  152.8595 N   0  0  0  0  0  0  0  0  0  0  0  0
  146.9197  135.8562  154.0456 C   0  0  0  0  0  0  0  0  0  0  0  0
  146.0901  135.6839  154.9371 O   0  0  0  0  0  0  0  0  0  0  0  0
  147.9560  136.7047  154.2130 N   0  0  0  0  0  0  0  0  0  0  0  0
  148.3252  137.5182  155.3217 C   0  0  0  0  0  0  0  0  0  0  0  0
  149.2691  138.5667  155.1583 C   0  0  0  0  0  0  0  0  0  0  0  0
  149.3536  139.1166  156.4088 C   0  0  0  0  0  0  0  0  0  0  0  0
  150.1435  140.2578  156.9866 C   0  0  0  0  0  0  0  0  0  0  0  0
  151.0969  139.7615  158.0920 C   0  0  0  0  0  0  0  0  0  0  0  0
  149.1911  141.3013  157.5998 C   0  0  0  0  0  0  0  0  0  0  0  0
  150.9860  140.9255  155.8834 C   0  0  0  0  0  0  0  0  0  0  0  0
  148.5219  138.4557  157.2619 O   0  0  0  0  0  0  0  0  0  0  0  0
  147.8677  137.4363  156.5619 N   0  0  0  0  0  0  0  0  0  0  0  0
  145.1529  134.7515  151.1694 C   0  0  0  0  0  0  0  0  0  0  0  0
  144.0415  133.7801  150.7553 C   0  0  0  0  0  0  0  0  0  0  0  0
  144.4701  132.3052  150.7866 C   0  0  0  0  0  0  0  0  0  0  0  0
  143.7986  131.4928  150.1498 O   0  0  0  0  0  0  0  0  0  0  0  0
  145.1630  129.9401  152.0882 H   0  0  0  0  0  0  0  0  0  0  0  0
  146.8615  130.3976  152.1784 H   0  0  0  0  0  0  0  0  0  0  0  0
  146.1160  130.1275  150.6105 H   0  0  0  0  0  0  0  0  0  0  0  0
  146.7038  132.4528  153.2133 H   0  0  0  0  0  0  0  0  0  0  0  0
  147.3458  132.9542  151.6653 H   0  0  0  0  0  0  0  0  0  0  0  0
  145.0605  134.2243  153.2397 H   0  0  0  0  0  0  0  0  0  0  0  0
  147.5760  135.4276  152.1825 H   0  0  0  0  0  0  0  0  0  0  0  0
  148.5602  136.7942  153.4089 H   0  0  0  0  0  0  0  0  0  0  0  0
  149.7993  138.8685  154.2675 H   0  0  0  0  0  0  0  0  0  0  0  0
  151.6758  140.5826  158.5165 H   0  0  0  0  0  0  0  0  0  0  0  0
  151.8065  139.0278  157.7075 H   0  0  0  0  0  0  0  0  0  0  0  0
  150.5486  139.2927  158.9102 H   0  0  0  0  0  0  0  0  0  0  0  0
  148.5792  140.8630  158.3891 H   0  0  0  0  0  0  0  0  0  0  0  0
  148.5136  141.7135  156.8511 H   0  0  0  0  0  0  0  0  0  0  0  0
  149.7414  142.1361  158.0357 H   0  0  0  0  0  0  0  0  0  0  0  0
  151.5762  141.7534  156.2779 H   0  0  0  0  0  0  0  0  0  0  0  0
  150.3574  141.3239  155.0861 H   0  0  0  0  0  0  0  0  0  0  0  0
  151.6783  140.2148  155.4303 H   0  0  0  0  0  0  0  0  0  0  0  0
  144.7331  135.7488  151.3072 H   0  0  0  0  0  0  0  0  0  0  0  0
  145.8905  134.8327  150.3692 H   0  0  0  0  0  0  0  0  0  0  0  0
  143.1918  133.8906  151.4302 H   0  0  0  0  0  0  0  0  0  0  0  0
  143.6809  134.0325  149.7576 H   0  0  0  0  0  0  0  0  0  0  0  0
  1  2  1  0  0  0  0
  1 22  1  0  0  0  0
  1 23  1  0  0  0  0
  1 24  1  0  0  0  0
  2 20  1  0  0  0  0
  2  3  1  0  0  0  0
  3  4  1  0  0  0  0
  3 25  1  0  0  0  0
  3 26  1  0  0  0  0
  4  5  1  0  0  0  0
  4 18  1  0  0  0  0
  4 27  1  0  0  0  0
  5  6  1  0  0  0  0
  5 28  1  0  0  0  0
  6  7  2  0  0  0  0
  6  8  1  0  0  0  0
  8  9  1  0  0  0  0
  8 29  1  0  0  0  0
  9 17  2  0  0  0  0
  9 10  1  0  0  0  0
 10 11  2  0  0  0  0
 10 30  1  0  0  0  0
 11 12  1  0  0  0  0
 11 16  1  0  0  0  0
 12 13  1  0  0  0  0
 12 14  1  0  0  0  0
 12 15  1  0  0  0  0
 13 31  1  0  0  0  0
 13 32  1  0  0  0  0
 13 33  1  0  0  0  0
 14 34  1  0  0  0  0
 14 35  1  0  0  0  0
 14 36  1  0  0  0  0
 15 37  1  0  0  0  0
 15 38  1  0  0  0  0
 15 39  1  0  0  0  0
 16 17  1  0  0  0  0
 18 19  1  0  0  0  0
 18 40  1  0  0  0  0
 18 41  1  0  0  0  0
 19 20  1  0  0  0  0
 19 42  1  0  0  0  0
 19 43  1  0  0  0  0
 20 21  2  0  0  0  0
M  END
> <s_m_source_file>
AV-unprocessed.smi

> <i_m_source_file_index>
749

> <i_lp_mmshare_version>
43012

> <i_f3d_flags>
0

> <s_epik_input>
Tz1DMVtDSDJdW0NIMl1bQ0BASF0oW0NIMl1OMVtDSDNdKVtOSF1DKD1PKVtOSF1jMltjSF1jKG9uMilDKFtDSDNdKShbQ0gzXSlbQ0gzXQ==

> <s_epik_cmdline>
J2VwaWtfcHl0aG9uJywgJy1waCcsICc3LjAnLCAnLXRuJywgJzgnLCAnLW1hJywgJzIwMCcsICctbWV0YWxfYmluZGluZycsICctaW1hZScsICc8aW5maWxlLm1hZT4nLCAnLW9tYWUnLCAnPG91dGZpbGUubWFlPic=

> <r_lp_tautomer_probability>
1

> <r_epik_Ionization_Penalty>
2.91905e-05

> <r_epik_Ionization_Penalty_Charging>
0

> <r_epik_Ionization_Penalty_Neutral>
2.91905e-05

> <r_epik_State_Penalty>
-0

> <r_epik_Charging_Adjusted_Penalty>
0

> <i_epik_Tot_Q>
0

> <i_epik_Tot_abs_Q>
0

> <r_epik_Metal_State_Penalty>
0.0102923

> <b_epik_Metal_Only>
0

> <s_lp_Force_Field>
OPLS_2005

> <r_lp_Energy>
15.3283

> <b_lp_Chiralities_Consistent>
1

> <s_lp_Variant>
AV-unprocessed.smi:749-1

> <Gold.Version>
5.8.1

> <Gold.Id.Protein>
6NUR|6NUR_protein|mol2

> <Gold.PLP.Fitness>
34.9411

> <Gold.PLP.PLP>
-26.9132

> <Gold.PLP.part.hbond>
-2.9415

> <Gold.PLP.part.metal>
0.0000

> <Gold.PLP.part.buried>
-3.9158

> <Gold.PLP.part.nonpolar>
-20.6013

> <Gold.PLP.part.repulsive>
0.2009

> <Gold.PLP.ligand.clash>
0.0000

> <Gold.PLP.ligand.torsion>
0.0821

> <Gold.PLP.Chemscore.Hbond>
2.7290

> <Gold.PLP.Chemscore.CHOScore>
0.0000

> <Gold.PLP.Chemscore.Metal>
0.0000

> <Gold.Chemscore.Hbonds>
donor molecule, donor type, donor heavy atom, donor atom, acceptor molecule, acceptor atom, score
      L1  H     5    28       P1  7948  0.98
      L1  H     8    29       P1  7948  0.96
      P1  H 10785 10796       L1    21  0.78

> <Gold.PLP.Chemscore.Internal.Correction>
0.0050

> <Gold.Rescore>
     Score         DG    S(hbond)    S(metal)    S(lipo)     H(rot)  DE(clash)    DE(int)     intcor
     16.34     -17.73       2.78        0.00      52.33       1.23       0.21       1.18       ----

> <Gold.Chemscore.Fitness>
16.3426

> <Gold.Chemscore.DG>
-17.7344

> <Gold.Chemscore.ZeroCoef>
-5.4800

> <Gold.Chemscore.Hbond>
2.7800

> <Gold.Chemscore.Metal>
0.0000

> <Gold.Chemscore.Lipo>
52.3279

> <Gold.Chemscore.Internal_Hbond>
0.0000

> <Gold.Chemscore.DEClash>
0.2101

> <Gold.Chemscore.DEInternal>
1.1818

> <Gold.Chemscore.Rot>
1.2317

> <Gold.Chemscore.Internal.Correction>
   9.000000E+99

> <Gold.Chemscore.Hbonds>
donor molecule, donor type, donor heavy atom, donor atom, acceptor molecule, acceptor atom, score
      L1  H     5    28       P1  7948  0.92
      L1  H     8    29       P1  7948  0.92
      P1  H 10785 10796       L1    21  0.72

> <Gold.Chemscore.Hbond.Weighted>
-9.2851

> <Gold.Chemscore.Metal.Weighted>
-0.0000

> <Gold.Chemscore.Lipo.Weighted>
-6.1224

> <Gold.Chemscore.Internal_Hbond.Weighted>
0.0000

> <Gold.Chemscore.DEClash.Weighted>
0.2101

> <Gold.Chemscore.DEInternal.Weighted>
1.1818

> <Gold.Chemscore.Rot.Weighted>
3.1531

> <Gold.Chemscore.Internal.Correction.Weighted>
   9.000000E+99

> <Gold.Protein.RotatedTorsions>
[ 6907 6896 6895 6894 ] final  127.29 input  -60.11 | X-H torsion
[ 7974 7965 7964 7962 ] final   84.42 input  175.53 | X-H torsion
[ 8008 7997 7996 7995 ] final   77.13 input   59.86 | X-H torsion
[ 10167 10162 10161 10158 ] final -110.07 input  -65.29 | X-H torsion
[ 10718 10713 10712 10709 ] final  137.57 input   66.30 | X-H torsion
[ 10763 10752 10751 10750 ] final   -8.03 input  -60.55 | X-H torsion
[ 11005 11000 10999 10996 ] final  111.67 input  -57.11 | X-H torsion

> <Gold.Protein.ActiveResidues>
 VAL166  LYS551  ARG553  GLY616  TRP617  ASP618  TYR619  PRO620  LYS621  CYS622 
 ASP623  PHE694  ASN695  SER759  ASP760  ASP761  ALA762  ILE779  LEU786  VAL792 
 PHE793  MET794  SER795  GLU796  ALA797  LYS798  CYS799  TRP800  GLU811  SER814 

> <Gold.Protein.RotatedAtoms>
  152.3826  133.6567  159.6173 H   0  0  0  0  0  0  0  0  0  0  0  0  # atno 6907 bound_to 6896
  150.7753  133.9088  159.3372 H   0  0  0  0  0  0  0  0  0  0  0  0  # atno 6908 bound_to 6896
  151.6891  135.0951  160.0281 H   0  0  0  0  0  0  0  0  0  0  0  0  # atno 6909 bound_to 6896
  145.5989  139.2349  143.2257 H   0  0  0  0  0  0  0  0  0  0  0  0  # atno 7974 bound_to 7965
  155.8373  140.3464  155.5609 H   0  0  0  0  0  0  0  0  0  0  0  0  # atno 8008 bound_to 7997
  155.8178  140.0908  157.1886 H   0  0  0  0  0  0  0  0  0  0  0  0  # atno 8009 bound_to 7997
  154.4004  140.1435  156.3451 H   0  0  0  0  0  0  0  0  0  0  0  0  # atno 8010 bound_to 7997
  140.1485  143.4219  152.1512 H   0  0  0  0  0  0  0  0  0  0  0  0  # atno 10167 bound_to 10162
  157.4347  131.1052  151.0211 H   0  0  0  0  0  0  0  0  0  0  0  0  # atno 10718 bound_to 10713
  153.4346  135.7012  153.6208 H   0  0  0  0  0  0  0  0  0  0  0  0  # atno 10763 bound_to 10752
  153.4608  135.3736  155.2337 H   0  0  0  0  0  0  0  0  0  0  0  0  # atno 10764 bound_to 10752
  154.8726  135.4019  154.3736 H   0  0  0  0  0  0  0  0  0  0  0  0  # atno 10765 bound_to 10752
  139.8909  134.9513  156.6468 H   0  0  0  0  0  0  0  0  0  0  0  0  # atno 11005 bound_to 11000
  146.1591  140.6814  142.9286 LP  0  0  0  0  0  0  0  0  0  0  0  0  # atno 17320 bound_to 7965
  144.7318  140.4695  143.6932 LP  0  0  0  0  0  0  0  0  0  0  0  0  # atno 17321 bound_to 7965
  139.5437  144.7280  151.4650 LP  0  0  0  0  0  0  0  0  0  0  0  0  # atno 17342 bound_to 10162
  140.6717  143.8279  150.7008 LP  0  0  0  0  0  0  0  0  0  0  0  0  # atno 17343 bound_to 10162
  157.1095  130.6015  149.5478 LP  0  0  0  0  0  0  0  0  0  0  0  0  # atno 17370 bound_to 10713
  155.9926  130.4984  150.7346 LP  0  0  0  0  0  0  0  0  0  0  0  0  # atno 17371 bound_to 10713
  140.7551  133.8864  155.8376 LP  0  0  0  0  0  0  0  0  0  0  0  0  # atno 17394 bound_to 11000
  140.9968  134.1204  157.4355 LP  0  0  0  0  0  0  0  0  0  0  0  0  # atno 17395 bound_to 11000

$$$$
