AV-unprocessed.smi:1618|AV-procd|sdf|6486|dock5
  -GOLD-   22720 7153D 1   1.00000     0.00000
 Structure written by MMmdl.
 28 29  0  0  0  0  0  0  0  0  1 V2000
  153.0510  143.1759  162.6838 C   0  0  0  0  0  0  0  0  0  0  0  0
  153.0845  142.3046  161.4938 N   0  0  0  0  0  0  0  0  0  0  0  0
  152.1815  142.5423  160.4907 C   0  0  0  0  0  0  0  0  0  0  0  0
  151.3455  143.4466  160.4963 O   0  0  0  0  0  0  0  0  0  0  0  0
  152.2879  141.6122  159.3616 C   0  0  0  0  0  0  0  0  0  0  0  0
  153.2149  140.6238  159.3094 C   0  0  0  0  0  0  0  0  0  0  0  0
  153.1196  139.8973  158.1287 N   0  0  0  0  0  0  0  0  0  0  0  0
  152.1046  140.5090  157.5200 C   0  0  0  0  0  0  0  0  0  0  0  0
  151.5015  140.0804  155.9646 Cl  0  0  0  0  0  0  0  0  0  0  0  0
  151.5365  141.5400  158.1872 N   0  0  0  0  0  0  0  0  0  0  0  0
  150.4180  142.3754  157.7685 C   0  0  0  0  0  0  0  0  0  0  0  0
  149.0977  141.5935  157.7707 C   0  0  0  0  0  0  0  0  0  0  0  0
  148.0531  142.4216  157.3087 O   0  0  0  0  0  0  0  0  0  0  0  0
  154.1102  140.4708  160.3969 N   0  0  0  0  0  0  0  0  0  0  0  0
  155.0937  139.3875  160.3059 C   0  0  0  0  0  0  0  0  0  0  0  0
  154.0432  141.3055  161.4861 C   0  0  0  0  0  0  0  0  0  0  0  0
  154.8212  141.1674  162.4339 O   0  0  0  0  0  0  0  0  0  0  0  0
  152.2679  143.9347  162.6767 H   0  0  0  0  0  0  0  0  0  0  0  0
  153.9981  143.7067  162.7919 H   0  0  0  0  0  0  0  0  0  0  0  0
  152.8945  142.5826  163.5862 H   0  0  0  0  0  0  0  0  0  0  0  0
  150.3475  143.2403  158.4281 H   0  0  0  0  0  0  0  0  0  0  0  0
  150.6269  142.7816  156.7792 H   0  0  0  0  0  0  0  0  0  0  0  0
  149.1657  140.7154  157.1280 H   0  0  0  0  0  0  0  0  0  0  0  0
  148.8573  141.2458  158.7759 H   0  0  0  0  0  0  0  0  0  0  0  0
  148.4076  143.0300  156.6784 H   0  0  0  0  0  0  0  0  0  0  0  0
  155.7636  139.3119  161.1628 H   0  0  0  0  0  0  0  0  0  0  0  0
  155.7157  139.5236  159.4205 H   0  0  0  0  0  0  0  0  0  0  0  0
  154.5812  138.4297  160.2103 H   0  0  0  0  0  0  0  0  0  0  0  0
  1  2  1  0  0  0  0
  1 18  1  0  0  0  0
  1 19  1  0  0  0  0
  1 20  1  0  0  0  0
  2 16  1  0  0  0  0
  2  3  1  0  0  0  0
  3  4  2  0  0  0  0
  3  5  1  0  0  0  0
  5 10  1  0  0  0  0
  5  6  2  0  0  0  0
  6  7  1  0  0  0  0
  6 14  1  0  0  0  0
  7  8  2  0  0  0  0
  8  9  1  0  0  0  0
  8 10  1  0  0  0  0
 10 11  1  0  0  0  0
 11 12  1  0  0  0  0
 11 21  1  0  0  0  0
 11 22  1  0  0  0  0
 12 13  1  0  0  0  0
 12 23  1  0  0  0  0
 12 24  1  0  0  0  0
 13 25  1  0  0  0  0
 14 15  1  0  0  0  0
 14 16  1  0  0  0  0
 15 26  1  0  0  0  0
 15 27  1  0  0  0  0
 15 28  1  0  0  0  0
 16 17  2  0  0  0  0
M  END
> <s_m_source_file>
AV-unprocessed.smi

> <i_m_source_file_index>
1618

> <i_lp_mmshare_version>
43012

> <i_f3d_flags>
0

> <s_epik_input>
Tz1jMW4oW0NIM10pYyg9TyluKFtDSDNdKWMoYzEyKW5jKENsKW4yW0NIMl1bQ0gyXVtPSF0=

> <s_epik_cmdline>
J2VwaWtfcHl0aG9uJywgJy1waCcsICc3LjAnLCAnLXRuJywgJzgnLCAnLW1hJywgJzIwMCcsICctbWV0YWxfYmluZGluZycsICctaW1hZScsICc8aW5maWxlLm1hZT4nLCAnLW9tYWUnLCAnPG91dGZpbGUubWFlPic=

> <r_lp_tautomer_probability>
1

> <r_epik_Ionization_Penalty>
1.64879e-07

> <r_epik_Ionization_Penalty_Charging>
1.19961e-09

> <r_epik_Ionization_Penalty_Neutral>
1.63679e-07

> <r_epik_State_Penalty>
-0

> <r_epik_Charging_Adjusted_Penalty>
1.19961e-09

> <i_epik_Tot_Q>
0

> <i_epik_Tot_abs_Q>
0

> <r_epik_Metal_State_Penalty>
-0

> <b_epik_Metal_Only>
0

> <s_lp_Force_Field>
OPLS_2005

> <r_lp_Energy>
32.2378

> <b_lp_Chiralities_Consistent>
1

> <s_lp_Variant>
AV-unprocessed.smi:1618-1

> <Gold.Version>
5.8.1

> <Gold.Id.Protein>
6NUR|6NUR_protein|mol2

> <Gold.PLP.Fitness>
43.4410

> <Gold.PLP.PLP>
-37.6101

> <Gold.PLP.part.hbond>
-3.4218

> <Gold.PLP.part.metal>
0.0000

> <Gold.PLP.part.buried>
-4.4135

> <Gold.PLP.part.nonpolar>
-28.9329

> <Gold.PLP.part.repulsive>
0.0915

> <Gold.PLP.ligand.clash>
0.0000

> <Gold.PLP.ligand.torsion>
0.0847

> <Gold.PLP.Chemscore.Hbond>
2.0000

> <Gold.PLP.Chemscore.CHOScore>
0.0000

> <Gold.PLP.Chemscore.Metal>
0.0000

> <Gold.Chemscore.Hbonds>
donor molecule, donor type, donor heavy atom, donor atom, acceptor molecule, acceptor atom, score
      L1  H    13    25       P1  8028  1.00
      P1  H  7997  8008       L1     7  1.00

> <Gold.PLP.Chemscore.Internal.Correction>
0.0003

> <Gold.Rescore>
     Score         DG    S(hbond)    S(metal)    S(lipo)     H(rot)  DE(clash)    DE(int)     intcor
     10.50     -11.07       1.63        0.00      44.82       1.99       0.53       0.03       ----

> <Gold.Chemscore.Fitness>
10.5035

> <Gold.Chemscore.DG>
-11.0664

> <Gold.Chemscore.ZeroCoef>
-5.4800

> <Gold.Chemscore.Hbond>
1.6276

> <Gold.Chemscore.Metal>
0.0000

> <Gold.Chemscore.Lipo>
44.8205

> <Gold.Chemscore.Internal_Hbond>
0.0000

> <Gold.Chemscore.DEClash>
0.5296

> <Gold.Chemscore.DEInternal>
0.0333

> <Gold.Chemscore.Rot>
1.9898

> <Gold.Chemscore.Internal.Correction>
   9.000000E+99

> <Gold.Chemscore.Hbonds>
donor molecule, donor type, donor heavy atom, donor atom, acceptor molecule, acceptor atom, score
      L1  H    13    25       P1  8028  0.57
      P1  H  7997  8008       L1     7  0.59

> <Gold.Chemscore.Hbond.Weighted>
-5.4363

> <Gold.Chemscore.Metal.Weighted>
-0.0000

> <Gold.Chemscore.Lipo.Weighted>
-5.2440

> <Gold.Chemscore.Internal_Hbond.Weighted>
0.0000

> <Gold.Chemscore.DEClash.Weighted>
0.5296

> <Gold.Chemscore.DEInternal.Weighted>
0.0333

> <Gold.Chemscore.Rot.Weighted>
5.0939

> <Gold.Chemscore.Internal.Correction.Weighted>
   9.000000E+99

> <Gold.Protein.RotatedTorsions>
[ 6907 6896 6895 6894 ] final -144.55 input  -60.11 | X-H torsion
[ 7974 7965 7964 7962 ] final -151.76 input  175.53 | X-H torsion
[ 8008 7997 7996 7995 ] final  -94.08 input   59.86 | X-H torsion
[ 10167 10162 10161 10158 ] final  139.55 input  -65.29 | X-H torsion
[ 10718 10713 10712 10709 ] final   94.80 input   66.30 | X-H torsion
[ 10763 10752 10751 10750 ] final    9.05 input  -60.55 | X-H torsion
[ 11005 11000 10999 10996 ] final  -31.48 input  -57.11 | X-H torsion

> <Gold.Protein.ActiveResidues>
 VAL166  LYS551  ARG553  GLY616  TRP617  ASP618  TYR619  PRO620  LYS621  CYS622 
 ASP623  PHE694  ASN695  SER759  ASP760  ASP761  ALA762  ILE779  LEU786  VAL792 
 PHE793  MET794  SER795  GLU796  ALA797  LYS798  CYS799  TRP800  GLU811  SER814 

> <Gold.Protein.RotatedAtoms>
  151.1156  133.5141  159.2603 H   0  0  0  0  0  0  0  0  0  0  0  0  # atno 6907 bound_to 6896
  151.1919  135.0405  159.8846 H   0  0  0  0  0  0  0  0  0  0  0  0  # atno 6908 bound_to 6896
  152.5453  134.0995  159.8365 H   0  0  0  0  0  0  0  0  0  0  0  0  # atno 6909 bound_to 6896
  144.7832  140.4754  143.5825 H   0  0  0  0  0  0  0  0  0  0  0  0  # atno 7974 bound_to 7965
  154.7438  140.0492  157.0834 H   0  0  0  0  0  0  0  0  0  0  0  0  # atno 8008 bound_to 7997
  155.0144  140.3139  155.4798 H   0  0  0  0  0  0  0  0  0  0  0  0  # atno 8009 bound_to 7997
  156.2870  140.2178  156.5260 H   0  0  0  0  0  0  0  0  0  0  0  0  # atno 8010 bound_to 7997
  139.5075  144.6288  151.5870 H   0  0  0  0  0  0  0  0  0  0  0  0  # atno 10167 bound_to 10162
  157.6945  131.0524  150.4242 H   0  0  0  0  0  0  0  0  0  0  0  0  # atno 10718 bound_to 10713
  153.2183  135.6878  153.8031 H   0  0  0  0  0  0  0  0  0  0  0  0  # atno 10763 bound_to 10752
  153.7239  135.3263  155.3273 H   0  0  0  0  0  0  0  0  0  0  0  0  # atno 10764 bound_to 10752
  154.8257  135.4619  154.1019 H   0  0  0  0  0  0  0  0  0  0  0  0  # atno 10765 bound_to 10752
  140.9472  133.7243  156.1165 H   0  0  0  0  0  0  0  0  0  0  0  0  # atno 11005 bound_to 11000
  145.5993  139.1502  143.3138 LP  0  0  0  0  0  0  0  0  0  0  0  0  # atno 17320 bound_to 7965
  146.2051  140.6115  142.9085 LP  0  0  0  0  0  0  0  0  0  0  0  0  # atno 17321 bound_to 7965
  140.6013  143.9604  150.6388 LP  0  0  0  0  0  0  0  0  0  0  0  0  # atno 17342 bound_to 10162
  140.2816  143.3385  152.1145 LP  0  0  0  0  0  0  0  0  0  0  0  0  # atno 17343 bound_to 10162
  156.4614  130.4033  149.6574 LP  0  0  0  0  0  0  0  0  0  0  0  0  # atno 17370 bound_to 10713
  156.3687  130.7519  151.2500 LP  0  0  0  0  0  0  0  0  0  0  0  0  # atno 17371 bound_to 10713
  140.7653  134.3893  157.5518 LP  0  0  0  0  0  0  0  0  0  0  0  0  # atno 17394 bound_to 11000
  139.8837  134.8987  156.2751 LP  0  0  0  0  0  0  0  0  0  0  0  0  # atno 17395 bound_to 11000

$$$$
