AV-unprocessed.smi:2456|AV-procd|sdf|9701|dock5
  -GOLD-   2272013343D 1   1.00000     0.00000
 Structure written by MMmdl.
 34 35  0  0  0  0  0  0  0  0  1 V2000
  146.8044  140.5556  153.9026 C   0  0  0  0  0  0  0  0  0  0  0  0
  147.8350  139.4403  154.1848 C   0  0  1  0  0  0  0  0  0  0  0  0
  147.5562  138.2161  153.4261 N   0  0  0  0  0  0  0  0  0  0  0  0
  146.3916  137.5540  153.3247 C   0  0  0  0  0  0  0  0  0  0  0  0
  145.3372  137.9364  153.8314 O   0  0  0  0  0  0  0  0  0  0  0  0
  146.5369  136.4362  152.5918 N   0  0  0  0  0  0  0  0  0  0  0  0
  145.5522  135.4687  152.2605 C   0  0  0  0  0  0  0  0  0  0  0  0
  145.1154  134.5188  153.0957 N   0  0  0  0  0  0  0  0  0  0  0  0
  144.1455  133.7058  152.5042 C   0  0  0  0  0  0  0  0  0  0  0  0
  143.8544  134.0530  151.2084 C   0  0  0  0  0  0  0  0  0  0  0  0
  144.7915  135.4236  150.6770 S   0  0  0  0  0  0  0  0  0  0  0  0
  149.3065  139.8821  154.0414 C   0  0  0  0  0  0  0  0  0  0  0  0
  149.5547  140.9771  153.5351 O   0  0  0  0  0  0  0  0  0  0  0  0
  150.2897  139.0538  154.4583 N   0  0  0  0  0  0  0  0  0  0  0  0
  151.7297  139.3004  154.3714 C   0  0  0  0  0  0  0  0  0  0  0  0
  152.3941  138.1763  155.1666 C   0  0  0  0  0  0  0  0  0  0  0  0
  151.3846  137.0385  155.1206 C   0  0  0  0  0  0  0  0  0  0  0  0
  150.0307  137.7448  155.0562 C   0  0  0  0  0  0  0  0  0  0  0  0
  146.9458  141.3941  154.5853 H   0  0  0  0  0  0  0  0  0  0  0  0
  145.7863  140.1918  154.0425 H   0  0  0  0  0  0  0  0  0  0  0  0
  146.8788  140.9507  152.8894 H   0  0  0  0  0  0  0  0  0  0  0  0
  147.6861  139.1713  155.2305 H   0  0  0  0  0  0  0  0  0  0  0  0
  148.3495  137.8132  152.9497 H   0  0  0  0  0  0  0  0  0  0  0  0
  147.4617  136.2515  152.2329 H   0  0  0  0  0  0  0  0  0  0  0  0
  143.7137  132.9005  153.0798 H   0  0  0  0  0  0  0  0  0  0  0  0
  143.1479  133.5874  150.5374 H   0  0  0  0  0  0  0  0  0  0  0  0
  152.0358  139.2565  153.3253 H   0  0  0  0  0  0  0  0  0  0  0  0
  152.0145  140.2738  154.7705 H   0  0  0  0  0  0  0  0  0  0  0  0
  153.3684  137.8940  154.7669 H   0  0  0  0  0  0  0  0  0  0  0  0
  152.5363  138.4950  156.2000 H   0  0  0  0  0  0  0  0  0  0  0  0
  151.5353  136.4528  154.2130 H   0  0  0  0  0  0  0  0  0  0  0  0
  151.4690  136.3628  155.9722 H   0  0  0  0  0  0  0  0  0  0  0  0
  149.6263  137.8891  156.0592 H   0  0  0  0  0  0  0  0  0  0  0  0
  149.3089  137.1634  154.4802 H   0  0  0  0  0  0  0  0  0  0  0  0
  1  2  1  0  0  0  0
  1 19  1  0  0  0  0
  1 20  1  0  0  0  0
  1 21  1  0  0  0  0
  2  3  1  0  0  0  0
  2 12  1  0  0  0  0
  2 22  1  0  0  0  0
  3  4  1  0  0  0  0
  3 23  1  0  0  0  0
  4  5  2  0  0  0  0
  4  6  1  0  0  0  0
  6  7  1  0  0  0  0
  6 24  1  0  0  0  0
  7 11  1  0  0  0  0
  7  8  2  0  0  0  0
  8  9  1  0  0  0  0
  9 10  2  0  0  0  0
  9 25  1  0  0  0  0
 10 11  1  0  0  0  0
 10 26  1  0  0  0  0
 12 13  2  0  0  0  0
 12 14  1  0  0  0  0
 14 18  1  0  0  0  0
 14 15  1  0  0  0  0
 15 16  1  0  0  0  0
 15 27  1  0  0  0  0
 15 28  1  0  0  0  0
 16 17  1  0  0  0  0
 16 29  1  0  0  0  0
 16 30  1  0  0  0  0
 17 18  1  0  0  0  0
 17 31  1  0  0  0  0
 17 32  1  0  0  0  0
 18 33  1  0  0  0  0
 18 34  1  0  0  0  0
M  END
> <s_m_source_file>
AV-unprocessed.smi

> <i_m_source_file_index>
2456

> <i_lp_mmshare_version>
43012

> <i_f3d_flags>
0

> <s_epik_input>
W0NIMl0xW0NIMl1bQ0gyXVtDSDJdTjFDKD1PKVtDQEhdKFtDSDNdKVtOSF1DKD1PKVtOSF1jMm5bY0hdW2NIXXMy

> <s_epik_cmdline>
J2VwaWtfcHl0aG9uJywgJy1waCcsICc3LjAnLCAnLXRuJywgJzgnLCAnLW1hJywgJzIwMCcsICctbWV0YWxfYmluZGluZycsICctaW1hZScsICc8aW5maWxlLm1hZT4nLCAnLW9tYWUnLCAnPG91dGZpbGUubWFlPic=

> <r_lp_tautomer_probability>
1

> <r_epik_Ionization_Penalty>
0.000150201

> <r_epik_Ionization_Penalty_Charging>
0

> <r_epik_Ionization_Penalty_Neutral>
0.000150201

> <r_epik_State_Penalty>
-0

> <r_epik_Charging_Adjusted_Penalty>
0

> <i_epik_Tot_Q>
0

> <i_epik_Tot_abs_Q>
0

> <r_epik_Metal_State_Penalty>
0.0705602

> <b_epik_Metal_Only>
0

> <s_lp_Force_Field>
OPLS_2005

> <r_lp_Energy>
30.7

> <b_lp_Chiralities_Consistent>
1

> <s_lp_Variant>
AV-unprocessed.smi:2456-2

> <Gold.Version>
5.8.1

> <Gold.Id.Protein>
6NUR|6NUR_protein|mol2

> <Gold.PLP.Fitness>
37.7644

> <Gold.PLP.PLP>
-23.7742

> <Gold.PLP.part.hbond>
-3.9948

> <Gold.PLP.part.metal>
0.0000

> <Gold.PLP.part.buried>
-0.7880

> <Gold.PLP.part.nonpolar>
-22.7561

> <Gold.PLP.part.repulsive>
3.2866

> <Gold.PLP.ligand.clash>
0.0000

> <Gold.PLP.ligand.torsion>
0.8688

> <Gold.PLP.Chemscore.Hbond>
3.2063

> <Gold.PLP.Chemscore.CHOScore>
1.9892

> <Gold.PLP.Chemscore.Metal>
0.0000

> <Gold.Chemscore.Hbonds>
donor molecule, donor type, donor heavy atom, donor atom, acceptor molecule, acceptor atom, score
      L1  H     3    23       P1  7948  0.90
      L1  H     6    24       P1  7948  0.98
      P1  H  7989  7998       L1    13  0.28
      P1  H  8011  8017       L1    13  1.00
      L1  C     9    25       P1 10957  1.00
      L1  C    10    26       P1 10186  1.00

> <Gold.PLP.Chemscore.Internal.Correction>
0.1413

> <Gold.Rescore>
     Score         DG    S(hbond)    S(metal)    S(lipo)     H(rot)  DE(clash)    DE(int)     intcor
     15.32     -18.27       3.08        0.00      50.79       1.34       1.93       1.02       ----

> <Gold.Chemscore.Fitness>
15.3208

> <Gold.Chemscore.DG>
-18.2712

> <Gold.Chemscore.ZeroCoef>
-5.4800

> <Gold.Chemscore.Hbond>
3.0813

> <Gold.Chemscore.Metal>
0.0000

> <Gold.Chemscore.Lipo>
50.7894

> <Gold.Chemscore.Internal_Hbond>
0.0000

> <Gold.Chemscore.DEClash>
1.9263

> <Gold.Chemscore.DEInternal>
1.0241

> <Gold.Chemscore.Rot>
1.3448

> <Gold.Chemscore.Internal.Correction>
   9.000000E+99

> <Gold.Chemscore.Hbonds>
donor molecule, donor type, donor heavy atom, donor atom, acceptor molecule, acceptor atom, score
      L1  H     3    23       P1  7948  0.85
      L1  H     6    24       P1  7948  0.92
      P1  H  7989  7998       L1    13  0.08
      P1  H  8011  8017       L1    13  0.97

> <Gold.Chemscore.Hbond.Weighted>
-10.2915

> <Gold.Chemscore.Metal.Weighted>
-0.0000

> <Gold.Chemscore.Lipo.Weighted>
-5.9424

> <Gold.Chemscore.Internal_Hbond.Weighted>
0.0000

> <Gold.Chemscore.DEClash.Weighted>
1.9263

> <Gold.Chemscore.DEInternal.Weighted>
1.0241

> <Gold.Chemscore.Rot.Weighted>
3.4427

> <Gold.Chemscore.Internal.Correction.Weighted>
   9.000000E+99

> <Gold.Protein.RotatedTorsions>
[ 6907 6896 6895 6894 ] final  125.93 input  -60.11 | X-H torsion
[ 7974 7965 7964 7962 ] final  -19.27 input  175.53 | X-H torsion
[ 8008 7997 7996 7995 ] final    9.04 input   59.86 | X-H torsion
[ 10167 10162 10161 10158 ] final  -77.29 input  -65.29 | X-H torsion
[ 10718 10713 10712 10709 ] final  -67.05 input   66.30 | X-H torsion
[ 10763 10752 10751 10750 ] final  128.49 input  -60.55 | X-H torsion
[ 11005 11000 10999 10996 ] final   -5.94 input  -57.11 | X-H torsion

> <Gold.Protein.ActiveResidues>
 VAL166  LYS551  ARG553  GLY616  TRP617  ASP618  TYR619  PRO620  LYS621  CYS622 
 ASP623  PHE694  ASN695  SER759  ASP760  ASP761  ALA762  ILE779  LEU786  VAL792 
 PHE793  MET794  SER795  GLU796  ALA797  LYS798  CYS799  TRP800  GLU811  SER814 

> <Gold.Protein.RotatedAtoms>
  152.3949  133.6732  159.6267 H   0  0  0  0  0  0  0  0  0  0  0  0  # atno 6907 bound_to 6896
  150.7850  133.8892  159.3317 H   0  0  0  0  0  0  0  0  0  0  0  0  # atno 6908 bound_to 6896
  151.6670  135.0983  160.0242 H   0  0  0  0  0  0  0  0  0  0  0  0  # atno 6909 bound_to 6896
  146.1850  140.4038  142.8480 H   0  0  0  0  0  0  0  0  0  0  0  0  # atno 7974 bound_to 7965
  154.7748  140.2808  155.6110 H   0  0  0  0  0  0  0  0  0  0  0  0  # atno 8008 bound_to 7997
  156.2940  140.2634  156.2487 H   0  0  0  0  0  0  0  0  0  0  0  0  # atno 8009 bound_to 7997
  154.9856  140.0374  157.2286 H   0  0  0  0  0  0  0  0  0  0  0  0  # atno 8010 bound_to 7997
  140.4783  143.2409  151.8098 H   0  0  0  0  0  0  0  0  0  0  0  0  # atno 10167 bound_to 10162
  156.0578  130.4272  150.1798 H   0  0  0  0  0  0  0  0  0  0  0  0  # atno 10718 bound_to 10713
  153.7264  135.3245  155.3277 H   0  0  0  0  0  0  0  0  0  0  0  0  # atno 10763 bound_to 10752
  154.8340  135.4511  154.1166 H   0  0  0  0  0  0  0  0  0  0  0  0  # atno 10764 bound_to 10752
  153.2301  135.6959  153.7980 H   0  0  0  0  0  0  0  0  0  0  0  0  # atno 10765 bound_to 10752
  140.6966  133.9025  155.8654 H   0  0  0  0  0  0  0  0  0  0  0  0  # atno 11005 bound_to 11000
  144.8381  140.6814  143.6247 LP  0  0  0  0  0  0  0  0  0  0  0  0  # atno 17320 bound_to 7965
  145.3966  139.1606  143.4200 LP  0  0  0  0  0  0  0  0  0  0  0  0  # atno 17321 bound_to 7965
  139.4829  144.4805  151.9312 LP  0  0  0  0  0  0  0  0  0  0  0  0  # atno 17342 bound_to 10162
  140.3891  144.2639  150.5901 LP  0  0  0  0  0  0  0  0  0  0  0  0  # atno 17343 bound_to 10162
  156.9871  130.9882  151.3423 LP  0  0  0  0  0  0  0  0  0  0  0  0  # atno 17370 bound_to 10713
  157.5563  130.8216  149.8209 LP  0  0  0  0  0  0  0  0  0  0  0  0  # atno 17371 bound_to 10713
  141.0198  134.0905  157.4133 LP  0  0  0  0  0  0  0  0  0  0  0  0  # atno 17394 bound_to 11000
  139.8908  135.0114  156.6758 LP  0  0  0  0  0  0  0  0  0  0  0  0  # atno 17395 bound_to 11000

$$$$
