#       Name:                AV-unprocessed.smi:1040
#       Creating user name   scv26
#       Creation time:       Fri Mar 27 02:54:23 2020


#       File generated by GOLD software.
#

@<TRIPOS>MOLECULE
AV-unprocessed.smi:1040
    60    61     1
SMALL
NO_CHARGES


@<TRIPOS>ATOM
      1 ****        -2.6557  -1.1754  -1.7193 C.3            1 S1                 0.0000
      2 ****        -2.2916  -0.5708  -0.3528 C.3            1 S1                 0.0000
      3 ****        -0.8369  -0.4444  -0.2889 N.am           1 S1                 0.0000
      4 ****        -0.1124  -0.3955   0.8383 C.2            1 S1                 0.0000
      5 ****        -0.6011  -0.4892   1.9641 O.2            1 S1                 0.0000
      6 ****         1.1935  -0.2435   0.5627 N.am           1 S1                 0.0000
      7 ****         2.3044  -0.2389   1.4554 C.ar           1 S1                 0.0000
      8 ****         2.1930   0.1160   2.8223 C.ar           1 S1                 0.0000
      9 ****         3.3481   0.1310   3.6244 C.ar           1 S1                 0.0000
     10 ****         4.5788  -0.1978   3.0304 C.ar           1 S1                 0.0000
     11 ****         4.7051  -0.5244   1.7285 N.ar           1 S1                 0.0000
     12 ****         3.5967  -0.5452   0.9487 C.ar           1 S1                 0.0000
     13 ****         3.7657  -0.9068  -0.4028 N.3            1 S1                 0.0000
     14 ****         5.0059  -0.4820  -1.0516 C.3            1 S1                 0.0000
     15 ****         4.9030  -0.6467  -2.5776 C.3            1 S1                 0.0000
     16 ****         4.5048  -2.0842  -2.9502 C.3            1 S1                 0.0000
     17 ****         3.2164  -2.4891  -2.2153 C.3            1 S1                 0.0000
     18 ****         3.3595  -2.2794  -0.6982 C.3            1 S1                 0.0000
     19 ****        -2.9529   0.8132  -0.2581 C.2            1 S1                 0.0000
     20 ****        -2.4458   1.7853  -0.8201 O.2            1 S1                 0.0000
     21 ****        -4.0984   0.8678   0.4446 N.am           1 S1                 0.0000
     22 ****        -4.9605   2.0285   0.6974 C.3            1 S1                 0.0000
     23 ****        -6.1301   1.5366   1.5682 C.3            1 S1                 0.0000
     24 ****        -5.5232   2.5855  -0.6270 C.3            1 S1                 0.0000
     25 ****        -4.1906   3.1240   1.4651 C.3            1 S1                 0.0000
     26 ****        -3.7347  -1.2969  -1.8241 H              1 S1                 0.0000
     27 ****        -2.2062  -2.1618  -1.8388 H              1 S1                 0.0000
     28 ****        -2.3086  -0.5539  -2.5465 H              1 S1                 0.0000
     29 ****        -2.6523  -1.2224   0.4458 H              1 S1                 0.0000
     30 ****        -0.3518  -0.3577  -1.1696 H              1 S1                 0.0000
     31 ****         1.4368  -0.2339  -0.4171 H              1 S1                 0.0000
     32 ****         1.2514   0.3938   3.2689 H              1 S1                 0.0000
     33 ****         3.2920   0.3969   4.6695 H              1 S1                 0.0000
     34 ****         5.4874  -0.1932   3.6139 H              1 S1                 0.0000
     35 ****         5.2157   0.5598  -0.8053 H              1 S1                 0.0000
     36 ****         5.8370  -1.0776  -0.6712 H              1 S1                 0.0000
     37 ****         4.1611   0.0503  -2.9696 H              1 S1                 0.0000
     38 ****         5.8521  -0.3859  -3.0463 H              1 S1                 0.0000
     39 ****         4.3673  -2.1705  -4.0285 H              1 S1                 0.0000
     40 ****         5.3102  -2.7687  -2.6814 H              1 S1                 0.0000
     41 ****         2.3809  -1.8946  -2.5878 H              1 S1                 0.0000
     42 ****         2.9745  -3.5308  -2.4276 H              1 S1                 0.0000
     43 ****         4.1095  -2.9622  -0.2970 H              1 S1                 0.0000
     44 ****         2.4189  -2.5221  -0.2033 H              1 S1                 0.0000
     45 ****        -4.4112   0.0003   0.8559 H              1 S1                 0.0000
     46 ****        -6.8204   2.3481   1.8016 H              1 S1                 0.0000
     47 ****        -5.7766   1.1256   2.5147 H              1 S1                 0.0000
     48 ****        -6.7014   0.7565   1.0632 H              1 S1                 0.0000
     49 ****        -6.0378   1.8105  -1.1961 H              1 S1                 0.0000
     50 ****        -4.7411   2.9978  -1.2645 H              1 S1                 0.0000
     51 ****        -6.2398   3.3867  -0.4426 H              1 S1                 0.0000
     52 ****        -4.8507   3.9475   1.7398 H              1 S1                 0.0000
     53 ****        -3.3809   3.5498   0.8726 H              1 S1                 0.0000
     54 ****        -3.7549   2.7325   2.3853 H              1 S1                 0.0000
     55 ****        -1.5880  -0.6087   2.0724 LP             1 S1                 0.0000
     56 ****        -0.0113  -0.4458   2.7704 LP             1 S1                 0.0000
     57 ****         5.6011  -0.7475   1.3447 LP             1 S1                 0.0000
     58 ****         3.0981  -0.3252  -0.8677 LP             1 S1                 0.0000
     59 ****        -1.5994   1.6762  -1.3414 LP             1 S1                 0.0000
     60 ****        -2.8806   2.6835  -0.7550 LP             1 S1                 0.0000
@<TRIPOS>BOND
    1    1    2 1     
    2    1   26 1     
    3    1   27 1     
    4    1   28 1     
    5    2    3 1     
    6    2   19 1     
    7    2   29 1     
    8    3    4 am    
    9    3   30 1     
   10    4    5 2     
   11    4    6 am    
   12    6    7 1     
   13    6   31 1     
   14    7   12 ar    
   15    7    8 ar    
   16    8    9 ar    
   17    8   32 1     
   18    9   10 ar    
   19    9   33 1     
   20   10   11 ar    
   21   10   34 1     
   22   11   12 ar    
   23   12   13 1     
   24   13   18 1     
   25   13   14 1     
   26   14   15 1     
   27   14   35 1     
   28   14   36 1     
   29   15   16 1     
   30   15   37 1     
   31   15   38 1     
   32   16   17 1     
   33   16   39 1     
   34   16   40 1     
   35   17   18 1     
   36   17   41 1     
   37   17   42 1     
   38   18   43 1     
   39   18   44 1     
   40   19   20 2     
   41   19   21 am    
   42   21   22 1     
   43   21   45 1     
   44   22   23 1     
   45   22   24 1     
   46   22   25 1     
   47   23   46 1     
   48   23   47 1     
   49   23   48 1     
   50   24   49 1     
   51   24   50 1     
   52   24   51 1     
   53   25   52 1     
   54   25   53 1     
   55   25   54 1     
   56    5   55 1     
   57    5   56 1     
   58   11   57 1     
   59   13   58 1     
   60   20   59 1     
   61   20   60 1     
@<TRIPOS>SUBSTRUCTURE
      1 S1             1
@<TRIPOS>SET
LONE_PAIRS      STATIC     ATOMS    <user>   **** ""
6 55 56 57 58 59 60
DONOR_HYDROGENS      STATIC     ATOMS    <user>   **** ""
3 30 31 45
ATOM$BLUE        STATIC     ATOMS    COLORGROUP SYSTEM
6 55 56 57 58 59 60
ATOM$RED        STATIC     ATOMS    COLORGROUP SYSTEM
3 30 31 45
