AV-unprocessed.smi:890|AV-procd|sdf|4058|dock3
  -GOLD-   22720 1543D 1   1.00000     0.00000
 Structure written by MMmdl.
 52 55  0  0  0  0  0  0  0  0  2 V2000
  148.2442  138.0060  155.9158 O   0  0  0  0  0  0  0  0  0  0  0  0
  148.3451  137.7304  154.7204 C   0  0  0  0  0  0  0  0  0  0  0  0
  147.4661  137.0011  154.0128 N   0  0  0  0  0  0  0  0  0  0  0  0
  146.2649  136.3800  154.4620 C   0  0  0  0  0  0  0  0  0  0  0  0
  145.7373  136.5894  155.7600 C   0  0  0  0  0  0  0  0  0  0  0  0
  144.5299  135.9660  156.1207 C   0  0  0  0  0  0  0  0  0  0  0  0
  143.8841  135.1609  155.1667 C   0  0  0  0  0  0  0  0  0  0  0  0
  144.3637  134.9643  153.9222 N   0  0  0  0  0  0  0  0  0  0  0  0
  145.5251  135.5642  153.5629 C   0  0  0  0  0  0  0  0  0  0  0  0
  146.0134  135.3179  152.2622 N   0  0  0  0  0  0  0  0  0  0  0  0
  146.3461  133.9167  152.0178 C   0  0  0  0  0  0  0  0  0  0  0  0
  145.9638  133.6279  150.5650 C   0  0  0  0  0  0  0  0  0  0  0  0
  144.8382  134.6204  150.3025 C   0  0  0  0  0  0  0  0  0  0  0  0
  145.2810  135.8400  151.1090 C   0  0  0  0  0  0  0  0  0  0  0  0
  149.3796  138.1173  153.9600 N   0  0  0  0  0  0  0  0  0  0  0  0
  150.5004  138.9300  154.4242 C   0  0  2  0  0  0  0  0  0  0  0  0
  151.4029  138.1028  155.3542 C   0  0  0  0  0  0  0  0  0  0  0  0
  152.5593  138.9572  155.9083 C   0  0  0  0  0  0  0  0  0  0  0  0
  152.0737  140.1840  156.5920 N   0  3  2  0  0  0  0  0  0  0  0  0
  151.4945  139.9195  157.9299 C   0  0  0  0  0  0  0  0  0  0  0  0
  151.6100  141.0879  158.8816 C   0  0  0  0  0  0  0  0  0  0  0  0
  152.5204  139.8906  159.0385 C   0  0  0  0  0  0  0  0  0  0  0  0
  151.1909  141.0013  155.7202 C   0  0  0  0  0  0  0  0  0  0  0  0
  150.0073  140.1869  155.1657 C   0  0  0  0  0  0  0  0  0  0  0  0
  147.7279  136.7880  153.0613 H   0  0  0  0  0  0  0  0  0  0  0  0
  146.2253  137.2282  156.4798 H   0  0  0  0  0  0  0  0  0  0  0  0
  144.1066  136.1066  157.1040 H   0  0  0  0  0  0  0  0  0  0  0  0
  142.9547  134.6662  155.4067 H   0  0  0  0  0  0  0  0  0  0  0  0
  147.4049  133.7265  152.1943 H   0  0  0  0  0  0  0  0  0  0  0  0
  145.7753  133.2718  152.6881 H   0  0  0  0  0  0  0  0  0  0  0  0
  146.8074  133.8470  149.9088 H   0  0  0  0  0  0  0  0  0  0  0  0
  145.6685  132.5913  150.4021 H   0  0  0  0  0  0  0  0  0  0  0  0
  144.6962  134.8392  149.2440 H   0  0  0  0  0  0  0  0  0  0  0  0
  143.8994  134.2321  150.7002 H   0  0  0  0  0  0  0  0  0  0  0  0
  144.4400  136.4866  151.3599 H   0  0  0  0  0  0  0  0  0  0  0  0
  145.9755  136.4406  150.5210 H   0  0  0  0  0  0  0  0  0  0  0  0
  149.3845  137.8420  152.9885 H   0  0  0  0  0  0  0  0  0  0  0  0
  151.0931  139.2366  153.5598 H   0  0  0  0  0  0  0  0  0  0  0  0
  150.8164  137.6935  156.1781 H   0  0  0  0  0  0  0  0  0  0  0  0
  151.8086  137.2464  154.8142 H   0  0  0  0  0  0  0  0  0  0  0  0
  153.1745  138.3693  156.5905 H   0  0  0  0  0  0  0  0  0  0  0  0
  153.2129  139.2578  155.0884 H   0  0  0  0  0  0  0  0  0  0  0  0
  150.6261  139.2649  157.9694 H   0  0  0  0  0  0  0  0  0  0  0  0
  152.0544  142.0115  158.5146 H   0  0  0  0  0  0  0  0  0  0  0  0
  150.8206  141.2139  159.6196 H   0  0  0  0  0  0  0  0  0  0  0  0
  152.3312  139.2284  159.8809 H   0  0  0  0  0  0  0  0  0  0  0  0
  153.5689  140.0201  158.7756 H   0  0  0  0  0  0  0  0  0  0  0  0
  150.8298  141.8734  156.2666 H   0  0  0  0  0  0  0  0  0  0  0  0
  151.7871  141.3850  154.8912 H   0  0  0  0  0  0  0  0  0  0  0  0
  149.4210  140.8155  154.4947 H   0  0  0  0  0  0  0  0  0  0  0  0
  149.3376  139.9032  155.9787 H   0  0  0  0  0  0  0  0  0  0  0  0
  152.8928  140.7488  156.7664 H   0  0  0  0  0  0  0  0  0  0  0  0
  1  2  2  0  0  0  0
  2  3  1  0  0  0  0
  2 15  1  0  0  0  0
  3  4  1  0  0  0  0
  3 25  1  0  0  0  0
  4  9  1  0  0  0  0
  4  5  2  0  0  0  0
  5  6  1  0  0  0  0
  5 26  1  0  0  0  0
  6  7  2  0  0  0  0
  6 27  1  0  0  0  0
  7  8  1  0  0  0  0
  7 28  1  0  0  0  0
  8  9  2  0  0  0  0
  9 10  1  0  0  0  0
 10 14  1  0  0  0  0
 10 11  1  0  0  0  0
 11 12  1  0  0  0  0
 11 29  1  0  0  0  0
 11 30  1  0  0  0  0
 12 13  1  0  0  0  0
 12 31  1  0  0  0  0
 12 32  1  0  0  0  0
 13 14  1  0  0  0  0
 13 33  1  0  0  0  0
 13 34  1  0  0  0  0
 14 35  1  0  0  0  0
 14 36  1  0  0  0  0
 15 16  1  0  0  0  0
 15 37  1  0  0  0  0
 16 24  1  0  0  0  0
 16 17  1  0  0  0  0
 16 38  1  0  0  0  0
 17 18  1  0  0  0  0
 17 39  1  0  0  0  0
 17 40  1  0  0  0  0
 18 19  1  0  0  0  0
 18 41  1  0  0  0  0
 18 42  1  0  0  0  0
 19 20  1  0  0  0  0
 19 23  1  0  0  0  0
 19 52  1  0  0  0  0
 20 22  1  0  0  0  0
 20 21  1  0  0  0  0
 20 43  1  0  0  0  0
 21 22  1  0  0  0  0
 21 44  1  0  0  0  0
 21 45  1  0  0  0  0
 22 46  1  0  0  0  0
 22 47  1  0  0  0  0
 23 24  1  0  0  0  0
 23 48  1  0  0  0  0
 23 49  1  0  0  0  0
 24 50  1  0  0  0  0
 24 51  1  0  0  0  0
M  CHG  1  19   1
M  END
> <s_m_source_file>
AV-unprocessed.smi

> <i_m_source_file_index>
890

> <i_lp_mmshare_version>
43012

> <i_f3d_flags>
0

> <s_epik_input>
W0NIMl0xW0NIMl1bQ0hdMU4oW0NIMl1bQ0gyXTIpW0NIMl1bQ0gyXVtDSF0yW05IXUMoPU8pW05IXWMzW2NIXVtjSF1bY0hdbmMzTjRbQ0gyXVtDSDJdW0NIMl1bQ0gyXTQ=

> <s_epik_cmdline>
J2VwaWtfcHl0aG9uJywgJy1waCcsICc3LjAnLCAnLXRuJywgJzgnLCAnLW1hJywgJzIwMCcsICctbWV0YWxfYmluZGluZycsICctaW1hZScsICc8aW5maWxlLm1hZT4nLCAnLW9tYWUnLCAnPG91dGZpbGUubWFlPic=

> <r_lp_tautomer_probability>
1

> <r_epik_Ionization_Penalty>
0.193768

> <r_epik_Ionization_Penalty_Charging>
0.115549

> <r_epik_Ionization_Penalty_Neutral>
0.078219

> <r_epik_State_Penalty>
0.174811

> <r_epik_Charging_Adjusted_Penalty>
0.29036

> <i_epik_Tot_Q>
1

> <i_epik_Tot_abs_Q>
1

> <r_epik_Metal_State_Penalty>
0.169761

> <b_epik_Metal_Only>
0

> <s_lp_Force_Field>
OPLS_2005

> <r_lp_Energy>
56.2334

> <b_lp_Chiralities_Consistent>
1

> <s_lp_Variant>
AV-unprocessed.smi:890-2

> <Gold.Version>
5.8.1

> <Gold.Id.Protein>
6NUR|6NUR_protein|mol2

> <Gold.PLP.Fitness>
37.9367

> <Gold.PLP.PLP>
-29.9400

> <Gold.PLP.part.hbond>
-2.0000

> <Gold.PLP.part.metal>
0.0000

> <Gold.PLP.part.buried>
-2.6935

> <Gold.PLP.part.nonpolar>
-25.7530

> <Gold.PLP.part.repulsive>
0.5597

> <Gold.PLP.ligand.clash>
0.0000

> <Gold.PLP.ligand.torsion>
0.8146

> <Gold.PLP.Chemscore.Hbond>
1.7920

> <Gold.PLP.Chemscore.CHOScore>
0.9537

> <Gold.PLP.Chemscore.Metal>
0.0000

> <Gold.Chemscore.Hbonds>
donor molecule, donor type, donor heavy atom, donor atom, acceptor molecule, acceptor atom, score
      L1  H     3    25       P1  7948  1.00
      L1  H    15    37       P1  7948  0.80

> <Gold.PLP.Chemscore.Internal.Correction>
1.3889

> <Gold.Rescore>
     Score         DG    S(hbond)    S(metal)    S(lipo)     H(rot)  DE(clash)    DE(int)     intcor
     14.08     -17.33       1.80        0.00      79.04       1.33       0.05       3.21       ----

> <Gold.Chemscore.Fitness>
14.0767

> <Gold.Chemscore.DG>
-17.3334

> <Gold.Chemscore.ZeroCoef>
-5.4800

> <Gold.Chemscore.Hbond>
1.7990

> <Gold.Chemscore.Metal>
0.0000

> <Gold.Chemscore.Lipo>
79.0432

> <Gold.Chemscore.Internal_Hbond>
0.0000

> <Gold.Chemscore.DEClash>
0.0492

> <Gold.Chemscore.DEInternal>
3.2074

> <Gold.Chemscore.Rot>
1.3294

> <Gold.Chemscore.Internal.Correction>
   9.000000E+99

> <Gold.Chemscore.Hbonds>
donor molecule, donor type, donor heavy atom, donor atom, acceptor molecule, acceptor atom, score
      L1  H     3    25       P1  7948  0.95
      L1  H    15    37       P1  7948  0.72

> <Gold.Chemscore.Hbond.Weighted>
-6.0085

> <Gold.Chemscore.Metal.Weighted>
-0.0000

> <Gold.Chemscore.Lipo.Weighted>
-9.2481

> <Gold.Chemscore.Internal_Hbond.Weighted>
0.0000

> <Gold.Chemscore.DEClash.Weighted>
0.0492

> <Gold.Chemscore.DEInternal.Weighted>
3.2074

> <Gold.Chemscore.Rot.Weighted>
3.4032

> <Gold.Chemscore.Internal.Correction.Weighted>
   9.000000E+99

> <Gold.Protein.RotatedTorsions>
[ 6907 6896 6895 6894 ] final  141.47 input  -60.11 | X-H torsion
[ 7974 7965 7964 7962 ] final   18.19 input  175.53 | X-H torsion
[ 8008 7997 7996 7995 ] final  163.99 input   59.86 | X-H torsion
[ 10167 10162 10161 10158 ] final   82.78 input  -65.29 | X-H torsion
[ 10718 10713 10712 10709 ] final   39.67 input   66.30 | X-H torsion
[ 10763 10752 10751 10750 ] final -157.33 input  -60.55 | X-H torsion
[ 11005 11000 10999 10996 ] final -119.74 input  -57.11 | X-H torsion

> <Gold.Protein.ActiveResidues>
 VAL166  LYS551  ARG553  GLY616  TRP617  ASP618  TYR619  PRO620  LYS621  CYS622 
 ASP623  PHE694  ASN695  SER759  ASP760  ASP761  ALA762  ILE779  LEU786  VAL792 
 PHE793  MET794  SER795  GLU796  ALA797  LYS798  CYS799  TRP800  GLU811  SER814 

> <Gold.Protein.RotatedAtoms>
  152.2306  133.5055  159.5213 H   0  0  0  0  0  0  0  0  0  0  0  0  # atno 6907 bound_to 6896
  150.7036  134.1221  159.4048 H   0  0  0  0  0  0  0  0  0  0  0  0  # atno 6908 bound_to 6896
  151.9142  135.0326  160.0567 H   0  0  0  0  0  0  0  0  0  0  0  0  # atno 6909 bound_to 6896
  146.2193  139.8493  142.8626 H   0  0  0  0  0  0  0  0  0  0  0  0  # atno 7974 bound_to 7965
  156.1914  140.1708  156.8083 H   0  0  0  0  0  0  0  0  0  0  0  0  # atno 8008 bound_to 7997
  154.5476  140.0724  156.8647 H   0  0  0  0  0  0  0  0  0  0  0  0  # atno 8009 bound_to 7997
  155.3091  140.3366  155.4247 H   0  0  0  0  0  0  0  0  0  0  0  0  # atno 8010 bound_to 7997
  139.9252  144.6187  150.8400 H   0  0  0  0  0  0  0  0  0  0  0  0  # atno 10167 bound_to 10162
  157.3733  130.7713  149.7136 H   0  0  0  0  0  0  0  0  0  0  0  0  # atno 10718 bound_to 10713
  154.7645  135.3127  154.8314 H   0  0  0  0  0  0  0  0  0  0  0  0  # atno 10763 bound_to 10752
  153.9066  135.6810  153.4757 H   0  0  0  0  0  0  0  0  0  0  0  0  # atno 10764 bound_to 10752
  153.1249  135.4806  154.9188 H   0  0  0  0  0  0  0  0  0  0  0  0  # atno 10765 bound_to 10752
  141.0194  134.0147  157.3304 H   0  0  0  0  0  0  0  0  0  0  0  0  # atno 11005 bound_to 11000
  145.2818  141.0141  143.3713 LP  0  0  0  0  0  0  0  0  0  0  0  0  # atno 17320 bound_to 7965
  144.9144  139.4488  143.6571 LP  0  0  0  0  0  0  0  0  0  0  0  0  # atno 17321 bound_to 7965
  140.7652  143.3269  151.2496 LP  0  0  0  0  0  0  0  0  0  0  0  0  # atno 17342 bound_to 10162
  139.6828  143.9825  152.2818 LP  0  0  0  0  0  0  0  0  0  0  0  0  # atno 17343 bound_to 10162
  155.9760  130.4081  150.3809 LP  0  0  0  0  0  0  0  0  0  0  0  0  # atno 17370 bound_to 10713
  157.1903  131.0414  151.2703 LP  0  0  0  0  0  0  0  0  0  0  0  0  # atno 17371 bound_to 10713
  139.9136  135.0194  156.7793 LP  0  0  0  0  0  0  0  0  0  0  0  0  # atno 17394 bound_to 11000
  140.6599  133.9654  155.7799 LP  0  0  0  0  0  0  0  0  0  0  0  0  # atno 17395 bound_to 11000

$$$$
