AV-unprocessed.smi:1803|AV-procd|sdf|7287|dock3
  -GOLD-   22720 8543D 1   1.00000     0.00000
 Structure written by MMmdl.
 35 37  0  0  0  0  0  0  0  0  3 V2000
  146.7757  133.9170  155.0226 O   0  0  0  0  0  0  0  0  0  0  0  0
  147.6496  134.3294  154.2611 C   0  0  0  0  0  0  0  0  0  0  0  0
  148.9389  134.5275  154.6402 N   0  5  0  0  0  0  0  0  0  0  0  0
  149.5814  133.7019  155.4871 C   0  0  0  0  0  0  0  0  0  0  0  0
  149.7470  133.9895  156.7883 N   0  0  0  0  0  0  0  0  0  0  0  0
  150.4299  133.0006  157.4830 N   0  0  0  0  0  0  0  0  0  0  0  0
  150.7766  131.9941  156.6809 C   0  0  0  0  0  0  0  0  0  0  0  0
  150.2897  132.1575  155.0069 S   0  0  0  0  0  0  0  0  0  0  0  0
  147.3230  134.6004  152.9836 N   0  0  0  0  0  0  0  0  0  0  0  0
  145.9968  134.4644  152.3941 C   0  0  2  0  0  0  0  0  0  0  0  0
  144.9815  135.5064  152.8894 C   0  0  0  0  0  0  0  0  0  0  0  0
  143.6549  134.7388  153.0512 C   0  0  0  0  0  0  0  0  0  0  0  0
  143.8976  133.3619  152.5623 N   0  3  1  0  0  0  0  0  0  0  0  0
  143.4506  133.1805  151.1539 C   0  0  0  0  0  0  0  0  0  0  0  0
  143.9128  131.8395  150.5686 C   0  0  0  0  0  0  0  0  0  0  0  0
  145.4380  131.7290  150.6397 C   0  0  0  0  0  0  0  0  0  0  0  0
  145.8936  131.8670  152.0965 C   0  0  0  0  0  0  0  0  0  0  0  0
  145.3455  133.1362  152.7866 C   0  0  1  0  0  0  0  0  0  0  0  0
  151.3202  131.1497  157.0777 H   0  0  0  0  0  0  0  0  0  0  0  0
  148.0607  134.9294  152.3778 H   0  0  0  0  0  0  0  0  0  0  0  0
  146.0738  134.5244  151.3073 H   0  0  0  0  0  0  0  0  0  0  0  0
  145.2814  135.9354  153.8468 H   0  0  0  0  0  0  0  0  0  0  0  0
  144.8900  136.3275  152.1776 H   0  0  0  0  0  0  0  0  0  0  0  0
  143.3926  134.6842  154.1084 H   0  0  0  0  0  0  0  0  0  0  0  0
  142.8247  135.2259  152.5379 H   0  0  0  0  0  0  0  0  0  0  0  0
  142.3627  133.2453  151.1163 H   0  0  0  0  0  0  0  0  0  0  0  0
  143.8319  133.9945  150.5350 H   0  0  0  0  0  0  0  0  0  0  0  0
  143.4517  131.0150  151.1142 H   0  0  0  0  0  0  0  0  0  0  0  0
  143.5821  131.7525  149.5334 H   0  0  0  0  0  0  0  0  0  0  0  0
  145.7662  130.7718  150.2339 H   0  0  0  0  0  0  0  0  0  0  0  0
  145.8994  132.5024  150.0247 H   0  0  0  0  0  0  0  0  0  0  0  0
  145.5490  130.9928  152.6506 H   0  0  0  0  0  0  0  0  0  0  0  0
  146.9823  131.8475  152.1538 H   0  0  0  0  0  0  0  0  0  0  0  0
  145.4767  133.0063  153.8630 H   0  0  0  0  0  0  0  0  0  0  0  0
  143.3771  132.7084  153.1295 H   0  0  0  0  0  0  0  0  0  0  0  0
  1  2  2  0  0  0  0
  2  3  1  0  0  0  0
  2  9  1  0  0  0  0
  3  4  1  0  0  0  0
  4  8  1  0  0  0  0
  4  5  2  0  0  0  0
  5  6  1  0  0  0  0
  6  7  2  0  0  0  0
  7  8  1  0  0  0  0
  7 19  1  0  0  0  0
  9 10  1  0  0  0  0
  9 20  1  0  0  0  0
 10 18  1  0  0  0  0
 10 11  1  0  0  0  0
 10 21  1  0  0  0  0
 11 12  1  0  0  0  0
 11 22  1  0  0  0  0
 11 23  1  0  0  0  0
 12 13  1  0  0  0  0
 12 24  1  0  0  0  0
 12 25  1  0  0  0  0
 13 18  1  0  0  0  0
 13 14  1  0  0  0  0
 13 35  1  0  0  0  0
 14 15  1  0  0  0  0
 14 26  1  0  0  0  0
 14 27  1  0  0  0  0
 15 16  1  0  0  0  0
 15 28  1  0  0  0  0
 15 29  1  0  0  0  0
 16 17  1  0  0  0  0
 16 30  1  0  0  0  0
 16 31  1  0  0  0  0
 17 18  1  0  0  0  0
 17 32  1  0  0  0  0
 17 33  1  0  0  0  0
 18 34  1  0  0  0  0
M  CHG  1   3  -1
M  CHG  1  13   1
M  END
> <s_m_source_file>
AV-unprocessed.smi

> <i_m_source_file_index>
1803

> <i_lp_mmshare_version>
43012

> <i_f3d_flags>
0

> <s_epik_input>
czFbY0hdbm5jMVtOSF1DKD1PKVtOSF1bQ0BIXShbQ0gyXVtDSDJdMilbQ0BASF0oTjIzKVtDSDJdW0NIMl1bQ0gyXVtDSDJdMw==

> <s_epik_cmdline>
J2VwaWtfcHl0aG9uJywgJy1waCcsICc3LjAnLCAnLXRuJywgJzgnLCAnLW1hJywgJzIwMCcsICctbWV0YWxfYmluZGluZycsICctaW1hZScsICc8aW5maWxlLm1hZT4nLCAnLW9tYWUnLCAnPG91dGZpbGUubWFlPic=

> <r_lp_tautomer_probability>
1

> <r_epik_Ionization_Penalty>
3.78828

> <r_epik_Ionization_Penalty_Charging>
3.7591

> <r_epik_Ionization_Penalty_Neutral>
0.0291838

> <r_epik_State_Penalty>
3.757

> <r_epik_Charging_Adjusted_Penalty>
7.51609

> <i_epik_Tot_Q>
0

> <i_epik_Tot_abs_Q>
2

> <r_epik_Metal_State_Penalty>
0.558016

> <b_epik_Metal_Only>
1

> <s_lp_Force_Field>
OPLS_2005

> <r_lp_Energy>
31.4386

> <b_lp_Chiralities_Consistent>
1

> <s_lp_Variant>
AV-unprocessed.smi:1803-9

> <Gold.Version>
5.8.1

> <Gold.Id.Protein>
6NUR|6NUR_protein|mol2

> <Gold.PLP.Fitness>
34.7204

> <Gold.PLP.PLP>
-25.0345

> <Gold.PLP.part.hbond>
-3.0000

> <Gold.PLP.part.metal>
0.0000

> <Gold.PLP.part.buried>
-4.1061

> <Gold.PLP.part.nonpolar>
-19.0241

> <Gold.PLP.part.repulsive>
0.1860

> <Gold.PLP.ligand.clash>
0.0000

> <Gold.PLP.ligand.torsion>
1.1521

> <Gold.PLP.Chemscore.Hbond>
3.9920

> <Gold.PLP.Chemscore.CHOScore>
0.0000

> <Gold.PLP.Chemscore.Metal>
0.0000

> <Gold.Chemscore.Hbonds>
donor molecule, donor type, donor heavy atom, donor atom, acceptor molecule, acceptor atom, score
      L1  H     9    20       P1  7948  0.98
      L1  H    13    35       P1 10957  2.00
      P1  H  6896  6908       L1     6  1.00

> <Gold.PLP.Chemscore.Internal.Correction>
0.0140

> <Gold.Rescore>
     Score         DG    S(hbond)    S(metal)    S(lipo)     H(rot)  DE(clash)    DE(int)     intcor
     15.60     -18.24       2.73        0.00      52.97       1.00       0.01       2.63       ----

> <Gold.Chemscore.Fitness>
15.5953

> <Gold.Chemscore.DG>
-18.2355

> <Gold.Chemscore.ZeroCoef>
-5.4800

> <Gold.Chemscore.Hbond>
2.7298

> <Gold.Chemscore.Metal>
0.0000

> <Gold.Chemscore.Lipo>
52.9741

> <Gold.Chemscore.Internal_Hbond>
0.0000

> <Gold.Chemscore.DEClash>
0.0106

> <Gold.Chemscore.DEInternal>
2.6296

> <Gold.Chemscore.Rot>
1.0000

> <Gold.Chemscore.Internal.Correction>
   9.000000E+99

> <Gold.Chemscore.Hbonds>
donor molecule, donor type, donor heavy atom, donor atom, acceptor molecule, acceptor atom, score
      L1  H     9    20       P1  7948  0.65
      L1  H    13    35       P1 10957  0.28
      P1  H  6896  6908       L1     6  0.94

> <Gold.Chemscore.Hbond.Weighted>
-9.1175

> <Gold.Chemscore.Metal.Weighted>
-0.0000

> <Gold.Chemscore.Lipo.Weighted>
-6.1980

> <Gold.Chemscore.Internal_Hbond.Weighted>
0.0000

> <Gold.Chemscore.DEClash.Weighted>
0.0106

> <Gold.Chemscore.DEInternal.Weighted>
2.6296

> <Gold.Chemscore.Rot.Weighted>
2.5600

> <Gold.Chemscore.Internal.Correction.Weighted>
   9.000000E+99

> <Gold.Protein.RotatedTorsions>
[ 6907 6896 6895 6894 ] final   90.83 input  -60.11 | X-H torsion
[ 7974 7965 7964 7962 ] final   94.11 input  175.53 | X-H torsion
[ 8008 7997 7996 7995 ] final  162.86 input   59.86 | X-H torsion
[ 10167 10162 10161 10158 ] final   70.84 input  -65.29 | X-H torsion
[ 10718 10713 10712 10709 ] final  -43.85 input   66.30 | X-H torsion
[ 10763 10752 10751 10750 ] final  136.22 input  -60.55 | X-H torsion
[ 11005 11000 10999 10996 ] final  -12.11 input  -57.11 | X-H torsion

> <Gold.Protein.ActiveResidues>
 VAL166  LYS551  ARG553  GLY616  TRP617  ASP618  TYR619  PRO620  LYS621  CYS622 
 ASP623  PHE694  ASN695  SER759  ASP760  ASP761  ALA762  ILE779  LEU786  VAL792 
 PHE793  MET794  SER795  GLU796  ALA797  LYS798  CYS799  TRP800  GLU811  SER814 

> <Gold.Protein.RotatedAtoms>
  152.5447  134.1751  159.8612 H   0  0  0  0  0  0  0  0  0  0  0  0  # atno 6907 bound_to 6896
  151.1758  133.4749  159.2601 H   0  0  0  0  0  0  0  0  0  0  0  0  # atno 6908 bound_to 6896
  151.1228  135.0100  159.8602 H   0  0  0  0  0  0  0  0  0  0  0  0  # atno 6909 bound_to 6896
  145.4700  139.2282  143.2940 H   0  0  0  0  0  0  0  0  0  0  0  0  # atno 7974 bound_to 7965
  156.2000  140.1739  156.7919 H   0  0  0  0  0  0  0  0  0  0  0  0  # atno 8008 bound_to 7997
  154.5579  140.0705  156.8803 H   0  0  0  0  0  0  0  0  0  0  0  0  # atno 8009 bound_to 7997
  155.2904  140.3355  155.4255 H   0  0  0  0  0  0  0  0  0  0  0  0  # atno 8010 bound_to 7997
  140.0526  144.5299  150.7352 H   0  0  0  0  0  0  0  0  0  0  0  0  # atno 10167 bound_to 10162
  156.2446  130.4183  149.8720 H   0  0  0  0  0  0  0  0  0  0  0  0  # atno 10718 bound_to 10713
  153.8530  135.3077  155.3433 H   0  0  0  0  0  0  0  0  0  0  0  0  # atno 10763 bound_to 10752
  154.7883  135.4797  153.9998 H   0  0  0  0  0  0  0  0  0  0  0  0  # atno 10764 bound_to 10752
  153.1507  135.6842  153.8980 H   0  0  0  0  0  0  0  0  0  0  0  0  # atno 10765 bound_to 10752
  140.7623  133.8505  155.9135 H   0  0  0  0  0  0  0  0  0  0  0  0  # atno 11005 bound_to 11000
  146.2402  140.5477  142.8937 LP  0  0  0  0  0  0  0  0  0  0  0  0  # atno 17320 bound_to 7965
  144.7951  140.6107  143.6515 LP  0  0  0  0  0  0  0  0  0  0  0  0  # atno 17321 bound_to 7965
  140.7210  143.2588  151.4280 LP  0  0  0  0  0  0  0  0  0  0  0  0  # atno 17342 bound_to 10162
  139.5943  144.1430  152.2126 LP  0  0  0  0  0  0  0  0  0  0  0  0  # atno 17343 bound_to 10162
  156.6290  130.8657  151.3491 LP  0  0  0  0  0  0  0  0  0  0  0  0  # atno 17370 bound_to 10713
  157.7190  130.9533  150.1363 LP  0  0  0  0  0  0  0  0  0  0  0  0  # atno 17371 bound_to 10713
  140.9652  134.1604  157.4622 LP  0  0  0  0  0  0  0  0  0  0  0  0  # atno 17394 bound_to 11000
  139.8769  134.9959  156.5767 LP  0  0  0  0  0  0  0  0  0  0  0  0  # atno 17395 bound_to 11000

$$$$
