AV-unprocessed.smi:1560|AV-procd|sdf|6278|dock10
  -GOLD-   22720 6473D 1   1.00000     0.00000
 Structure written by MMmdl.
 48 49  0  0  0  0  0  0  0  0  2 V2000
  146.9136  138.8976  157.0937 C   0  0  0  0  0  0  0  0  0  0  0  0
  146.5983  139.3806  155.6668 C   0  0  0  0  0  0  0  0  0  0  0  0
  147.6253  138.9587  154.5714 C   0  0  2  0  0  0  0  0  0  0  0  0
  147.2774  139.7459  153.2802 C   0  0  0  0  0  0  0  0  0  0  0  0
  147.4753  137.4340  154.2895 C   0  0  0  0  0  0  0  0  0  0  0  0
  146.2096  137.0978  153.6442 N   0  0  0  0  0  0  0  0  0  0  0  0
  145.8030  135.8495  153.3733 C   0  0  0  0  0  0  0  0  0  0  0  0
  146.4712  134.8523  153.6505 O   0  0  0  0  0  0  0  0  0  0  0  0
  144.4246  135.7203  152.7084 C   0  0  0  0  0  0  0  0  0  0  0  0
  144.4294  134.8453  151.5267 N   0  0  0  0  0  0  0  0  0  0  0  0
  143.6940  133.6685  151.5252 C   0  0  0  0  0  0  0  0  0  0  0  0
  143.6591  132.8122  150.4768 C   0  0  0  0  0  0  0  0  0  0  0  0
  144.4176  133.0982  149.2639 C   0  0  0  0  0  0  0  0  0  0  0  0
  144.4481  132.3871  148.2619 O   0  0  0  0  0  0  0  0  0  0  0  0
  145.1473  134.2894  149.3052 N   0  0  0  0  0  0  0  0  0  0  0  0
  145.1899  135.1748  150.3835 C   0  0  0  0  0  0  0  0  0  0  0  0
  145.8723  136.1966  150.3183 O   0  0  0  0  0  0  0  0  0  0  0  0
  149.0286  139.2836  155.0217 N   0  3  0  0  0  0  0  0  0  0  0  0
  150.1253  138.7873  154.1421 C   0  0  0  0  0  0  0  0  0  0  0  0
  151.4910  138.9958  154.8157 C   0  0  0  0  0  0  0  0  0  0  0  0
  151.6724  140.3756  155.0997 O   0  0  0  0  0  0  0  0  0  0  0  0
  150.6882  140.8600  156.0023 C   0  0  0  0  0  0  0  0  0  0  0  0
  149.2881  140.7063  155.3832 C   0  0  0  0  0  0  0  0  0  0  0  0
  145.6907  134.5280  148.4884 H   0  0  0  0  0  0  0  0  0  0  0  0
  146.1474  139.2415  157.7886 H   0  0  0  0  0  0  0  0  0  0  0  0
  147.8685  139.2827  157.4505 H   0  0  0  0  0  0  0  0  0  0  0  0
  146.9431  137.8101  157.1584 H   0  0  0  0  0  0  0  0  0  0  0  0
  145.5951  139.0516  155.3967 H   0  0  0  0  0  0  0  0  0  0  0  0
  146.5237  140.4683  155.6989 H   0  0  0  0  0  0  0  0  0  0  0  0
  146.2092  139.7152  153.0623 H   0  0  0  0  0  0  0  0  0  0  0  0
  147.7785  139.3351  152.4034 H   0  0  0  0  0  0  0  0  0  0  0  0
  147.5580  140.7966  153.3578 H   0  0  0  0  0  0  0  0  0  0  0  0
  148.2801  137.0765  153.6466 H   0  0  0  0  0  0  0  0  0  0  0  0
  147.5390  136.8658  155.2180 H   0  0  0  0  0  0  0  0  0  0  0  0
  145.6042  137.8638  153.3859 H   0  0  0  0  0  0  0  0  0  0  0  0
  143.7229  135.3410  153.4528 H   0  0  0  0  0  0  0  0  0  0  0  0
  144.0527  136.7123  152.4433 H   0  0  0  0  0  0  0  0  0  0  0  0
  143.1198  133.4135  152.4048 H   0  0  0  0  0  0  0  0  0  0  0  0
  143.0675  131.9100  150.5368 H   0  0  0  0  0  0  0  0  0  0  0  0
  150.0161  137.7273  153.9224 H   0  0  0  0  0  0  0  0  0  0  0  0
  150.1168  139.3161  153.1888 H   0  0  0  0  0  0  0  0  0  0  0  0
  151.5705  138.4055  155.7301 H   0  0  0  0  0  0  0  0  0  0  0  0
  152.2908  138.6653  154.1528 H   0  0  0  0  0  0  0  0  0  0  0  0
  150.7543  140.3268  156.9522 H   0  0  0  0  0  0  0  0  0  0  0  0
  150.8911  141.9101  156.2135 H   0  0  0  0  0  0  0  0  0  0  0  0
  149.2086  141.3403  154.4999 H   0  0  0  0  0  0  0  0  0  0  0  0
  148.5677  141.0750  156.1108 H   0  0  0  0  0  0  0  0  0  0  0  0
  149.1359  138.7739  155.8871 H   0  0  0  0  0  0  0  0  0  0  0  0
  1  2  1  0  0  0  0
  1 25  1  0  0  0  0
  1 26  1  0  0  0  0
  1 27  1  0  0  0  0
  2  3  1  0  0  0  0
  2 28  1  0  0  0  0
  2 29  1  0  0  0  0
  3  4  1  0  0  0  0
  3  5  1  0  0  0  0
  3 18  1  0  0  0  0
  4 30  1  0  0  0  0
  4 31  1  0  0  0  0
  4 32  1  0  0  0  0
  5  6  1  0  0  0  0
  5 33  1  0  0  0  0
  5 34  1  0  0  0  0
  6  7  1  0  0  0  0
  6 35  1  0  0  0  0
  7  8  2  0  0  0  0
  7  9  1  0  0  0  0
  9 10  1  0  0  0  0
  9 36  1  0  0  0  0
  9 37  1  0  0  0  0
 10 16  1  0  0  0  0
 10 11  1  0  0  0  0
 11 12  2  0  0  0  0
 11 38  1  0  0  0  0
 12 13  1  0  0  0  0
 12 39  1  0  0  0  0
 13 14  2  0  0  0  0
 13 15  1  0  0  0  0
 15 24  1  0  0  0  0
 15 16  1  0  0  0  0
 16 17  2  0  0  0  0
 18 23  1  0  0  0  0
 18 19  1  0  0  0  0
 18 48  1  0  0  0  0
 19 20  1  0  0  0  0
 19 40  1  0  0  0  0
 19 41  1  0  0  0  0
 20 21  1  0  0  0  0
 20 42  1  0  0  0  0
 20 43  1  0  0  0  0
 21 22  1  0  0  0  0
 22 23  1  0  0  0  0
 22 44  1  0  0  0  0
 22 45  1  0  0  0  0
 23 46  1  0  0  0  0
 23 47  1  0  0  0  0
M  CHG  1  18   1
M  END
> <s_m_source_file>
AV-unprocessed.smi

> <i_m_source_file_index>
1560

> <i_lp_mmshare_version>
43012

> <i_f3d_flags>
0

> <s_epik_input>
W0NIMl0xW0NIMl1PW0NIMl1bQ0gyXU4xW0NAQF0oW0NIM10pKFtDSDJdW0NIM10pW0NIMl1bTkhdQyg9TylbQ0gyXW4yW2NIXVtjSF1jKD1PKVtuSF1jMj1P

> <s_epik_cmdline>
J2VwaWtfcHl0aG9uJywgJy1waCcsICc3LjAnLCAnLXRuJywgJzgnLCAnLW1hJywgJzIwMCcsICctbWV0YWxfYmluZGluZycsICctaW1hZScsICc8aW5maWxlLm1hZT4nLCAnLW9tYWUnLCAnPG91dGZpbGUubWFlPic=

> <r_lp_tautomer_probability>
0.999537

> <r_epik_Ionization_Penalty>
0.523885

> <r_epik_Ionization_Penalty_Charging>
0.523885

> <r_epik_Ionization_Penalty_Neutral>
8.70177e-08

> <r_epik_State_Penalty>
0.572334

> <r_epik_Charging_Adjusted_Penalty>
1.09622

> <i_epik_Tot_Q>
1

> <i_epik_Tot_abs_Q>
1

> <r_epik_Metal_State_Penalty>
0.938906

> <b_epik_Metal_Only>
0

> <s_lp_Force_Field>
OPLS_2005

> <r_lp_Energy>
29.9369

> <b_lp_Chiralities_Consistent>
1

> <s_lp_Variant>
AV-unprocessed.smi:1560-4

> <Gold.Version>
5.8.1

> <Gold.Id.Protein>
6NUR|6NUR_protein|mol2

> <Gold.PLP.Fitness>
43.6698

> <Gold.PLP.PLP>
-33.2182

> <Gold.PLP.part.hbond>
-2.8469

> <Gold.PLP.part.metal>
0.0000

> <Gold.PLP.part.buried>
-5.4058

> <Gold.PLP.part.nonpolar>
-26.6225

> <Gold.PLP.part.repulsive>
0.7676

> <Gold.PLP.ligand.clash>
0.0000

> <Gold.PLP.ligand.torsion>
0.3371

> <Gold.PLP.Chemscore.Hbond>
2.6423

> <Gold.PLP.Chemscore.CHOScore>
1.0000

> <Gold.PLP.Chemscore.Metal>
0.0000

> <Gold.Chemscore.Hbonds>
donor molecule, donor type, donor heavy atom, donor atom, acceptor molecule, acceptor atom, score
      P1  H  7989  7998       L1    21  0.69
      L1  C    11    38       P1 10957  0.04

> <Gold.PLP.Chemscore.Internal.Correction>
0.1990

> <Gold.Rescore>
     Score         DG    S(hbond)    S(metal)    S(lipo)     H(rot)  DE(clash)    DE(int)     intcor
     12.70     -14.13       2.59        0.00      56.10       2.56       0.09       1.33       ----

> <Gold.Chemscore.Fitness>
12.6998

> <Gold.Chemscore.DG>
-14.1282

> <Gold.Chemscore.ZeroCoef>
-5.4800

> <Gold.Chemscore.Hbond>
2.5888

> <Gold.Chemscore.Metal>
0.0000

> <Gold.Chemscore.Lipo>
56.1024

> <Gold.Chemscore.Internal_Hbond>
0.0000

> <Gold.Chemscore.DEClash>
0.0941

> <Gold.Chemscore.DEInternal>
1.3343

> <Gold.Chemscore.Rot>
2.5634

> <Gold.Chemscore.Internal.Correction>
   9.000000E+99

> <Gold.Chemscore.Hbonds>
donor molecule, donor type, donor heavy atom, donor atom, acceptor molecule, acceptor atom, score
      P1  H  7918  7932       L1    14  0.01
      P1  H  7989  7998       L1    21  0.10

> <Gold.Chemscore.Hbond.Weighted>
-8.6466

> <Gold.Chemscore.Metal.Weighted>
-0.0000

> <Gold.Chemscore.Lipo.Weighted>
-6.5640

> <Gold.Chemscore.Internal_Hbond.Weighted>
0.0000

> <Gold.Chemscore.DEClash.Weighted>
0.0941

> <Gold.Chemscore.DEInternal.Weighted>
1.3343

> <Gold.Chemscore.Rot.Weighted>
6.5624

> <Gold.Chemscore.Internal.Correction.Weighted>
   9.000000E+99

> <Gold.Protein.RotatedTorsions>
[ 6907 6896 6895 6894 ] final -126.79 input  -60.11 | X-H torsion
[ 7974 7965 7964 7962 ] final   -3.20 input  175.53 | X-H torsion
[ 8008 7997 7996 7995 ] final  114.50 input   59.86 | X-H torsion
[ 10167 10162 10161 10158 ] final   67.00 input  -65.29 | X-H torsion
[ 10718 10713 10712 10709 ] final   34.51 input   66.30 | X-H torsion
[ 10763 10752 10751 10750 ] final  163.89 input  -60.55 | X-H torsion
[ 11005 11000 10999 10996 ] final -113.80 input  -57.11 | X-H torsion

> <Gold.Protein.ActiveResidues>
 VAL166  LYS551  ARG553  GLY616  TRP617  ASP618  TYR619  PRO620  LYS621  CYS622 
 ASP623  PHE694  ASN695  SER759  ASP760  ASP761  ALA762  ILE779  LEU786  VAL792 
 PHE793  MET794  SER795  GLU796  ALA797  LYS798  CYS799  TRP800  GLU811  SER814 

> <Gold.Protein.RotatedAtoms>
  150.9006  133.7124  159.2879 H   0  0  0  0  0  0  0  0  0  0  0  0  # atno 6907 bound_to 6896
  151.4644  135.1039  159.9743 H   0  0  0  0  0  0  0  0  0  0  0  0  # atno 6908 bound_to 6896
  152.4874  133.8361  159.7184 H   0  0  0  0  0  0  0  0  0  0  0  0  # atno 6909 bound_to 6896
  146.2393  140.1685  142.8332 H   0  0  0  0  0  0  0  0  0  0  0  0  # atno 7974 bound_to 7965
  156.2324  140.2958  156.0224 H   0  0  0  0  0  0  0  0  0  0  0  0  # atno 8008 bound_to 7997
  155.2186  140.0415  157.2962 H   0  0  0  0  0  0  0  0  0  0  0  0  # atno 8009 bound_to 7997
  154.6020  140.2429  155.7788 H   0  0  0  0  0  0  0  0  0  0  0  0  # atno 8010 bound_to 7997
  140.0943  144.4960  150.7078 H   0  0  0  0  0  0  0  0  0  0  0  0  # atno 10167 bound_to 10162
  157.3113  130.7400  149.6726 H   0  0  0  0  0  0  0  0  0  0  0  0  # atno 10718 bound_to 10713
  154.3006  135.2759  155.2613 H   0  0  0  0  0  0  0  0  0  0  0  0  # atno 10763 bound_to 10752
  154.5051  135.5797  153.6564 H   0  0  0  0  0  0  0  0  0  0  0  0  # atno 10764 bound_to 10752
  152.9901  135.6167  154.3177 H   0  0  0  0  0  0  0  0  0  0  0  0  # atno 10765 bound_to 10752
  141.0592  133.9563  157.2699 H   0  0  0  0  0  0  0  0  0  0  0  0  # atno 11005 bound_to 11000
  145.0031  140.8649  143.5269 LP  0  0  0  0  0  0  0  0  0  0  0  0  # atno 17320 bound_to 7965
  145.1707  139.2406  143.5343 LP  0  0  0  0  0  0  0  0  0  0  0  0  # atno 17321 bound_to 7965
  140.7012  143.2436  151.4859 LP  0  0  0  0  0  0  0  0  0  0  0  0  # atno 17342 bound_to 10162
  139.5707  144.1935  152.1832 LP  0  0  0  0  0  0  0  0  0  0  0  0  # atno 17343 bound_to 10162
  155.9678  130.4250  150.4636 LP  0  0  0  0  0  0  0  0  0  0  0  0  # atno 17370 bound_to 10713
  157.2635  131.0572  151.2305 LP  0  0  0  0  0  0  0  0  0  0  0  0  # atno 17371 bound_to 10713
  139.9417  135.0190  156.8728 LP  0  0  0  0  0  0  0  0  0  0  0  0  # atno 17394 bound_to 11000
  140.5903  134.0268  155.7497 LP  0  0  0  0  0  0  0  0  0  0  0  0  # atno 17395 bound_to 11000

$$$$
