AV-unprocessed.smi:2784|AV-procd|sdf|10732|dock8
  -GOLD-   2272015173D 1   1.00000     0.00000
 Structure written by MMmdl.
 32 33  0  0  0  0  0  0  0  0  2 V2000
  146.0005  143.0023  153.7089 C   0  0  0  0  0  0  0  0  0  0  0  0
  147.0748  142.3837  154.3993 O   0  0  0  0  0  0  0  0  0  0  0  0
  147.8757  141.5358  153.5796 C   0  0  2  0  0  0  0  0  0  0  0  0
  147.1213  140.2272  153.3181 C   0  0  0  0  0  0  0  0  0  0  0  0
  147.3713  139.3962  154.5729 C   0  0  0  0  0  0  0  0  0  0  0  0
  148.8113  139.7238  154.9768 C   0  0  0  0  0  0  0  0  0  0  0  0
  149.1405  141.0940  154.3526 C   0  0  2  0  0  0  0  0  0  0  0  0
  149.5533  142.0541  155.3746 N   0  0  0  0  0  0  0  0  0  0  0  0
  150.4576  141.8074  156.3331 C   0  0  0  0  0  0  0  0  0  0  0  0
  151.0287  140.7250  156.4700 O   0  0  0  0  0  0  0  0  0  0  0  0
  150.6611  142.8820  157.1098 N   0  0  0  0  0  0  0  0  0  0  0  0
  151.5569  142.9514  158.2012 C   0  0  0  0  0  0  0  0  0  0  0  0
  151.8077  144.0634  158.8907 N   0  3  0  0  0  0  0  0  0  0  0  0
  152.7188  143.7745  159.8763 C   0  0  0  0  0  0  0  0  0  0  0  0
  153.0012  142.4361  159.7430 C   0  0  0  0  0  0  0  0  0  0  0  0
  152.2785  141.9048  158.6938 O   0  0  0  0  0  0  0  0  0  0  0  0
  145.4331  143.6228  154.4023 H   0  0  0  0  0  0  0  0  0  0  0  0
  145.3164  142.2701  153.2804 H   0  0  0  0  0  0  0  0  0  0  0  0
  146.3682  143.6465  152.9093 H   0  0  0  0  0  0  0  0  0  0  0  0
  148.1516  142.0455  152.6546 H   0  0  0  0  0  0  0  0  0  0  0  0
  146.0601  140.3640  153.1117 H   0  0  0  0  0  0  0  0  0  0  0  0
  147.5587  139.7213  152.4564 H   0  0  0  0  0  0  0  0  0  0  0  0
  146.6874  139.7140  155.3610 H   0  0  0  0  0  0  0  0  0  0  0  0
  147.2145  138.3299  154.4075 H   0  0  0  0  0  0  0  0  0  0  0  0
  148.9233  139.7103  156.0620 H   0  0  0  0  0  0  0  0  0  0  0  0
  149.4895  138.9688  154.5772 H   0  0  0  0  0  0  0  0  0  0  0  0
  149.9583  140.9508  153.6435 H   0  0  0  0  0  0  0  0  0  0  0  0
  149.1346  142.9716  155.3291 H   0  0  0  0  0  0  0  0  0  0  0  0
  151.4156  144.9853  158.7450 H   0  0  0  0  0  0  0  0  0  0  0  0
  153.0686  144.5342  160.5607 H   0  0  0  0  0  0  0  0  0  0  0  0
  153.6475  141.7528  160.2745 H   0  0  0  0  0  0  0  0  0  0  0  0
  150.1363  143.7184  156.9008 H   0  0  0  0  0  0  0  0  0  0  0  0
  1  2  1  0  0  0  0
  1 17  1  0  0  0  0
  1 18  1  0  0  0  0
  1 19  1  0  0  0  0
  2  3  1  0  0  0  0
  3  7  1  0  0  0  0
  3  4  1  0  0  0  0
  3 20  1  0  0  0  0
  4  5  1  0  0  0  0
  4 21  1  0  0  0  0
  4 22  1  0  0  0  0
  5  6  1  0  0  0  0
  5 23  1  0  0  0  0
  5 24  1  0  0  0  0
  6  7  1  0  0  0  0
  6 25  1  0  0  0  0
  6 26  1  0  0  0  0
  7  8  1  0  0  0  0
  7 27  1  0  0  0  0
  8 28  1  0  0  0  0
  8  9  1  0  0  0  0
  9 11  1  0  0  0  0
  9 10  2  0  0  0  0
 11 12  1  0  0  0  0
 11 32  1  0  0  0  0
 12 16  1  0  0  0  0
 12 13  2  0  0  0  0
 13 29  1  0  0  0  0
 13 14  1  0  0  0  0
 14 30  1  0  0  0  0
 14 15  2  0  0  0  0
 15 31  1  0  0  0  0
 15 16  1  0  0  0  0
M  CHG  1  13   1
M  END
> <s_m_source_file>
AV-unprocessed.smi

> <i_m_source_file_index>
2784

> <i_lp_mmshare_version>
43012

> <i_f3d_flags>
0

> <s_epik_input>
W0NIM11PW0NAQEhdMVtDSDJdW0NIMl1bQ0gyXVtDQEhdMVtOSF1DKD1PKVtOSF1jMm5bY0hdW2NIXW8y

> <s_epik_cmdline>
J2VwaWtfcHl0aG9uJywgJy1waCcsICc3LjAnLCAnLXRuJywgJzgnLCAnLW1hJywgJzIwMCcsICctbWV0YWxfYmluZGluZycsICctaW1hZScsICc8aW5maWxlLm1hZT4nLCAnLW9tYWUnLCAnPG91dGZpbGUubWFlPic=

> <r_epik_Ionization_Penalty>
6.73843

> <r_epik_Ionization_Penalty_Charging>
6.66704

> <r_epik_Ionization_Penalty_Neutral>
0.0713889

> <r_epik_State_Penalty>
1.94951

> <r_epik_Charging_Adjusted_Penalty>
8.61656

> <i_epik_Tot_Q>
1

> <i_epik_Tot_abs_Q>
1

> <r_epik_Metal_State_Penalty>
1.97013

> <b_epik_Metal_Only>
0

> <s_lp_Force_Field>
OPLS_2005

> <r_lp_Energy>
28.2598

> <b_lp_Chiralities_Consistent>
1

> <s_lp_Variant>
AV-unprocessed.smi:2784-7

> <Gold.Version>
5.8.1

> <Gold.Id.Protein>
6NUR|6NUR_protein|mol2

> <Gold.PLP.Fitness>
37.0382

> <Gold.PLP.PLP>
-31.4975

> <Gold.PLP.part.hbond>
-2.0000

> <Gold.PLP.part.metal>
0.0000

> <Gold.PLP.part.buried>
-6.7020

> <Gold.PLP.part.nonpolar>
-23.6961

> <Gold.PLP.part.repulsive>
0.4190

> <Gold.PLP.ligand.clash>
0.0000

> <Gold.PLP.ligand.torsion>
0.2231

> <Gold.PLP.Chemscore.Hbond>
1.9920

> <Gold.PLP.Chemscore.CHOScore>
0.0000

> <Gold.PLP.Chemscore.Metal>
0.0000

> <Gold.Chemscore.Hbonds>
donor molecule, donor type, donor heavy atom, donor atom, acceptor molecule, acceptor atom, score
      L1  H     8    28       P1  8028  1.00
      L1  H    11    32       P1  8028  1.00

> <Gold.PLP.Chemscore.Internal.Correction>
0.0108

> <Gold.Rescore>
     Score         DG    S(hbond)    S(metal)    S(lipo)     H(rot)  DE(clash)    DE(int)     intcor
     13.21     -15.95       1.95        0.00      63.15       1.34       0.01       2.74       ----

> <Gold.Chemscore.Fitness>
13.2071

> <Gold.Chemscore.DG>
-15.9529

> <Gold.Chemscore.ZeroCoef>
-5.4800

> <Gold.Chemscore.Hbond>
1.9467

> <Gold.Chemscore.Metal>
0.0000

> <Gold.Chemscore.Lipo>
63.1519

> <Gold.Chemscore.Internal_Hbond>
0.0000

> <Gold.Chemscore.DEClash>
0.0082

> <Gold.Chemscore.DEInternal>
2.7375

> <Gold.Chemscore.Rot>
1.3351

> <Gold.Chemscore.Internal.Correction>
   9.000000E+99

> <Gold.Chemscore.Hbonds>
donor molecule, donor type, donor heavy atom, donor atom, acceptor molecule, acceptor atom, score
      L1  H     8    28       P1  8028  1.00
      L1  H    11    32       P1  8028  0.90

> <Gold.Chemscore.Hbond.Weighted>
-6.5019

> <Gold.Chemscore.Metal.Weighted>
-0.0000

> <Gold.Chemscore.Lipo.Weighted>
-7.3888

> <Gold.Chemscore.Internal_Hbond.Weighted>
0.0000

> <Gold.Chemscore.DEClash.Weighted>
0.0082

> <Gold.Chemscore.DEInternal.Weighted>
2.7375

> <Gold.Chemscore.Rot.Weighted>
3.4177

> <Gold.Chemscore.Internal.Correction.Weighted>
   9.000000E+99

> <Gold.Protein.RotatedTorsions>
[ 6907 6896 6895 6894 ] final  115.98 input  -60.11 | X-H torsion
[ 7974 7965 7964 7962 ] final -113.60 input  175.53 | X-H torsion
[ 8008 7997 7996 7995 ] final  173.59 input   59.86 | X-H torsion
[ 10167 10162 10161 10158 ] final   93.32 input  -65.29 | X-H torsion
[ 10718 10713 10712 10709 ] final  154.92 input   66.30 | X-H torsion
[ 10763 10752 10751 10750 ] final   -6.53 input  -60.55 | X-H torsion
[ 11005 11000 10999 10996 ] final -102.39 input  -57.11 | X-H torsion

> <Gold.Protein.ActiveResidues>
 VAL166  LYS551  ARG553  GLY616  TRP617  ASP618  TYR619  PRO620  LYS621  CYS622 
 ASP623  PHE694  ASN695  SER759  ASP760  ASP761  ALA762  ILE779  LEU786  VAL792 
 PHE793  MET794  SER795  GLU796  ALA797  LYS798  CYS799  TRP800  GLU811  SER814 

> <Gold.Protein.RotatedAtoms>
  152.4707  133.8024  159.6959 H   0  0  0  0  0  0  0  0  0  0  0  0  # atno 6907 bound_to 6896
  150.8695  133.7516  159.2972 H   0  0  0  0  0  0  0  0  0  0  0  0  # atno 6908 bound_to 6896
  151.5056  135.1066  159.9892 H   0  0  0  0  0  0  0  0  0  0  0  0  # atno 6909 bound_to 6896
  145.1301  140.8719  143.3763 H   0  0  0  0  0  0  0  0  0  0  0  0  # atno 7974 bound_to 7965
  156.1060  140.1456  156.9403 H   0  0  0  0  0  0  0  0  0  0  0  0  # atno 8008 bound_to 7997
  154.4734  140.0902  156.7247 H   0  0  0  0  0  0  0  0  0  0  0  0  # atno 8009 bound_to 7997
  155.4678  140.3440  155.4323 H   0  0  0  0  0  0  0  0  0  0  0  0  # atno 8010 bound_to 7997
  139.8191  144.6739  150.9541 H   0  0  0  0  0  0  0  0  0  0  0  0  # atno 10167 bound_to 10162
  157.2252  131.0727  151.1887 H   0  0  0  0  0  0  0  0  0  0  0  0  # atno 10718 bound_to 10713
  153.4136  135.7008  153.6342 H   0  0  0  0  0  0  0  0  0  0  0  0  # atno 10763 bound_to 10752
  153.4825  135.3690  155.2450 H   0  0  0  0  0  0  0  0  0  0  0  0  # atno 10764 bound_to 10752
  154.8718  135.4069  154.3493 H   0  0  0  0  0  0  0  0  0  0  0  0  # atno 10765 bound_to 10752
  141.1191  133.8555  157.1354 H   0  0  0  0  0  0  0  0  0  0  0  0  # atno 11005 bound_to 11000
  145.0645  139.3079  143.5863 LP  0  0  0  0  0  0  0  0  0  0  0  0  # atno 17320 bound_to 7965
  146.3514  140.0098  142.8668 LP  0  0  0  0  0  0  0  0  0  0  0  0  # atno 17321 bound_to 7965
  140.7814  143.4109  151.0994 LP  0  0  0  0  0  0  0  0  0  0  0  0  # atno 17342 bound_to 10162
  139.7771  143.8410  152.3131 LP  0  0  0  0  0  0  0  0  0  0  0  0  # atno 17343 bound_to 10162
  157.3535  130.7094  149.6456 LP  0  0  0  0  0  0  0  0  0  0  0  0  # atno 17370 bound_to 10713
  155.9679  130.4246  150.4614 LP  0  0  0  0  0  0  0  0  0  0  0  0  # atno 17371 bound_to 10713
  140.0135  134.9978  157.0444 LP  0  0  0  0  0  0  0  0  0  0  0  0  # atno 17394 bound_to 11000
  140.4560  134.1533  155.7186 LP  0  0  0  0  0  0  0  0  0  0  0  0  # atno 17395 bound_to 11000

$$$$
