AV-unprocessed.smi:1830|AV-procd|sdf|7437|dock3
  -GOLD-   22720 9123D 1   1.00000     0.00000
 Structure written by MMmdl.
 53 56  0  0  0  0  0  0  0  0  2 V2000
  151.0221  134.9836  155.2937 O   0  0  0  0  0  0  0  0  0  0  0  0
  149.9695  135.5172  154.9430 C   0  0  0  0  0  0  0  0  0  0  0  0
  148.8280  134.8405  154.7545 N   0  0  0  0  0  0  0  0  0  0  0  0
  148.6701  133.4024  154.9443 C   0  0  0  0  0  0  0  0  0  0  0  0
  147.6413  132.8012  153.9700 C   0  0  1  0  0  0  0  0  0  0  0  0
  148.1370  132.8493  152.5122 C   0  0  0  0  0  0  0  0  0  0  0  0
  147.2068  132.1571  151.5898 N   0  3  2  0  0  0  0  0  0  0  0  0
  146.0108  132.9180  151.1653 C   0  0  0  0  0  0  0  0  0  0  0  0
  144.9001  131.8819  150.9316 C   0  0  0  0  0  0  0  0  0  0  0  0
  145.5584  130.5179  151.1634 C   0  0  0  0  0  0  0  0  0  0  0  0
  146.7597  130.8289  152.0578 C   0  0  2  0  0  0  0  0  0  0  0  0
  146.3816  130.8555  153.5564 C   0  0  0  0  0  0  0  0  0  0  0  0
  147.4274  131.4387  154.3210 O   0  0  0  0  0  0  0  0  0  0  0  0
  149.8010  136.8304  154.7158 N   0  0  0  0  0  0  0  0  0  0  0  0
  150.7602  137.8779  154.8265 C   0  0  0  0  0  0  0  0  0  0  0  0
  152.1300  137.6110  155.0714 C   0  0  0  0  0  0  0  0  0  0  0  0
  153.0321  138.6817  155.1918 C   0  0  0  0  0  0  0  0  0  0  0  0
  152.5338  139.9880  155.0592 C   0  0  0  0  0  0  0  0  0  0  0  0
  151.2381  140.2589  154.8059 N   0  0  0  0  0  0  0  0  0  0  0  0
  150.3577  139.2364  154.6716 C   0  0  0  0  0  0  0  0  0  0  0  0
  149.0173  139.5845  154.3852 N   0  0  0  0  0  0  0  0  0  0  0  0
  148.7353  140.9516  153.9573 C   0  0  0  0  0  0  0  0  0  0  0  0
  147.3803  141.3273  154.5669 C   0  0  0  0  0  0  0  0  0  0  0  0
  146.7317  139.9794  154.8662 C   0  0  0  0  0  0  0  0  0  0  0  0
  147.9331  139.1178  155.2432 C   0  0  0  0  0  0  0  0  0  0  0  0
  148.0083  135.3561  154.4687 H   0  0  0  0  0  0  0  0  0  0  0  0
  149.6385  132.9143  154.8213 H   0  0  0  0  0  0  0  0  0  0  0  0
  148.3625  133.2221  155.9747 H   0  0  0  0  0  0  0  0  0  0  0  0
  146.7043  133.3537  154.0549 H   0  0  0  0  0  0  0  0  0  0  0  0
  148.2890  133.8780  152.1828 H   0  0  0  0  0  0  0  0  0  0  0  0
  149.1054  132.3524  152.4433 H   0  0  0  0  0  0  0  0  0  0  0  0
  145.7017  133.6306  151.9308 H   0  0  0  0  0  0  0  0  0  0  0  0
  146.2362  133.4825  150.2602 H   0  0  0  0  0  0  0  0  0  0  0  0
  144.0943  132.0364  151.6505 H   0  0  0  0  0  0  0  0  0  0  0  0
  144.4671  131.9584  149.9337 H   0  0  0  0  0  0  0  0  0  0  0  0
  144.8772  129.7845  151.5966 H   0  0  0  0  0  0  0  0  0  0  0  0
  145.9089  130.1185  150.2106 H   0  0  0  0  0  0  0  0  0  0  0  0
  147.5608  130.1047  151.9040 H   0  0  0  0  0  0  0  0  0  0  0  0
  145.4553  131.4068  153.7269 H   0  0  0  0  0  0  0  0  0  0  0  0
  146.2080  129.8403  153.9139 H   0  0  0  0  0  0  0  0  0  0  0  0
  148.8549  137.1318  154.5345 H   0  0  0  0  0  0  0  0  0  0  0  0
  152.5063  136.6037  155.1616 H   0  0  0  0  0  0  0  0  0  0  0  0
  154.0802  138.5051  155.3835 H   0  0  0  0  0  0  0  0  0  0  0  0
  153.1932  140.8383  155.1507 H   0  0  0  0  0  0  0  0  0  0  0  0
  149.5166  141.6487  154.2634 H   0  0  0  0  0  0  0  0  0  0  0  0
  148.6692  140.9720  152.8694 H   0  0  0  0  0  0  0  0  0  0  0  0
  147.5362  141.8727  155.4986 H   0  0  0  0  0  0  0  0  0  0  0  0
  146.7780  141.9533  153.9080 H   0  0  0  0  0  0  0  0  0  0  0  0
  145.9806  140.0307  155.6549 H   0  0  0  0  0  0  0  0  0  0  0  0
  146.2561  139.5856  153.9669 H   0  0  0  0  0  0  0  0  0  0  0  0
  147.7344  138.0565  155.0921 H   0  0  0  0  0  0  0  0  0  0  0  0
  148.1750  139.2759  156.2948 H   0  0  0  0  0  0  0  0  0  0  0  0
  147.7200  131.9876  150.7362 H   0  0  0  0  0  0  0  0  0  0  0  0
  1  2  2  0  0  0  0
  2  3  1  0  0  0  0
  2 14  1  0  0  0  0
  3  4  1  0  0  0  0
  3 26  1  0  0  0  0
  4  5  1  0  0  0  0
  4 27  1  0  0  0  0
  4 28  1  0  0  0  0
  5 13  1  0  0  0  0
  5  6  1  0  0  0  0
  5 29  1  0  0  0  0
  6  7  1  0  0  0  0
  6 30  1  0  0  0  0
  6 31  1  0  0  0  0
  7 11  1  0  0  0  0
  7  8  1  0  0  0  0
  7 53  1  0  0  0  0
  8  9  1  0  0  0  0
  8 32  1  0  0  0  0
  8 33  1  0  0  0  0
  9 10  1  0  0  0  0
  9 34  1  0  0  0  0
  9 35  1  0  0  0  0
 10 11  1  0  0  0  0
 10 36  1  0  0  0  0
 10 37  1  0  0  0  0
 11 12  1  0  0  0  0
 11 38  1  0  0  0  0
 12 13  1  0  0  0  0
 12 39  1  0  0  0  0
 12 40  1  0  0  0  0
 14 15  1  0  0  0  0
 14 41  1  0  0  0  0
 15 20  1  0  0  0  0
 15 16  2  0  0  0  0
 16 17  1  0  0  0  0
 16 42  1  0  0  0  0
 17 18  2  0  0  0  0
 17 43  1  0  0  0  0
 18 19  1  0  0  0  0
 18 44  1  0  0  0  0
 19 20  2  0  0  0  0
 20 21  1  0  0  0  0
 21 25  1  0  0  0  0
 21 22  1  0  0  0  0
 22 23  1  0  0  0  0
 22 45  1  0  0  0  0
 22 46  1  0  0  0  0
 23 24  1  0  0  0  0
 23 47  1  0  0  0  0
 23 48  1  0  0  0  0
 24 25  1  0  0  0  0
 24 49  1  0  0  0  0
 24 50  1  0  0  0  0
 25 51  1  0  0  0  0
 25 52  1  0  0  0  0
M  CHG  1   7   1
M  END
> <s_m_source_file>
AV-unprocessed.smi

> <i_m_source_file_index>
1830

> <i_lp_mmshare_version>
43012

> <i_f3d_flags>
0

> <s_epik_input>
W0NIMl0xW0NIMl1bQ0gyXVtDQEhdKE4xMilbQ0gyXU9bQ0BASF0oW0NIMl0yKVtDSDJdW05IXUMoPU8pW05IXWMzW2NIXVtjSF1bY0hdbmMzTjRbQ0gyXVtDSDJdW0NIMl1bQ0gyXTQ=

> <s_epik_cmdline>
J2VwaWtfcHl0aG9uJywgJy1waCcsICc3LjAnLCAnLXRuJywgJzgnLCAnLW1hJywgJzIwMCcsICctbWV0YWxfYmluZGluZycsICctaW1hZScsICc8aW5maWxlLm1hZT4nLCAnLW9tYWUnLCAnPG91dGZpbGUubWFlPic=

> <r_lp_tautomer_probability>
1

> <r_epik_Ionization_Penalty>
0.193547

> <r_epik_Ionization_Penalty_Charging>
0.10673

> <r_epik_Ionization_Penalty_Neutral>
0.0868166

> <r_epik_State_Penalty>
0.173595

> <r_epik_Charging_Adjusted_Penalty>
0.280326

> <i_epik_Tot_Q>
1

> <i_epik_Tot_abs_Q>
1

> <r_epik_Metal_State_Penalty>
0.164683

> <b_epik_Metal_Only>
0

> <s_lp_Force_Field>
OPLS_2005

> <r_lp_Energy>
64.4771

> <b_lp_Chiralities_Consistent>
1

> <s_lp_Variant>
AV-unprocessed.smi:1830-6

> <Gold.Version>
5.8.1

> <Gold.Id.Protein>
6NUR|6NUR_protein|mol2

> <Gold.PLP.Fitness>
39.1033

> <Gold.PLP.PLP>
-34.4298

> <Gold.PLP.part.hbond>
-3.9878

> <Gold.PLP.part.metal>
0.0000

> <Gold.PLP.part.buried>
2.7826

> <Gold.PLP.part.nonpolar>
-32.4926

> <Gold.PLP.part.repulsive>
0.4013

> <Gold.PLP.ligand.clash>
0.0025

> <Gold.PLP.ligand.torsion>
0.4008

> <Gold.PLP.Chemscore.Hbond>
1.7080

> <Gold.PLP.Chemscore.CHOScore>
0.0000

> <Gold.PLP.Chemscore.Metal>
0.0000

> <Gold.Chemscore.Hbonds>
donor molecule, donor type, donor heavy atom, donor atom, acceptor molecule, acceptor atom, score
      L1  H     7    53       P1 10747  0.69
      P1  H  7989  7998       L1    19  0.41
      P1  H 10752 10764       L1     1  0.76

> <Gold.PLP.Chemscore.Internal.Correction>
0.3537

> <Gold.Rescore>
     Score         DG    S(hbond)    S(metal)    S(lipo)     H(rot)  DE(clash)    DE(int)     intcor
     14.97     -19.59       1.77        0.00     100.74       1.41       1.84       2.79       ----

> <Gold.Chemscore.Fitness>
14.9696

> <Gold.Chemscore.DG>
-19.5901

> <Gold.Chemscore.ZeroCoef>
-5.4800

> <Gold.Chemscore.Hbond>
1.7739

> <Gold.Chemscore.Metal>
0.0000

> <Gold.Chemscore.Lipo>
100.7391

> <Gold.Chemscore.Internal_Hbond>
0.0000

> <Gold.Chemscore.DEClash>
1.8352

> <Gold.Chemscore.DEInternal>
2.7854

> <Gold.Chemscore.Rot>
1.4067

> <Gold.Chemscore.Internal.Correction>
   9.000000E+99

> <Gold.Chemscore.Hbonds>
donor molecule, donor type, donor heavy atom, donor atom, acceptor molecule, acceptor atom, score
      L1  H     7    53       P1 10747  0.70
      P1  H  7989  7998       L1    19  0.01
      P1  H 10752 10764       L1     1  0.73

> <Gold.Chemscore.Hbond.Weighted>
-5.9247

> <Gold.Chemscore.Metal.Weighted>
-0.0000

> <Gold.Chemscore.Lipo.Weighted>
-11.7865

> <Gold.Chemscore.Internal_Hbond.Weighted>
0.0000

> <Gold.Chemscore.DEClash.Weighted>
1.8352

> <Gold.Chemscore.DEInternal.Weighted>
2.7854

> <Gold.Chemscore.Rot.Weighted>
3.6011

> <Gold.Chemscore.Internal.Correction.Weighted>
   9.000000E+99

> <Gold.Protein.RotatedTorsions>
[ 6907 6896 6895 6894 ] final -132.83 input  -60.11 | X-H torsion
[ 7974 7965 7964 7962 ] final  140.12 input  175.53 | X-H torsion
[ 8008 7997 7996 7995 ] final  117.61 input   59.86 | X-H torsion
[ 10167 10162 10161 10158 ] final   16.13 input  -65.29 | X-H torsion
[ 10718 10713 10712 10709 ] final   82.11 input   66.30 | X-H torsion
[ 10763 10752 10751 10750 ] final  -50.61 input  -60.55 | X-H torsion
[ 11005 11000 10999 10996 ] final  -22.61 input  -57.11 | X-H torsion

> <Gold.Protein.ActiveResidues>
 VAL166  LYS551  ARG553  GLY616  TRP617  ASP618  TYR619  PRO620  LYS621  CYS622 
 ASP623  PHE694  ASN695  SER759  ASP760  ASP761  ALA762  ILE779  LEU786  VAL792 
 PHE793  MET794  SER795  GLU796  ALA797  LYS798  CYS799  TRP800  GLU811  SER814 

> <Gold.Protein.RotatedAtoms>
  150.9670  133.6385  159.2744 H   0  0  0  0  0  0  0  0  0  0  0  0  # atno 6907 bound_to 6896
  151.3687  135.0917  159.9468 H   0  0  0  0  0  0  0  0  0  0  0  0  # atno 6908 bound_to 6896
  152.5169  133.9228  159.7597 H   0  0  0  0  0  0  0  0  0  0  0  0  # atno 6909 bound_to 6896
  144.9215  139.5161  143.5661 H   0  0  0  0  0  0  0  0  0  0  0  0  # atno 7974 bound_to 7965
  156.2503  140.2892  156.0705 H   0  0  0  0  0  0  0  0  0  0  0  0  # atno 8008 bound_to 7997
  155.1676  140.0401  157.2873 H   0  0  0  0  0  0  0  0  0  0  0  0  # atno 8009 bound_to 7997
  154.6348  140.2508  155.7397 H   0  0  0  0  0  0  0  0  0  0  0  0  # atno 8010 bound_to 7997
  140.5819  143.8965  150.6797 H   0  0  0  0  0  0  0  0  0  0  0  0  # atno 10167 bound_to 10162
  157.6849  131.0033  150.2326 H   0  0  0  0  0  0  0  0  0  0  0  0  # atno 10718 bound_to 10713
  154.1131  135.6546  153.4889 H   0  0  0  0  0  0  0  0  0  0  0  0  # atno 10763 bound_to 10752
  153.0250  135.5252  154.7172 H   0  0  0  0  0  0  0  0  0  0  0  0  # atno 10764 bound_to 10752
  154.6358  135.2982  155.0133 H   0  0  0  0  0  0  0  0  0  0  0  0  # atno 10765 bound_to 10752
  140.8674  133.7745  156.0145 H   0  0  0  0  0  0  0  0  0  0  0  0  # atno 11005 bound_to 11000
  146.3207  139.8099  142.8948 LP  0  0  0  0  0  0  0  0  0  0  0  0  # atno 17320 bound_to 7965
  145.3288  141.0261  143.3458 LP  0  0  0  0  0  0  0  0  0  0  0  0  # atno 17321 bound_to 7965
  140.2466  143.3624  152.1441 LP  0  0  0  0  0  0  0  0  0  0  0  0  # atno 17342 bound_to 10162
  139.5174  144.6992  151.5543 LP  0  0  0  0  0  0  0  0  0  0  0  0  # atno 17343 bound_to 10162
  156.2956  130.3751  149.7799 LP  0  0  0  0  0  0  0  0  0  0  0  0  # atno 17370 bound_to 10713
  156.5445  130.8314  151.3280 LP  0  0  0  0  0  0  0  0  0  0  0  0  # atno 17371 bound_to 10713
  140.8613  134.2837  157.5233 LP  0  0  0  0  0  0  0  0  0  0  0  0  # atno 17394 bound_to 11000
  139.8710  134.9520  156.4101 LP  0  0  0  0  0  0  0  0  0  0  0  0  # atno 17395 bound_to 11000

$$$$
