AV-unprocessed.smi:3091|AV-procd|sdf|11779|dock4
  -GOLD-   2272017163D 1   1.00000     0.00000
 Structure written by MMmdl.
 29 30  0  0  0  0  0  0  0  0  2 V2000
  149.9826  138.5707  153.4928 N   0  3  0  0  0  0  0  0  0  0  0  0
  151.1398  138.5183  154.4002 C   0  0  0  0  0  0  0  0  0  0  0  0
  151.0436  139.6017  155.4544 C   0  0  0  0  0  0  0  0  0  0  0  0
  150.2014  140.7161  155.2664 C   0  0  0  0  0  0  0  0  0  0  0  0
  150.1532  141.6966  156.2766 C   0  0  0  0  0  0  0  0  0  0  0  0
  150.8756  141.6230  157.4142 N   0  0  0  0  0  0  0  0  0  0  0  0
  151.6858  140.5505  157.5955 C   0  0  0  0  0  0  0  0  0  0  0  0
  152.4327  140.4596  158.7534 O   0  0  0  0  0  0  0  0  0  0  0  0
  153.1305  141.6105  159.2314 C   0  0  1  0  0  0  0  0  0  0  0  0
  152.1677  142.7022  159.6946 C   0  0  0  0  0  0  0  0  0  0  0  0
  152.7485  143.1454  161.0306 C   0  0  0  0  0  0  0  0  0  0  0  0
  153.2495  141.9332  161.5644 O   0  0  0  0  0  0  0  0  0  0  0  0
  153.9058  141.2484  160.5064 C   0  0  0  0  0  0  0  0  0  0  0  0
  151.8013  139.5194  156.6405 C   0  0  0  0  0  0  0  0  0  0  0  0
  150.1679  139.2239  152.7451 H   0  0  0  0  0  0  0  0  0  0  0  0
  149.1666  138.8693  154.0077 H   0  0  0  0  0  0  0  0  0  0  0  0
  151.1830  137.5375  154.8750 H   0  0  0  0  0  0  0  0  0  0  0  0
  152.0576  138.6392  153.8237 H   0  0  0  0  0  0  0  0  0  0  0  0
  149.6035  140.8211  154.3729 H   0  0  0  0  0  0  0  0  0  0  0  0
  149.5186  142.5635  156.1671 H   0  0  0  0  0  0  0  0  0  0  0  0
  153.8392  141.9846  158.4904 H   0  0  0  0  0  0  0  0  0  0  0  0
  152.0765  143.5221  158.9817 H   0  0  0  0  0  0  0  0  0  0  0  0
  151.1730  142.2840  159.8552 H   0  0  0  0  0  0  0  0  0  0  0  0
  153.5663  143.8540  160.8887 H   0  0  0  0  0  0  0  0  0  0  0  0
  152.0044  143.5991  161.6855 H   0  0  0  0  0  0  0  0  0  0  0  0
  153.9377  140.1751  160.6963 H   0  0  0  0  0  0  0  0  0  0  0  0
  154.9341  141.6067  160.4398 H   0  0  0  0  0  0  0  0  0  0  0  0
  152.4593  138.6818  156.8212 H   0  0  0  0  0  0  0  0  0  0  0  0
  149.8177  137.6523  153.1062 H   0  0  0  0  0  0  0  0  0  0  0  0
  1  2  1  0  0  0  0
  1 15  1  0  0  0  0
  1 16  1  0  0  0  0
  1 29  1  0  0  0  0
  2  3  1  0  0  0  0
  2 17  1  0  0  0  0
  2 18  1  0  0  0  0
  3 14  1  0  0  0  0
  3  4  2  0  0  0  0
  4  5  1  0  0  0  0
  4 19  1  0  0  0  0
  5  6  2  0  0  0  0
  5 20  1  0  0  0  0
  6  7  1  0  0  0  0
  7  8  1  0  0  0  0
  7 14  2  0  0  0  0
  8  9  1  0  0  0  0
  9 13  1  0  0  0  0
  9 10  1  0  0  0  0
  9 21  1  0  0  0  0
 10 11  1  0  0  0  0
 10 22  1  0  0  0  0
 10 23  1  0  0  0  0
 11 12  1  0  0  0  0
 11 24  1  0  0  0  0
 11 25  1  0  0  0  0
 12 13  1  0  0  0  0
 13 26  1  0  0  0  0
 13 27  1  0  0  0  0
 14 28  1  0  0  0  0
M  CHG  1   1   1
M  END
> <s_m_source_file>
AV-unprocessed.smi

> <i_m_source_file_index>
3091

> <i_lp_mmshare_version>
43012

> <i_f3d_flags>
0

> <s_epik_input>
W05IMl1bQ0gyXWMxW2NIXVtjSF1uYyhbY0hdMSlPW0NAQEhdMltDSDJdW0NIMl1PW0NIMl0y

> <s_epik_cmdline>
J2VwaWtfcHl0aG9uJywgJy1waCcsICc3LjAnLCAnLXRuJywgJzgnLCAnLW1hJywgJzIwMCcsICctbWV0YWxfYmluZGluZycsICctaW1hZScsICc8aW5maWxlLm1hZT4nLCAnLW9tYWUnLCAnPG91dGZpbGUubWFlPic=

> <r_lp_tautomer_probability>
1

> <r_epik_Ionization_Penalty>
0.0773124

> <r_epik_Ionization_Penalty_Charging>
0.0773118

> <r_epik_Ionization_Penalty_Neutral>
5.92883e-07

> <r_epik_State_Penalty>
0.0682686

> <r_epik_Charging_Adjusted_Penalty>
0.14558

> <i_epik_Tot_Q>
1

> <i_epik_Tot_abs_Q>
1

> <r_epik_Metal_State_Penalty>
0.0682821

> <b_epik_Metal_Only>
0

> <s_lp_Force_Field>
OPLS_2005

> <r_lp_Energy>
12.8261

> <b_lp_Chiralities_Consistent>
1

> <s_lp_Variant>
AV-unprocessed.smi:3091-2

> <Gold.Version>
5.8.1

> <Gold.Id.Protein>
6NUR|6NUR_protein|mol2

> <Gold.PLP.Fitness>
42.4667

> <Gold.PLP.PLP>
-31.3717

> <Gold.PLP.part.hbond>
-2.0000

> <Gold.PLP.part.metal>
0.0000

> <Gold.PLP.part.buried>
-4.1082

> <Gold.PLP.part.nonpolar>
-25.4117

> <Gold.PLP.part.repulsive>
0.1638

> <Gold.PLP.ligand.clash>
0.0000

> <Gold.PLP.ligand.torsion>
0.4579

> <Gold.PLP.Chemscore.Hbond>
3.0000

> <Gold.PLP.Chemscore.CHOScore>
1.0000

> <Gold.PLP.Chemscore.Metal>
0.0000

> <Gold.Chemscore.Hbonds>
donor molecule, donor type, donor heavy atom, donor atom, acceptor molecule, acceptor atom, score
      L1  H     1    15       P1  7957  0.99
      L1  H     1    29       P1  7948  1.98
      L1  C     5    20       P1  8028  1.00

> <Gold.PLP.Chemscore.Internal.Correction>
0.0108

> <Gold.Rescore>
     Score         DG    S(hbond)    S(metal)    S(lipo)     H(rot)  DE(clash)    DE(int)     intcor
     15.14     -16.87       1.96        0.00      76.30       1.59       0.16       1.57       ----

> <Gold.Chemscore.Fitness>
15.1424

> <Gold.Chemscore.DG>
-16.8691

> <Gold.Chemscore.ZeroCoef>
-5.4800

> <Gold.Chemscore.Hbond>
1.9577

> <Gold.Chemscore.Metal>
0.0000

> <Gold.Chemscore.Lipo>
76.2997

> <Gold.Chemscore.Internal_Hbond>
0.0000

> <Gold.Chemscore.DEClash>
0.1594

> <Gold.Chemscore.DEInternal>
1.5673

> <Gold.Chemscore.Rot>
1.5924

> <Gold.Chemscore.Internal.Correction>
   9.000000E+99

> <Gold.Chemscore.Hbonds>
donor molecule, donor type, donor heavy atom, donor atom, acceptor molecule, acceptor atom, score
      L1  H     1    15       P1  7957  0.73
      L1  H     1    29       P1  7948  0.46

> <Gold.Chemscore.Hbond.Weighted>
-6.5386

> <Gold.Chemscore.Metal.Weighted>
-0.0000

> <Gold.Chemscore.Lipo.Weighted>
-8.9271

> <Gold.Chemscore.Internal_Hbond.Weighted>
0.0000

> <Gold.Chemscore.DEClash.Weighted>
0.1594

> <Gold.Chemscore.DEInternal.Weighted>
1.5673

> <Gold.Chemscore.Rot.Weighted>
4.0765

> <Gold.Chemscore.Internal.Correction.Weighted>
   9.000000E+99

> <Gold.Protein.RotatedTorsions>
[ 6907 6896 6895 6894 ] final -107.60 input  -60.11 | X-H torsion
[ 7974 7965 7964 7962 ] final  140.55 input  175.53 | X-H torsion
[ 8008 7997 7996 7995 ] final  107.08 input   59.86 | X-H torsion
[ 10167 10162 10161 10158 ] final   44.41 input  -65.29 | X-H torsion
[ 10718 10713 10712 10709 ] final  144.58 input   66.30 | X-H torsion
[ 10763 10752 10751 10750 ] final -103.14 input  -60.55 | X-H torsion
[ 11005 11000 10999 10996 ] final -164.83 input  -57.11 | X-H torsion

> <Gold.Protein.ActiveResidues>
 VAL166  LYS551  ARG553  GLY616  TRP617  ASP618  TYR619  PRO620  LYS621  CYS622 
 ASP623  PHE694  ASN695  SER759  ASP760  ASP761  ALA762  ILE779  LEU786  VAL792 
 PHE793  MET794  SER795  GLU796  ALA797  LYS798  CYS799  TRP800  GLU811  SER814 

> <Gold.Protein.RotatedAtoms>
  150.7453  133.9803  159.3573 H   0  0  0  0  0  0  0  0  0  0  0  0  # atno 6907 bound_to 6896
  151.7743  135.0776  160.0374 H   0  0  0  0  0  0  0  0  0  0  0  0  # atno 6908 bound_to 6896
  152.3317  133.5929  159.5850 H   0  0  0  0  0  0  0  0  0  0  0  0  # atno 6909 bound_to 6896
  144.9176  139.5209  143.5678 H   0  0  0  0  0  0  0  0  0  0  0  0  # atno 7974 bound_to 7965
  156.1795  140.3101  155.9122 H   0  0  0  0  0  0  0  0  0  0  0  0  # atno 8008 bound_to 7997
  155.3414  140.0466  157.3062 H   0  0  0  0  0  0  0  0  0  0  0  0  # atno 8009 bound_to 7997
  154.5327  140.2236  155.8786 H   0  0  0  0  0  0  0  0  0  0  0  0  # atno 8010 bound_to 7997
  140.3345  144.2547  150.6163 H   0  0  0  0  0  0  0  0  0  0  0  0  # atno 10167 bound_to 10162
  157.3555  131.0957  151.0962 H   0  0  0  0  0  0  0  0  0  0  0  0  # atno 10718 bound_to 10713
  154.7785  135.4834  153.9795 H   0  0  0  0  0  0  0  0  0  0  0  0  # atno 10763 bound_to 10752
  153.1461  135.6782  153.8959 H   0  0  0  0  0  0  0  0  0  0  0  0  # atno 10764 bound_to 10752
  153.8618  135.3154  155.3416 H   0  0  0  0  0  0  0  0  0  0  0  0  # atno 10765 bound_to 10752
  140.5825  134.5127  157.5180 H   0  0  0  0  0  0  0  0  0  0  0  0  # atno 11005 bound_to 11000
  146.3189  139.8031  142.8961 LP  0  0  0  0  0  0  0  0  0  0  0  0  # atno 17320 bound_to 7965
  145.3349  141.0275  143.3425 LP  0  0  0  0  0  0  0  0  0  0  0  0  # atno 17321 bound_to 7965
  140.5366  143.2232  151.8153 LP  0  0  0  0  0  0  0  0  0  0  0  0  # atno 17342 bound_to 10162
  139.4851  144.4653  151.9491 LP  0  0  0  0  0  0  0  0  0  0  0  0  # atno 17343 bound_to 10162
  157.2122  130.6443  149.5778 LP  0  0  0  0  0  0  0  0  0  0  0  0  # atno 17370 bound_to 10713
  155.9728  130.4656  150.6260 LP  0  0  0  0  0  0  0  0  0  0  0  0  # atno 17371 bound_to 10713
  139.9311  134.7963  156.0930 LP  0  0  0  0  0  0  0  0  0  0  0  0  # atno 17394 bound_to 11000
  141.0987  133.6685  156.2704 LP  0  0  0  0  0  0  0  0  0  0  0  0  # atno 17395 bound_to 11000

$$$$
