AV-unprocessed.smi:2928|AV-procd|sdf|11234|dock3
  -GOLD-   2272016123D 1   1.00000     0.00000
 Structure written by MMmdl.
 55 58  0  0  0  0  0  0  0  0  2 V2000
  148.6548  142.3501  157.8220 C   0  0  0  0  0  0  0  0  0  0  0  0
  147.9742  142.4044  156.5062 N   0  3  2  0  0  0  0  0  0  0  0  0
  146.4980  142.5197  156.5731 C   0  0  1  0  0  0  0  0  0  0  0  0
  145.9658  142.9949  155.2014 C   0  0  0  0  0  0  0  0  0  0  0  0
  146.4439  142.1380  154.0134 C   0  0  0  0  0  0  0  0  0  0  0  0
  147.9274  141.7362  154.1318 C   0  0  0  0  0  0  0  0  0  0  0  0
  148.3579  141.3294  155.5604 C   0  0  2  0  0  0  0  0  0  0  0  0
  147.8468  139.9459  156.0357 C   0  0  0  0  0  0  0  0  0  0  0  0
  146.3707  139.8937  156.5019 C   0  0  2  0  0  0  0  0  0  0  0  0
  145.4978  139.3704  155.4541 N   0  0  0  0  0  0  0  0  0  0  0  0
  145.8054  138.3941  154.5884 C   0  0  0  0  0  0  0  0  0  0  0  0
  146.8968  137.8259  154.5631 O   0  0  0  0  0  0  0  0  0  0  0  0
  144.7628  138.1153  153.7893 N   0  0  0  0  0  0  0  0  0  0  0  0
  144.6514  137.0923  152.8059 C   0  0  0  0  0  0  0  0  0  0  0  0
  145.7207  136.7250  151.9537 C   0  0  0  0  0  0  0  0  0  0  0  0
  145.5166  135.7164  150.9944 C   0  0  0  0  0  0  0  0  0  0  0  0
  144.2473  135.1163  150.9142 C   0  0  0  0  0  0  0  0  0  0  0  0
  143.2142  135.4652  151.7078 N   0  0  0  0  0  0  0  0  0  0  0  0
  143.4055  136.4364  152.6336 C   0  0  0  0  0  0  0  0  0  0  0  0
  142.3155  136.7835  153.4518 N   0  0  0  0  0  0  0  0  0  0  0  0
  141.7159  138.0798  153.1844 C   0  0  0  0  0  0  0  0  0  0  0  0
  140.3701  138.0622  153.9139 C   0  0  0  0  0  0  0  0  0  0  0  0
  140.0412  136.5754  154.0993 C   0  0  0  0  0  0  0  0  0  0  0  0
  141.2190  135.8302  153.4660 C   0  0  0  0  0  0  0  0  0  0  0  0
  145.8511  141.2214  157.1169 C   0  0  0  0  0  0  0  0  0  0  0  0
  148.3874  141.4586  158.3892 H   0  0  0  0  0  0  0  0  0  0  0  0
  148.3927  143.2226  158.4212 H   0  0  0  0  0  0  0  0  0  0  0  0
  149.7373  142.3543  157.6905 H   0  0  0  0  0  0  0  0  0  0  0  0
  146.2610  143.3154  157.2811 H   0  0  0  0  0  0  0  0  0  0  0  0
  144.8765  143.0457  155.2116 H   0  0  0  0  0  0  0  0  0  0  0  0
  146.3095  144.0177  155.0404 H   0  0  0  0  0  0  0  0  0  0  0  0
  145.8193  141.2576  153.9083 H   0  0  0  0  0  0  0  0  0  0  0  0
  146.2906  142.6884  153.0846 H   0  0  0  0  0  0  0  0  0  0  0  0
  148.1579  140.9406  153.4225 H   0  0  0  0  0  0  0  0  0  0  0  0
  148.5334  142.5907  153.8266 H   0  0  0  0  0  0  0  0  0  0  0  0
  149.4477  141.2788  155.5443 H   0  0  0  0  0  0  0  0  0  0  0  0
  148.0386  139.1902  155.2726 H   0  0  0  0  0  0  0  0  0  0  0  0
  148.4657  139.6422  156.8809 H   0  0  0  0  0  0  0  0  0  0  0  0
  146.3326  139.1423  157.2933 H   0  0  0  0  0  0  0  0  0  0  0  0
  144.5744  139.7739  155.3929 H   0  0  0  0  0  0  0  0  0  0  0  0
  143.9080  138.6165  153.9832 H   0  0  0  0  0  0  0  0  0  0  0  0
  146.6850  137.2066  152.0080 H   0  0  0  0  0  0  0  0  0  0  0  0
  146.3142  135.4144  150.3318 H   0  0  0  0  0  0  0  0  0  0  0  0
  144.0535  134.3397  150.1891 H   0  0  0  0  0  0  0  0  0  0  0  0
  142.3551  138.8890  153.5386 H   0  0  0  0  0  0  0  0  0  0  0  0
  141.5595  138.2173  152.1134 H   0  0  0  0  0  0  0  0  0  0  0  0
  140.4597  138.5463  154.8872 H   0  0  0  0  0  0  0  0  0  0  0  0
  139.6018  138.5909  153.3490 H   0  0  0  0  0  0  0  0  0  0  0  0
  139.9705  136.3402  155.1620 H   0  0  0  0  0  0  0  0  0  0  0  0
  139.0952  136.2979  153.6335 H   0  0  0  0  0  0  0  0  0  0  0  0
  140.9654  135.5229  152.4503 H   0  0  0  0  0  0  0  0  0  0  0  0
  141.4816  134.9364  154.0328 H   0  0  0  0  0  0  0  0  0  0  0  0
  146.0506  141.1807  158.1883 H   0  0  0  0  0  0  0  0  0  0  0  0
  144.7651  141.2910  157.0472 H   0  0  0  0  0  0  0  0  0  0  0  0
  148.2957  143.2648  156.0858 H   0  0  0  0  0  0  0  0  0  0  0  0
  1  2  1  0  0  0  0
  1 26  1  0  0  0  0
  1 27  1  0  0  0  0
  1 28  1  0  0  0  0
  2  7  1  0  0  0  0
  2  3  1  0  0  0  0
  2 55  1  0  0  0  0
  3 25  1  0  0  0  0
  3  4  1  0  0  0  0
  3 29  1  0  0  0  0
  4  5  1  0  0  0  0
  4 30  1  0  0  0  0
  4 31  1  0  0  0  0
  5  6  1  0  0  0  0
  5 32  1  0  0  0  0
  5 33  1  0  0  0  0
  6  7  1  0  0  0  0
  6 34  1  0  0  0  0
  6 35  1  0  0  0  0
  7  8  1  0  0  0  0
  7 36  1  0  0  0  0
  8  9  1  0  0  0  0
  8 37  1  0  0  0  0
  8 38  1  0  0  0  0
  9 10  1  0  0  0  0
  9 25  1  0  0  0  0
  9 39  1  0  0  0  0
 10 11  1  0  0  0  0
 10 40  1  0  0  0  0
 11 12  2  0  0  0  0
 11 13  1  0  0  0  0
 13 14  1  0  0  0  0
 13 41  1  0  0  0  0
 14 19  1  0  0  0  0
 14 15  2  0  0  0  0
 15 16  1  0  0  0  0
 15 42  1  0  0  0  0
 16 17  2  0  0  0  0
 16 43  1  0  0  0  0
 17 18  1  0  0  0  0
 17 44  1  0  0  0  0
 18 19  2  0  0  0  0
 19 20  1  0  0  0  0
 20 24  1  0  0  0  0
 20 21  1  0  0  0  0
 21 22  1  0  0  0  0
 21 45  1  0  0  0  0
 21 46  1  0  0  0  0
 22 23  1  0  0  0  0
 22 47  1  0  0  0  0
 22 48  1  0  0  0  0
 23 24  1  0  0  0  0
 23 49  1  0  0  0  0
 23 50  1  0  0  0  0
 24 51  1  0  0  0  0
 24 52  1  0  0  0  0
 25 53  1  0  0  0  0
 25 54  1  0  0  0  0
M  CHG  1   2   1
M  END
> <s_m_source_file>
AV-unprocessed.smi

> <i_m_source_file_index>
2928

> <i_lp_mmshare_version>
43012

> <i_f3d_flags>
0

> <s_epik_input>
W0NIMl0xW0NIMl1bQ0gyXVtDQEhdKE4oW0NIM10pW0NIXTEyKVtDSDJdW0NASF0oW0NIMl0yKVtOSF1DKD1PKVtOSF1jM1tjSF1bY0hdW2NIXW5jM040W0NIMl1bQ0gyXVtDSDJdW0NIMl00

> <s_epik_cmdline>
J2VwaWtfcHl0aG9uJywgJy1waCcsICc3LjAnLCAnLXRuJywgJzgnLCAnLW1hJywgJzIwMCcsICctbWV0YWxfYmluZGluZycsICctaW1hZScsICc8aW5maWxlLm1hZT4nLCAnLW9tYWUnLCAnPG91dGZpbGUubWFlPic=

> <r_lp_tautomer_probability>
1

> <r_epik_Ionization_Penalty>
0.07954

> <r_epik_Ionization_Penalty_Charging>
0.00089841

> <r_epik_Ionization_Penalty_Neutral>
0.0786416

> <r_epik_State_Penalty>
0.0689917

> <r_epik_Charging_Adjusted_Penalty>
0.0698901

> <i_epik_Tot_Q>
1

> <i_epik_Tot_abs_Q>
1

> <r_epik_Metal_State_Penalty>
0.0608947

> <b_epik_Metal_Only>
0

> <s_lp_Force_Field>
OPLS_2005

> <r_lp_Energy>
66.3718

> <b_lp_Chiralities_Consistent>
1

> <s_lp_Variant>
AV-unprocessed.smi:2928-4

> <Gold.Version>
5.8.1

> <Gold.Id.Protein>
6NUR|6NUR_protein|mol2

> <Gold.PLP.Fitness>
39.6286

> <Gold.PLP.PLP>
-35.2041

> <Gold.PLP.part.hbond>
-2.0000

> <Gold.PLP.part.metal>
0.0000

> <Gold.PLP.part.buried>
-3.5332

> <Gold.PLP.part.nonpolar>
-30.1460

> <Gold.PLP.part.repulsive>
0.4475

> <Gold.PLP.ligand.clash>
0.0000

> <Gold.PLP.ligand.torsion>
0.8555

> <Gold.PLP.Chemscore.Hbond>
2.0195

> <Gold.PLP.Chemscore.CHOScore>
0.0000

> <Gold.PLP.Chemscore.Metal>
0.0000

> <Gold.Chemscore.Hbonds>
donor molecule, donor type, donor heavy atom, donor atom, acceptor molecule, acceptor atom, score
      L1  H     2    55       P1  8028  2.00
      L1  H    13    41       P1 10175  0.03

> <Gold.PLP.Chemscore.Internal.Correction>
0.0768

> <Gold.Rescore>
     Score         DG    S(hbond)    S(metal)    S(lipo)     H(rot)  DE(clash)    DE(int)     intcor
     11.71     -14.90       0.98        0.00      78.30       1.18       0.08       3.11       ----

> <Gold.Chemscore.Fitness>
11.7091

> <Gold.Chemscore.DG>
-14.8980

> <Gold.Chemscore.ZeroCoef>
-5.4800

> <Gold.Chemscore.Hbond>
0.9795

> <Gold.Chemscore.Metal>
0.0000

> <Gold.Chemscore.Lipo>
78.3005

> <Gold.Chemscore.Internal_Hbond>
0.0000

> <Gold.Chemscore.DEClash>
0.0813

> <Gold.Chemscore.DEInternal>
3.1076

> <Gold.Chemscore.Rot>
1.1776

> <Gold.Chemscore.Internal.Correction>
   9.000000E+99

> <Gold.Chemscore.Hbonds>
donor molecule, donor type, donor heavy atom, donor atom, acceptor molecule, acceptor atom, score
      L1  H     2    55       P1  8028  0.74
      L1  H    13    41       P1 10175  0.03

> <Gold.Chemscore.Hbond.Weighted>
-3.2716

> <Gold.Chemscore.Metal.Weighted>
-0.0000

> <Gold.Chemscore.Lipo.Weighted>
-9.1612

> <Gold.Chemscore.Internal_Hbond.Weighted>
0.0000

> <Gold.Chemscore.DEClash.Weighted>
0.0813

> <Gold.Chemscore.DEInternal.Weighted>
3.1076

> <Gold.Chemscore.Rot.Weighted>
3.0147

> <Gold.Chemscore.Internal.Correction.Weighted>
   9.000000E+99

> <Gold.Protein.RotatedTorsions>
[ 6907 6896 6895 6894 ] final -140.53 input  -60.11 | X-H torsion
[ 7974 7965 7964 7962 ] final  -70.26 input  175.53 | X-H torsion
[ 8008 7997 7996 7995 ] final  -62.68 input   59.86 | X-H torsion
[ 10167 10162 10161 10158 ] final    1.66 input  -65.29 | X-H torsion
[ 10718 10713 10712 10709 ] final   46.89 input   66.30 | X-H torsion
[ 10763 10752 10751 10750 ] final  107.39 input  -60.55 | X-H torsion
[ 11005 11000 10999 10996 ] final   14.17 input  -57.11 | X-H torsion

> <Gold.Protein.ActiveResidues>
 VAL166  LYS551  ARG553  GLY616  TRP617  ASP618  TYR619  PRO620  LYS621  CYS622 
 ASP623  PHE694  ASN695  SER759  ASP760  ASP761  ALA762  ILE779  LEU786  VAL792 
 PHE793  MET794  SER795  GLU796  ALA797  LYS798  CYS799  TRP800  GLU811  SER814 

> <Gold.Protein.RotatedAtoms>
  151.0619  133.5537  159.2633 H   0  0  0  0  0  0  0  0  0  0  0  0  # atno 6907 bound_to 6896
  151.2509  135.0621  159.9071 H   0  0  0  0  0  0  0  0  0  0  0  0  # atno 6908 bound_to 6896
  152.5399  134.0379  159.8108 H   0  0  0  0  0  0  0  0  0  0  0  0  # atno 6909 bound_to 6896
  145.6932  140.9145  143.0770 H   0  0  0  0  0  0  0  0  0  0  0  0  # atno 7974 bound_to 7965
  154.4513  140.0991  156.6625 H   0  0  0  0  0  0  0  0  0  0  0  0  # atno 8008 bound_to 7997
  155.5277  140.3480  155.4401 H   0  0  0  0  0  0  0  0  0  0  0  0  # atno 8009 bound_to 7997
  156.0686  140.1344  156.9845 H   0  0  0  0  0  0  0  0  0  0  0  0  # atno 8010 bound_to 7997
  140.6672  143.7147  150.7851 H   0  0  0  0  0  0  0  0  0  0  0  0  # atno 10167 bound_to 10162
  157.4528  130.8148  149.7806 H   0  0  0  0  0  0  0  0  0  0  0  0  # atno 10718 bound_to 10713
  153.4060  135.3846  155.2019 H   0  0  0  0  0  0  0  0  0  0  0  0  # atno 10763 bound_to 10752
  154.8733  135.3783  154.4559 H   0  0  0  0  0  0  0  0  0  0  0  0  # atno 10764 bound_to 10752
  153.5062  135.7088  153.5867 H   0  0  0  0  0  0  0  0  0  0  0  0  # atno 10765 bound_to 10752
  140.4725  134.1016  155.7735 H   0  0  0  0  0  0  0  0  0  0  0  0  # atno 11005 bound_to 11000
  144.6990  139.8849  143.7449 LP  0  0  0  0  0  0  0  0  0  0  0  0  # atno 17320 bound_to 7965
  146.0863  139.3852  143.0433 LP  0  0  0  0  0  0  0  0  0  0  0  0  # atno 17321 bound_to 7965
  140.0826  143.4954  152.2522 LP  0  0  0  0  0  0  0  0  0  0  0  0  # atno 17342 bound_to 10162
  139.5926  144.7555  151.3364 LP  0  0  0  0  0  0  0  0  0  0  0  0  # atno 17343 bound_to 10162
  155.9994  130.3889  150.2665 LP  0  0  0  0  0  0  0  0  0  0  0  0  # atno 17370 bound_to 10713
  157.0837  131.0150  151.3147 LP  0  0  0  0  0  0  0  0  0  0  0  0  # atno 17371 bound_to 10713
  141.1570  133.8864  157.1951 LP  0  0  0  0  0  0  0  0  0  0  0  0  # atno 17394 bound_to 11000
  139.9876  135.0076  156.9900 LP  0  0  0  0  0  0  0  0  0  0  0  0  # atno 17395 bound_to 11000

$$$$
