AV-unprocessed.smi:2467|AV-procd|sdf|9726|dock10
  -GOLD-   2272013363D 1   1.00000     0.00000
 Structure written by MMmdl.
 46 47  0  0  0  0  0  0  0  0  1 V2000
  150.6319  141.9827  156.9054 C   0  0  0  0  0  0  0  0  0  0  0  0
  151.3120  140.9458  155.9982 C   0  0  0  0  0  0  0  0  0  0  0  0
  150.3552  139.8650  155.4342 C   0  0  0  0  0  0  0  0  0  0  0  0
  151.0856  138.9491  154.4200 C   0  0  0  0  0  0  0  0  0  0  0  0
  152.4073  138.3533  154.9287 C   0  0  0  0  0  0  0  0  0  0  0  0
  149.0706  140.4806  154.8187 C   0  0  1  0  0  0  0  0  0  0  0  0
  148.3405  139.5634  153.8121 C   0  0  0  0  0  0  0  0  0  0  0  0
  147.0939  140.2651  153.2535 C   0  0  1  0  0  0  0  0  0  0  0  0
  146.3482  139.3480  152.3971 N   0  0  0  0  0  0  0  0  0  0  0  0
  145.9691  138.1026  152.7284 C   0  0  0  0  0  0  0  0  0  0  0  0
  146.2113  137.6047  153.8268 O   0  0  0  0  0  0  0  0  0  0  0  0
  145.2972  137.4086  151.7844 N   0  0  0  0  0  0  0  0  0  0  0  0
  144.7528  136.0904  151.7846 C   0  0  0  0  0  0  0  0  0  0  0  0
  144.8240  135.4293  150.5372 C   0  0  0  0  0  0  0  0  0  0  0  0
  144.3123  134.1235  150.4098 C   0  0  0  0  0  0  0  0  0  0  0  0
  143.7389  133.5081  151.5363 C   0  0  0  0  0  0  0  0  0  0  0  0
  143.7052  134.2329  152.7414 C   0  0  0  0  0  0  0  0  0  0  0  0
  144.1955  135.4846  152.8645 N   0  0  0  0  0  0  0  0  0  0  0  0
  146.2208  140.7512  154.4221 C   0  0  0  0  0  0  0  0  0  0  0  0
  147.0487  141.5952  155.4041 C   0  0  0  0  0  0  0  0  0  0  0  0
  148.1747  140.8544  155.8636 O   0  0  0  0  0  0  0  0  0  0  0  0
  151.3413  142.7568  157.1989 H   0  0  0  0  0  0  0  0  0  0  0  0
  150.2450  141.5386  157.8215 H   0  0  0  0  0  0  0  0  0  0  0  0
  149.8045  142.4732  156.3918 H   0  0  0  0  0  0  0  0  0  0  0  0
  151.7784  141.4989  155.1859 H   0  0  0  0  0  0  0  0  0  0  0  0
  152.1316  140.4700  156.5378 H   0  0  0  0  0  0  0  0  0  0  0  0
  150.0420  139.2398  156.2715 H   0  0  0  0  0  0  0  0  0  0  0  0
  150.4219  138.1452  154.0995 H   0  0  0  0  0  0  0  0  0  0  0  0
  151.3209  139.5117  153.5181 H   0  0  0  0  0  0  0  0  0  0  0  0
  152.9177  137.8183  154.1276 H   0  0  0  0  0  0  0  0  0  0  0  0
  152.2541  137.6426  155.7398 H   0  0  0  0  0  0  0  0  0  0  0  0
  153.0812  139.1333  155.2842 H   0  0  0  0  0  0  0  0  0  0  0  0
  149.3501  141.3815  154.2732 H   0  0  0  0  0  0  0  0  0  0  0  0
  149.0127  139.2931  152.9969 H   0  0  0  0  0  0  0  0  0  0  0  0
  148.0368  138.6315  154.2876 H   0  0  0  0  0  0  0  0  0  0  0  0
  147.4186  141.1265  152.6666 H   0  0  0  0  0  0  0  0  0  0  0  0
  146.1087  139.6796  151.4731 H   0  0  0  0  0  0  0  0  0  0  0  0
  145.1286  137.9252  150.9338 H   0  0  0  0  0  0  0  0  0  0  0  0
  145.2672  135.9154  149.6798 H   0  0  0  0  0  0  0  0  0  0  0  0
  144.3589  133.6046  149.4637 H   0  0  0  0  0  0  0  0  0  0  0  0
  143.3358  132.5079  151.4782 H   0  0  0  0  0  0  0  0  0  0  0  0
  143.2737  133.7972  153.6304 H   0  0  0  0  0  0  0  0  0  0  0  0
  145.3770  141.3343  154.0513 H   0  0  0  0  0  0  0  0  0  0  0  0
  145.8005  139.8949  154.9517 H   0  0  0  0  0  0  0  0  0  0  0  0
  147.3784  142.5237  154.9353 H   0  0  0  0  0  0  0  0  0  0  0  0
  146.4383  141.8741  156.2631 H   0  0  0  0  0  0  0  0  0  0  0  0
  1  2  1  0  0  0  0
  1 22  1  0  0  0  0
  1 23  1  0  0  0  0
  1 24  1  0  0  0  0
  2  3  1  0  0  0  0
  2 25  1  0  0  0  0
  2 26  1  0  0  0  0
  3  4  1  0  0  0  0
  3  6  1  0  0  0  0
  3 27  1  0  0  0  0
  4  5  1  0  0  0  0
  4 28  1  0  0  0  0
  4 29  1  0  0  0  0
  5 30  1  0  0  0  0
  5 31  1  0  0  0  0
  5 32  1  0  0  0  0
  6 21  1  0  0  0  0
  6  7  1  0  0  0  0
  6 33  1  0  0  0  0
  7  8  1  0  0  0  0
  7 34  1  0  0  0  0
  7 35  1  0  0  0  0
  8  9  1  0  0  0  0
  8 19  1  0  0  0  0
  8 36  1  0  0  0  0
  9 10  1  0  0  0  0
  9 37  1  0  0  0  0
 10 11  2  0  0  0  0
 10 12  1  0  0  0  0
 12 13  1  0  0  0  0
 12 38  1  0  0  0  0
 13 18  1  0  0  0  0
 13 14  2  0  0  0  0
 14 15  1  0  0  0  0
 14 39  1  0  0  0  0
 15 16  2  0  0  0  0
 15 40  1  0  0  0  0
 16 17  1  0  0  0  0
 16 41  1  0  0  0  0
 17 18  2  0  0  0  0
 17 42  1  0  0  0  0
 19 20  1  0  0  0  0
 19 43  1  0  0  0  0
 19 44  1  0  0  0  0
 20 21  1  0  0  0  0
 20 45  1  0  0  0  0
 20 46  1  0  0  0  0
M  END
> <s_m_source_file>
AV-unprocessed.smi

> <i_m_source_file_index>
2467

> <i_lp_mmshare_version>
43012

> <i_f3d_flags>
0

> <s_epik_input>
W0NIM11bQ0gyXVtDSF0oW0NIMl1bQ0gzXSlbQ0BASF0xW0NIMl1bQ0BIXShbQ0gyXVtDSDJdTzEpW05IXUMoPU8pW05IXWMyW2NIXVtjSF1bY0hdW2NIXW4y

> <s_epik_cmdline>
J2VwaWtfcHl0aG9uJywgJy1waCcsICc3LjAnLCAnLXRuJywgJzgnLCAnLW1hJywgJzIwMCcsICctbWV0YWxfYmluZGluZycsICctaW1hZScsICc8aW5maWxlLm1hZT4nLCAnLW9tYWUnLCAnPG91dGZpbGUubWFlPic=

> <r_lp_tautomer_probability>
1

> <r_epik_Ionization_Penalty>
4.80427e-05

> <r_epik_Ionization_Penalty_Charging>
0

> <r_epik_Ionization_Penalty_Neutral>
4.80427e-05

> <r_epik_State_Penalty>
-0

> <r_epik_Charging_Adjusted_Penalty>
0

> <i_epik_Tot_Q>
0

> <i_epik_Tot_abs_Q>
0

> <r_epik_Metal_State_Penalty>
-0

> <b_epik_Metal_Only>
0

> <s_lp_Force_Field>
OPLS_2005

> <r_lp_Energy>
20.6132

> <b_lp_Chiralities_Consistent>
1

> <s_lp_Variant>
AV-unprocessed.smi:2467-2

> <Gold.Version>
5.8.1

> <Gold.Id.Protein>
6NUR|6NUR_protein|mol2

> <Gold.PLP.Fitness>
40.8197

> <Gold.PLP.PLP>
-36.6419

> <Gold.PLP.part.hbond>
-2.0000

> <Gold.PLP.part.metal>
0.0000

> <Gold.PLP.part.buried>
-2.1252

> <Gold.PLP.part.nonpolar>
-33.2567

> <Gold.PLP.part.repulsive>
0.3377

> <Gold.PLP.ligand.clash>
0.0000

> <Gold.PLP.ligand.torsion>
0.8444

> <Gold.PLP.Chemscore.Hbond>
0.9280

> <Gold.PLP.Chemscore.CHOScore>
1.0000

> <Gold.PLP.Chemscore.Metal>
0.0000

> <Gold.Chemscore.Hbonds>
donor molecule, donor type, donor heavy atom, donor atom, acceptor molecule, acceptor atom, score
      L1  H    12    38       P1 10171  0.93
      L1  C    17    42       P1 10957  1.00

> <Gold.PLP.Chemscore.Internal.Correction>
0.0827

> <Gold.Rescore>
     Score         DG    S(hbond)    S(metal)    S(lipo)     H(rot)  DE(clash)    DE(int)     intcor
     11.35     -14.79       0.86        0.00      87.38       1.49       0.13       3.30       ----

> <Gold.Chemscore.Fitness>
11.3548

> <Gold.Chemscore.DG>
-14.7858

> <Gold.Chemscore.ZeroCoef>
-5.4800

> <Gold.Chemscore.Hbond>
0.8640

> <Gold.Chemscore.Metal>
0.0000

> <Gold.Chemscore.Lipo>
87.3763

> <Gold.Chemscore.Internal_Hbond>
0.0000

> <Gold.Chemscore.DEClash>
0.1277

> <Gold.Chemscore.DEInternal>
3.3033

> <Gold.Chemscore.Rot>
1.4856

> <Gold.Chemscore.Internal.Correction>
   9.000000E+99

> <Gold.Chemscore.Hbonds>
donor molecule, donor type, donor heavy atom, donor atom, acceptor molecule, acceptor atom, score
      L1  H    12    38       P1 10171  0.90

> <Gold.Chemscore.Hbond.Weighted>
-2.8859

> <Gold.Chemscore.Metal.Weighted>
-0.0000

> <Gold.Chemscore.Lipo.Weighted>
-10.2230

> <Gold.Chemscore.Internal_Hbond.Weighted>
0.0000

> <Gold.Chemscore.DEClash.Weighted>
0.1277

> <Gold.Chemscore.DEInternal.Weighted>
3.3033

> <Gold.Chemscore.Rot.Weighted>
3.8031

> <Gold.Chemscore.Internal.Correction.Weighted>
   9.000000E+99

> <Gold.Protein.RotatedTorsions>
[ 6907 6896 6895 6894 ] final   72.24 input  -60.11 | X-H torsion
[ 7974 7965 7964 7962 ] final -133.61 input  175.53 | X-H torsion
[ 8008 7997 7996 7995 ] final  -53.35 input   59.86 | X-H torsion
[ 10167 10162 10161 10158 ] final   34.87 input  -65.29 | X-H torsion
[ 10718 10713 10712 10709 ] final  -28.87 input   66.30 | X-H torsion
[ 10763 10752 10751 10750 ] final  -85.70 input  -60.55 | X-H torsion
[ 11005 11000 10999 10996 ] final   44.25 input  -57.11 | X-H torsion

> <Gold.Protein.ActiveResidues>
 VAL166  LYS551  ARG553  GLY616  TRP617  ASP618  TYR619  PRO620  LYS621  CYS622 
 ASP623  PHE694  ASN695  SER759  ASP760  ASP761  ALA762  ILE779  LEU786  VAL792 
 PHE793  MET794  SER795  GLU796  ALA797  LYS798  CYS799  TRP800  GLU811  SER814 

> <Gold.Protein.RotatedAtoms>
  152.4856  134.4601  159.9602 H   0  0  0  0  0  0  0  0  0  0  0  0  # atno 6907 bound_to 6896
  151.4598  133.3590  159.2815 H   0  0  0  0  0  0  0  0  0  0  0  0  # atno 6908 bound_to 6896
  150.8964  134.8398  159.7390 H   0  0  0  0  0  0  0  0  0  0  0  0  # atno 6909 bound_to 6896
  144.9178  140.6976  143.4985 H   0  0  0  0  0  0  0  0  0  0  0  0  # atno 7974 bound_to 7965
  154.4131  140.1202  156.5140 H   0  0  0  0  0  0  0  0  0  0  0  0  # atno 8008 bound_to 7997
  155.6770  140.3496  155.4821 H   0  0  0  0  0  0  0  0  0  0  0  0  # atno 8009 bound_to 7997
  155.9584  140.1118  157.0907 H   0  0  0  0  0  0  0  0  0  0  0  0  # atno 8010 bound_to 7997
  140.4275  144.1372  150.6155 H   0  0  0  0  0  0  0  0  0  0  0  0  # atno 10167 bound_to 10162
  156.4197  130.4424  149.7192 H   0  0  0  0  0  0  0  0  0  0  0  0  # atno 10718 bound_to 10713
  154.6141  135.5475  153.7504 H   0  0  0  0  0  0  0  0  0  0  0  0  # atno 10763 bound_to 10752
  153.0208  135.6396  154.1536 H   0  0  0  0  0  0  0  0  0  0  0  0  # atno 10764 bound_to 10752
  154.1472  135.2905  155.3125 H   0  0  0  0  0  0  0  0  0  0  0  0  # atno 10765 bound_to 10752
  140.1569  134.4390  155.8343 H   0  0  0  0  0  0  0  0  0  0  0  0  # atno 11005 bound_to 11000
  145.3347  139.1749  143.4518 LP  0  0  0  0  0  0  0  0  0  0  0  0  # atno 17320 bound_to 7965
  146.3190  140.3381  142.8646 LP  0  0  0  0  0  0  0  0  0  0  0  0  # atno 17321 bound_to 7965
  140.4465  143.2504  151.9405 LP  0  0  0  0  0  0  0  0  0  0  0  0  # atno 17342 bound_to 10162
  139.4784  144.5604  151.8248 LP  0  0  0  0  0  0  0  0  0  0  0  0  # atno 17343 bound_to 10162
  156.4138  130.7735  151.2749 LP  0  0  0  0  0  0  0  0  0  0  0  0  # atno 17370 bound_to 10713
  157.7508  131.0203  150.3704 LP  0  0  0  0  0  0  0  0  0  0  0  0  # atno 17371 bound_to 10713
  141.2205  133.6896  156.7524 LP  0  0  0  0  0  0  0  0  0  0  0  0  # atno 17394 bound_to 11000
  140.2536  134.8521  157.3691 LP  0  0  0  0  0  0  0  0  0  0  0  0  # atno 17395 bound_to 11000

$$$$
