#       Name:                AV-unprocessed.smi:1118
#       Creating user name   scv26
#       Creation time:       Fri Mar 27 03:37:07 2020


#       File generated by GOLD software.
#

@<TRIPOS>MOLECULE
AV-unprocessed.smi:1118
    50    51     1
SMALL
NO_CHARGES


@<TRIPOS>ATOM
      1 ****        -4.4265   4.7303   0.8505 C.3            1 S1                 0.0000
      2 ****        -3.8914   3.4233   0.9606 O.3            1 S1                 0.0000
      3 ****        -4.5456   2.4935   0.1123 C.3            1 S1                 0.0000
      4 ****        -3.9178   1.1025   0.3006 C.3            1 S1                 0.0000
      5 ****        -2.4804   1.0219   0.0374 N.3            1 S1                 0.0000
      6 ****        -2.1603   1.2231  -1.3780 C.3            1 S1                 0.0000
      7 ****        -0.6471   1.1877  -1.6522 C.3            1 S1                 0.0000
      8 ****        -0.0254  -0.1358  -1.1689 C.3            1 S1                 0.0000
      9 ****         1.4986  -0.1495  -1.3914 C.3            1 S1                 0.0000
     10 ****         2.0890  -1.4174  -0.9834 N.am           1 S1                 0.0000
     11 ****         3.3677  -1.7622  -1.1909 C.2            1 S1                 0.0000
     12 ****         4.1776  -1.0447  -1.7777 O.2            1 S1                 0.0000
     13 ****         3.8052  -3.1208  -0.6432 C.3            1 S1                 0.0000
     14 ****         4.3260  -2.9906   0.7053 N.pl3          1 S1                 0.0000
     15 ****         5.6081  -2.6696   1.1006 C.2            1 S1                 0.0000
     16 ****         5.6207  -2.6547   2.4659 C.2            1 S1                 0.0000
     17 ****         4.2818  -2.9819   2.8198 C.2            1 S1                 0.0000
     18 ****         3.5090  -3.1828   1.7644 N.2            1 S1                 0.0000
     19 ****        -0.4214  -0.3667   0.3041 C.3            1 S1                 0.0000
     20 ****        -1.9455  -0.2641   0.4828 C.3            1 S1                 0.0000
     21 ****        -3.8915   5.4026   1.5209 H              1 S1                 0.0000
     22 ****        -5.4816   4.7489   1.1266 H              1 S1                 0.0000
     23 ****        -4.3229   5.1142  -0.1652 H              1 S1                 0.0000
     24 ****        -5.6052   2.4475   0.3681 H              1 S1                 0.0000
     25 ****        -4.4868   2.8162  -0.9275 H              1 S1                 0.0000
     26 ****        -4.1054   0.8003   1.3318 H              1 S1                 0.0000
     27 ****        -4.4467   0.3798  -0.3225 H              1 S1                 0.0000
     28 ****        -2.6583   0.4633  -1.9823 H              1 S1                 0.0000
     29 ****        -2.5406   2.1861  -1.7163 H              1 S1                 0.0000
     30 ****        -0.4639   1.3217  -2.7187 H              1 S1                 0.0000
     31 ****        -0.1687   2.0283  -1.1474 H              1 S1                 0.0000
     32 ****        -0.4578  -0.9423  -1.7634 H              1 S1                 0.0000
     33 ****         1.7175   0.0265  -2.4459 H              1 S1                 0.0000
     34 ****         1.9693   0.6585  -0.8290 H              1 S1                 0.0000
     35 ****         1.4937  -2.0641  -0.4861 H              1 S1                 0.0000
     36 ****         2.9706  -3.8240  -0.6470 H              1 S1                 0.0000
     37 ****         4.5830  -3.5430  -1.2806 H              1 S1                 0.0000
     38 ****         6.3941  -2.4782   0.3846 H              1 S1                 0.0000
     39 ****         6.4582  -2.4409   3.1130 H              1 S1                 0.0000
     40 ****         3.8514  -3.0778   3.8057 H              1 S1                 0.0000
     41 ****        -0.0842  -1.3461   0.6443 H              1 S1                 0.0000
     42 ****         0.0705   0.3699   0.9411 H              1 S1                 0.0000
     43 ****        -2.1834  -0.4150   1.5364 H              1 S1                 0.0000
     44 ****        -2.4314  -1.0757  -0.0613 H              1 S1                 0.0000
     45 ****        -3.9880   3.1163   1.9074 LP             1 S1                 0.0000
     46 ****        -2.9220   3.4524   0.7169 LP             1 S1                 0.0000
     47 ****        -2.0520   1.7618   0.5562 LP             1 S1                 0.0000
     48 ****         3.8930  -0.1524  -2.1283 LP             1 S1                 0.0000
     49 ****         5.1201  -1.3540  -1.9038 LP             1 S1                 0.0000
     50 ****         2.5383  -3.4229   1.7532 LP             1 S1                 0.0000
@<TRIPOS>BOND
    1    1    2 1     
    2    1   21 1     
    3    1   22 1     
    4    1   23 1     
    5    2    3 1     
    6    3    4 1     
    7    3   24 1     
    8    3   25 1     
    9    4    5 1     
   10    4   26 1     
   11    4   27 1     
   12    5   20 1     
   13    5    6 1     
   14    6    7 1     
   15    6   28 1     
   16    6   29 1     
   17    7    8 1     
   18    7   30 1     
   19    7   31 1     
   20    8    9 1     
   21    8   19 1     
   22    8   32 1     
   23    9   10 1     
   24    9   33 1     
   25    9   34 1     
   26   10   11 am    
   27   10   35 1     
   28   11   12 2     
   29   11   13 1     
   30   13   14 1     
   31   13   36 1     
   32   13   37 1     
   33   14   18 1     
   34   14   15 1     
   35   15   16 2     
   36   15   38 1     
   37   16   17 1     
   38   16   39 1     
   39   17   18 2     
   40   17   40 1     
   41   19   20 1     
   42   19   41 1     
   43   19   42 1     
   44   20   43 1     
   45   20   44 1     
   46    2   45 1     
   47    2   46 1     
   48    5   47 1     
   49   12   48 1     
   50   12   49 1     
   51   18   50 1     
@<TRIPOS>SUBSTRUCTURE
      1 S1             1
@<TRIPOS>SET
LONE_PAIRS      STATIC     ATOMS    <user>   **** ""
6 45 46 47 48 49 50
DONOR_HYDROGENS      STATIC     ATOMS    <user>   **** ""
1 35
ATOM$BLUE        STATIC     ATOMS    COLORGROUP SYSTEM
6 45 46 47 48 49 50
ATOM$RED        STATIC     ATOMS    COLORGROUP SYSTEM
1 35
