#       Name:                AV-unprocessed.smi:790
#       Creating user name   scv26
#       Creation time:       Fri Mar 27 01:17:37 2020


#       File generated by GOLD software.
#

@<TRIPOS>MOLECULE
AV-unprocessed.smi:790
    43    45     1
SMALL
NO_CHARGES


@<TRIPOS>ATOM
      1 ****        -0.0150   2.2554  -0.3176 O.2            1 S1                 0.0000
      2 ****        -0.4993   1.2401   0.1806 C.2            1 S1                 0.0000
      3 ****        -1.8054   1.0370   0.4245 N.am           1 S1                 0.0000
      4 ****        -2.9000   1.9178   0.2076 C.ar           1 S1                 0.0000
      5 ****        -4.1971   1.3646   0.1995 C.ar           1 S1                 0.0000
      6 ****        -5.3047   2.2111   0.0036 C.ar           1 S1                 0.0000
      7 ****        -5.0715   3.5887  -0.1702 C.ar           1 S1                 0.0000
      8 ****        -3.8389   4.1378  -0.1521 N.ar           1 S1                 0.0000
      9 ****        -2.7805   3.3197   0.0356 C.ar           1 S1                 0.0000
     10 ****         0.2278   0.1701   0.5313 N.am           1 S1                 0.0000
     11 ****         1.6835   0.0584   0.4183 C.3            1 S1                 0.0000
     12 ****         2.2887  -0.8608   1.5085 C.3            1 S1                 0.0000
     13 ****         1.5588  -2.2197   1.5694 C.3            1 S1                 0.0000
     14 ****         1.9954  -2.8937   0.2565 C.3            1 S1                 0.0000
     15 ****         2.9457  -1.8507  -0.3685 C.3            1 S1                 0.0000
     16 ****         3.6129  -1.2751   0.8751 C.3            1 S1                 0.0000
     17 ****         2.1830  -0.6104  -0.8959 C.3            1 S1                 0.0000
     18 ****         1.1394  -0.8789  -2.0039 C.3            1 S1                 0.0000
     19 ****         1.7585  -1.4646  -3.1297 O.3            1 S1                 0.0000
     20 ****        -2.0526   0.1211   0.7698 H              1 S1                 0.0000
     21 ****        -4.3447   0.3035   0.3385 H              1 S1                 0.0000
     22 ****        -6.3090   1.8145  -0.0124 H              1 S1                 0.0000
     23 ****        -5.8970   4.2678  -0.3234 H              1 S1                 0.0000
     24 ****        -1.8273   3.8231   0.0647 H              1 S1                 0.0000
     25 ****        -0.2561  -0.6252   0.9213 H              1 S1                 0.0000
     26 ****         2.1353   1.0482   0.5103 H              1 S1                 0.0000
     27 ****         2.3816  -0.3766   2.4811 H              1 S1                 0.0000
     28 ****         1.9090  -2.8002   2.4241 H              1 S1                 0.0000
     29 ****         0.4760  -2.1363   1.6606 H              1 S1                 0.0000
     30 ****         2.5320  -3.8192   0.4690 H              1 S1                 0.0000
     31 ****         1.1536  -3.1504  -0.3851 H              1 S1                 0.0000
     32 ****         3.6389  -2.2752  -1.0955 H              1 S1                 0.0000
     33 ****         4.2746  -0.4329   0.6643 H              1 S1                 0.0000
     34 ****         4.1599  -2.0184   1.4581 H              1 S1                 0.0000
     35 ****         2.9254   0.0616  -1.3311 H              1 S1                 0.0000
     36 ****         0.3300  -1.5231  -1.6625 H              1 S1                 0.0000
     37 ****         0.6837   0.0586  -2.3228 H              1 S1                 0.0000
     38 ****         1.1059  -1.5861  -3.8024 H              1 S1                 0.0000
     39 ****        -0.6087   3.0170  -0.5772 LP             1 S1                 0.0000
     40 ****         0.9723   2.3189  -0.4629 LP             1 S1                 0.0000
     41 ****        -3.7127   5.1222  -0.2741 LP             1 S1                 0.0000
     42 ****         2.1506  -2.3491  -2.8767 LP             1 S1                 0.0000
     43 ****         2.4826  -0.8632  -3.4672 LP             1 S1                 0.0000
@<TRIPOS>BOND
    1    1    2 2     
    2    2    3 am    
    3    2   10 am    
    4    3    4 1     
    5    3   20 1     
    6    4    9 ar    
    7    4    5 ar    
    8    5    6 ar    
    9    5   21 1     
   10    6    7 ar    
   11    6   22 1     
   12    7    8 ar    
   13    7   23 1     
   14    8    9 ar    
   15    9   24 1     
   16   10   11 1     
   17   10   25 1     
   18   11   17 1     
   19   11   12 1     
   20   11   26 1     
   21   12   16 1     
   22   12   13 1     
   23   12   27 1     
   24   13   14 1     
   25   13   28 1     
   26   13   29 1     
   27   14   15 1     
   28   14   30 1     
   29   14   31 1     
   30   15   16 1     
   31   15   17 1     
   32   15   32 1     
   33   16   33 1     
   34   16   34 1     
   35   17   18 1     
   36   17   35 1     
   37   18   19 1     
   38   18   36 1     
   39   18   37 1     
   40   19   38 1     
   41    1   39 1     
   42    1   40 1     
   43    8   41 1     
   44   19   42 1     
   45   19   43 1     
@<TRIPOS>SUBSTRUCTURE
      1 S1             1
@<TRIPOS>SET
LONE_PAIRS      STATIC     ATOMS    <user>   **** ""
5 39 40 41 42 43
DONOR_HYDROGENS      STATIC     ATOMS    <user>   **** ""
3 20 25 38
ATOM$BLUE        STATIC     ATOMS    COLORGROUP SYSTEM
5 39 40 41 42 43
ATOM$RED        STATIC     ATOMS    COLORGROUP SYSTEM
3 20 25 38
