AV-unprocessed.smi:3343|AV-procd|sdf|12892|dock4
  -GOLD-   2272019303D 1   1.00000     0.00000
 Structure written by MMmdl.
 42 43  0  0  0  0  0  0  0  0  2 V2000
  152.1285  144.0722  157.6940 C   0  0  0  0  0  0  0  0  0  0  0  0
  151.2265  143.5125  158.8093 C   0  0  1  0  0  0  0  0  0  0  0  0
  150.3979  142.3057  158.3466 C   0  0  0  0  0  0  0  0  0  0  0  0
  150.5739  141.1943  158.8482 O   0  0  0  0  0  0  0  0  0  0  0  0
  149.4718  142.5469  157.4056 N   0  0  0  0  0  0  0  0  0  0  0  0
  148.5224  141.5640  156.9004 C   0  0  0  0  0  0  0  0  0  0  0  0
  148.4281  141.6429  155.3652 C   0  0  0  0  0  0  0  0  0  0  0  0
  147.0428  141.6827  154.8913 N   0  0  0  0  0  0  0  0  0  0  0  0
  146.8812  142.0627  153.4827 C   0  0  0  0  0  0  0  0  0  0  0  0
  147.4084  140.9780  152.5193 C   0  0  0  0  0  0  0  0  0  0  0  0
  146.7284  139.6864  152.7724 N   0  3  0  0  0  0  0  0  0  0  0  0
  147.1573  138.6226  151.8396 C   0  0  0  0  0  0  0  0  0  0  0  0
  146.8670  139.2915  154.1934 C   0  0  0  0  0  0  0  0  0  0  0  0
  146.3469  140.4130  155.1189 C   0  0  0  0  0  0  0  0  0  0  0  0
  152.0039  143.1496  159.9861 N   0  0  0  0  0  0  0  0  0  0  0  0
  153.0224  142.2973  160.1341 C   0  0  0  0  0  0  0  0  0  0  0  0
  153.4626  142.1972  161.3804 N   0  0  0  0  0  0  0  0  0  0  0  0
  152.6122  143.0733  161.9931 C   0  0  0  0  0  0  0  0  0  0  0  0
  151.7149  143.6655  161.2048 N   0  0  0  0  0  0  0  0  0  0  0  0
  151.5442  144.3477  156.8154 H   0  0  0  0  0  0  0  0  0  0  0  0
  152.8831  143.3509  157.3782 H   0  0  0  0  0  0  0  0  0  0  0  0
  152.6511  144.9675  158.0322 H   0  0  0  0  0  0  0  0  0  0  0  0
  150.5317  144.3052  159.0946 H   0  0  0  0  0  0  0  0  0  0  0  0
  149.3934  143.4874  157.0454 H   0  0  0  0  0  0  0  0  0  0  0  0
  148.8612  140.5732  157.2047 H   0  0  0  0  0  0  0  0  0  0  0  0
  147.5545  141.7246  157.3759 H   0  0  0  0  0  0  0  0  0  0  0  0
  148.9970  142.4941  154.9935 H   0  0  0  0  0  0  0  0  0  0  0  0
  148.9067  140.7533  154.9529 H   0  0  0  0  0  0  0  0  0  0  0  0
  145.8195  142.2267  153.2932 H   0  0  0  0  0  0  0  0  0  0  0  0
  147.3673  143.0164  153.2819 H   0  0  0  0  0  0  0  0  0  0  0  0
  147.2160  141.2868  151.4914 H   0  0  0  0  0  0  0  0  0  0  0  0
  148.4891  140.8614  152.6088 H   0  0  0  0  0  0  0  0  0  0  0  0
  148.2185  138.4006  151.9598 H   0  0  0  0  0  0  0  0  0  0  0  0
  146.9854  138.9253  150.8063 H   0  0  0  0  0  0  0  0  0  0  0  0
  146.5937  137.7059  152.0165 H   0  0  0  0  0  0  0  0  0  0  0  0
  146.2903  138.3830  154.3701 H   0  0  0  0  0  0  0  0  0  0  0  0
  147.9066  139.0469  154.4163 H   0  0  0  0  0  0  0  0  0  0  0  0
  146.4479  140.1193  156.1644 H   0  0  0  0  0  0  0  0  0  0  0  0
  145.2805  140.5634  154.9463 H   0  0  0  0  0  0  0  0  0  0  0  0
  153.4448  141.7336  159.3149 H   0  0  0  0  0  0  0  0  0  0  0  0
  152.6523  143.2764  163.0532 H   0  0  0  0  0  0  0  0  0  0  0  0
  145.7436  139.8403  152.6097 H   0  0  0  0  0  0  0  0  0  0  0  0
  1  2  1  0  0  0  0
  1 20  1  0  0  0  0
  1 21  1  0  0  0  0
  1 22  1  0  0  0  0
  2  3  1  0  0  0  0
  2 15  1  0  0  0  0
  2 23  1  0  0  0  0
  3  4  2  0  0  0  0
  3  5  1  0  0  0  0
  5  6  1  0  0  0  0
  5 24  1  0  0  0  0
  6  7  1  0  0  0  0
  6 25  1  0  0  0  0
  6 26  1  0  0  0  0
  7  8  1  0  0  0  0
  7 27  1  0  0  0  0
  7 28  1  0  0  0  0
  8 14  1  0  0  0  0
  8  9  1  0  0  0  0
  9 10  1  0  0  0  0
  9 29  1  0  0  0  0
  9 30  1  0  0  0  0
 10 11  1  0  0  0  0
 10 31  1  0  0  0  0
 10 32  1  0  0  0  0
 11 12  1  0  0  0  0
 11 13  1  0  0  0  0
 11 42  1  0  0  0  0
 12 33  1  0  0  0  0
 12 34  1  0  0  0  0
 12 35  1  0  0  0  0
 13 14  1  0  0  0  0
 13 36  1  0  0  0  0
 13 37  1  0  0  0  0
 14 38  1  0  0  0  0
 14 39  1  0  0  0  0
 15 19  1  0  0  0  0
 15 16  1  0  0  0  0
 16 17  2  0  0  0  0
 16 40  1  0  0  0  0
 17 18  1  0  0  0  0
 18 19  2  0  0  0  0
 18 41  1  0  0  0  0
M  CHG  1  11   1
M  END
> <s_m_source_file>
AV-unprocessed.smi

> <i_m_source_file_index>
3343

> <i_lp_mmshare_version>
43012

> <i_f3d_flags>
0

> <s_epik_input>
bjFbY0hdbltjSF1uMVtDQEhdKFtDSDNdKUMoPU8pW05IXVtDSDJdW0NIMl1OMltDSDJdW0NIMl1OKFtDSDNdKVtDSDJdW0NIMl0y

> <s_epik_cmdline>
J2VwaWtfcHl0aG9uJywgJy1waCcsICc3LjAnLCAnLXRuJywgJzgnLCAnLW1hJywgJzIwMCcsICctbWV0YWxfYmluZGluZycsICctaW1hZScsICc8aW5maWxlLm1hZT4nLCAnLW9tYWUnLCAnPG91dGZpbGUubWFlPic=

> <r_lp_tautomer_probability>
1

> <r_epik_Ionization_Penalty>
0.0359277

> <r_epik_Ionization_Penalty_Charging>
0.0358005

> <r_epik_Ionization_Penalty_Neutral>
0.000127293

> <r_epik_State_Penalty>
0.0476325

> <r_epik_Charging_Adjusted_Penalty>
0.0834329

> <i_epik_Tot_Q>
1

> <i_epik_Tot_abs_Q>
1

> <r_epik_Metal_State_Penalty>
0.0476323

> <b_epik_Metal_Only>
0

> <s_lp_Force_Field>
OPLS_2005

> <r_lp_Energy>
19.669

> <b_lp_Chiralities_Consistent>
1

> <s_lp_Variant>
AV-unprocessed.smi:3343-2

> <Gold.Version>
5.8.1

> <Gold.Id.Protein>
6NUR|6NUR_protein|mol2

> <Gold.PLP.Fitness>
43.9252

> <Gold.PLP.PLP>
-36.2817

> <Gold.PLP.part.hbond>
-2.4798

> <Gold.PLP.part.metal>
0.0000

> <Gold.PLP.part.buried>
-4.3163

> <Gold.PLP.part.nonpolar>
-28.5077

> <Gold.PLP.part.repulsive>
0.3115

> <Gold.PLP.ligand.clash>
0.0000

> <Gold.PLP.ligand.torsion>
0.6923

> <Gold.PLP.Chemscore.Hbond>
2.9760

> <Gold.PLP.Chemscore.CHOScore>
0.0000

> <Gold.PLP.Chemscore.Metal>
0.0000

> <Gold.Chemscore.Hbonds>
donor molecule, donor type, donor heavy atom, donor atom, acceptor molecule, acceptor atom, score
      L1  H     5    24       P1  8028  1.00
      L1  H    11    42       P1 10175  1.37

> <Gold.PLP.Chemscore.Internal.Correction>
0.1001

> <Gold.Rescore>
     Score         DG    S(hbond)    S(metal)    S(lipo)     H(rot)  DE(clash)    DE(int)     intcor
     10.26     -12.04       1.89        0.00      59.66       2.63       0.17       1.61       ----

> <Gold.Chemscore.Fitness>
10.2646

> <Gold.Chemscore.DG>
-12.0367

> <Gold.Chemscore.ZeroCoef>
-5.4800

> <Gold.Chemscore.Hbond>
1.8872

> <Gold.Chemscore.Metal>
0.0000

> <Gold.Chemscore.Lipo>
59.6642

> <Gold.Chemscore.Internal_Hbond>
0.0000

> <Gold.Chemscore.DEClash>
0.1654

> <Gold.Chemscore.DEInternal>
1.6068

> <Gold.Chemscore.Rot>
2.6278

> <Gold.Chemscore.Internal.Correction>
   9.000000E+99

> <Gold.Chemscore.Hbonds>
donor molecule, donor type, donor heavy atom, donor atom, acceptor molecule, acceptor atom, score
      L1  H     5    24       P1  8028  0.85
      L1  H    11    42       P1 10175  0.67

> <Gold.Chemscore.Hbond.Weighted>
-6.3031

> <Gold.Chemscore.Metal.Weighted>
-0.0000

> <Gold.Chemscore.Lipo.Weighted>
-6.9807

> <Gold.Chemscore.Internal_Hbond.Weighted>
0.0000

> <Gold.Chemscore.DEClash.Weighted>
0.1654

> <Gold.Chemscore.DEInternal.Weighted>
1.6068

> <Gold.Chemscore.Rot.Weighted>
6.7271

> <Gold.Chemscore.Internal.Correction.Weighted>
   9.000000E+99

> <Gold.Protein.RotatedTorsions>
[ 6907 6896 6895 6894 ] final  130.10 input  -60.11 | X-H torsion
[ 7974 7965 7964 7962 ] final  152.19 input  175.53 | X-H torsion
[ 8008 7997 7996 7995 ] final  -35.07 input   59.86 | X-H torsion
[ 10167 10162 10161 10158 ] final -119.00 input  -65.29 | X-H torsion
[ 10718 10713 10712 10709 ] final   16.75 input   66.30 | X-H torsion
[ 10763 10752 10751 10750 ] final  159.29 input  -60.55 | X-H torsion
[ 11005 11000 10999 10996 ] final  174.60 input  -57.11 | X-H torsion

> <Gold.Protein.ActiveResidues>
 VAL166  LYS551  ARG553  GLY616  TRP617  ASP618  TYR619  PRO620  LYS621  CYS622 
 ASP623  PHE694  ASN695  SER759  ASP760  ASP761  ALA762  ILE779  LEU786  VAL792 
 PHE793  MET794  SER795  GLU796  ALA797  LYS798  CYS799  TRP800  GLU811  SER814 

> <Gold.Protein.RotatedAtoms>
  152.3560  133.6237  159.5979 H   0  0  0  0  0  0  0  0  0  0  0  0  # atno 6907 bound_to 6896
  150.7569  133.9500  159.3491 H   0  0  0  0  0  0  0  0  0  0  0  0  # atno 6908 bound_to 6896
  151.7345  135.0868  160.0356 H   0  0  0  0  0  0  0  0  0  0  0  0  # atno 6909 bound_to 6896
  144.8240  139.6636  143.6088 H   0  0  0  0  0  0  0  0  0  0  0  0  # atno 7974 bound_to 7965
  154.4104  140.1667  156.2152 H   0  0  0  0  0  0  0  0  0  0  0  0  # atno 8008 bound_to 7997
  155.9411  140.3408  155.6305 H   0  0  0  0  0  0  0  0  0  0  0  0  # atno 8009 bound_to 7997
  155.6988  140.0742  157.2409 H   0  0  0  0  0  0  0  0  0  0  0  0  # atno 8010 bound_to 7997
  140.0514  143.5056  152.2080 H   0  0  0  0  0  0  0  0  0  0  0  0  # atno 10167 bound_to 10162
  157.0723  130.6353  149.5808 H   0  0  0  0  0  0  0  0  0  0  0  0  # atno 10718 bound_to 10713
  154.2294  135.2779  155.2895 H   0  0  0  0  0  0  0  0  0  0  0  0  # atno 10763 bound_to 10752
  154.5636  135.5639  153.7033 H   0  0  0  0  0  0  0  0  0  0  0  0  # atno 10764 bound_to 10752
  153.0023  135.6304  154.2435 H   0  0  0  0  0  0  0  0  0  0  0  0  # atno 10765 bound_to 10752
  140.3531  134.7178  157.4281 H   0  0  0  0  0  0  0  0  0  0  0  0  # atno 11005 bound_to 11000
  146.2545  139.6272  142.9404 LP  0  0  0  0  0  0  0  0  0  0  0  0  # atno 17320 bound_to 7965
  145.5042  141.0437  143.2523 LP  0  0  0  0  0  0  0  0  0  0  0  0  # atno 17321 bound_to 7965
  139.5951  144.7564  151.3307 LP  0  0  0  0  0  0  0  0  0  0  0  0  # atno 17342 bound_to 10162
  140.7215  143.7123  150.7760 LP  0  0  0  0  0  0  0  0  0  0  0  0  # atno 17343 bound_to 10162
  155.9947  130.5011  150.7429 LP  0  0  0  0  0  0  0  0  0  0  0  0  # atno 17370 bound_to 10713
  157.4867  131.0907  151.0474 LP  0  0  0  0  0  0  0  0  0  0  0  0  # atno 17371 bound_to 10713
  140.0687  134.5893  155.8666 LP  0  0  0  0  0  0  0  0  0  0  0  0  # atno 17394 bound_to 11000
  141.2006  133.6613  156.5907 LP  0  0  0  0  0  0  0  0  0  0  0  0  # atno 17395 bound_to 11000

$$$$
