AV-unprocessed.smi:2712|AV-procd|sdf|10475|dock8
  -GOLD-   2272014513D 1   1.00000     0.00000
 Structure written by MMmdl.
 52 53  0  0  0  0  0  0  0  0  1 V2000
  147.7922  141.1026  154.2105 C   0  0  0  0  0  0  0  0  0  0  0  0
  149.1485  140.7367  154.7364 C   0  0  0  0  0  0  0  0  0  0  0  0
  149.9227  141.6102  155.5974 C   0  0  0  0  0  0  0  0  0  0  0  0
  151.1377  141.2080  156.0276 C   0  0  0  0  0  0  0  0  0  0  0  0
  151.6971  139.9122  155.6481 C   0  0  0  0  0  0  0  0  0  0  0  0
  152.8016  139.5179  156.0220 O   0  0  0  0  0  0  0  0  0  0  0  0
  150.8806  139.1785  154.8344 N   0  0  0  0  0  0  0  0  0  0  0  0
  151.2876  137.8580  154.3323 C   0  0  0  0  0  0  0  0  0  0  0  0
  150.6062  136.6867  155.0561 C   0  0  0  0  0  0  0  0  0  0  0  0
  149.9851  136.8599  156.1060 O   0  0  0  0  0  0  0  0  0  0  0  0
  150.7412  135.4843  154.4751 N   0  0  0  0  0  0  0  0  0  0  0  0
  150.1879  134.2290  154.9801 C   0  0  1  0  0  0  0  0  0  0  0  0
  150.5196  134.1068  156.4790 C   0  0  0  0  0  0  0  0  0  0  0  0
  149.6968  133.0502  157.2313 C   0  0  0  0  0  0  0  0  0  0  0  0
  148.3779  133.6042  157.8041 C   0  0  0  0  0  0  0  0  0  0  0  0
  147.2411  133.8832  156.7808 C   0  0  1  0  0  0  0  0  0  0  0  0
  145.9099  134.3877  157.4526 C   0  0  0  0  0  0  0  0  0  0  0  0
  146.1249  135.6948  158.2464 C   0  0  0  0  0  0  0  0  0  0  0  0
  145.3338  133.3240  158.4161 C   0  0  0  0  0  0  0  0  0  0  0  0
  144.8177  134.6352  156.3844 C   0  0  0  0  0  0  0  0  0  0  0  0
  147.7254  134.7991  155.6201 C   0  0  0  0  0  0  0  0  0  0  0  0
  148.6862  134.1027  154.6399 C   0  0  0  0  0  0  0  0  0  0  0  0
  149.6323  139.5878  154.3947 N   0  0  0  0  0  0  0  0  0  0  0  0
  147.4556  142.0571  154.6154 H   0  0  0  0  0  0  0  0  0  0  0  0
  147.0533  140.3471  154.4794 H   0  0  0  0  0  0  0  0  0  0  0  0
  147.8090  141.1877  153.1234 H   0  0  0  0  0  0  0  0  0  0  0  0
  149.5245  142.5719  155.8855 H   0  0  0  0  0  0  0  0  0  0  0  0
  151.7140  141.8602  156.6673 H   0  0  0  0  0  0  0  0  0  0  0  0
  151.0865  137.7767  153.2627 H   0  0  0  0  0  0  0  0  0  0  0  0
  152.3687  137.7437  154.4338 H   0  0  0  0  0  0  0  0  0  0  0  0
  151.2666  135.4334  153.6143 H   0  0  0  0  0  0  0  0  0  0  0  0
  150.6994  133.4106  154.4698 H   0  0  0  0  0  0  0  0  0  0  0  0
  151.5784  133.8609  156.5702 H   0  0  0  0  0  0  0  0  0  0  0  0
  150.4054  135.0710  156.9769 H   0  0  0  0  0  0  0  0  0  0  0  0
  149.5211  132.1697  156.6124 H   0  0  0  0  0  0  0  0  0  0  0  0
  150.2964  132.7013  158.0728 H   0  0  0  0  0  0  0  0  0  0  0  0
  148.0371  132.8622  158.5244 H   0  0  0  0  0  0  0  0  0  0  0  0
  148.5932  134.5015  158.3835 H   0  0  0  0  0  0  0  0  0  0  0  0
  146.9961  132.9168  156.3377 H   0  0  0  0  0  0  0  0  0  0  0  0
  145.1968  136.0256  158.7141 H   0  0  0  0  0  0  0  0  0  0  0  0
  146.4650  136.5092  157.6070 H   0  0  0  0  0  0  0  0  0  0  0  0
  146.8571  135.5725  159.0440 H   0  0  0  0  0  0  0  0  0  0  0  0
  145.9487  133.1974  159.3069 H   0  0  0  0  0  0  0  0  0  0  0  0
  145.2415  132.3527  157.9289 H   0  0  0  0  0  0  0  0  0  0  0  0
  144.3412  133.6035  158.7716 H   0  0  0  0  0  0  0  0  0  0  0  0
  143.8528  134.8467  156.8467 H   0  0  0  0  0  0  0  0  0  0  0  0
  144.6826  133.7642  155.7421 H   0  0  0  0  0  0  0  0  0  0  0  0
  145.0347  135.4896  155.7455 H   0  0  0  0  0  0  0  0  0  0  0  0
  146.8767  135.1196  155.0217 H   0  0  0  0  0  0  0  0  0  0  0  0
  148.1681  135.7191  156.0029 H   0  0  0  0  0  0  0  0  0  0  0  0
  148.5127  134.4964  153.6375 H   0  0  0  0  0  0  0  0  0  0  0  0
  148.4215  133.0479  154.5623 H   0  0  0  0  0  0  0  0  0  0  0  0
  1  2  1  0  0  0  0
  1 24  1  0  0  0  0
  1 25  1  0  0  0  0
  1 26  1  0  0  0  0
  2 23  2  0  0  0  0
  2  3  1  0  0  0  0
  3  4  2  0  0  0  0
  3 27  1  0  0  0  0
  4  5  1  0  0  0  0
  4 28  1  0  0  0  0
  5  6  2  0  0  0  0
  5  7  1  0  0  0  0
  7  8  1  0  0  0  0
  7 23  1  0  0  0  0
  8  9  1  0  0  0  0
  8 29  1  0  0  0  0
  8 30  1  0  0  0  0
  9 10  2  0  0  0  0
  9 11  1  0  0  0  0
 11 12  1  0  0  0  0
 11 31  1  0  0  0  0
 12 22  1  0  0  0  0
 12 13  1  0  0  0  0
 12 32  1  0  0  0  0
 13 14  1  0  0  0  0
 13 33  1  0  0  0  0
 13 34  1  0  0  0  0
 14 15  1  0  0  0  0
 14 35  1  0  0  0  0
 14 36  1  0  0  0  0
 15 16  1  0  0  0  0
 15 37  1  0  0  0  0
 15 38  1  0  0  0  0
 16 17  1  0  0  0  0
 16 21  1  0  0  0  0
 16 39  1  0  0  0  0
 17 18  1  0  0  0  0
 17 19  1  0  0  0  0
 17 20  1  0  0  0  0
 18 40  1  0  0  0  0
 18 41  1  0  0  0  0
 18 42  1  0  0  0  0
 19 43  1  0  0  0  0
 19 44  1  0  0  0  0
 19 45  1  0  0  0  0
 20 46  1  0  0  0  0
 20 47  1  0  0  0  0
 20 48  1  0  0  0  0
 21 22  1  0  0  0  0
 21 49  1  0  0  0  0
 21 50  1  0  0  0  0
 22 51  1  0  0  0  0
 22 52  1  0  0  0  0
M  END
> <s_m_source_file>
AV-unprocessed.smi

> <i_m_source_file_index>
2712

> <i_lp_mmshare_version>
43012

> <i_f3d_flags>
0

> <s_epik_input>
W0NIM11jMVtjSF1bY0hdYyg9TyluKG4xKVtDSDJdQyg9TylbTkhdW0NAQEhdMltDSDJdW0NIMl1bQ0gyXVtDQEBIXShDKFtDSDNdKShbQ0gzXSlbQ0gzXSlbQ0gyXVtDSDJdMg==

> <s_epik_cmdline>
J2VwaWtfcHl0aG9uJywgJy1waCcsICc3LjAnLCAnLXRuJywgJzgnLCAnLW1hJywgJzIwMCcsICctbWV0YWxfYmluZGluZycsICctaW1hZScsICc8aW5maWxlLm1hZT4nLCAnLW9tYWUnLCAnPG91dGZpbGUubWFlPic=

> <r_lp_tautomer_probability>
1

> <r_epik_Ionization_Penalty>
8.71758e-07

> <r_epik_Ionization_Penalty_Charging>
8.50442e-07

> <r_epik_Ionization_Penalty_Neutral>
2.13165e-08

> <r_epik_State_Penalty>
-0

> <r_epik_Charging_Adjusted_Penalty>
8.50442e-07

> <i_epik_Tot_Q>
0

> <i_epik_Tot_abs_Q>
0

> <r_epik_Metal_State_Penalty>
-0

> <b_epik_Metal_Only>
0

> <s_lp_Force_Field>
OPLS_2005

> <r_lp_Energy>
40.0092

> <b_lp_Chiralities_Consistent>
1

> <s_lp_Variant>
AV-unprocessed.smi:2712-2

> <Gold.Version>
5.8.1

> <Gold.Id.Protein>
6NUR|6NUR_protein|mol2

> <Gold.PLP.Fitness>
36.1421

> <Gold.PLP.PLP>
-32.4297

> <Gold.PLP.part.hbond>
-3.0000

> <Gold.PLP.part.metal>
0.0000

> <Gold.PLP.part.buried>
-2.0300

> <Gold.PLP.part.nonpolar>
-27.5126

> <Gold.PLP.part.repulsive>
0.9291

> <Gold.PLP.ligand.clash>
0.0000

> <Gold.PLP.ligand.torsion>
0.6228

> <Gold.PLP.Chemscore.Hbond>
1.6243

> <Gold.PLP.Chemscore.CHOScore>
0.0000

> <Gold.PLP.Chemscore.Metal>
0.0000

> <Gold.Chemscore.Hbonds>
donor molecule, donor type, donor heavy atom, donor atom, acceptor molecule, acceptor atom, score
      L1  H    11    31       P1  7949  0.54
      P1  H  7997  8008       L1     6  1.00

> <Gold.PLP.Chemscore.Internal.Correction>
0.0853

> <Gold.Rescore>
     Score         DG    S(hbond)    S(metal)    S(lipo)     H(rot)  DE(clash)    DE(int)     intcor
     11.14     -13.24       1.38        0.00      60.16       1.52       0.26       1.83       ----

> <Gold.Chemscore.Fitness>
11.1438

> <Gold.Chemscore.DG>
-13.2430

> <Gold.Chemscore.ZeroCoef>
-5.4800

> <Gold.Chemscore.Hbond>
1.3791

> <Gold.Chemscore.Metal>
0.0000

> <Gold.Chemscore.Lipo>
60.1570

> <Gold.Chemscore.Internal_Hbond>
0.0000

> <Gold.Chemscore.DEClash>
0.2645

> <Gold.Chemscore.DEInternal>
1.8347

> <Gold.Chemscore.Rot>
1.5162

> <Gold.Chemscore.Internal.Correction>
   9.000000E+99

> <Gold.Chemscore.Hbonds>
donor molecule, donor type, donor heavy atom, donor atom, acceptor molecule, acceptor atom, score
      L1  H    11    31       P1  7949  0.18
      P1  H  7997  8008       L1     6  1.00

> <Gold.Chemscore.Hbond.Weighted>
-4.6061

> <Gold.Chemscore.Metal.Weighted>
-0.0000

> <Gold.Chemscore.Lipo.Weighted>
-7.0384

> <Gold.Chemscore.Internal_Hbond.Weighted>
0.0000

> <Gold.Chemscore.DEClash.Weighted>
0.2645

> <Gold.Chemscore.DEInternal.Weighted>
1.8347

> <Gold.Chemscore.Rot.Weighted>
3.8814

> <Gold.Chemscore.Internal.Correction.Weighted>
   9.000000E+99

> <Gold.Protein.RotatedTorsions>
[ 6907 6896 6895 6894 ] final  -12.55 input  -60.11 | X-H torsion
[ 7974 7965 7964 7962 ] final  -68.66 input  175.53 | X-H torsion
[ 8008 7997 7996 7995 ] final  -38.43 input   59.86 | X-H torsion
[ 10167 10162 10161 10158 ] final -178.05 input  -65.29 | X-H torsion
[ 10718 10713 10712 10709 ] final  -73.41 input   66.30 | X-H torsion
[ 10763 10752 10751 10750 ] final   87.87 input  -60.55 | X-H torsion
[ 11005 11000 10999 10996 ] final  -85.91 input  -57.11 | X-H torsion

> <Gold.Protein.ActiveResidues>
 VAL166  LYS551  ARG553  GLY616  TRP617  ASP618  TYR619  PRO620  LYS621  CYS622 
 ASP623  PHE694  ASN695  SER759  ASP760  ASP761  ALA762  ILE779  LEU786  VAL792 
 PHE793  MET794  SER795  GLU796  ALA797  LYS798  CYS799  TRP800  GLU811  SER814 

> <Gold.Protein.RotatedAtoms>
  151.3688  135.0918  159.9458 H   0  0  0  0  0  0  0  0  0  0  0  0  # atno 6907 bound_to 6896
  152.5141  133.9185  159.7533 H   0  0  0  0  0  0  0  0  0  0  0  0  # atno 6908 bound_to 6896
  150.9594  133.6407  159.2786 H   0  0  0  0  0  0  0  0  0  0  0  0  # atno 6909 bound_to 6896
  145.7137  140.9068  143.0667 H   0  0  0  0  0  0  0  0  0  0  0  0  # atno 7974 bound_to 7965
  154.4037  140.1578  156.2699 H   0  0  0  0  0  0  0  0  0  0  0  0  # atno 8008 bound_to 7997
  155.8962  140.3436  155.5970 H   0  0  0  0  0  0  0  0  0  0  0  0  # atno 8009 bound_to 7997
  155.7501  140.0804  157.2196 H   0  0  0  0  0  0  0  0  0  0  0  0  # atno 8010 bound_to 7997
  139.5450  144.2259  152.0971 H   0  0  0  0  0  0  0  0  0  0  0  0  # atno 10167 bound_to 10162
  156.0281  130.4393  150.2738 H   0  0  0  0  0  0  0  0  0  0  0  0  # atno 10718 bound_to 10713
  153.1711  135.4528  154.9904 H   0  0  0  0  0  0  0  0  0  0  0  0  # atno 10763 bound_to 10752
  154.7966  135.3240  154.7653 H   0  0  0  0  0  0  0  0  0  0  0  0  # atno 10764 bound_to 10752
  153.8129  135.6953  153.4893 H   0  0  0  0  0  0  0  0  0  0  0  0  # atno 10765 bound_to 10752
  141.1636  133.7425  156.9084 H   0  0  0  0  0  0  0  0  0  0  0  0  # atno 11005 bound_to 11000
  144.6935  139.9108  143.7463 LP  0  0  0  0  0  0  0  0  0  0  0  0  # atno 17320 bound_to 7965
  146.0689  139.3679  143.0535 LP  0  0  0  0  0  0  0  0  0  0  0  0  # atno 17321 bound_to 7965
  140.1744  144.4905  150.6562 LP  0  0  0  0  0  0  0  0  0  0  0  0  # atno 17342 bound_to 10162
  140.6695  143.2280  151.5659 LP  0  0  0  0  0  0  0  0  0  0  0  0  # atno 17343 bound_to 10162
  157.0841  131.0151  151.3145 LP  0  0  0  0  0  0  0  0  0  0  0  0  # atno 17370 bound_to 10713
  157.4904  130.7819  149.7502 LP  0  0  0  0  0  0  0  0  0  0  0  0  # atno 17371 bound_to 10713
  140.1534  134.9215  157.2622 LP  0  0  0  0  0  0  0  0  0  0  0  0  # atno 17394 bound_to 11000
  140.2696  134.3475  155.7378 LP  0  0  0  0  0  0  0  0  0  0  0  0  # atno 17395 bound_to 11000

$$$$
