AV-unprocessed.smi:2945|AV-procd|sdf|11277|dock7
  -GOLD-   2272016173D 1   1.00000     0.00000
 Structure written by MMmdl.
 36 37  0  0  0  0  0  0  0  0  1 V2000
  154.3368  135.6630  161.7128 C   0  0  0  0  0  0  0  0  0  0  0  0
  153.7118  136.7210  160.8694 C   0  0  0  0  0  0  0  0  0  0  0  0
  153.5903  138.0745  161.0132 C   0  0  0  0  0  0  0  0  0  0  0  0
  152.8812  138.4580  159.8439 C   0  0  0  0  0  0  0  0  0  0  0  0
  152.5447  139.8156  159.6111 N   0  0  0  0  0  0  0  0  0  0  0  0
  153.2721  140.9048  159.9113 C   0  0  0  0  0  0  0  0  0  0  0  0
  154.3707  140.8926  160.4670 O   0  0  0  0  0  0  0  0  0  0  0  0
  152.6415  142.0249  159.5278 N   0  0  0  0  0  0  0  0  0  0  0  0
  153.1368  143.3944  159.6827 C   0  0  1  0  0  0  0  0  0  0  0  0
  153.1466  144.1025  158.3128 C   0  0  0  0  0  0  0  0  0  0  0  0
  151.7260  144.3916  157.7976 C   0  0  0  0  0  0  0  0  0  0  0  0
  150.9134  145.1914  158.8268 C   0  0  0  0  0  0  0  0  0  0  0  0
  150.8805  144.4806  160.1895 C   0  0  0  0  0  0  0  0  0  0  0  0
  152.3026  144.1948  160.7155 C   0  0  1  0  0  0  0  0  0  0  0  0
  152.2704  143.5356  162.1050 C   0  0  0  0  0  0  0  0  0  0  0  0
  152.5973  137.4322  159.0564 N   0  0  0  0  0  0  0  0  0  0  0  0
  153.1286  136.3136  159.7094 O   0  0  0  0  0  0  0  0  0  0  0  0
  154.6904  136.0758  162.6578 H   0  0  0  0  0  0  0  0  0  0  0  0
  155.1876  135.2134  161.2005 H   0  0  0  0  0  0  0  0  0  0  0  0
  153.6200  134.8731  161.9372 H   0  0  0  0  0  0  0  0  0  0  0  0
  153.9497  138.6878  161.8260 H   0  0  0  0  0  0  0  0  0  0  0  0
  151.6572  139.9747  159.1583 H   0  0  0  0  0  0  0  0  0  0  0  0
  151.7405  141.9261  159.0837 H   0  0  0  0  0  0  0  0  0  0  0  0
  154.1693  143.3653  160.0353 H   0  0  0  0  0  0  0  0  0  0  0  0
  153.6900  145.0441  158.4016 H   0  0  0  0  0  0  0  0  0  0  0  0
  153.6948  143.5054  157.5830 H   0  0  0  0  0  0  0  0  0  0  0  0
  151.7779  144.9420  156.8579 H   0  0  0  0  0  0  0  0  0  0  0  0
  151.2143  143.4545  157.5755 H   0  0  0  0  0  0  0  0  0  0  0  0
  151.3496  146.1843  158.9435 H   0  0  0  0  0  0  0  0  0  0  0  0
  149.8972  145.3419  158.4613 H   0  0  0  0  0  0  0  0  0  0  0  0
  150.3365  145.0975  160.9056 H   0  0  0  0  0  0  0  0  0  0  0  0
  150.3201  143.5490  160.1021 H   0  0  0  0  0  0  0  0  0  0  0  0
  152.7967  145.1594  160.8421 H   0  0  0  0  0  0  0  0  0  0  0  0
  151.7359  142.5855  162.0902 H   0  0  0  0  0  0  0  0  0  0  0  0
  151.7738  144.1797  162.8309 H   0  0  0  0  0  0  0  0  0  0  0  0
  153.2795  143.3448  162.4708 H   0  0  0  0  0  0  0  0  0  0  0  0
  1  2  1  0  0  0  0
  1 18  1  0  0  0  0
  1 19  1  0  0  0  0
  1 20  1  0  0  0  0
  2 17  1  0  0  0  0
  2  3  2  0  0  0  0
  3  4  1  0  0  0  0
  3 21  1  0  0  0  0
  4  5  1  0  0  0  0
  4 16  2  0  0  0  0
  5  6  1  0  0  0  0
  5 22  1  0  0  0  0
  6  7  2  0  0  0  0
  6  8  1  0  0  0  0
  8  9  1  0  0  0  0
  8 23  1  0  0  0  0
  9 14  1  0  0  0  0
  9 10  1  0  0  0  0
  9 24  1  0  0  0  0
 10 11  1  0  0  0  0
 10 25  1  0  0  0  0
 10 26  1  0  0  0  0
 11 12  1  0  0  0  0
 11 27  1  0  0  0  0
 11 28  1  0  0  0  0
 12 13  1  0  0  0  0
 12 29  1  0  0  0  0
 12 30  1  0  0  0  0
 13 14  1  0  0  0  0
 13 31  1  0  0  0  0
 13 32  1  0  0  0  0
 14 15  1  0  0  0  0
 14 33  1  0  0  0  0
 15 34  1  0  0  0  0
 15 35  1  0  0  0  0
 15 36  1  0  0  0  0
 16 17  1  0  0  0  0
M  END
> <s_m_source_file>
AV-unprocessed.smi

> <i_m_source_file_index>
2945

> <i_lp_mmshare_version>
43012

> <i_f3d_flags>
0

> <s_epik_input>
W0NIM11jMVtjSF1jKG5vMSlbTkhdQyg9TylbTkhdW0NAQEhdMltDSDJdW0NIMl1bQ0gyXVtDSDJdW0NASF0yW0NIM10=

> <s_epik_cmdline>
J2VwaWtfcHl0aG9uJywgJy1waCcsICc3LjAnLCAnLXRuJywgJzgnLCAnLW1hJywgJzIwMCcsICctbWV0YWxfYmluZGluZycsICctaW1hZScsICc8aW5maWxlLm1hZT4nLCAnLW9tYWUnLCAnPG91dGZpbGUubWFlPic=

> <r_lp_tautomer_probability>
1

> <r_epik_Ionization_Penalty>
2.357e-05

> <r_epik_Ionization_Penalty_Charging>
0

> <r_epik_Ionization_Penalty_Neutral>
2.357e-05

> <r_epik_State_Penalty>
-0

> <r_epik_Charging_Adjusted_Penalty>
0

> <i_epik_Tot_Q>
0

> <i_epik_Tot_abs_Q>
0

> <r_epik_Metal_State_Penalty>
-0

> <b_epik_Metal_Only>
0

> <s_lp_Force_Field>
OPLS_2005

> <r_lp_Energy>
7.46694

> <b_lp_Chiralities_Consistent>
1

> <s_lp_Variant>
AV-unprocessed.smi:2945-2

> <Gold.Version>
5.8.1

> <Gold.Id.Protein>
6NUR|6NUR_protein|mol2

> <Gold.PLP.Fitness>
38.6986

> <Gold.PLP.PLP>
-36.3100

> <Gold.PLP.part.hbond>
-1.0000

> <Gold.PLP.part.metal>
0.0000

> <Gold.PLP.part.buried>
-6.4051

> <Gold.PLP.part.nonpolar>
-29.1552

> <Gold.PLP.part.repulsive>
0.2066

> <Gold.PLP.ligand.clash>
0.0000

> <Gold.PLP.ligand.torsion>
0.3091

> <Gold.PLP.Chemscore.Hbond>
1.0000

> <Gold.PLP.Chemscore.CHOScore>
0.0000

> <Gold.PLP.Chemscore.Metal>
0.0000

> <Gold.Chemscore.Hbonds>
donor molecule, donor type, donor heavy atom, donor atom, acceptor molecule, acceptor atom, score
      P1  H  6896  6909       L1    17  1.00

> <Gold.PLP.Chemscore.Internal.Correction>
0.0068

> <Gold.Rescore>
     Score         DG    S(hbond)    S(metal)    S(lipo)     H(rot)  DE(clash)    DE(int)     intcor
     17.09     -18.45       0.91        0.00     106.68       1.00       0.29       1.07       ----

> <Gold.Chemscore.Fitness>
17.0861

> <Gold.Chemscore.DG>
-18.4496

> <Gold.Chemscore.ZeroCoef>
-5.4800

> <Gold.Chemscore.Hbond>
0.9127

> <Gold.Chemscore.Metal>
0.0000

> <Gold.Chemscore.Lipo>
106.6769

> <Gold.Chemscore.Internal_Hbond>
0.0000

> <Gold.Chemscore.DEClash>
0.2938

> <Gold.Chemscore.DEInternal>
1.0697

> <Gold.Chemscore.Rot>
1.0000

> <Gold.Chemscore.Internal.Correction>
   9.000000E+99

> <Gold.Chemscore.Hbonds>
donor molecule, donor type, donor heavy atom, donor atom, acceptor molecule, acceptor atom, score
      P1  H  6896  6909       L1    17  0.64

> <Gold.Chemscore.Hbond.Weighted>
-3.0484

> <Gold.Chemscore.Metal.Weighted>
-0.0000

> <Gold.Chemscore.Lipo.Weighted>
-12.4812

> <Gold.Chemscore.Internal_Hbond.Weighted>
0.0000

> <Gold.Chemscore.DEClash.Weighted>
0.2938

> <Gold.Chemscore.DEInternal.Weighted>
1.0697

> <Gold.Chemscore.Rot.Weighted>
2.5600

> <Gold.Chemscore.Internal.Correction.Weighted>
   9.000000E+99

> <Gold.Protein.RotatedTorsions>
[ 6907 6896 6895 6894 ] final  158.49 input  -60.11 | X-H torsion
[ 7974 7965 7964 7962 ] final  143.19 input  175.53 | X-H torsion
[ 8008 7997 7996 7995 ] final  -61.21 input   59.86 | X-H torsion
[ 10167 10162 10161 10158 ] final  104.02 input  -65.29 | X-H torsion
[ 10718 10713 10712 10709 ] final  173.69 input   66.30 | X-H torsion
[ 10763 10752 10751 10750 ] final  173.49 input  -60.55 | X-H torsion
[ 11005 11000 10999 10996 ] final  105.02 input  -57.11 | X-H torsion

> <Gold.Protein.ActiveResidues>
 VAL166  LYS551  ARG553  GLY616  TRP617  ASP618  TYR619  PRO620  LYS621  CYS622 
 ASP623  PHE694  ASN695  SER759  ASP760  ASP761  ALA762  ILE779  LEU786  VAL792 
 PHE793  MET794  SER795  GLU796  ALA797  LYS798  CYS799  TRP800  GLU811  SER814 

> <Gold.Protein.RotatedAtoms>
  151.9997  133.3821  159.4176 H   0  0  0  0  0  0  0  0  0  0  0  0  # atno 6907 bound_to 6896
  150.6911  134.3847  159.5059 H   0  0  0  0  0  0  0  0  0  0  0  0  # atno 6908 bound_to 6896
  152.1593  134.8925  160.0593 H   0  0  0  0  0  0  0  0  0  0  0  0  # atno 6909 bound_to 6896
  144.8942  139.5514  143.5784 H   0  0  0  0  0  0  0  0  0  0  0  0  # atno 7974 bound_to 7965
  154.4437  140.1022  156.6395 H   0  0  0  0  0  0  0  0  0  0  0  0  # atno 8008 bound_to 7997
  155.5517  140.3486  155.4451 H   0  0  0  0  0  0  0  0  0  0  0  0  # atno 8009 bound_to 7997
  156.0524  140.1307  157.0024 H   0  0  0  0  0  0  0  0  0  0  0  0  # atno 8010 bound_to 7997
  139.7213  144.7057  151.0868 H   0  0  0  0  0  0  0  0  0  0  0  0  # atno 10167 bound_to 10162
  156.9606  131.0059  151.2928 H   0  0  0  0  0  0  0  0  0  0  0  0  # atno 10718 bound_to 10713
  154.4408  135.2762  155.1849 H   0  0  0  0  0  0  0  0  0  0  0  0  # atno 10763 bound_to 10752
  154.3716  135.6107  153.5746 H   0  0  0  0  0  0  0  0  0  0  0  0  # atno 10764 bound_to 10752
  152.9841  135.5858  154.4736 H   0  0  0  0  0  0  0  0  0  0  0  0  # atno 10765 bound_to 10752
  139.8797  134.9321  156.5450 H   0  0  0  0  0  0  0  0  0  0  0  0  # atno 11005 bound_to 11000
  146.3072  139.7619  142.9047 LP  0  0  0  0  0  0  0  0  0  0  0  0  # atno 17320 bound_to 7965
  145.3729  141.0346  143.3221 LP  0  0  0  0  0  0  0  0  0  0  0  0  # atno 17321 bound_to 7965
  140.7754  143.5162  150.9591 LP  0  0  0  0  0  0  0  0  0  0  0  0  # atno 17342 bound_to 10162
  139.8849  143.7025  152.3152 LP  0  0  0  0  0  0  0  0  0  0  0  0  # atno 17343 bound_to 10162
  157.5660  130.8278  149.8328 LP  0  0  0  0  0  0  0  0  0  0  0  0  # atno 17370 bound_to 10713
  156.0324  130.3761  150.1652 LP  0  0  0  0  0  0  0  0  0  0  0  0  # atno 17371 bound_to 10713
  140.8282  133.8299  155.8959 LP  0  0  0  0  0  0  0  0  0  0  0  0  # atno 17394 bound_to 11000
  140.9353  134.1969  157.4835 LP  0  0  0  0  0  0  0  0  0  0  0  0  # atno 17395 bound_to 11000

$$$$
