AV-unprocessed.smi:3259|AV-procd|sdf|12474|dock1
  -GOLD-   2272018373D 1   1.00000     0.00000
 Structure written by MMmdl.
 39 40  0  0  0  0  0  0  0  0  1 V2000
  147.9436  124.4457  150.4084 C   0  0  0  0  0  0  0  0  0  0  0  0
  147.8835  125.3350  151.5169 O   0  0  0  0  0  0  0  0  0  0  0  0
  148.7913  126.4454  151.5207 C   0  0  1  0  0  0  0  0  0  0  0  0
  150.2432  125.9511  151.4886 C   0  0  0  0  0  0  0  0  0  0  0  0
  148.3321  127.5124  150.5083 C   0  0  0  0  0  0  0  0  0  0  0  0
  147.3831  128.0229  151.5907 C   0  0  2  0  0  0  0  0  0  0  0  0
  147.2661  129.4769  151.5949 N   0  0  0  0  0  0  0  0  0  0  0  0
  146.8015  130.1983  152.6262 C   0  0  0  0  0  0  0  0  0  0  0  0
  146.4406  129.7005  153.6922 O   0  0  0  0  0  0  0  0  0  0  0  0
  146.7426  131.7141  152.4292 C   0  0  0  0  0  0  0  0  0  0  0  0
  145.7419  132.0806  151.4424 N   0  0  0  0  0  0  0  0  0  0  0  0
  145.7110  131.7747  150.0975 C   0  0  0  0  0  0  0  0  0  0  0  0
  144.5753  132.3284  149.5798 C   0  0  0  0  0  0  0  0  0  0  0  0
  143.9676  132.9618  150.6996 C   0  0  0  0  0  0  0  0  0  0  0  0
  144.6681  132.8128  151.8123 N   0  0  0  0  0  0  0  0  0  0  0  0
  148.3541  127.4374  152.6484 C   0  0  0  0  0  0  0  0  0  0  0  0
  147.7015  126.8187  153.8898 C   0  0  0  0  0  0  0  0  0  0  0  0
  149.4488  128.3822  153.1797 C   0  0  0  0  0  0  0  0  0  0  0  0
  147.1054  123.7516  150.4651 H   0  0  0  0  0  0  0  0  0  0  0  0
  148.8556  123.8494  150.4203 H   0  0  0  0  0  0  0  0  0  0  0  0
  147.8771  124.9656  149.4534 H   0  0  0  0  0  0  0  0  0  0  0  0
  150.9531  126.7694  151.6033 H   0  0  0  0  0  0  0  0  0  0  0  0
  150.4895  125.4688  150.5429 H   0  0  0  0  0  0  0  0  0  0  0  0
  150.4350  125.2370  152.2896 H   0  0  0  0  0  0  0  0  0  0  0  0
  149.1228  128.2194  150.2501 H   0  0  0  0  0  0  0  0  0  0  0  0
  147.8315  127.1446  149.6134 H   0  0  0  0  0  0  0  0  0  0  0  0
  146.4229  127.5023  151.5604 H   0  0  0  0  0  0  0  0  0  0  0  0
  147.5466  129.9641  150.7565 H   0  0  0  0  0  0  0  0  0  0  0  0
  146.5140  132.2079  153.3748 H   0  0  0  0  0  0  0  0  0  0  0  0
  147.7151  132.0844  152.1017 H   0  0  0  0  0  0  0  0  0  0  0  0
  146.4901  131.1936  149.6267 H   0  0  0  0  0  0  0  0  0  0  0  0
  144.2307  132.2864  148.5573 H   0  0  0  0  0  0  0  0  0  0  0  0
  143.0448  133.5216  150.7370 H   0  0  0  0  0  0  0  0  0  0  0  0
  147.3582  127.5842  154.5865 H   0  0  0  0  0  0  0  0  0  0  0  0
  148.3977  126.1726  154.4255 H   0  0  0  0  0  0  0  0  0  0  0  0
  146.8291  126.2163  153.6358 H   0  0  0  0  0  0  0  0  0  0  0  0
  149.0338  129.1531  153.8300 H   0  0  0  0  0  0  0  0  0  0  0  0
  149.9762  128.8955  152.3758 H   0  0  0  0  0  0  0  0  0  0  0  0
  150.1963  127.8408  153.7604 H   0  0  0  0  0  0  0  0  0  0  0  0
  1  2  1  0  0  0  0
  1 19  1  0  0  0  0
  1 20  1  0  0  0  0
  1 21  1  0  0  0  0
  2  3  1  0  0  0  0
  3 16  1  0  0  0  0
  3  4  1  0  0  0  0
  3  5  1  0  0  0  0
  4 22  1  0  0  0  0
  4 23  1  0  0  0  0
  4 24  1  0  0  0  0
  5  6  1  0  0  0  0
  5 25  1  0  0  0  0
  5 26  1  0  0  0  0
  6  7  1  0  0  0  0
  6 16  1  0  0  0  0
  6 27  1  0  0  0  0
  7  8  1  0  0  0  0
  7 28  1  0  0  0  0
  8  9  2  0  0  0  0
  8 10  1  0  0  0  0
 10 11  1  0  0  0  0
 10 29  1  0  0  0  0
 10 30  1  0  0  0  0
 11 15  1  0  0  0  0
 11 12  1  0  0  0  0
 12 13  2  0  0  0  0
 12 31  1  0  0  0  0
 13 14  1  0  0  0  0
 13 32  1  0  0  0  0
 14 15  2  0  0  0  0
 14 33  1  0  0  0  0
 16 17  1  0  0  0  0
 16 18  1  0  0  0  0
 17 34  1  0  0  0  0
 17 35  1  0  0  0  0
 17 36  1  0  0  0  0
 18 37  1  0  0  0  0
 18 38  1  0  0  0  0
 18 39  1  0  0  0  0
M  END
> <s_m_source_file>
AV-unprocessed.smi

> <i_m_source_file_index>
3259

> <i_lp_mmshare_version>
43012

> <i_f3d_flags>
0

> <s_epik_input>
W0NIM11PW0NAQF0xKFtDSDNdKVtDSDJdW0NASF0oQzEoW0NIM10pW0NIM10pW05IXUMoPU8pW0NIMl1uMltjSF1bY0hdW2NIXW4y

> <s_epik_cmdline>
J2VwaWtfcHl0aG9uJywgJy1waCcsICc3LjAnLCAnLXRuJywgJzgnLCAnLW1hJywgJzIwMCcsICctbWV0YWxfYmluZGluZycsICctaW1hZScsICc8aW5maWxlLm1hZT4nLCAnLW9tYWUnLCAnPG91dGZpbGUubWFlPic=

> <r_lp_tautomer_probability>
1

> <r_epik_Ionization_Penalty>
1.78399e-05

> <r_epik_Ionization_Penalty_Charging>
0

> <r_epik_Ionization_Penalty_Neutral>
1.78399e-05

> <r_epik_State_Penalty>
-0

> <r_epik_Charging_Adjusted_Penalty>
0

> <i_epik_Tot_Q>
0

> <i_epik_Tot_abs_Q>
0

> <r_epik_Metal_State_Penalty>
-0

> <b_epik_Metal_Only>
0

> <s_lp_Force_Field>
OPLS_2005

> <r_lp_Energy>
23.5096

> <b_lp_Chiralities_Consistent>
1

> <s_lp_Variant>
AV-unprocessed.smi:3259-3

> <Gold.Version>
5.8.1

> <Gold.Id.Protein>
6NUR|6NUR_protein|mol2

> <Gold.PLP.Fitness>
41.9656

> <Gold.PLP.PLP>
-33.6466

> <Gold.PLP.part.hbond>
-1.7291

> <Gold.PLP.part.metal>
0.0000

> <Gold.PLP.part.buried>
-0.5931

> <Gold.PLP.part.nonpolar>
-31.6311

> <Gold.PLP.part.repulsive>
0.3673

> <Gold.PLP.ligand.clash>
0.0000

> <Gold.PLP.ligand.torsion>
0.2916

> <Gold.PLP.Chemscore.Hbond>
0.8320

> <Gold.PLP.Chemscore.CHOScore>
2.0000

> <Gold.PLP.Chemscore.Metal>
0.0000

> <Gold.Chemscore.Hbonds>
donor molecule, donor type, donor heavy atom, donor atom, acceptor molecule, acceptor atom, score
      L1  H     7    28       P1 10747  0.69
      L1  C    12    31       P1 10747  0.90
      L1  C    14    33       P1 10186  1.00

> <Gold.PLP.Chemscore.Internal.Correction>
0.4062

> <Gold.Rescore>
     Score         DG    S(hbond)    S(metal)    S(lipo)     H(rot)  DE(clash)    DE(int)     intcor
     12.87     -15.00       0.75        0.00      94.87       1.60       1.82       0.31       ----

> <Gold.Chemscore.Fitness>
12.8694

> <Gold.Chemscore.DG>
-14.9960

> <Gold.Chemscore.ZeroCoef>
-5.4800

> <Gold.Chemscore.Hbond>
0.7492

> <Gold.Chemscore.Metal>
0.0000

> <Gold.Chemscore.Lipo>
94.8720

> <Gold.Chemscore.Internal_Hbond>
0.0000

> <Gold.Chemscore.DEClash>
1.8204

> <Gold.Chemscore.DEInternal>
0.3062

> <Gold.Chemscore.Rot>
1.5962

> <Gold.Chemscore.Internal.Correction>
   9.000000E+99

> <Gold.Chemscore.Hbonds>
donor molecule, donor type, donor heavy atom, donor atom, acceptor molecule, acceptor atom, score
      L1  H     7    28       P1 10747  0.70

> <Gold.Chemscore.Hbond.Weighted>
-2.5022

> <Gold.Chemscore.Metal.Weighted>
-0.0000

> <Gold.Chemscore.Lipo.Weighted>
-11.1000

> <Gold.Chemscore.Internal_Hbond.Weighted>
0.0000

> <Gold.Chemscore.DEClash.Weighted>
1.8204

> <Gold.Chemscore.DEInternal.Weighted>
0.3062

> <Gold.Chemscore.Rot.Weighted>
4.0862

> <Gold.Chemscore.Internal.Correction.Weighted>
   9.000000E+99

> <Gold.Protein.RotatedTorsions>
[ 6907 6896 6895 6894 ] final -149.00 input  -60.11 | X-H torsion
[ 7974 7965 7964 7962 ] final   -1.15 input  175.53 | X-H torsion
[ 8008 7997 7996 7995 ] final   82.25 input   59.86 | X-H torsion
[ 10167 10162 10161 10158 ] final  113.45 input  -65.29 | X-H torsion
[ 10718 10713 10712 10709 ] final   13.86 input   66.30 | X-H torsion
[ 10763 10752 10751 10750 ] final  -21.88 input  -60.55 | X-H torsion
[ 11005 11000 10999 10996 ] final   74.67 input  -57.11 | X-H torsion

> <Gold.Protein.ActiveResidues>
 VAL166  LYS551  ARG553  GLY616  TRP617  ASP618  TYR619  PRO620  LYS621  CYS622 
 ASP623  PHE694  ASN695  SER759  ASP760  ASP761  ALA762  ILE779  LEU786  VAL792 
 PHE793  MET794  SER795  GLU796  ALA797  LYS798  CYS799  TRP800  GLU811  SER814 

> <Gold.Protein.RotatedAtoms>
  151.1778  133.4744  159.2593 H   0  0  0  0  0  0  0  0  0  0  0  0  # atno 6907 bound_to 6896
  151.1290  135.0120  159.8584 H   0  0  0  0  0  0  0  0  0  0  0  0  # atno 6908 bound_to 6896
  152.5459  134.1682  159.8639 H   0  0  0  0  0  0  0  0  0  0  0  0  # atno 6909 bound_to 6896
  146.2420  140.1376  142.8336 H   0  0  0  0  0  0  0  0  0  0  0  0  # atno 7974 bound_to 7965
  155.9080  140.3429  155.6077 H   0  0  0  0  0  0  0  0  0  0  0  0  # atno 8008 bound_to 7997
  155.7421  140.0809  157.2260 H   0  0  0  0  0  0  0  0  0  0  0  0  # atno 8009 bound_to 7997
  154.4052  140.1569  156.2615 H   0  0  0  0  0  0  0  0  0  0  0  0  # atno 8010 bound_to 7997
  139.6460  144.7126  151.2142 H   0  0  0  0  0  0  0  0  0  0  0  0  # atno 10167 bound_to 10162
  157.0308  130.6192  149.5735 H   0  0  0  0  0  0  0  0  0  0  0  0  # atno 10718 bound_to 10713
  153.6431  135.6984  153.5234 H   0  0  0  0  0  0  0  0  0  0  0  0  # atno 10763 bound_to 10752
  153.2766  135.4198  155.1038 H   0  0  0  0  0  0  0  0  0  0  0  0  # atno 10764 bound_to 10752
  154.8495  135.3591  154.5975 H   0  0  0  0  0  0  0  0  0  0  0  0  # atno 10765 bound_to 10752
  139.9380  134.7453  156.1177 H   0  0  0  0  0  0  0  0  0  0  0  0  # atno 11005 bound_to 11000
  145.0273  140.8842  143.5130 LP  0  0  0  0  0  0  0  0  0  0  0  0  # atno 17320 bound_to 7965
  145.1435  139.2558  143.5478 LP  0  0  0  0  0  0  0  0  0  0  0  0  # atno 17321 bound_to 7965
  140.7515  143.6230  150.8495 LP  0  0  0  0  0  0  0  0  0  0  0  0  # atno 17342 bound_to 10162
  139.9873  143.5885  152.2922 LP  0  0  0  0  0  0  0  0  0  0  0  0  # atno 17343 bound_to 10162
  156.0070  130.5158  150.7863 LP  0  0  0  0  0  0  0  0  0  0  0  0  # atno 17370 bound_to 10713
  157.5179  131.0929  151.0116 LP  0  0  0  0  0  0  0  0  0  0  0  0  # atno 17371 bound_to 10713
  141.1002  133.6680  156.2736 LP  0  0  0  0  0  0  0  0  0  0  0  0  # atno 17394 bound_to 11000
  140.6026  134.5539  157.5520 LP  0  0  0  0  0  0  0  0  0  0  0  0  # atno 17395 bound_to 11000

$$$$
