AV-unprocessed.smi:1207|AV-procd|sdf|5059|dock1
  -GOLD-   22720 4 93D 1   1.00000     0.00000
 Structure written by MMmdl.
 53 55  0  0  0  0  0  0  0  0  3 V2000
  152.3119  143.1719  160.6002 C   0  0  0  0  0  0  0  0  0  0  0  0
  151.8065  142.3651  159.4163 C   0  0  0  0  0  0  0  0  0  0  0  0
  152.1596  140.9993  159.3314 C   0  0  0  0  0  0  0  0  0  0  0  0
  151.6823  140.2876  158.2374 C   0  0  0  0  0  0  0  0  0  0  0  0
  151.8449  138.9488  157.8745 N   0  3  0  0  0  0  0  0  0  0  0  0
  151.1823  138.7097  156.7091 C   0  0  0  0  0  0  0  0  0  0  0  0
  150.6095  139.8803  156.3154 N   0  0  0  0  0  0  0  0  0  0  0  0
  149.7828  140.1801  155.1395 C   0  0  0  0  0  0  0  0  0  0  0  0
  149.1232  138.9309  154.5195 C   0  0  2  0  0  0  0  0  0  0  0  0
  150.0143  138.4073  153.5564 O   0  0  0  0  0  0  0  0  0  0  0  0
  147.7637  139.2105  153.8417 C   0  0  0  0  0  0  0  0  0  0  0  0
  147.2580  138.0210  153.1107 N   0  3  2  0  0  0  0  0  0  0  0  0
  146.5017  138.3905  151.8917 C   0  0  0  0  0  0  0  0  0  0  0  0
  146.5141  137.0737  153.9810 C   0  0  0  0  0  0  0  0  0  0  0  0
  145.8827  135.9736  153.1691 C   0  0  0  0  0  0  0  0  0  0  0  0
  144.6852  136.0078  152.3959 C   0  0  0  0  0  0  0  0  0  0  0  0
  143.7281  137.1450  152.1796 C   0  0  0  0  0  0  0  0  0  0  0  0
  144.4408  134.8451  151.8164 N   0  0  0  0  0  0  0  0  0  0  0  0
  145.4823  133.9958  152.2013 O   0  0  0  0  0  0  0  0  0  0  0  0
  146.3247  134.6895  153.0070 C   0  0  0  0  0  0  0  0  0  0  0  0
  147.5108  133.9534  153.5331 C   0  0  0  0  0  0  0  0  0  0  0  0
  150.8820  140.8886  157.2467 C   0  0  0  0  0  0  0  0  0  0  0  0
  150.5188  142.2311  157.3183 C   0  0  0  0  0  0  0  0  0  0  0  0
  150.9957  142.9727  158.4229 C   0  0  0  0  0  0  0  0  0  0  0  0
  150.6205  144.4413  158.5257 C   0  0  0  0  0  0  0  0  0  0  0  0
  152.9145  142.5603  161.2722 H   0  0  0  0  0  0  0  0  0  0  0  0
  151.4763  143.5721  161.1749 H   0  0  0  0  0  0  0  0  0  0  0  0
  152.9304  144.0037  160.2618 H   0  0  0  0  0  0  0  0  0  0  0  0
  152.7730  140.5294  160.0865 H   0  0  0  0  0  0  0  0  0  0  0  0
  151.1240  137.7629  156.1913 H   0  0  0  0  0  0  0  0  0  0  0  0
  149.0193  140.8930  155.4545 H   0  0  0  0  0  0  0  0  0  0  0  0
  150.4081  140.6961  154.4090 H   0  0  0  0  0  0  0  0  0  0  0  0
  149.0059  138.1748  155.2943 H   0  0  0  0  0  0  0  0  0  0  0  0
  149.6906  137.5682  153.2647 H   0  0  0  0  0  0  0  0  0  0  0  0
  147.0115  139.5178  154.5693 H   0  0  0  0  0  0  0  0  0  0  0  0
  147.8840  140.0534  153.1591 H   0  0  0  0  0  0  0  0  0  0  0  0
  145.5895  138.9316  152.1461 H   0  0  0  0  0  0  0  0  0  0  0  0
  146.2264  137.5064  151.3170 H   0  0  0  0  0  0  0  0  0  0  0  0
  147.1044  139.0233  151.2394 H   0  0  0  0  0  0  0  0  0  0  0  0
  147.1898  136.6346  154.7146 H   0  0  0  0  0  0  0  0  0  0  0  0
  145.7765  137.6213  154.5689 H   0  0  0  0  0  0  0  0  0  0  0  0
  144.1363  138.0890  152.5393 H   0  0  0  0  0  0  0  0  0  0  0  0
  142.7889  136.9695  152.7045 H   0  0  0  0  0  0  0  0  0  0  0  0
  143.4990  137.2703  151.1210 H   0  0  0  0  0  0  0  0  0  0  0  0
  148.4250  134.5225  153.3646 H   0  0  0  0  0  0  0  0  0  0  0  0
  147.6228  132.9853  153.0439 H   0  0  0  0  0  0  0  0  0  0  0  0
  147.4127  133.7806  154.6047 H   0  0  0  0  0  0  0  0  0  0  0  0
  149.8970  142.6931  156.5657 H   0  0  0  0  0  0  0  0  0  0  0  0
  149.9810  144.7493  157.6979 H   0  0  0  0  0  0  0  0  0  0  0  0
  151.5138  145.0663  158.5070 H   0  0  0  0  0  0  0  0  0  0  0  0
  150.0806  144.6357  159.4525 H   0  0  0  0  0  0  0  0  0  0  0  0
  148.0828  137.5333  152.7901 H   0  0  0  0  0  0  0  0  0  0  0  0
  152.3615  138.2457  158.3878 H   0  0  0  0  0  0  0  0  0  0  0  0
  1  2  1  0  0  0  0
  1 26  1  0  0  0  0
  1 27  1  0  0  0  0
  1 28  1  0  0  0  0
  2 24  1  0  0  0  0
  2  3  2  0  0  0  0
  3  4  1  0  0  0  0
  3 29  1  0  0  0  0
  4 22  2  0  0  0  0
  4  5  1  0  0  0  0
  5  6  2  0  0  0  0
  5 53  1  0  0  0  0
  6  7  1  0  0  0  0
  6 30  1  0  0  0  0
  7  8  1  0  0  0  0
  7 22  1  0  0  0  0
  8  9  1  0  0  0  0
  8 31  1  0  0  0  0
  8 32  1  0  0  0  0
  9 10  1  0  0  0  0
  9 11  1  0  0  0  0
  9 33  1  0  0  0  0
 10 34  1  0  0  0  0
 11 12  1  0  0  0  0
 11 35  1  0  0  0  0
 11 36  1  0  0  0  0
 12 13  1  0  0  0  0
 12 14  1  0  0  0  0
 12 52  1  0  0  0  0
 13 37  1  0  0  0  0
 13 38  1  0  0  0  0
 13 39  1  0  0  0  0
 14 15  1  0  0  0  0
 14 40  1  0  0  0  0
 14 41  1  0  0  0  0
 15 20  2  0  0  0  0
 15 16  1  0  0  0  0
 16 17  1  0  0  0  0
 16 18  2  0  0  0  0
 17 42  1  0  0  0  0
 17 43  1  0  0  0  0
 17 44  1  0  0  0  0
 18 19  1  0  0  0  0
 19 20  1  0  0  0  0
 20 21  1  0  0  0  0
 21 45  1  0  0  0  0
 21 46  1  0  0  0  0
 21 47  1  0  0  0  0
 22 23  1  0  0  0  0
 23 24  2  0  0  0  0
 23 48  1  0  0  0  0
 24 25  1  0  0  0  0
 25 49  1  0  0  0  0
 25 50  1  0  0  0  0
 25 51  1  0  0  0  0
M  CHG  1   5   1
M  CHG  1  12   1
M  END
> <s_m_source_file>
AV-unprocessed.smi

> <i_m_source_file_index>
1207

> <i_lp_mmshare_version>
43012

> <i_f3d_flags>
0

> <s_epik_input>
W0NIM11jKFtjSF0xKWMoW0NIM10pW2NIXWMoYzEyKW4oW2NIXW4yKVtDSDJdW0NASF0oW09IXSlbQ0gyXU4oW0NIM10pW0NIMl1jM2MoW0NIM10pbm9jM1tDSDNd

> <s_epik_cmdline>
J2VwaWtfcHl0aG9uJywgJy1waCcsICc3LjAnLCAnLXRuJywgJzgnLCAnLW1hJywgJzIwMCcsICctbWV0YWxfYmluZGluZycsICctaW1hZScsICc8aW5maWxlLm1hZT4nLCAnLW9tYWUnLCAnPG91dGZpbGUubWFlPic=

> <r_epik_Ionization_Penalty>
1.77463

> <r_epik_Ionization_Penalty_Charging>
1.77463

> <r_epik_Ionization_Penalty_Neutral>
3.70885e-06

> <r_epik_State_Penalty>
1.85225

> <r_epik_Charging_Adjusted_Penalty>
3.62688

> <i_epik_Tot_Q>
2

> <i_epik_Tot_abs_Q>
2

> <r_epik_Metal_State_Penalty>
1.92674

> <b_epik_Metal_Only>
0

> <s_lp_Force_Field>
OPLS_2005

> <r_lp_Energy>
20.2471

> <b_lp_Chiralities_Consistent>
1

> <s_lp_Variant>
AV-unprocessed.smi:1207-11

> <Gold.Version>
5.8.1

> <Gold.Id.Protein>
6NUR|6NUR_protein|mol2

> <Gold.PLP.Fitness>
49.9319

> <Gold.PLP.PLP>
-43.3961

> <Gold.PLP.part.hbond>
-3.3284

> <Gold.PLP.part.metal>
0.0000

> <Gold.PLP.part.buried>
-0.6830

> <Gold.PLP.part.nonpolar>
-38.2153

> <Gold.PLP.part.repulsive>
0.3007

> <Gold.PLP.ligand.clash>
0.0000

> <Gold.PLP.ligand.torsion>
1.4024

> <Gold.PLP.Chemscore.Hbond>
3.0000

> <Gold.PLP.Chemscore.CHOScore>
0.0000

> <Gold.PLP.Chemscore.Metal>
0.0000

> <Gold.Chemscore.Hbonds>
donor molecule, donor type, donor heavy atom, donor atom, acceptor molecule, acceptor atom, score
      L1  H    10    34       P1  7948  0.99
      L1  H    12    52       P1  7948  2.00

> <Gold.PLP.Chemscore.Internal.Correction>
0.3407

> <Gold.Rescore>
     Score         DG    S(hbond)    S(metal)    S(lipo)     H(rot)  DE(clash)    DE(int)     intcor
     17.22     -18.88       1.81        0.00     118.35       2.54       0.20       1.45       ----

> <Gold.Chemscore.Fitness>
17.2207

> <Gold.Chemscore.DG>
-18.8782

> <Gold.Chemscore.ZeroCoef>
-5.4800

> <Gold.Chemscore.Hbond>
1.8086

> <Gold.Chemscore.Metal>
0.0000

> <Gold.Chemscore.Lipo>
118.3530

> <Gold.Chemscore.Internal_Hbond>
0.0000

> <Gold.Chemscore.DEClash>
0.2039

> <Gold.Chemscore.DEInternal>
1.4536

> <Gold.Chemscore.Rot>
2.5351

> <Gold.Chemscore.Internal.Correction>
   9.000000E+99

> <Gold.Chemscore.Hbonds>
donor molecule, donor type, donor heavy atom, donor atom, acceptor molecule, acceptor atom, score
      L1  H    10    34       P1  7948  0.67
      L1  H    12    52       P1  7948  0.98

> <Gold.Chemscore.Hbond.Weighted>
-6.0409

> <Gold.Chemscore.Metal.Weighted>
-0.0000

> <Gold.Chemscore.Lipo.Weighted>
-13.8473

> <Gold.Chemscore.Internal_Hbond.Weighted>
0.0000

> <Gold.Chemscore.DEClash.Weighted>
0.2039

> <Gold.Chemscore.DEInternal.Weighted>
1.4536

> <Gold.Chemscore.Rot.Weighted>
6.4900

> <Gold.Chemscore.Internal.Correction.Weighted>
   9.000000E+99

> <Gold.Protein.RotatedTorsions>
[ 6907 6896 6895 6894 ] final  -58.63 input  -60.11 | X-H torsion
[ 7974 7965 7964 7962 ] final   47.52 input  175.53 | X-H torsion
[ 8008 7997 7996 7995 ] final  165.77 input   59.86 | X-H torsion
[ 10167 10162 10161 10158 ] final   81.83 input  -65.29 | X-H torsion
[ 10718 10713 10712 10709 ] final   35.70 input   66.30 | X-H torsion
[ 10763 10752 10751 10750 ] final  110.21 input  -60.55 | X-H torsion
[ 11005 11000 10999 10996 ] final   20.45 input  -57.11 | X-H torsion

> <Gold.Protein.ActiveResidues>
 VAL166  LYS551  ARG553  GLY616  TRP617  ASP618  TYR619  PRO620  LYS621  CYS622 
 ASP623  PHE694  ASN695  SER759  ASP760  ASP761  ALA762  ILE779  LEU786  VAL792 
 PHE793  MET794  SER795  GLU796  ALA797  LYS798  CYS799  TRP800  GLU811  SER814 

> <Gold.Protein.RotatedAtoms>
  150.7992  134.7073  159.6583 H   0  0  0  0  0  0  0  0  0  0  0  0  # atno 6907 bound_to 6896
  152.4107  134.6126  160.0039 H   0  0  0  0  0  0  0  0  0  0  0  0  # atno 6908 bound_to 6896
  151.6369  133.3291  159.3157 H   0  0  0  0  0  0  0  0  0  0  0  0  # atno 6909 bound_to 6896
  146.0290  139.4740  142.9850 H   0  0  0  0  0  0  0  0  0  0  0  0  # atno 7974 bound_to 7965
  156.1774  140.1661  156.8338 H   0  0  0  0  0  0  0  0  0  0  0  0  # atno 8008 bound_to 7997
  154.5322  140.0754  156.8397 H   0  0  0  0  0  0  0  0  0  0  0  0  # atno 8009 bound_to 7997
  155.3385  140.3383  155.4241 H   0  0  0  0  0  0  0  0  0  0  0  0  # atno 8010 bound_to 7997
  139.9351  144.6126  150.8306 H   0  0  0  0  0  0  0  0  0  0  0  0  # atno 10167 bound_to 10162
  157.3258  130.7472  149.6815 H   0  0  0  0  0  0  0  0  0  0  0  0  # atno 10718 bound_to 10713
  153.4458  135.3755  155.2255 H   0  0  0  0  0  0  0  0  0  0  0  0  # atno 10763 bound_to 10752
  154.8755  135.3874  154.4098 H   0  0  0  0  0  0  0  0  0  0  0  0  # atno 10764 bound_to 10752
  153.4650  135.7087  153.6091 H   0  0  0  0  0  0  0  0  0  0  0  0  # atno 10765 bound_to 10752
  140.4025  134.1703  155.7664 H   0  0  0  0  0  0  0  0  0  0  0  0  # atno 11005 bound_to 11000
  145.7072  141.0117  143.1473 LP  0  0  0  0  0  0  0  0  0  0  0  0  # atno 17320 bound_to 7965
  144.7022  139.8714  143.7441 LP  0  0  0  0  0  0  0  0  0  0  0  0  # atno 17321 bound_to 7965
  140.7626  143.3203  151.2637 LP  0  0  0  0  0  0  0  0  0  0  0  0  # atno 17342 bound_to 10162
  139.6750  143.9954  152.2775 LP  0  0  0  0  0  0  0  0  0  0  0  0  # atno 17343 bound_to 10162
  155.9690  130.4209  150.4447 LP  0  0  0  0  0  0  0  0  0  0  0  0  # atno 17370 bound_to 10713
  157.2470  131.0538  151.2402 LP  0  0  0  0  0  0  0  0  0  0  0  0  # atno 17371 bound_to 10713
  141.1851  133.8329  157.1115 LP  0  0  0  0  0  0  0  0  0  0  0  0  # atno 17394 bound_to 11000
  140.0326  134.9894  157.0809 LP  0  0  0  0  0  0  0  0  0  0  0  0  # atno 17395 bound_to 11000

$$$$
