AV-unprocessed.smi:1744|AV-procd|sdf|7028|dock7
  -GOLD-   22720 8243D 1   1.00000     0.00000
 Structure written by MMmdl.
 43 44  0  0  0  0  0  0  0  0  3 V2000
  153.1183  142.4555  161.9082 C   0  0  0  0  0  0  0  0  0  0  0  0
  153.3737  141.8066  160.5423 C   0  0  0  0  0  0  0  0  0  0  0  0
  152.6596  142.4889  159.4809 N   0  0  0  0  0  0  0  0  0  0  0  0
  151.6126  142.0171  158.7143 C   0  0  0  0  0  0  0  0  0  0  0  0
  151.2883  143.0313  157.8640 C   0  0  0  0  0  0  0  0  0  0  0  0
  150.2523  142.9788  156.8982 N   0  0  0  0  0  0  0  0  0  0  0  0
  149.7566  141.8834  156.3000 C   0  0  0  0  0  0  0  0  0  0  0  0
  150.1169  140.7287  156.5271 O   0  0  0  0  0  0  0  0  0  0  0  0
  148.8057  142.2008  155.4095 N   0  0  0  0  0  0  0  0  0  0  0  0
  148.0670  141.2430  154.5866 C   0  0  2  0  0  0  0  0  0  0  0  0
  147.3584  141.9303  153.4026 C   0  0  0  0  0  0  0  0  0  0  0  0
  146.1734  142.7963  153.8646 C   0  0  0  0  0  0  0  0  0  0  0  0
  145.2040  141.9982  154.6627 N   0  3  2  0  0  0  0  0  0  0  0  0
  143.9791  142.7557  155.0216 C   0  0  0  0  0  0  0  0  0  0  0  0
  142.9891  141.8474  155.7585 C   0  0  0  0  0  0  0  0  0  0  0  0
  142.6173  140.7851  155.0193 N   0  5  0  0  0  0  0  0  0  0  0  0
  142.6413  142.1301  156.9032 O   0  0  0  0  0  0  0  0  0  0  0  0
  145.8497  141.3784  155.8476 C   0  0  0  0  0  0  0  0  0  0  0  0
  147.0340  140.4837  155.4370 C   0  0  0  0  0  0  0  0  0  0  0  0
  152.1845  144.0951  158.1685 C   0  0  0  0  0  0  0  0  0  0  0  0
  153.0097  143.7555  159.1471 N   0  0  0  0  0  0  0  0  0  0  0  0
  153.6600  141.9296  162.6946 H   0  0  0  0  0  0  0  0  0  0  0  0
  152.0582  142.4342  162.1624 H   0  0  0  0  0  0  0  0  0  0  0  0
  153.4449  143.4958  161.9189 H   0  0  0  0  0  0  0  0  0  0  0  0
  154.4396  141.8160  160.3109 H   0  0  0  0  0  0  0  0  0  0  0  0
  153.0620  140.7617  160.5577 H   0  0  0  0  0  0  0  0  0  0  0  0
  151.1998  141.0271  158.8408 H   0  0  0  0  0  0  0  0  0  0  0  0
  149.8560  143.8672  156.6289 H   0  0  0  0  0  0  0  0  0  0  0  0
  148.5726  143.1762  155.2945 H   0  0  0  0  0  0  0  0  0  0  0  0
  148.7814  140.5163  154.1949 H   0  0  0  0  0  0  0  0  0  0  0  0
  148.0623  142.5346  152.8295 H   0  0  0  0  0  0  0  0  0  0  0  0
  146.9910  141.1672  152.7151 H   0  0  0  0  0  0  0  0  0  0  0  0
  146.5299  143.6398  154.4577 H   0  0  0  0  0  0  0  0  0  0  0  0
  145.6829  143.2180  152.9869 H   0  0  0  0  0  0  0  0  0  0  0  0
  144.2303  143.5663  155.7072 H   0  0  0  0  0  0  0  0  0  0  0  0
  143.5461  143.2231  154.1345 H   0  0  0  0  0  0  0  0  0  0  0  0
  143.0872  140.6212  154.1209 H   0  0  0  0  0  0  0  0  0  0  0  0
  146.1813  142.1606  156.5319 H   0  0  0  0  0  0  0  0  0  0  0  0
  145.1205  140.7746  156.3893 H   0  0  0  0  0  0  0  0  0  0  0  0
  146.6549  139.6362  154.8639 H   0  0  0  0  0  0  0  0  0  0  0  0
  147.5101  140.0604  156.3224 H   0  0  0  0  0  0  0  0  0  0  0  0
  152.2687  145.0796  157.7335 H   0  0  0  0  0  0  0  0  0  0  0  0
  144.8935  141.2375  154.0749 H   0  0  0  0  0  0  0  0  0  0  0  0
  1  2  1  0  0  0  0
  1 22  1  0  0  0  0
  1 23  1  0  0  0  0
  1 24  1  0  0  0  0
  2  3  1  0  0  0  0
  2 25  1  0  0  0  0
  2 26  1  0  0  0  0
  3 21  1  0  0  0  0
  3  4  1  0  0  0  0
  4  5  2  0  0  0  0
  4 27  1  0  0  0  0
  5  6  1  0  0  0  0
  5 20  1  0  0  0  0
  6  7  1  0  0  0  0
  6 28  1  0  0  0  0
  7  8  2  0  0  0  0
  7  9  1  0  0  0  0
  9 10  1  0  0  0  0
  9 29  1  0  0  0  0
 10 19  1  0  0  0  0
 10 11  1  0  0  0  0
 10 30  1  0  0  0  0
 11 12  1  0  0  0  0
 11 31  1  0  0  0  0
 11 32  1  0  0  0  0
 12 13  1  0  0  0  0
 12 33  1  0  0  0  0
 12 34  1  0  0  0  0
 13 14  1  0  0  0  0
 13 18  1  0  0  0  0
 13 43  1  0  0  0  0
 14 15  1  0  0  0  0
 14 35  1  0  0  0  0
 14 36  1  0  0  0  0
 15 16  1  0  0  0  0
 15 17  2  0  0  0  0
 16 37  1  0  0  0  0
 18 19  1  0  0  0  0
 18 38  1  0  0  0  0
 18 39  1  0  0  0  0
 19 40  1  0  0  0  0
 19 41  1  0  0  0  0
 20 21  2  0  0  0  0
 20 42  1  0  0  0  0
M  CHG  1  13   1
M  CHG  1  16  -1
M  END
> <s_m_source_file>
AV-unprocessed.smi

> <i_m_source_file_index>
1744

> <i_lp_mmshare_version>
43012

> <i_f3d_flags>
0

> <s_epik_input>
W0NIM11bQ0gyXW4xW2NIXWMoW2NIXW4xKVtOSF1DKD1PKVtOSF1bQ0hdMltDSDJdW0NIMl1OKFtDSDJdW0NIMl0yKVtDSDJdQyg9TylbTkgyXQ==

> <s_epik_cmdline>
J2VwaWtfcHl0aG9uJywgJy1waCcsICc3LjAnLCAnLXRuJywgJzgnLCAnLW1hJywgJzIwMCcsICctbWV0YWxfYmluZGluZycsICctaW1hZScsICc8aW5maWxlLm1hZT4nLCAnLW9tYWUnLCAnPG91dGZpbGUubWFlPic=

> <r_lp_tautomer_probability>
1

> <r_epik_Ionization_Penalty>
5.72895

> <r_epik_Ionization_Penalty_Charging>
5.7288

> <r_epik_Ionization_Penalty_Neutral>
0.000148676

> <r_epik_State_Penalty>
6.54882

> <r_epik_Charging_Adjusted_Penalty>
12.2776

> <i_epik_Tot_Q>
0

> <i_epik_Tot_abs_Q>
2

> <r_epik_Metal_State_Penalty>
2.51309

> <b_epik_Metal_Only>
1

> <s_lp_Force_Field>
OPLS_2005

> <r_lp_Energy>
11.9421

> <b_lp_Chiralities_Consistent>
1

> <s_lp_Variant>
AV-unprocessed.smi:1744-5

> <Gold.Version>
5.8.1

> <Gold.Id.Protein>
6NUR|6NUR_protein|mol2

> <Gold.PLP.Fitness>
50.9191

> <Gold.PLP.PLP>
-38.0068

> <Gold.PLP.part.hbond>
-4.1029

> <Gold.PLP.part.metal>
0.0000

> <Gold.PLP.part.buried>
-4.9418

> <Gold.PLP.part.nonpolar>
-29.5290

> <Gold.PLP.part.repulsive>
0.2347

> <Gold.PLP.ligand.clash>
0.0000

> <Gold.PLP.ligand.torsion>
0.3954

> <Gold.PLP.Chemscore.Hbond>
4.5600

> <Gold.PLP.Chemscore.CHOScore>
0.0000

> <Gold.PLP.Chemscore.Metal>
0.0000

> <Gold.Chemscore.Hbonds>
donor molecule, donor type, donor heavy atom, donor atom, acceptor molecule, acceptor atom, score
      L1  H     6    28       P1  8028  1.00
      L1  H     9    29       P1  8028  1.00
      L1  H    13    43       P1 10175  1.52
      L1  H    16    37       P1 10175  1.00

> <Gold.PLP.Chemscore.Internal.Correction>
0.0231

> <Gold.Rescore>
     Score         DG    S(hbond)    S(metal)    S(lipo)     H(rot)  DE(clash)    DE(int)     intcor
     18.92     -20.73       3.36        0.00      82.10       2.18       0.33       1.47       ----

> <Gold.Chemscore.Fitness>
18.9213

> <Gold.Chemscore.DG>
-20.7260

> <Gold.Chemscore.ZeroCoef>
-5.4800

> <Gold.Chemscore.Hbond>
3.3621

> <Gold.Chemscore.Metal>
0.0000

> <Gold.Chemscore.Lipo>
82.1003

> <Gold.Chemscore.Internal_Hbond>
0.0000

> <Gold.Chemscore.DEClash>
0.3341

> <Gold.Chemscore.DEInternal>
1.4705

> <Gold.Chemscore.Rot>
2.1833

> <Gold.Chemscore.Internal.Correction>
   9.000000E+99

> <Gold.Chemscore.Hbonds>
donor molecule, donor type, donor heavy atom, donor atom, acceptor molecule, acceptor atom, score
      L1  H     6    28       P1  8028  0.94
      L1  H     9    29       P1  8028  0.93
      L1  H    13    43       P1 10175  0.46
      L1  H    16    37       P1 10175  0.91

> <Gold.Chemscore.Hbond.Weighted>
-11.2294

> <Gold.Chemscore.Metal.Weighted>
-0.0000

> <Gold.Chemscore.Lipo.Weighted>
-9.6057

> <Gold.Chemscore.Internal_Hbond.Weighted>
0.0000

> <Gold.Chemscore.DEClash.Weighted>
0.3341

> <Gold.Chemscore.DEInternal.Weighted>
1.4705

> <Gold.Chemscore.Rot.Weighted>
5.5892

> <Gold.Chemscore.Internal.Correction.Weighted>
   9.000000E+99

> <Gold.Protein.RotatedTorsions>
[ 6907 6896 6895 6894 ] final   41.66 input  -60.11 | X-H torsion
[ 7974 7965 7964 7962 ] final  120.50 input  175.53 | X-H torsion
[ 8008 7997 7996 7995 ] final  -65.56 input   59.86 | X-H torsion
[ 10167 10162 10161 10158 ] final  171.57 input  -65.29 | X-H torsion
[ 10718 10713 10712 10709 ] final   10.84 input   66.30 | X-H torsion
[ 10763 10752 10751 10750 ] final  124.24 input  -60.55 | X-H torsion
[ 11005 11000 10999 10996 ] final -106.94 input  -57.11 | X-H torsion

> <Gold.Protein.ActiveResidues>
 VAL166  LYS551  ARG553  GLY616  TRP617  ASP618  TYR619  PRO620  LYS621  CYS622 
 ASP623  PHE694  ASN695  SER759  ASP760  ASP761  ALA762  ILE779  LEU786  VAL792 
 PHE793  MET794  SER795  GLU796  ALA797  LYS798  CYS799  TRP800  GLU811  SER814 

> <Gold.Protein.RotatedAtoms>
  152.1980  134.8613  160.0510 H   0  0  0  0  0  0  0  0  0  0  0  0  # atno 6907 bound_to 6896
  151.9477  133.3651  159.3996 H   0  0  0  0  0  0  0  0  0  0  0  0  # atno 6908 bound_to 6896
  150.6949  134.4297  159.5287 H   0  0  0  0  0  0  0  0  0  0  0  0  # atno 6909 bound_to 6896
  145.1305  139.3331  143.4668 H   0  0  0  0  0  0  0  0  0  0  0  0  # atno 7974 bound_to 7965
  154.4679  140.0930  156.7069 H   0  0  0  0  0  0  0  0  0  0  0  0  # atno 8008 bound_to 7997
  155.4806  140.3467  155.4321 H   0  0  0  0  0  0  0  0  0  0  0  0  # atno 8009 bound_to 7997
  156.0989  140.1417  156.9483 H   0  0  0  0  0  0  0  0  0  0  0  0  # atno 8010 bound_to 7997
  139.5050  144.3471  151.9960 H   0  0  0  0  0  0  0  0  0  0  0  0  # atno 10167 bound_to 10162
  156.9869  130.6027  149.5682 H   0  0  0  0  0  0  0  0  0  0  0  0  # atno 10718 bound_to 10713
  153.6582  135.3351  155.3119 H   0  0  0  0  0  0  0  0  0  0  0  0  # atno 10763 bound_to 10752
  154.8521  135.4357  154.1832 H   0  0  0  0  0  0  0  0  0  0  0  0  # atno 10764 bound_to 10752
  153.2792  135.7007  153.7478 H   0  0  0  0  0  0  0  0  0  0  0  0  # atno 10765 bound_to 10752
  141.0979  133.8937  157.1916 H   0  0  0  0  0  0  0  0  0  0  0  0  # atno 11005 bound_to 11000
  146.3514  140.1301  142.8597 LP  0  0  0  0  0  0  0  0  0  0  0  0  # atno 17320 bound_to 7965
  145.0641  140.9109  143.4921 LP  0  0  0  0  0  0  0  0  0  0  0  0  # atno 17321 bound_to 7965
  140.2908  144.3756  150.6089 LP  0  0  0  0  0  0  0  0  0  0  0  0  # atno 17342 bound_to 10162
  140.5948  143.2167  151.7185 LP  0  0  0  0  0  0  0  0  0  0  0  0  # atno 17343 bound_to 10162
  156.0222  130.5317  150.8308 LP  0  0  0  0  0  0  0  0  0  0  0  0  # atno 17370 bound_to 10713
  157.5487  131.0943  150.9727 LP  0  0  0  0  0  0  0  0  0  0  0  0  # atno 17371 bound_to 10713
  139.9821  135.0094  156.9775 LP  0  0  0  0  0  0  0  0  0  0  0  0  # atno 17394 bound_to 11000
  140.5094  134.1017  155.7267 LP  0  0  0  0  0  0  0  0  0  0  0  0  # atno 17395 bound_to 11000

$$$$
