AV-unprocessed.smi:199|AV-procd|sdf|1567|dock6
  -GOLD-   2262019443D 1   1.00000     0.00000
 Structure written by MMmdl.
 51 55  0  0  0  0  0  0  0  0  1 V2000
  153.2391  142.3693  160.7661 C   0  0  0  0  0  0  0  0  0  0  0  0
  152.0372  143.2396  160.3674 C   0  0  1  0  0  0  0  0  0  0  0  0
  152.4668  144.5987  160.3931 O   0  0  0  0  0  0  0  0  0  0  0  0
  151.7563  145.3271  159.4074 C   0  0  0  0  0  0  0  0  0  0  0  0
  151.6985  144.3419  158.2504 C   0  0  0  0  0  0  0  0  0  0  0  0
  151.4459  143.0082  158.9476 C   0  0  2  0  0  0  0  0  0  0  0  0
  150.0434  142.8511  159.0899 O   0  0  0  0  0  0  0  0  0  0  0  0
  151.9862  141.7828  158.1636 C   0  0  0  0  0  0  0  0  0  0  0  0
  151.0090  141.2007  157.2554 N   0  0  0  0  0  0  0  0  0  0  0  0
  150.3807  141.8336  156.2082 C   0  0  0  0  0  0  0  0  0  0  0  0
  149.5423  141.0944  155.5364 N   0  0  0  0  0  0  0  0  0  0  0  0
  149.5903  139.8540  156.1633 C   0  0  0  0  0  0  0  0  0  0  0  0
  148.9476  138.5967  155.9536 C   0  0  0  0  0  0  0  0  0  0  0  0
  148.0467  138.3326  154.9660 N   0  0  0  0  0  0  0  0  0  0  0  0
  147.1667  137.1741  155.0193 C   0  0  2  0  0  0  0  0  0  0  0  0
  146.4973  137.2054  153.6347 C   0  0  0  0  0  0  0  0  0  0  0  0
  146.3874  138.7164  153.3866 C   0  0  0  0  0  0  0  0  0  0  0  0
  146.9730  139.2804  154.6945 C   0  0  1  0  0  0  0  0  0  0  0  0
  146.0074  139.0697  155.8901 C   0  0  1  0  0  0  0  0  0  0  0  0
  144.5755  139.6086  155.7161 C   0  0  0  0  0  0  0  0  0  0  0  0
  144.6110  140.8828  155.1093 O   0  0  0  0  0  0  0  0  0  0  0  0
  146.1170  137.5452  156.0868 C   0  0  0  0  0  0  0  0  0  0  0  0
  149.2473  137.5960  156.8236 N   0  0  0  0  0  0  0  0  0  0  0  0
  150.1225  137.7915  157.8127 C   0  0  0  0  0  0  0  0  0  0  0  0
  150.8025  138.8970  158.1161 N   0  0  0  0  0  0  0  0  0  0  0  0
  150.5024  139.9126  157.2575 C   0  0  0  0  0  0  0  0  0  0  0  0
  152.9799  141.3107  160.7774 H   0  0  0  0  0  0  0  0  0  0  0  0
  153.5850  142.6296  161.7667 H   0  0  0  0  0  0  0  0  0  0  0  0
  154.0784  142.5098  160.0845 H   0  0  0  0  0  0  0  0  0  0  0  0
  151.2619  143.1230  161.1271 H   0  0  0  0  0  0  0  0  0  0  0  0
  150.7568  145.5680  159.7728 H   0  0  0  0  0  0  0  0  0  0  0  0
  152.2652  146.2553  159.1473 H   0  0  0  0  0  0  0  0  0  0  0  0
  150.9489  144.5989  157.5006 H   0  0  0  0  0  0  0  0  0  0  0  0
  152.6713  144.3292  157.7577 H   0  0  0  0  0  0  0  0  0  0  0  0
  149.7968  142.0169  158.7209 H   0  0  0  0  0  0  0  0  0  0  0  0
  152.8611  142.0599  157.5750 H   0  0  0  0  0  0  0  0  0  0  0  0
  152.3132  141.0031  158.8531 H   0  0  0  0  0  0  0  0  0  0  0  0
  150.5687  142.8663  155.9531 H   0  0  0  0  0  0  0  0  0  0  0  0
  147.6520  136.2173  155.2005 H   0  0  0  0  0  0  0  0  0  0  0  0
  147.1344  136.7395  152.8820 H   0  0  0  0  0  0  0  0  0  0  0  0
  145.5308  136.7002  153.6218 H   0  0  0  0  0  0  0  0  0  0  0  0
  147.0102  139.0032  152.5383 H   0  0  0  0  0  0  0  0  0  0  0  0
  145.3726  139.0486  153.1727 H   0  0  0  0  0  0  0  0  0  0  0  0
  147.2962  140.3162  154.5838 H   0  0  0  0  0  0  0  0  0  0  0  0
  146.4449  139.5645  156.7594 H   0  0  0  0  0  0  0  0  0  0  0  0
  143.9924  138.9387  155.0836 H   0  0  0  0  0  0  0  0  0  0  0  0
  144.0572  139.6949  156.6706 H   0  0  0  0  0  0  0  0  0  0  0  0
  144.3327  140.7945  154.2105 H   0  0  0  0  0  0  0  0  0  0  0  0
  145.1734  137.0186  155.9395 H   0  0  0  0  0  0  0  0  0  0  0  0
  146.4757  137.3138  157.0904 H   0  0  0  0  0  0  0  0  0  0  0  0
  150.3030  136.9402  158.4521 H   0  0  0  0  0  0  0  0  0  0  0  0
  1  2  1  0  0  0  0
  1 27  1  0  0  0  0
  1 28  1  0  0  0  0
  1 29  1  0  0  0  0
  2  6  1  0  0  0  0
  2  3  1  0  0  0  0
  2 30  1  0  0  0  0
  3  4  1  0  0  0  0
  4  5  1  0  0  0  0
  4 31  1  0  0  0  0
  4 32  1  0  0  0  0
  5  6  1  0  0  0  0
  5 33  1  0  0  0  0
  5 34  1  0  0  0  0
  6  7  1  0  0  0  0
  6  8  1  0  0  0  0
  7 35  1  0  0  0  0
  8  9  1  0  0  0  0
  8 36  1  0  0  0  0
  8 37  1  0  0  0  0
  9 26  1  0  0  0  0
  9 10  1  0  0  0  0
 10 11  2  0  0  0  0
 10 38  1  0  0  0  0
 11 12  1  0  0  0  0
 12 26  2  0  0  0  0
 12 13  1  0  0  0  0
 13 14  1  0  0  0  0
 13 23  2  0  0  0  0
 14 18  1  0  0  0  0
 14 15  1  0  0  0  0
 15 22  1  0  0  0  0
 15 16  1  0  0  0  0
 15 39  1  0  0  0  0
 16 17  1  0  0  0  0
 16 40  1  0  0  0  0
 16 41  1  0  0  0  0
 17 18  1  0  0  0  0
 17 42  1  0  0  0  0
 17 43  1  0  0  0  0
 18 19  1  0  0  0  0
 18 44  1  0  0  0  0
 19 20  1  0  0  0  0
 19 22  1  0  0  0  0
 19 45  1  0  0  0  0
 20 21  1  0  0  0  0
 20 46  1  0  0  0  0
 20 47  1  0  0  0  0
 21 48  1  0  0  0  0
 22 49  1  0  0  0  0
 22 50  1  0  0  0  0
 23 24  1  0  0  0  0
 24 25  2  0  0  0  0
 24 51  1  0  0  0  0
 25 26  1  0  0  0  0
M  END
> <s_m_source_file>
AV-unprocessed.smi

> <i_m_source_file_index>
199

> <i_lp_mmshare_version>
43012

> <i_f3d_flags>
0

> <s_epik_input>
W0NIMl0xW0NIMl1PW0NAQEhdKFtDSDNdKVtDQEBdMShbT0hdKVtDSDJdbihbY0hdbjIpYyhjMjMpbltjSF1uYzNOKFtDQEBIXTQ1KVtDQEhdKFtDSDJdW0NIMl00KVtDQEhdKFtDSDJdNSlbQ0gyXVtPSF0=

> <s_epik_cmdline>
J2VwaWtfcHl0aG9uJywgJy1waCcsICc3LjAnLCAnLXRuJywgJzgnLCAnLW1hJywgJzIwMCcsICctbWV0YWxfYmluZGluZycsICctaW1hZScsICc8aW5maWxlLm1hZT4nLCAnLW9tYWUnLCAnPG91dGZpbGUubWFlPic=

> <r_lp_tautomer_probability>
1

> <r_epik_Ionization_Penalty>
0.00583903

> <r_epik_Ionization_Penalty_Charging>
0

> <r_epik_Ionization_Penalty_Neutral>
0.00583903

> <r_epik_State_Penalty>
-0

> <r_epik_Charging_Adjusted_Penalty>
0

> <i_epik_Tot_Q>
0

> <i_epik_Tot_abs_Q>
0

> <r_epik_Metal_State_Penalty>
-0

> <b_epik_Metal_Only>
0

> <s_lp_Force_Field>
OPLS_2005

> <r_lp_Energy>
84.1045

> <b_lp_Chiralities_Consistent>
1

> <s_lp_Variant>
AV-unprocessed.smi:199-8

> <Gold.Version>
5.8.1

> <Gold.Id.Protein>
6NUR|6NUR_protein|mol2

> <Gold.PLP.Fitness>
35.1375

> <Gold.PLP.PLP>
-31.6532

> <Gold.PLP.part.hbond>
-1.7247

> <Gold.PLP.part.metal>
0.0000

> <Gold.PLP.part.buried>
-3.5975

> <Gold.PLP.part.nonpolar>
-27.6056

> <Gold.PLP.part.repulsive>
0.2702

> <Gold.PLP.ligand.clash>
0.0000

> <Gold.PLP.ligand.torsion>
1.1410

> <Gold.PLP.Chemscore.Hbond>
1.0000

> <Gold.PLP.Chemscore.CHOScore>
0.9162

> <Gold.PLP.Chemscore.Metal>
0.0000

> <Gold.Chemscore.Hbonds>
donor molecule, donor type, donor heavy atom, donor atom, acceptor molecule, acceptor atom, score
      L1  H    21    48       P1 10175  1.00
      L1  C    10    38       P1  8028  0.97

> <Gold.PLP.Chemscore.Internal.Correction>
0.0178

> <Gold.Rescore>
     Score         DG    S(hbond)    S(metal)    S(lipo)     H(rot)  DE(clash)    DE(int)     intcor
      9.35     -10.48       0.99        0.00      81.72       3.07       0.08       1.05       ----

> <Gold.Chemscore.Fitness>
9.3510

> <Gold.Chemscore.DG>
-10.4778

> <Gold.Chemscore.ZeroCoef>
-5.4800

> <Gold.Chemscore.Hbond>
0.9891

> <Gold.Chemscore.Metal>
0.0000

> <Gold.Chemscore.Lipo>
81.7163

> <Gold.Chemscore.Internal_Hbond>
0.0000

> <Gold.Chemscore.DEClash>
0.0816

> <Gold.Chemscore.DEInternal>
1.0452

> <Gold.Chemscore.Rot>
3.0729

> <Gold.Chemscore.Internal.Correction>
   9.000000E+99

> <Gold.Chemscore.Hbonds>
donor molecule, donor type, donor heavy atom, donor atom, acceptor molecule, acceptor atom, score
      L1  H    21    48       P1 10175  0.98

> <Gold.Chemscore.Hbond.Weighted>
-3.3037

> <Gold.Chemscore.Metal.Weighted>
-0.0000

> <Gold.Chemscore.Lipo.Weighted>
-9.5608

> <Gold.Chemscore.Internal_Hbond.Weighted>
0.0000

> <Gold.Chemscore.DEClash.Weighted>
0.0816

> <Gold.Chemscore.DEInternal.Weighted>
1.0452

> <Gold.Chemscore.Rot.Weighted>
7.8667

> <Gold.Chemscore.Internal.Correction.Weighted>
   9.000000E+99

> <Gold.Protein.RotatedTorsions>
[ 6907 6896 6895 6894 ] final  161.59 input  -60.11 | X-H torsion
[ 7974 7965 7964 7962 ] final  -11.59 input  175.53 | X-H torsion
[ 8008 7997 7996 7995 ] final  -61.36 input   59.86 | X-H torsion
[ 10167 10162 10161 10158 ] final  -79.46 input  -65.29 | X-H torsion
[ 10718 10713 10712 10709 ] final -115.36 input   66.30 | X-H torsion
[ 10763 10752 10751 10750 ] final   94.21 input  -60.55 | X-H torsion
[ 11005 11000 10999 10996 ] final   57.91 input  -57.11 | X-H torsion

> <Gold.Protein.ActiveResidues>
 VAL166  LYS551  ARG553  GLY616  TRP617  ASP618  TYR619  PRO620  LYS621  CYS622 
 ASP623  PHE694  ASN695  SER759  ASP760  ASP761  ALA762  ILE779  LEU786  VAL792 
 PHE793  MET794  SER795  GLU796  ALA797  LYS798  CYS799  TRP800  GLU811  SER814 

> <Gold.Protein.RotatedAtoms>
  151.9534  133.3673  159.4007 H   0  0  0  0  0  0  0  0  0  0  0  0  # atno 6907 bound_to 6896
  150.6977  134.4317  159.5260 H   0  0  0  0  0  0  0  0  0  0  0  0  # atno 6908 bound_to 6896
  152.1993  134.8602  160.0560 H   0  0  0  0  0  0  0  0  0  0  0  0  # atno 6909 bound_to 6896
  146.2182  140.2933  142.8370 H   0  0  0  0  0  0  0  0  0  0  0  0  # atno 7974 bound_to 7965
  154.4444  140.1019  156.6418 H   0  0  0  0  0  0  0  0  0  0  0  0  # atno 8008 bound_to 7997
  155.5493  140.3485  155.4446 H   0  0  0  0  0  0  0  0  0  0  0  0  # atno 8009 bound_to 7997
  156.0540  140.1311  157.0006 H   0  0  0  0  0  0  0  0  0  0  0  0  # atno 8010 bound_to 7997
  140.4591  143.2459  151.8375 H   0  0  0  0  0  0  0  0  0  0  0  0  # atno 10167 bound_to 10162
  156.0890  130.6076  150.8895 H   0  0  0  0  0  0  0  0  0  0  0  0  # atno 10718 bound_to 10713
  153.2390  135.4298  155.0678 H   0  0  0  0  0  0  0  0  0  0  0  0  # atno 10763 bound_to 10752
  154.8332  135.3398  154.6676 H   0  0  0  0  0  0  0  0  0  0  0  0  # atno 10764 bound_to 10752
  153.7100  135.7023  153.5096 H   0  0  0  0  0  0  0  0  0  0  0  0  # atno 10765 bound_to 10752
  140.0417  134.5864  155.9373 H   0  0  0  0  0  0  0  0  0  0  0  0  # atno 11005 bound_to 11000
  144.9111  140.7758  143.5807 LP  0  0  0  0  0  0  0  0  0  0  0  0  # atno 17320 bound_to 7965
  145.2864  139.1899  143.4763 LP  0  0  0  0  0  0  0  0  0  0  0  0  # atno 17321 bound_to 7965
  139.4804  144.5029  151.9037 LP  0  0  0  0  0  0  0  0  0  0  0  0  # atno 17342 bound_to 10162
  140.4115  144.2363  150.5889 LP  0  0  0  0  0  0  0  0  0  0  0  0  # atno 17343 bound_to 10162
  157.6034  131.0940  150.8921 LP  0  0  0  0  0  0  0  0  0  0  0  0  # atno 17370 bound_to 10713
  156.9074  130.5268  149.5281 LP  0  0  0  0  0  0  0  0  0  0  0  0  # atno 17371 bound_to 10713
  141.1886  133.6563  156.5333 LP  0  0  0  0  0  0  0  0  0  0  0  0  # atno 17394 bound_to 11000
  140.4058  134.7316  157.4807 LP  0  0  0  0  0  0  0  0  0  0  0  0  # atno 17395 bound_to 11000

$$$$
