AV-unprocessed.smi:1381|AV-procd|sdf|5606|dock8
  -GOLD-   22720 5213D 1   1.00000     0.00000
 Structure written by MMmdl.
 43 44  0  0  0  0  0  0  0  0  2 V2000
  153.3306  137.4820  156.7972 C   0  0  0  0  0  0  0  0  0  0  0  0
  152.3566  138.1408  155.8817 C   0  0  0  0  0  0  0  0  0  0  0  0
  151.3824  137.6564  155.0547 C   0  0  0  0  0  0  0  0  0  0  0  0
  150.8360  138.8347  154.4802 C   0  0  0  0  0  0  0  0  0  0  0  0
  149.7723  138.7632  153.5447 N   0  0  0  0  0  0  0  0  0  0  0  0
  148.4577  138.6703  153.8071 C   0  0  0  0  0  0  0  0  0  0  0  0
  147.9581  138.6279  154.9319 O   0  0  0  0  0  0  0  0  0  0  0  0
  147.7351  138.6244  152.6784 N   0  0  0  0  0  0  0  0  0  0  0  0
  146.2809  138.5289  152.6279 C   0  0  0  0  0  0  0  0  0  0  0  0
  145.8172  137.5177  151.5618 C   0  0  0  0  0  0  0  0  0  0  0  0
  146.0971  136.1153  151.9573 N   0  3  1  0  0  0  0  0  0  0  0  0
  145.5144  135.7723  153.2762 C   0  0  0  0  0  0  0  0  0  0  0  0
  145.8758  134.3316  153.6885 C   0  0  2  0  0  0  0  0  0  0  0  0
  147.3407  134.1678  154.1312 C   0  0  0  0  0  0  0  0  0  0  0  0
  145.5178  133.4173  152.6523 O   0  0  0  0  0  0  0  0  0  0  0  0
  146.0887  133.7020  151.3776 C   0  0  1  0  0  0  0  0  0  0  0  0
  145.6007  132.6331  150.3934 C   0  0  0  0  0  0  0  0  0  0  0  0
  145.6820  135.1204  150.9392 C   0  0  0  0  0  0  0  0  0  0  0  0
  151.4242  139.9383  154.9157 N   0  0  0  0  0  0  0  0  0  0  0  0
  152.4024  139.4990  155.8155 O   0  0  0  0  0  0  0  0  0  0  0  0
  153.0804  136.4307  156.9404 H   0  0  0  0  0  0  0  0  0  0  0  0
  153.3311  137.9647  157.7745 H   0  0  0  0  0  0  0  0  0  0  0  0
  154.3405  137.5380  156.3911 H   0  0  0  0  0  0  0  0  0  0  0  0
  151.1075  136.6250  154.8911 H   0  0  0  0  0  0  0  0  0  0  0  0
  150.0429  138.7859  152.5726 H   0  0  0  0  0  0  0  0  0  0  0  0
  148.2232  138.6664  151.7955 H   0  0  0  0  0  0  0  0  0  0  0  0
  145.9066  138.2672  153.6182 H   0  0  0  0  0  0  0  0  0  0  0  0
  145.8838  139.5180  152.3981 H   0  0  0  0  0  0  0  0  0  0  0  0
  144.7423  137.6437  151.4233 H   0  0  0  0  0  0  0  0  0  0  0  0
  146.2773  137.7228  150.5939 H   0  0  0  0  0  0  0  0  0  0  0  0
  145.8617  136.4734  154.0363 H   0  0  0  0  0  0  0  0  0  0  0  0
  144.4294  135.8775  153.2226 H   0  0  0  0  0  0  0  0  0  0  0  0
  145.2581  134.0690  154.5478 H   0  0  0  0  0  0  0  0  0  0  0  0
  147.5495  134.7799  155.0088 H   0  0  0  0  0  0  0  0  0  0  0  0
  148.0449  134.4657  153.3549 H   0  0  0  0  0  0  0  0  0  0  0  0
  147.5526  133.1316  154.3961 H   0  0  0  0  0  0  0  0  0  0  0  0
  147.1751  133.6345  151.4365 H   0  0  0  0  0  0  0  0  0  0  0  0
  146.0130  132.7979  149.3977 H   0  0  0  0  0  0  0  0  0  0  0  0
  144.5136  132.6382  150.3105 H   0  0  0  0  0  0  0  0  0  0  0  0
  145.9047  131.6376  150.7174 H   0  0  0  0  0  0  0  0  0  0  0  0
  144.6016  135.1761  150.7946 H   0  0  0  0  0  0  0  0  0  0  0  0
  146.1427  135.3444  149.9778 H   0  0  0  0  0  0  0  0  0  0  0  0
  147.0989  136.0377  152.0603 H   0  0  0  0  0  0  0  0  0  0  0  0
  1  2  1  0  0  0  0
  1 21  1  0  0  0  0
  1 22  1  0  0  0  0
  1 23  1  0  0  0  0
  2 20  1  0  0  0  0
  2  3  2  0  0  0  0
  3  4  1  0  0  0  0
  3 24  1  0  0  0  0
  4  5  1  0  0  0  0
  4 19  2  0  0  0  0
  5  6  1  0  0  0  0
  5 25  1  0  0  0  0
  6  7  2  0  0  0  0
  6  8  1  0  0  0  0
  8  9  1  0  0  0  0
  8 26  1  0  0  0  0
  9 10  1  0  0  0  0
  9 27  1  0  0  0  0
  9 28  1  0  0  0  0
 10 11  1  0  0  0  0
 10 29  1  0  0  0  0
 10 30  1  0  0  0  0
 11 18  1  0  0  0  0
 11 12  1  0  0  0  0
 11 43  1  0  0  0  0
 12 13  1  0  0  0  0
 12 31  1  0  0  0  0
 12 32  1  0  0  0  0
 13 14  1  0  0  0  0
 13 15  1  0  0  0  0
 13 33  1  0  0  0  0
 14 34  1  0  0  0  0
 14 35  1  0  0  0  0
 14 36  1  0  0  0  0
 15 16  1  0  0  0  0
 16 17  1  0  0  0  0
 16 18  1  0  0  0  0
 16 37  1  0  0  0  0
 17 38  1  0  0  0  0
 17 39  1  0  0  0  0
 17 40  1  0  0  0  0
 18 41  1  0  0  0  0
 18 42  1  0  0  0  0
 19 20  1  0  0  0  0
M  CHG  1  11   1
M  END
> <s_m_source_file>
AV-unprocessed.smi

> <i_m_source_file_index>
1381

> <i_lp_mmshare_version>
43012

> <i_f3d_flags>
0

> <s_epik_input>
W0NIM11jMVtjSF1jKG5vMSlbTkhdQyg9TylbTkhdW0NIMl1bQ0gyXU4yW0NIMl1bQ0BASF0oW0NIM10pT1tDQEBIXShbQ0gzXSlbQ0gyXTI=

> <s_epik_cmdline>
J2VwaWtfcHl0aG9uJywgJy1waCcsICc3LjAnLCAnLXRuJywgJzgnLCAnLW1hJywgJzIwMCcsICctbWV0YWxfYmluZGluZycsICctaW1hZScsICc8aW5maWxlLm1hZT4nLCAnLW9tYWUnLCAnPG91dGZpbGUubWFlPic=

> <r_epik_Ionization_Penalty>
0.707076

> <r_epik_Ionization_Penalty_Charging>
0.707039

> <r_epik_Ionization_Penalty_Neutral>
3.6548e-05

> <r_epik_State_Penalty>
0.730276

> <r_epik_Charging_Adjusted_Penalty>
1.43732

> <i_epik_Tot_Q>
1

> <i_epik_Tot_abs_Q>
1

> <r_epik_Metal_State_Penalty>
0.743132

> <b_epik_Metal_Only>
0

> <s_lp_Force_Field>
OPLS_2005

> <r_lp_Energy>
14.5355

> <b_lp_Chiralities_Consistent>
1

> <s_lp_Variant>
AV-unprocessed.smi:1381-5

> <Gold.Version>
5.8.1

> <Gold.Id.Protein>
6NUR|6NUR_protein|mol2

> <Gold.PLP.Fitness>
45.4433

> <Gold.PLP.PLP>
-31.0792

> <Gold.PLP.part.hbond>
-6.3992

> <Gold.PLP.part.metal>
0.0000

> <Gold.PLP.part.buried>
-1.3946

> <Gold.PLP.part.nonpolar>
-24.0152

> <Gold.PLP.part.repulsive>
0.4570

> <Gold.PLP.ligand.clash>
0.0000

> <Gold.PLP.ligand.torsion>
0.8922

> <Gold.PLP.Chemscore.Hbond>
5.3760

> <Gold.PLP.Chemscore.CHOScore>
0.0000

> <Gold.PLP.Chemscore.Metal>
0.0000

> <Gold.Chemscore.Hbonds>
donor molecule, donor type, donor heavy atom, donor atom, acceptor molecule, acceptor atom, score
      L1  H     5    25       P1  7957  0.66
      L1  H     8    26       P1  7957  0.61
      L1  H    11    43       P1  7948  2.00
      P1  H  7989  7998       L1    19  1.00
      P1  H  7997  8010       L1    20  0.86

> <Gold.PLP.Chemscore.Internal.Correction>
0.0205

> <Gold.Rescore>
     Score         DG    S(hbond)    S(metal)    S(lipo)     H(rot)  DE(clash)    DE(int)     intcor
     17.68     -18.90       3.28        0.00      56.25       1.61       0.31       0.90       ----

> <Gold.Chemscore.Fitness>
17.6817

> <Gold.Chemscore.DG>
-18.8974

> <Gold.Chemscore.ZeroCoef>
-5.4800

> <Gold.Chemscore.Hbond>
3.2794

> <Gold.Chemscore.Metal>
0.0000

> <Gold.Chemscore.Lipo>
56.2457

> <Gold.Chemscore.Internal_Hbond>
0.0000

> <Gold.Chemscore.DEClash>
0.3146

> <Gold.Chemscore.DEInternal>
0.9011

> <Gold.Chemscore.Rot>
1.6081

> <Gold.Chemscore.Internal.Correction>
   9.000000E+99

> <Gold.Chemscore.Hbonds>
donor molecule, donor type, donor heavy atom, donor atom, acceptor molecule, acceptor atom, score
      L1  H     5    25       P1  7957  0.26
      L1  H     8    26       P1  7957  0.42
      L1  H    11    43       P1  7948  1.00
      P1  H  7989  7998       L1    19  0.45
      P1  H  7997  8010       L1    20  0.59

> <Gold.Chemscore.Hbond.Weighted>
-10.9533

> <Gold.Chemscore.Metal.Weighted>
-0.0000

> <Gold.Chemscore.Lipo.Weighted>
-6.5807

> <Gold.Chemscore.Internal_Hbond.Weighted>
0.0000

> <Gold.Chemscore.DEClash.Weighted>
0.3146

> <Gold.Chemscore.DEInternal.Weighted>
0.9011

> <Gold.Chemscore.Rot.Weighted>
4.1167

> <Gold.Chemscore.Internal.Correction.Weighted>
   9.000000E+99

> <Gold.Protein.RotatedTorsions>
[ 6907 6896 6895 6894 ] final -161.89 input  -60.11 | X-H torsion
[ 7974 7965 7964 7962 ] final  -11.31 input  175.53 | X-H torsion
[ 8008 7997 7996 7995 ] final   84.53 input   59.86 | X-H torsion
[ 10167 10162 10161 10158 ] final   -0.23 input  -65.29 | X-H torsion
[ 10718 10713 10712 10709 ] final  -31.97 input   66.30 | X-H torsion
[ 10763 10752 10751 10750 ] final  170.70 input  -60.55 | X-H torsion
[ 11005 11000 10999 10996 ] final  -62.13 input  -57.11 | X-H torsion

> <Gold.Protein.ActiveResidues>
 VAL166  LYS551  ARG553  GLY616  TRP617  ASP618  TYR619  PRO620  LYS621  CYS622 
 ASP623  PHE694  ASN695  SER759  ASP760  ASP761  ALA762  ILE779  LEU786  VAL792 
 PHE793  MET794  SER795  GLU796  ALA797  LYS798  CYS799  TRP800  GLU811  SER814 

> <Gold.Protein.RotatedAtoms>
  151.3717  133.3852  159.2700 H   0  0  0  0  0  0  0  0  0  0  0  0  # atno 6907 bound_to 6896
  150.9646  134.9030  159.7762 H   0  0  0  0  0  0  0  0  0  0  0  0  # atno 6908 bound_to 6896
  152.5162  134.3677  159.9359 H   0  0  0  0  0  0  0  0  0  0  0  0  # atno 6909 bound_to 6896
  146.2192  140.2891  142.8367 H   0  0  0  0  0  0  0  0  0  0  0  0  # atno 7974 bound_to 7965
  155.9383  140.3410  155.6306 H   0  0  0  0  0  0  0  0  0  0  0  0  # atno 8008 bound_to 7997
  155.7072  140.0767  157.2405 H   0  0  0  0  0  0  0  0  0  0  0  0  # atno 8009 bound_to 7997
  154.4098  140.1629  156.2243 H   0  0  0  0  0  0  0  0  0  0  0  0  # atno 8010 bound_to 7997
  140.6758  143.6919  150.8021 H   0  0  0  0  0  0  0  0  0  0  0  0  # atno 10167 bound_to 10162
  156.3807  130.4355  149.7471 H   0  0  0  0  0  0  0  0  0  0  0  0  # atno 10718 bound_to 10713
  154.4013  135.2755  155.2094 H   0  0  0  0  0  0  0  0  0  0  0  0  # atno 10763 bound_to 10752
  154.4119  135.6020  153.5961 H   0  0  0  0  0  0  0  0  0  0  0  0  # atno 10764 bound_to 10752
  152.9831  135.5951  154.4282 H   0  0  0  0  0  0  0  0  0  0  0  0  # atno 10765 bound_to 10752
  141.1349  133.6637  156.5480 H   0  0  0  0  0  0  0  0  0  0  0  0  # atno 11005 bound_to 11000
  144.9140  140.7790  143.5790 LP  0  0  0  0  0  0  0  0  0  0  0  0  # atno 17320 bound_to 7965
  145.2824  139.1913  143.4784 LP  0  0  0  0  0  0  0  0  0  0  0  0  # atno 17321 bound_to 7965
  140.0612  143.5153  152.2627 LP  0  0  0  0  0  0  0  0  0  0  0  0  # atno 17342 bound_to 10162
  139.6050  144.7593  151.3083 LP  0  0  0  0  0  0  0  0  0  0  0  0  # atno 17343 bound_to 10162
  156.4563  130.7930  151.2951 LP  0  0  0  0  0  0  0  0  0  0  0  0  # atno 17370 bound_to 10713
  157.7492  131.0080  150.3211 LP  0  0  0  0  0  0  0  0  0  0  0  0  # atno 17371 bound_to 10713
  140.4086  134.7292  157.4823 LP  0  0  0  0  0  0  0  0  0  0  0  0  # atno 17394 bound_to 11000
  140.0443  134.6221  155.8940 LP  0  0  0  0  0  0  0  0  0  0  0  0  # atno 17395 bound_to 11000

$$$$
