AV-unprocessed.smi:2252|AV-procd|sdf|9106|dock3
  -GOLD-   2272012303D 1   1.00000     0.00000
 Structure written by MMmdl.
 45 47  0  0  0  0  0  0  0  0  2 V2000
  151.6445  145.3547  159.7132 C   0  0  0  0  0  0  0  0  0  0  0  0
  152.0244  143.9551  159.7016 N   0  0  0  0  0  0  0  0  0  0  0  0
  152.7316  143.2984  160.7002 C   0  0  0  0  0  0  0  0  0  0  0  0
  152.8802  141.9967  160.2876 C   0  0  0  0  0  0  0  0  0  0  0  0
  152.2737  141.8349  159.0470 N   0  0  0  0  0  0  0  0  0  0  0  0
  151.7802  143.0328  158.7491 C   0  0  0  0  0  0  0  0  0  0  0  0
  151.0442  143.3283  157.4746 C   0  0  0  0  0  0  0  0  0  0  0  0
  151.0624  142.1618  156.4725 C   0  0  0  0  0  0  0  0  0  0  0  0
  149.8222  142.0924  155.7085 N   0  0  0  0  0  0  0  0  0  0  0  0
  149.5902  141.2412  154.6989 C   0  0  0  0  0  0  0  0  0  0  0  0
  150.4066  140.3982  154.3250 O   0  0  0  0  0  0  0  0  0  0  0  0
  148.2364  141.3785  153.9844 C   0  0  1  0  0  0  0  0  0  0  0  0
  147.4952  140.0263  154.0764 C   0  0  0  0  0  0  0  0  0  0  0  0
  148.1841  138.7350  153.6869 C   0  0  0  0  0  0  0  0  0  0  0  0
  147.0647  139.2737  152.8354 C   0  0  0  0  0  0  0  0  0  0  0  0
  147.4163  142.4873  154.5518 N   0  3  0  0  0  0  0  0  0  0  0  0
  146.3074  142.9622  153.6953 C   0  0  0  0  0  0  0  0  0  0  0  0
  145.4024  143.7504  154.6346 C   0  0  0  0  0  0  0  0  0  0  0  0
  145.4865  142.9741  155.9461 C   0  0  0  0  0  0  0  0  0  0  0  0
  146.8263  142.2250  155.8874 C   0  0  0  0  0  0  0  0  0  0  0  0
  152.0641  145.8505  160.5892 H   0  0  0  0  0  0  0  0  0  0  0  0
  150.5583  145.4417  159.7459 H   0  0  0  0  0  0  0  0  0  0  0  0
  152.0199  145.8500  158.8180 H   0  0  0  0  0  0  0  0  0  0  0  0
  153.0642  143.7980  161.5983 H   0  0  0  0  0  0  0  0  0  0  0  0
  153.3717  141.1721  160.7828 H   0  0  0  0  0  0  0  0  0  0  0  0
  150.0115  143.5734  157.7247 H   0  0  0  0  0  0  0  0  0  0  0  0
  151.4562  144.2228  157.0078 H   0  0  0  0  0  0  0  0  0  0  0  0
  151.9065  142.2906  155.7924 H   0  0  0  0  0  0  0  0  0  0  0  0
  151.2178  141.2182  156.9964 H   0  0  0  0  0  0  0  0  0  0  0  0
  149.1032  142.7608  155.9453 H   0  0  0  0  0  0  0  0  0  0  0  0
  148.4258  141.6077  152.9337 H   0  0  0  0  0  0  0  0  0  0  0  0
  146.8287  139.9522  154.9344 H   0  0  0  0  0  0  0  0  0  0  0  0
  149.1891  138.7951  153.2764 H   0  0  0  0  0  0  0  0  0  0  0  0
  147.9805  137.8543  154.2923 H   0  0  0  0  0  0  0  0  0  0  0  0
  146.1100  138.7530  152.8707 H   0  0  0  0  0  0  0  0  0  0  0  0
  147.3336  139.6881  151.8658 H   0  0  0  0  0  0  0  0  0  0  0  0
  146.6584  143.5713  152.8617 H   0  0  0  0  0  0  0  0  0  0  0  0
  145.7641  142.1081  153.2874 H   0  0  0  0  0  0  0  0  0  0  0  0
  145.8027  144.7555  154.7747 H   0  0  0  0  0  0  0  0  0  0  0  0
  144.3823  143.8445  154.2611 H   0  0  0  0  0  0  0  0  0  0  0  0
  145.4157  143.6311  156.8135 H   0  0  0  0  0  0  0  0  0  0  0  0
  144.6660  142.2580  156.0078 H   0  0  0  0  0  0  0  0  0  0  0  0
  146.6458  141.1593  156.0326 H   0  0  0  0  0  0  0  0  0  0  0  0
  147.5117  142.5579  156.6676 H   0  0  0  0  0  0  0  0  0  0  0  0
  148.0337  143.2784  154.6694 H   0  0  0  0  0  0  0  0  0  0  0  0
  1  2  1  0  0  0  0
  1 21  1  0  0  0  0
  1 22  1  0  0  0  0
  1 23  1  0  0  0  0
  2  6  1  0  0  0  0
  2  3  1  0  0  0  0
  3  4  2  0  0  0  0
  3 24  1  0  0  0  0
  4  5  1  0  0  0  0
  4 25  1  0  0  0  0
  5  6  2  0  0  0  0
  6  7  1  0  0  0  0
  7  8  1  0  0  0  0
  7 26  1  0  0  0  0
  7 27  1  0  0  0  0
  8  9  1  0  0  0  0
  8 28  1  0  0  0  0
  8 29  1  0  0  0  0
  9 10  1  0  0  0  0
  9 30  1  0  0  0  0
 10 11  2  0  0  0  0
 10 12  1  0  0  0  0
 12 13  1  0  0  0  0
 12 16  1  0  0  0  0
 12 31  1  0  0  0  0
 13 15  1  0  0  0  0
 13 14  1  0  0  0  0
 13 32  1  0  0  0  0
 14 15  1  0  0  0  0
 14 33  1  0  0  0  0
 14 34  1  0  0  0  0
 15 35  1  0  0  0  0
 15 36  1  0  0  0  0
 16 20  1  0  0  0  0
 16 17  1  0  0  0  0
 16 45  1  0  0  0  0
 17 18  1  0  0  0  0
 17 37  1  0  0  0  0
 17 38  1  0  0  0  0
 18 19  1  0  0  0  0
 18 39  1  0  0  0  0
 18 40  1  0  0  0  0
 19 20  1  0  0  0  0
 19 41  1  0  0  0  0
 19 42  1  0  0  0  0
 20 43  1  0  0  0  0
 20 44  1  0  0  0  0
M  CHG  1  16   1
M  END
> <s_m_source_file>
AV-unprocessed.smi

> <i_m_source_file_index>
2252

> <i_lp_mmshare_version>
43012

> <i_f3d_flags>
0

> <s_epik_input>
W0NIM11uMVtjSF1bY0hdbmMxW0NIMl1bQ0gyXVtOSF1DKD1PKVtDQEhdKFtDSF0yW0NIMl1bQ0gyXTIpTjNbQ0gyXVtDSDJdW0NIMl1bQ0gyXTM=

> <s_epik_cmdline>
J2VwaWtfcHl0aG9uJywgJy1waCcsICc3LjAnLCAnLXRuJywgJzgnLCAnLW1hJywgJzIwMCcsICctbWV0YWxfYmluZGluZycsICctaW1hZScsICc8aW5maWxlLm1hZT4nLCAnLW9tYWUnLCAnPG91dGZpbGUubWFlPic=

> <r_lp_tautomer_probability>
1

> <r_epik_Ionization_Penalty>
1.07437

> <r_epik_Ionization_Penalty_Charging>
1.07435

> <r_epik_Ionization_Penalty_Neutral>
2.35578e-05

> <r_epik_State_Penalty>
1.18204

> <r_epik_Charging_Adjusted_Penalty>
2.25639

> <i_epik_Tot_Q>
1

> <i_epik_Tot_abs_Q>
1

> <r_epik_Metal_State_Penalty>
0.433434

> <b_epik_Metal_Only>
0

> <s_lp_Force_Field>
OPLS_2005

> <r_lp_Energy>
34.9186

> <b_lp_Chiralities_Consistent>
1

> <s_lp_Variant>
AV-unprocessed.smi:2252-4

> <Gold.Version>
5.8.1

> <Gold.Id.Protein>
6NUR|6NUR_protein|mol2

> <Gold.PLP.Fitness>
57.2822

> <Gold.PLP.PLP>
-47.8496

> <Gold.PLP.part.hbond>
-3.0000

> <Gold.PLP.part.metal>
0.0000

> <Gold.PLP.part.buried>
-6.6023

> <Gold.PLP.part.nonpolar>
-38.4883

> <Gold.PLP.part.repulsive>
0.3883

> <Gold.PLP.ligand.clash>
0.0000

> <Gold.PLP.ligand.torsion>
1.2893

> <Gold.PLP.Chemscore.Hbond>
3.6160

> <Gold.PLP.Chemscore.CHOScore>
0.0000

> <Gold.PLP.Chemscore.Metal>
0.0000

> <Gold.Chemscore.Hbonds>
donor molecule, donor type, donor heavy atom, donor atom, acceptor molecule, acceptor atom, score
      L1  H     9    30       P1  8028  0.69
      L1  H    16    45       P1  8028  2.00
      P1  H  7989  7998       L1    11  1.00

> <Gold.PLP.Chemscore.Internal.Correction>
1.1632

> <Gold.Rescore>
     Score         DG    S(hbond)    S(metal)    S(lipo)     H(rot)  DE(clash)    DE(int)     intcor
     17.61     -19.91       2.40        0.00      97.63       1.95       0.18       2.13       ----

> <Gold.Chemscore.Fitness>
17.6080

> <Gold.Chemscore.DG>
-19.9147

> <Gold.Chemscore.ZeroCoef>
-5.4800

> <Gold.Chemscore.Hbond>
2.3954

> <Gold.Chemscore.Metal>
0.0000

> <Gold.Chemscore.Lipo>
97.6268

> <Gold.Chemscore.Internal_Hbond>
0.0000

> <Gold.Chemscore.DEClash>
0.1809

> <Gold.Chemscore.DEInternal>
2.1258

> <Gold.Chemscore.Rot>
1.9485

> <Gold.Chemscore.Internal.Correction>
   9.000000E+99

> <Gold.Chemscore.Hbonds>
donor molecule, donor type, donor heavy atom, donor atom, acceptor molecule, acceptor atom, score
      L1  H     9    30       P1  8028  0.66
      L1  H    16    45       P1  8028  0.89
      P1  H  7989  7998       L1    11  0.85

> <Gold.Chemscore.Hbond.Weighted>
-8.0005

> <Gold.Chemscore.Metal.Weighted>
-0.0000

> <Gold.Chemscore.Lipo.Weighted>
-11.4223

> <Gold.Chemscore.Internal_Hbond.Weighted>
0.0000

> <Gold.Chemscore.DEClash.Weighted>
0.1809

> <Gold.Chemscore.DEInternal.Weighted>
2.1258

> <Gold.Chemscore.Rot.Weighted>
4.9881

> <Gold.Chemscore.Internal.Correction.Weighted>
   9.000000E+99

> <Gold.Protein.RotatedTorsions>
[ 6907 6896 6895 6894 ] final  107.90 input  -60.11 | X-H torsion
[ 7974 7965 7964 7962 ] final  -85.08 input  175.53 | X-H torsion
[ 8008 7997 7996 7995 ] final   95.06 input   59.86 | X-H torsion
[ 10167 10162 10161 10158 ] final  101.76 input  -65.29 | X-H torsion
[ 10718 10713 10712 10709 ] final   73.29 input   66.30 | X-H torsion
[ 10763 10752 10751 10750 ] final   72.01 input  -60.55 | X-H torsion
[ 11005 11000 10999 10996 ] final    8.23 input  -57.11 | X-H torsion

> <Gold.Protein.ActiveResidues>
 VAL166  LYS551  ARG553  GLY616  TRP617  ASP618  TYR619  PRO620  LYS621  CYS622 
 ASP623  PHE694  ASN695  SER759  ASP760  ASP761  ALA762  ILE779  LEU786  VAL792 
 PHE793  MET794  SER795  GLU796  ALA797  LYS798  CYS799  TRP800  GLU811  SER814 

> <Gold.Protein.RotatedAtoms>
  152.5135  133.9168  159.7514 H   0  0  0  0  0  0  0  0  0  0  0  0  # atno 6907 bound_to 6896
  150.9548  133.6500  159.2772 H   0  0  0  0  0  0  0  0  0  0  0  0  # atno 6908 bound_to 6896
  151.3766  135.0937  159.9535 H   0  0  0  0  0  0  0  0  0  0  0  0  # atno 6909 bound_to 6896
  145.4981  140.9549  143.1775 H   0  0  0  0  0  0  0  0  0  0  0  0  # atno 7974 bound_to 7965
  156.0648  140.3291  155.7504 H   0  0  0  0  0  0  0  0  0  0  0  0  # atno 8008 bound_to 7997
  155.5399  140.0601  157.2889 H   0  0  0  0  0  0  0  0  0  0  0  0  # atno 8009 bound_to 7997
  154.4499  140.1912  156.0568 H   0  0  0  0  0  0  0  0  0  0  0  0  # atno 8010 bound_to 7997
  139.7409  144.7011  151.0576 H   0  0  0  0  0  0  0  0  0  0  0  0  # atno 10167 bound_to 10162
  157.6541  130.9621  150.1049 H   0  0  0  0  0  0  0  0  0  0  0  0  # atno 10718 bound_to 10713
  153.0433  135.5115  154.7680 H   0  0  0  0  0  0  0  0  0  0  0  0  # atno 10763 bound_to 10752
  154.6600  135.2937  154.9881 H   0  0  0  0  0  0  0  0  0  0  0  0  # atno 10764 bound_to 10752
  154.0736  135.6674  153.4880 H   0  0  0  0  0  0  0  0  0  0  0  0  # atno 10765 bound_to 10752
  140.5394  134.0389  155.7899 H   0  0  0  0  0  0  0  0  0  0  0  0  # atno 11005 bound_to 11000
  144.7795  139.6556  143.7160 LP  0  0  0  0  0  0  0  0  0  0  0  0  # atno 17320 bound_to 7965
  146.2243  139.5693  142.9598 LP  0  0  0  0  0  0  0  0  0  0  0  0  # atno 17321 bound_to 7965
  140.7786  143.4925  150.9875 LP  0  0  0  0  0  0  0  0  0  0  0  0  # atno 17342 bound_to 10162
  139.8613  143.7310  152.3173 LP  0  0  0  0  0  0  0  0  0  0  0  0  # atno 17343 bound_to 10162
  156.1961  130.3657  149.8847 LP  0  0  0  0  0  0  0  0  0  0  0  0  # atno 17370 bound_to 10713
  156.6763  130.8840  151.3569 LP  0  0  0  0  0  0  0  0  0  0  0  0  # atno 17371 bound_to 10713
  141.1236  133.9420  157.2680 LP  0  0  0  0  0  0  0  0  0  0  0  0  # atno 17394 bound_to 11000
  139.9512  135.0175  156.8999 LP  0  0  0  0  0  0  0  0  0  0  0  0  # atno 17395 bound_to 11000

$$$$
