AV-unprocessed.smi:1196|AV-procd|sdf|4998|dock8
  -GOLD-   22720 4 03D 1   1.00000     0.00000
 Structure written by MMmdl.
 37 38  0  0  0  0  0  0  0  0  1 V2000
  152.9601  139.2646  158.6226 C   0  0  0  0  0  0  0  0  0  0  0  0
  152.5147  140.7110  158.3567 C   0  0  2  0  0  0  0  0  0  0  0  0
  152.1531  141.4402  159.6656 C   0  0  0  0  0  0  0  0  0  0  0  0
  151.7542  142.8188  159.4421 N   0  0  0  0  0  0  0  0  0  0  0  0
  152.4460  143.8160  158.7868 C   0  0  0  0  0  0  0  0  0  0  0  0
  151.6758  144.9424  158.8329 C   0  0  0  0  0  0  0  0  0  0  0  0
  150.5149  144.5291  159.5444 C   0  0  0  0  0  0  0  0  0  0  0  0
  150.5641  143.2572  159.9060 N   0  0  0  0  0  0  0  0  0  0  0  0
  151.3717  140.7232  157.4455 N   0  0  0  0  0  0  0  0  0  0  0  0
  151.4059  140.3799  156.1492 C   0  0  0  0  0  0  0  0  0  0  0  0
  152.4226  139.9737  155.5853 O   0  0  0  0  0  0  0  0  0  0  0  0
  150.0852  140.5295  155.3876 C   0  0  0  0  0  0  0  0  0  0  0  0
  149.5960  139.2226  154.7323 C   0  0  0  0  0  0  0  0  0  0  0  0
  148.7363  139.4611  153.4761 C   0  0  1  0  0  0  0  0  0  0  0  0
  148.2905  138.2242  152.8573 N   0  0  0  0  0  0  0  0  0  0  0  0
  146.9549  138.1254  152.8126 C   0  0  0  0  0  0  0  0  0  0  0  0
  146.3159  137.1872  152.3423 O   0  0  0  0  0  0  0  0  0  0  0  0
  146.4409  139.2269  153.3701 N   0  0  0  0  0  0  0  0  0  0  0  0
  147.3816  140.0667  153.7984 C   0  0  0  0  0  0  0  0  0  0  0  0
  147.2095  141.1469  154.3599 O   0  0  0  0  0  0  0  0  0  0  0  0
  153.8209  139.2373  159.2912 H   0  0  0  0  0  0  0  0  0  0  0  0
  153.2486  138.7631  157.6983 H   0  0  0  0  0  0  0  0  0  0  0  0
  152.1622  138.6816  159.0834 H   0  0  0  0  0  0  0  0  0  0  0  0
  153.3494  141.2413  157.8940 H   0  0  0  0  0  0  0  0  0  0  0  0
  151.3449  140.9218  160.1835 H   0  0  0  0  0  0  0  0  0  0  0  0
  153.0071  141.4406  160.3444 H   0  0  0  0  0  0  0  0  0  0  0  0
  153.4187  143.6436  158.3503 H   0  0  0  0  0  0  0  0  0  0  0  0
  151.9061  145.9138  158.4214 H   0  0  0  0  0  0  0  0  0  0  0  0
  149.6442  145.1114  159.8071 H   0  0  0  0  0  0  0  0  0  0  0  0
  150.4925  141.0431  157.8251 H   0  0  0  0  0  0  0  0  0  0  0  0
  149.3262  140.8986  156.0788 H   0  0  0  0  0  0  0  0  0  0  0  0
  150.2204  141.3003  154.6281 H   0  0  0  0  0  0  0  0  0  0  0  0
  150.4530  138.5962  154.4770 H   0  0  0  0  0  0  0  0  0  0  0  0
  149.0102  138.6564  155.4584 H   0  0  0  0  0  0  0  0  0  0  0  0
  149.2584  140.0805  152.7456 H   0  0  0  0  0  0  0  0  0  0  0  0
  148.9274  137.5247  152.5044 H   0  0  0  0  0  0  0  0  0  0  0  0
  145.4504  139.3978  153.4649 H   0  0  0  0  0  0  0  0  0  0  0  0
  1  2  1  0  0  0  0
  1 21  1  0  0  0  0
  1 22  1  0  0  0  0
  1 23  1  0  0  0  0
  2  3  1  0  0  0  0
  2  9  1  0  0  0  0
  2 24  1  0  0  0  0
  3  4  1  0  0  0  0
  3 25  1  0  0  0  0
  3 26  1  0  0  0  0
  4  8  1  0  0  0  0
  4  5  1  0  0  0  0
  5  6  2  0  0  0  0
  5 27  1  0  0  0  0
  6  7  1  0  0  0  0
  6 28  1  0  0  0  0
  7  8  2  0  0  0  0
  7 29  1  0  0  0  0
  9 10  1  0  0  0  0
  9 30  1  0  0  0  0
 10 11  2  0  0  0  0
 10 12  1  0  0  0  0
 12 13  1  0  0  0  0
 12 31  1  0  0  0  0
 12 32  1  0  0  0  0
 13 14  1  0  0  0  0
 13 33  1  0  0  0  0
 13 34  1  0  0  0  0
 14 19  1  0  0  0  0
 14 15  1  0  0  0  0
 14 35  1  0  0  0  0
 15 16  1  0  0  0  0
 15 36  1  0  0  0  0
 16 17  2  0  0  0  0
 16 18  1  0  0  0  0
 18 19  1  0  0  0  0
 18 37  1  0  0  0  0
 19 20  2  0  0  0  0
M  END
> <s_m_source_file>
AV-unprocessed.smi

> <i_m_source_file_index>
1196

> <i_lp_mmshare_version>
43012

> <i_f3d_flags>
0

> <s_epik_input>
bjFbY0hdW2NIXVtjSF1uMVtDSDJdW0NAQEhdKFtDSDNdKVtOSF1DKD1PKVtDSDJdW0NIMl1bQ0BASF0yW05IXUMoPU8pW05IXUMyPU8=

> <s_epik_cmdline>
J2VwaWtfcHl0aG9uJywgJy1waCcsICc3LjAnLCAnLXRuJywgJzgnLCAnLW1hJywgJzIwMCcsICctbWV0YWxfYmluZGluZycsICctaW1hZScsICc8aW5maWxlLm1hZT4nLCAnLW9tYWUnLCAnPG91dGZpbGUubWFlPic=

> <r_lp_tautomer_probability>
1

> <r_epik_Ionization_Penalty>
0.00815973

> <r_epik_Ionization_Penalty_Charging>
0

> <r_epik_Ionization_Penalty_Neutral>
0.00815973

> <r_epik_State_Penalty>
0.00583796

> <r_epik_Charging_Adjusted_Penalty>
0.00583796

> <i_epik_Tot_Q>
0

> <i_epik_Tot_abs_Q>
0

> <r_epik_Metal_State_Penalty>
0.409204

> <b_epik_Metal_Only>
0

> <s_lp_Force_Field>
OPLS_2005

> <r_lp_Energy>
16.3903

> <b_lp_Chiralities_Consistent>
1

> <s_lp_Variant>
AV-unprocessed.smi:1196-3

> <Gold.Version>
5.8.1

> <Gold.Id.Protein>
6NUR|6NUR_protein|mol2

> <Gold.PLP.Fitness>
49.1959

> <Gold.PLP.PLP>
-40.5857

> <Gold.PLP.part.hbond>
-4.7275

> <Gold.PLP.part.metal>
0.0000

> <Gold.PLP.part.buried>
0.4493

> <Gold.PLP.part.nonpolar>
-36.2992

> <Gold.PLP.part.repulsive>
0.6923

> <Gold.PLP.ligand.clash>
0.0000

> <Gold.PLP.ligand.torsion>
0.3221

> <Gold.PLP.Chemscore.Hbond>
3.0608

> <Gold.PLP.Chemscore.CHOScore>
0.0000

> <Gold.PLP.Chemscore.Metal>
0.0000

> <Gold.Chemscore.Hbonds>
donor molecule, donor type, donor heavy atom, donor atom, acceptor molecule, acceptor atom, score
      L1  H    15    36       P1  7948  0.62
      L1  H    18    37       P1 10175  0.29
      P1  H  7989  7998       L1    11  0.04
      P1  H  7997  8009       L1    11  1.00

> <Gold.PLP.Chemscore.Internal.Correction>
0.0719

> <Gold.Rescore>
     Score         DG    S(hbond)    S(metal)    S(lipo)     H(rot)  DE(clash)    DE(int)     intcor
     14.78     -17.04       2.78        0.00      84.15       2.96       1.85       0.42       ----

> <Gold.Chemscore.Fitness>
14.7804

> <Gold.Chemscore.DG>
-17.0413

> <Gold.Chemscore.ZeroCoef>
-5.4800

> <Gold.Chemscore.Hbond>
2.7806

> <Gold.Chemscore.Metal>
0.0000

> <Gold.Chemscore.Lipo>
84.1491

> <Gold.Chemscore.Internal_Hbond>
0.0000

> <Gold.Chemscore.DEClash>
1.8457

> <Gold.Chemscore.DEInternal>
0.4152

> <Gold.Chemscore.Rot>
2.9575

> <Gold.Chemscore.Internal.Correction>
   9.000000E+99

> <Gold.Chemscore.Hbonds>
donor molecule, donor type, donor heavy atom, donor atom, acceptor molecule, acceptor atom, score
      L1  H    15    36       P1  7948  0.61
      L1  H    18    37       P1 10175  0.28
      P1  H  7997  8009       L1    11  0.94

> <Gold.Chemscore.Hbond.Weighted>
-9.2872

> <Gold.Chemscore.Metal.Weighted>
-0.0000

> <Gold.Chemscore.Lipo.Weighted>
-9.8454

> <Gold.Chemscore.Internal_Hbond.Weighted>
0.0000

> <Gold.Chemscore.DEClash.Weighted>
1.8457

> <Gold.Chemscore.DEInternal.Weighted>
0.4152

> <Gold.Chemscore.Rot.Weighted>
7.5713

> <Gold.Chemscore.Internal.Correction.Weighted>
   9.000000E+99

> <Gold.Protein.RotatedTorsions>
[ 6907 6896 6895 6894 ] final   90.26 input  -60.11 | X-H torsion
[ 7974 7965 7964 7962 ] final  128.72 input  175.53 | X-H torsion
[ 8008 7997 7996 7995 ] final -151.77 input   59.86 | X-H torsion
[ 10167 10162 10161 10158 ] final    8.50 input  -65.29 | X-H torsion
[ 10718 10713 10712 10709 ] final   63.68 input   66.30 | X-H torsion
[ 10763 10752 10751 10750 ] final  124.56 input  -60.55 | X-H torsion
[ 11005 11000 10999 10996 ] final  -61.57 input  -57.11 | X-H torsion

> <Gold.Protein.ActiveResidues>
 VAL166  LYS551  ARG553  GLY616  TRP617  ASP618  TYR619  PRO620  LYS621  CYS622 
 ASP623  PHE694  ASN695  SER759  ASP760  ASP761  ALA762  ILE779  LEU786  VAL792 
 PHE793  MET794  SER795  GLU796  ALA797  LYS798  CYS799  TRP800  GLU811  SER814 

> <Gold.Protein.RotatedAtoms>
  152.5443  134.1839  159.8646 H   0  0  0  0  0  0  0  0  0  0  0  0  # atno 6907 bound_to 6896
  151.1839  133.4701  159.2602 H   0  0  0  0  0  0  0  0  0  0  0  0  # atno 6908 bound_to 6896
  151.1150  135.0060  159.8567 H   0  0  0  0  0  0  0  0  0  0  0  0  # atno 6909 bound_to 6896
  145.0365  139.4000  143.5123 H   0  0  0  0  0  0  0  0  0  0  0  0  # atno 7974 bound_to 7965
  155.6446  140.0705  157.2607 H   0  0  0  0  0  0  0  0  0  0  0  0  # atno 8008 bound_to 7997
  154.4176  140.1744  156.1659 H   0  0  0  0  0  0  0  0  0  0  0  0  # atno 8009 bound_to 7997
  155.9827  140.3352  155.6682 H   0  0  0  0  0  0  0  0  0  0  0  0  # atno 8010 bound_to 7997
  140.6310  143.7992  150.7296 H   0  0  0  0  0  0  0  0  0  0  0  0  # atno 10167 bound_to 10162
  157.5988  130.9119  149.9748 H   0  0  0  0  0  0  0  0  0  0  0  0  # atno 10718 bound_to 10713
  153.6633  135.3343  155.3133 H   0  0  0  0  0  0  0  0  0  0  0  0  # atno 10763 bound_to 10752
  154.8509  135.4369  154.1782 H   0  0  0  0  0  0  0  0  0  0  0  0  # atno 10764 bound_to 10752
  153.2754  135.7004  153.7514 H   0  0  0  0  0  0  0  0  0  0  0  0  # atno 10765 bound_to 10752
  141.1329  133.6631  156.5395 H   0  0  0  0  0  0  0  0  0  0  0  0  # atno 11005 bound_to 11000
  146.3504  139.9943  142.8682 LP  0  0  0  0  0  0  0  0  0  0  0  0  # atno 17320 bound_to 7965
  145.1703  140.9717  143.4325 LP  0  0  0  0  0  0  0  0  0  0  0  0  # atno 17321 bound_to 7965
  140.1604  143.4281  152.2071 LP  0  0  0  0  0  0  0  0  0  0  0  0  # atno 17342 bound_to 10162
  139.5525  144.7348  151.4393 LP  0  0  0  0  0  0  0  0  0  0  0  0  # atno 17343 bound_to 10162
  156.1056  130.3653  150.0139 LP  0  0  0  0  0  0  0  0  0  0  0  0  # atno 17370 bound_to 10713
  156.8246  130.9371  151.3640 LP  0  0  0  0  0  0  0  0  0  0  0  0  # atno 17371 bound_to 10713
  140.4151  134.7237  157.4858 LP  0  0  0  0  0  0  0  0  0  0  0  0  # atno 17394 bound_to 11000
  140.0399  134.6282  155.8994 LP  0  0  0  0  0  0  0  0  0  0  0  0  # atno 17395 bound_to 11000

$$$$
