AV-unprocessed.smi:2725|AV-procd|sdf|10517|dock9
  -GOLD-   2272014563D 1   1.00000     0.00000
 Structure written by MMmdl.
 45 46  0  0  0  0  0  0  0  0  2 V2000
  150.9592  140.4203  155.1680 O   0  0  0  0  0  0  0  0  0  0  0  0
  150.4274  141.4595  155.5603 C   0  0  0  0  0  0  0  0  0  0  0  0
  151.1174  142.3511  156.5972 C   0  0  0  0  0  0  0  0  0  0  0  0
  151.6615  141.5684  157.8078 C   0  0  0  0  0  0  0  0  0  0  0  0
  152.3537  142.4687  158.8465 C   0  0  0  0  0  0  0  0  0  0  0  0
  152.8165  141.7405  160.1130 C   0  0  0  0  0  0  0  0  0  0  0  0
  152.9495  142.8295  161.1853 C   0  0  0  0  0  0  0  0  0  0  0  0
  152.1366  144.0330  160.6850 C   0  0  0  0  0  0  0  0  0  0  0  0
  151.4499  143.5742  159.3956 C   0  0  0  0  0  0  0  0  0  0  0  0
  149.2319  141.8828  155.1214 N   0  0  0  0  0  0  0  0  0  0  0  0
  148.4104  141.2055  154.1199 C   0  0  2  0  0  0  0  0  0  0  0  0
  147.3066  142.1771  153.6532 C   0  0  0  0  0  0  0  0  0  0  0  0
  146.9742  143.0694  154.6954 O   0  0  0  0  0  0  0  0  0  0  0  0
  147.8463  139.9009  154.7290 C   0  0  0  0  0  0  0  0  0  0  0  0
  147.0256  139.0793  153.7505 C   0  0  0  0  0  0  0  0  0  0  0  0
  145.9866  138.2273  154.1838 C   0  0  0  0  0  0  0  0  0  0  0  0
  145.2647  137.4792  153.2307 C   0  0  0  0  0  0  0  0  0  0  0  0
  145.5973  137.5975  151.8652 C   0  0  0  0  0  0  0  0  0  0  0  0
  146.6443  138.4624  151.4872 C   0  0  0  0  0  0  0  0  0  0  0  0
  147.3120  139.1626  152.4305 N   0  3  0  0  0  0  0  0  0  0  0  0
  151.9272  142.8866  156.1009 H   0  0  0  0  0  0  0  0  0  0  0  0
  150.4079  143.1050  156.9419 H   0  0  0  0  0  0  0  0  0  0  0  0
  150.8384  141.0430  158.2947 H   0  0  0  0  0  0  0  0  0  0  0  0
  152.3574  140.7986  157.4710 H   0  0  0  0  0  0  0  0  0  0  0  0
  153.2210  142.9436  158.3846 H   0  0  0  0  0  0  0  0  0  0  0  0
  152.0599  141.0190  160.4243 H   0  0  0  0  0  0  0  0  0  0  0  0
  153.7483  141.1944  159.9628 H   0  0  0  0  0  0  0  0  0  0  0  0
  152.5885  142.4727  162.1504 H   0  0  0  0  0  0  0  0  0  0  0  0
  153.9945  143.1141  161.3140 H   0  0  0  0  0  0  0  0  0  0  0  0
  151.4156  144.3803  161.4256 H   0  0  0  0  0  0  0  0  0  0  0  0
  152.8096  144.8638  160.4698 H   0  0  0  0  0  0  0  0  0  0  0  0
  151.3075  144.3906  158.6868 H   0  0  0  0  0  0  0  0  0  0  0  0
  150.4658  143.1673  159.6333 H   0  0  0  0  0  0  0  0  0  0  0  0
  148.8751  142.7522  155.4909 H   0  0  0  0  0  0  0  0  0  0  0  0
  149.0345  140.9376  153.2644 H   0  0  0  0  0  0  0  0  0  0  0  0
  147.6468  142.7894  152.8196 H   0  0  0  0  0  0  0  0  0  0  0  0
  146.4174  141.6453  153.3125 H   0  0  0  0  0  0  0  0  0  0  0  0
  147.7469  143.5592  154.9335 H   0  0  0  0  0  0  0  0  0  0  0  0
  148.6612  139.2655  155.0790 H   0  0  0  0  0  0  0  0  0  0  0  0
  147.2449  140.1277  155.6106 H   0  0  0  0  0  0  0  0  0  0  0  0
  145.7472  138.1452  155.2344 H   0  0  0  0  0  0  0  0  0  0  0  0
  144.4666  136.8217  153.5433 H   0  0  0  0  0  0  0  0  0  0  0  0
  145.0571  137.0328  151.1192 H   0  0  0  0  0  0  0  0  0  0  0  0
  146.9658  138.6141  150.4671 H   0  0  0  0  0  0  0  0  0  0  0  0
  148.0660  139.7824  152.1337 H   0  0  0  0  0  0  0  0  0  0  0  0
  1  2  2  0  0  0  0
  2  3  1  0  0  0  0
  2 10  1  0  0  0  0
  3  4  1  0  0  0  0
  3 21  1  0  0  0  0
  3 22  1  0  0  0  0
  4  5  1  0  0  0  0
  4 23  1  0  0  0  0
  4 24  1  0  0  0  0
  5  9  1  0  0  0  0
  5  6  1  0  0  0  0
  5 25  1  0  0  0  0
  6  7  1  0  0  0  0
  6 26  1  0  0  0  0
  6 27  1  0  0  0  0
  7  8  1  0  0  0  0
  7 28  1  0  0  0  0
  7 29  1  0  0  0  0
  8  9  1  0  0  0  0
  8 30  1  0  0  0  0
  8 31  1  0  0  0  0
  9 32  1  0  0  0  0
  9 33  1  0  0  0  0
 10 11  1  0  0  0  0
 10 34  1  0  0  0  0
 11 12  1  0  0  0  0
 11 14  1  0  0  0  0
 11 35  1  0  0  0  0
 12 13  1  0  0  0  0
 12 36  1  0  0  0  0
 12 37  1  0  0  0  0
 13 38  1  0  0  0  0
 14 15  1  0  0  0  0
 14 39  1  0  0  0  0
 14 40  1  0  0  0  0
 15 20  1  0  0  0  0
 15 16  2  0  0  0  0
 16 17  1  0  0  0  0
 16 41  1  0  0  0  0
 17 18  2  0  0  0  0
 17 42  1  0  0  0  0
 18 19  1  0  0  0  0
 18 43  1  0  0  0  0
 19 20  2  0  0  0  0
 19 44  1  0  0  0  0
 20 45  1  0  0  0  0
M  CHG  1  20   1
M  END
> <s_m_source_file>
AV-unprocessed.smi

> <i_m_source_file_index>
2725

> <i_lp_mmshare_version>
43012

> <i_f3d_flags>
0

> <s_epik_input>
W0NIMl0xW0NIMl1bQ0gyXVtDSDJdW0NIXTFbQ0gyXVtDSDJdQyg9TylbTkhdW0NASF0oW0NIMl1bT0hdKVtDSDJdYzJbY0hdW2NIXVtjSF1bY0hdbjI=

> <s_epik_cmdline>
J2VwaWtfcHl0aG9uJywgJy1waCcsICc3LjAnLCAnLXRuJywgJzgnLCAnLW1hJywgJzIwMCcsICctbWV0YWxfYmluZGluZycsICctaW1hZScsICc8aW5maWxlLm1hZT4nLCAnLW9tYWUnLCAnPG91dGZpbGUubWFlPic=

> <r_epik_Ionization_Penalty>
1.87189

> <r_epik_Ionization_Penalty_Charging>
1.87189

> <r_epik_Ionization_Penalty_Neutral>
6.79411e-08

> <r_epik_State_Penalty>
1.99097

> <r_epik_Charging_Adjusted_Penalty>
3.86287

> <i_epik_Tot_Q>
1

> <i_epik_Tot_abs_Q>
1

> <r_epik_Metal_State_Penalty>
2.01578

> <b_epik_Metal_Only>
0

> <s_lp_Force_Field>
OPLS_2005

> <r_lp_Energy>
30.4182

> <b_lp_Chiralities_Consistent>
1

> <s_lp_Variant>
AV-unprocessed.smi:2725-3

> <Gold.Version>
5.8.1

> <Gold.Id.Protein>
6NUR|6NUR_protein|mol2

> <Gold.PLP.Fitness>
51.2969

> <Gold.PLP.PLP>
-42.5252

> <Gold.PLP.part.hbond>
-4.2998

> <Gold.PLP.part.metal>
0.0000

> <Gold.PLP.part.buried>
-2.0938

> <Gold.PLP.part.nonpolar>
-34.7509

> <Gold.PLP.part.repulsive>
0.2840

> <Gold.PLP.ligand.clash>
0.0000

> <Gold.PLP.ligand.torsion>
1.0432

> <Gold.PLP.Chemscore.Hbond>
3.5683

> <Gold.PLP.Chemscore.CHOScore>
0.0000

> <Gold.PLP.Chemscore.Metal>
0.0000

> <Gold.Chemscore.Hbonds>
donor molecule, donor type, donor heavy atom, donor atom, acceptor molecule, acceptor atom, score
      L1  H    10    34       P1  8028  1.00
      L1  H    13    38       P1  8028  1.00
      L1  H    20    45       P1  7957  0.98
      P1  H  7989  7998       L1     1  1.00

> <Gold.PLP.Chemscore.Internal.Correction>
0.1531

> <Gold.Rescore>
     Score         DG    S(hbond)    S(metal)    S(lipo)     H(rot)  DE(clash)    DE(int)     intcor
     19.31     -21.72       2.76        0.00     116.44       2.58       1.22       1.19       ----

> <Gold.Chemscore.Fitness>
19.3129

> <Gold.Chemscore.DG>
-21.7214

> <Gold.Chemscore.ZeroCoef>
-5.4800

> <Gold.Chemscore.Hbond>
2.7593

> <Gold.Chemscore.Metal>
0.0000

> <Gold.Chemscore.Lipo>
116.4377

> <Gold.Chemscore.Internal_Hbond>
0.0000

> <Gold.Chemscore.DEClash>
1.2174

> <Gold.Chemscore.DEInternal>
1.1911

> <Gold.Chemscore.Rot>
2.5773

> <Gold.Chemscore.Internal.Correction>
   9.000000E+99

> <Gold.Chemscore.Hbonds>
donor molecule, donor type, donor heavy atom, donor atom, acceptor molecule, acceptor atom, score
      L1  H    10    34       P1  8028  0.95
      L1  H    13    38       P1  8028  0.35
      L1  H    20    45       P1  7957  0.92
      P1  H  7989  7998       L1     1  0.38

> <Gold.Chemscore.Hbond.Weighted>
-9.2160

> <Gold.Chemscore.Metal.Weighted>
-0.0000

> <Gold.Chemscore.Lipo.Weighted>
-13.6232

> <Gold.Chemscore.Internal_Hbond.Weighted>
0.0000

> <Gold.Chemscore.DEClash.Weighted>
1.2174

> <Gold.Chemscore.DEInternal.Weighted>
1.1911

> <Gold.Chemscore.Rot.Weighted>
6.5978

> <Gold.Chemscore.Internal.Correction.Weighted>
   9.000000E+99

> <Gold.Protein.RotatedTorsions>
[ 6907 6896 6895 6894 ] final  157.16 input  -60.11 | X-H torsion
[ 7974 7965 7964 7962 ] final  120.75 input  175.53 | X-H torsion
[ 8008 7997 7996 7995 ] final   13.43 input   59.86 | X-H torsion
[ 10167 10162 10161 10158 ] final  116.51 input  -65.29 | X-H torsion
[ 10718 10713 10712 10709 ] final  135.14 input   66.30 | X-H torsion
[ 10763 10752 10751 10750 ] final -104.08 input  -60.55 | X-H torsion
[ 11005 11000 10999 10996 ] final  -77.68 input  -57.11 | X-H torsion

> <Gold.Protein.ActiveResidues>
 VAL166  LYS551  ARG553  GLY616  TRP617  ASP618  TYR619  PRO620  LYS621  CYS622 
 ASP623  PHE694  ASN695  SER759  ASP760  ASP761  ALA762  ILE779  LEU786  VAL792 
 PHE793  MET794  SER795  GLU796  ALA797  LYS798  CYS799  TRP800  GLU811  SER814 

> <Gold.Protein.RotatedAtoms>
  152.0191  133.3891  159.4250 H   0  0  0  0  0  0  0  0  0  0  0  0  # atno 6907 bound_to 6896
  150.6892  134.3645  159.4974 H   0  0  0  0  0  0  0  0  0  0  0  0  # atno 6908 bound_to 6896
  152.1417  134.9057  160.0604 H   0  0  0  0  0  0  0  0  0  0  0  0  # atno 6909 bound_to 6896
  145.1274  139.3349  143.4683 H   0  0  0  0  0  0  0  0  0  0  0  0  # atno 7974 bound_to 7965
  154.8343  140.2904  155.5701 H   0  0  0  0  0  0  0  0  0  0  0  0  # atno 8008 bound_to 7997
  156.3007  140.2526  156.3205 H   0  0  0  0  0  0  0  0  0  0  0  0  # atno 8009 bound_to 7997
  154.9196  140.0386  157.1980 H   0  0  0  0  0  0  0  0  0  0  0  0  # atno 8010 bound_to 7997
  139.6242  144.7106  151.2568 H   0  0  0  0  0  0  0  0  0  0  0  0  # atno 10167 bound_to 10162
  157.4601  131.1073  150.9930 H   0  0  0  0  0  0  0  0  0  0  0  0  # atno 10718 bound_to 10713
  154.7853  135.4799  153.9933 H   0  0  0  0  0  0  0  0  0  0  0  0  # atno 10763 bound_to 10752
  153.1552  135.6798  153.8831 H   0  0  0  0  0  0  0  0  0  0  0  0  # atno 10764 bound_to 10752
  153.8462  135.3173  155.3407 H   0  0  0  0  0  0  0  0  0  0  0  0  # atno 10765 bound_to 10752
  141.1661  133.7032  156.7857 H   0  0  0  0  0  0  0  0  0  0  0  0  # atno 11005 bound_to 11000
  146.3516  140.1259  142.8598 LP  0  0  0  0  0  0  0  0  0  0  0  0  # atno 17320 bound_to 7965
  145.0673  140.9130  143.4903 LP  0  0  0  0  0  0  0  0  0  0  0  0  # atno 17321 bound_to 7965
  140.7401  143.6598  150.8174 LP  0  0  0  0  0  0  0  0  0  0  0  0  # atno 17342 bound_to 10162
  140.0214  143.5539  152.2799 LP  0  0  0  0  0  0  0  0  0  0  0  0  # atno 17343 bound_to 10162
  157.0730  130.5872  149.5406 LP  0  0  0  0  0  0  0  0  0  0  0  0  # atno 17370 bound_to 10713
  156.0025  130.5106  150.7714 LP  0  0  0  0  0  0  0  0  0  0  0  0  # atno 17371 bound_to 10713
  140.2362  134.8648  157.3527 LP  0  0  0  0  0  0  0  0  0  0  0  0  # atno 17394 bound_to 11000
  140.1841  134.4452  155.7754 LP  0  0  0  0  0  0  0  0  0  0  0  0  # atno 17395 bound_to 11000

$$$$
