AV-unprocessed.smi:3164|AV-procd|sdf|12079|dock3
  -GOLD-   2272017503D 1   1.00000     0.00000
 Structure written by MMmdl.
 40 41  0  0  0  0  0  0  0  0  3 V2000
  143.3143  142.0345  155.7470 C   0  0  0  0  0  0  0  0  0  0  0  0
  144.4665  142.1650  154.8291 N   0  3  1  0  0  0  0  0  0  0  0  0
  144.6875  143.5600  154.3859 C   0  0  0  0  0  0  0  0  0  0  0  0
  145.8723  143.6267  153.4085 C   0  0  0  0  0  0  0  0  0  0  0  0
  147.0309  143.0776  154.0264 O   0  0  0  0  0  0  0  0  0  0  0  0
  146.8667  141.7048  154.3703 C   0  0  1  0  0  0  0  0  0  0  0  0
  148.1953  141.1956  154.9508 C   0  0  0  0  0  0  0  0  0  0  0  0
  148.4843  141.8180  156.2589 N   0  3  0  0  0  0  0  0  0  0  0  0
  149.5852  141.1738  157.0015 C   0  0  0  0  0  0  0  0  0  0  0  0
  150.9168  141.8933  156.7472 C   0  0  0  0  0  0  0  0  0  0  0  0
  151.6206  142.2686  158.0371 C   0  0  0  0  0  0  0  0  0  0  0  0
  151.8783  143.6200  158.3513 C   0  0  0  0  0  0  0  0  0  0  0  0
  152.5394  143.9130  159.5599 C   0  0  0  0  0  0  0  0  0  0  0  0
  152.9162  142.8487  160.4016 C   0  0  0  0  0  0  0  0  0  0  0  0
  152.6141  141.5334  159.9962 C   0  0  0  0  0  0  0  0  0  0  0  0
  151.9812  141.2419  158.8389 N   0  0  0  0  0  0  0  0  0  0  0  0
  145.7114  141.5861  155.3858 C   0  0  0  0  0  0  0  0  0  0  0  0
  143.4821  142.5905  156.6703 H   0  0  0  0  0  0  0  0  0  0  0  0
  143.1429  140.9885  156.0032 H   0  0  0  0  0  0  0  0  0  0  0  0
  142.4059  142.4151  155.2789 H   0  0  0  0  0  0  0  0  0  0  0  0
  143.7861  143.9418  153.9046 H   0  0  0  0  0  0  0  0  0  0  0  0
  144.8827  144.1942  155.2523 H   0  0  0  0  0  0  0  0  0  0  0  0
  145.6479  143.0904  152.4850 H   0  0  0  0  0  0  0  0  0  0  0  0
  146.0752  144.6619  153.1338 H   0  0  0  0  0  0  0  0  0  0  0  0
  146.6234  141.1289  153.4751 H   0  0  0  0  0  0  0  0  0  0  0  0
  148.1705  140.1100  155.0573 H   0  0  0  0  0  0  0  0  0  0  0  0
  149.0116  141.4325  154.2669 H   0  0  0  0  0  0  0  0  0  0  0  0
  148.7236  142.7882  156.1117 H   0  0  0  0  0  0  0  0  0  0  0  0
  149.3517  141.1833  158.0673 H   0  0  0  0  0  0  0  0  0  0  0  0
  149.6629  140.1292  156.6968 H   0  0  0  0  0  0  0  0  0  0  0  0
  151.5757  141.2609  156.1506 H   0  0  0  0  0  0  0  0  0  0  0  0
  150.7485  142.7988  156.1620 H   0  0  0  0  0  0  0  0  0  0  0  0
  151.5780  144.4157  157.6852 H   0  0  0  0  0  0  0  0  0  0  0  0
  152.7539  144.9349  159.8359 H   0  0  0  0  0  0  0  0  0  0  0  0
  153.4245  143.0364  161.3358 H   0  0  0  0  0  0  0  0  0  0  0  0
  152.8885  140.6936  160.6171 H   0  0  0  0  0  0  0  0  0  0  0  0
  145.9697  142.1022  156.3124 H   0  0  0  0  0  0  0  0  0  0  0  0
  145.5431  140.5384  155.6388 H   0  0  0  0  0  0  0  0  0  0  0  0
  147.6493  141.7731  156.8262 H   0  0  0  0  0  0  0  0  0  0  0  0
  144.2383  141.6303  154.0028 H   0  0  0  0  0  0  0  0  0  0  0  0
  1  2  1  0  0  0  0
  1 18  1  0  0  0  0
  1 19  1  0  0  0  0
  1 20  1  0  0  0  0
  2 17  1  0  0  0  0
  2  3  1  0  0  0  0
  2 40  1  0  0  0  0
  3  4  1  0  0  0  0
  3 21  1  0  0  0  0
  3 22  1  0  0  0  0
  4  5  1  0  0  0  0
  4 23  1  0  0  0  0
  4 24  1  0  0  0  0
  5  6  1  0  0  0  0
  6  7  1  0  0  0  0
  6 17  1  0  0  0  0
  6 25  1  0  0  0  0
  7  8  1  0  0  0  0
  7 26  1  0  0  0  0
  7 27  1  0  0  0  0
  8  9  1  0  0  0  0
  8 28  1  0  0  0  0
  8 39  1  0  0  0  0
  9 10  1  0  0  0  0
  9 29  1  0  0  0  0
  9 30  1  0  0  0  0
 10 11  1  0  0  0  0
 10 31  1  0  0  0  0
 10 32  1  0  0  0  0
 11 16  1  0  0  0  0
 11 12  2  0  0  0  0
 12 13  1  0  0  0  0
 12 33  1  0  0  0  0
 13 14  2  0  0  0  0
 13 34  1  0  0  0  0
 14 15  1  0  0  0  0
 14 35  1  0  0  0  0
 15 16  2  0  0  0  0
 15 36  1  0  0  0  0
 17 37  1  0  0  0  0
 17 38  1  0  0  0  0
M  CHG  1   2   1
M  CHG  1   8   1
M  END
> <s_m_source_file>
AV-unprocessed.smi

> <i_m_source_file_index>
3164

> <i_lp_mmshare_version>
43012

> <i_f3d_flags>
0

> <s_epik_input>
W0NIM11OMVtDSDJdW0NIMl1PW0NASF0oW0NIMl0xKVtDSDJdW05IXVtDSDJdW0NIMl1jMltjSF1bY0hdW2NIXVtjSF1uMg==

> <s_epik_cmdline>
J2VwaWtfcHl0aG9uJywgJy1waCcsICc3LjAnLCAnLXRuJywgJzgnLCAnLW1hJywgJzIwMCcsICctbWV0YWxfYmluZGluZycsICctaW1hZScsICc8aW5maWxlLm1hZT4nLCAnLW9tYWUnLCAnPG91dGZpbGUubWFlPic=

> <r_epik_Ionization_Penalty>
0.294944

> <r_epik_Ionization_Penalty_Charging>
0.29381

> <r_epik_Ionization_Penalty_Neutral>
0.00113372

> <r_epik_State_Penalty>
0.271365

> <r_epik_Charging_Adjusted_Penalty>
0.565175

> <i_epik_Tot_Q>
2

> <i_epik_Tot_abs_Q>
2

> <r_epik_Metal_State_Penalty>
0.271365

> <b_epik_Metal_Only>
0

> <s_lp_Force_Field>
OPLS_2005

> <r_lp_Energy>
20.3644

> <b_lp_Chiralities_Consistent>
1

> <s_lp_Variant>
AV-unprocessed.smi:3164-1

> <Gold.Version>
5.8.1

> <Gold.Id.Protein>
6NUR|6NUR_protein|mol2

> <Gold.PLP.Fitness>
47.2223

> <Gold.PLP.PLP>
-36.3020

> <Gold.PLP.part.hbond>
-3.0000

> <Gold.PLP.part.metal>
0.0000

> <Gold.PLP.part.buried>
-4.0327

> <Gold.PLP.part.nonpolar>
-31.0666

> <Gold.PLP.part.repulsive>
1.3783

> <Gold.PLP.ligand.clash>
0.0000

> <Gold.PLP.ligand.torsion>
0.6724

> <Gold.PLP.Chemscore.Hbond>
4.0676

> <Gold.PLP.Chemscore.CHOScore>
0.0000

> <Gold.PLP.Chemscore.Metal>
0.0000

> <Gold.Chemscore.Hbonds>
donor molecule, donor type, donor heavy atom, donor atom, acceptor molecule, acceptor atom, score
      L1  H     2    40       P1 10175  1.50
      L1  H     8    28       P1  8028  2.00
      P1  H  8022  8030       L1     5  0.15

> <Gold.PLP.Chemscore.Internal.Correction>
0.0624

> <Gold.Rescore>
     Score         DG    S(hbond)    S(metal)    S(lipo)     H(rot)  DE(clash)    DE(int)     intcor
     18.47     -19.19       1.93        0.00      98.17       1.65       0.04       0.68       ----

> <Gold.Chemscore.Fitness>
18.4711

> <Gold.Chemscore.DG>
-19.1938

> <Gold.Chemscore.ZeroCoef>
-5.4800

> <Gold.Chemscore.Hbond>
1.9281

> <Gold.Chemscore.Metal>
0.0000

> <Gold.Chemscore.Lipo>
98.1734

> <Gold.Chemscore.Internal_Hbond>
0.0000

> <Gold.Chemscore.DEClash>
0.0433

> <Gold.Chemscore.DEInternal>
0.6793

> <Gold.Chemscore.Rot>
1.6454

> <Gold.Chemscore.Internal.Correction>
   9.000000E+99

> <Gold.Chemscore.Hbonds>
donor molecule, donor type, donor heavy atom, donor atom, acceptor molecule, acceptor atom, score
      L1  H     2    40       P1 10175  0.09
      L1  H     8    28       P1  8028  0.97
      P1  H  8022  8030       L1     5  0.04

> <Gold.Chemscore.Hbond.Weighted>
-6.4397

> <Gold.Chemscore.Metal.Weighted>
-0.0000

> <Gold.Chemscore.Lipo.Weighted>
-11.4863

> <Gold.Chemscore.Internal_Hbond.Weighted>
0.0000

> <Gold.Chemscore.DEClash.Weighted>
0.0433

> <Gold.Chemscore.DEInternal.Weighted>
0.6793

> <Gold.Chemscore.Rot.Weighted>
4.2122

> <Gold.Chemscore.Internal.Correction.Weighted>
   9.000000E+99

> <Gold.Protein.RotatedTorsions>
[ 6907 6896 6895 6894 ] final   80.29 input  -60.11 | X-H torsion
[ 7974 7965 7964 7962 ] final  -71.63 input  175.53 | X-H torsion
[ 8008 7997 7996 7995 ] final -103.96 input   59.86 | X-H torsion
[ 10167 10162 10161 10158 ] final  161.40 input  -65.29 | X-H torsion
[ 10718 10713 10712 10709 ] final -106.82 input   66.30 | X-H torsion
[ 10763 10752 10751 10750 ] final  164.73 input  -60.55 | X-H torsion
[ 11005 11000 10999 10996 ] final  -36.43 input  -57.11 | X-H torsion

> <Gold.Protein.ActiveResidues>
 VAL166  LYS551  ARG553  GLY616  TRP617  ASP618  TYR619  PRO620  LYS621  CYS622 
 ASP623  PHE694  ASN695  SER759  ASP760  ASP761  ALA762  ILE779  LEU786  VAL792 
 PHE793  MET794  SER795  GLU796  ALA797  LYS798  CYS799  TRP800  GLU811  SER814 

> <Gold.Protein.RotatedAtoms>
  152.5229  134.3380  159.9206 H   0  0  0  0  0  0  0  0  0  0  0  0  # atno 6907 bound_to 6896
  151.3329  133.3987  159.2672 H   0  0  0  0  0  0  0  0  0  0  0  0  # atno 6908 bound_to 6896
  150.9866  134.9227  159.7933 H   0  0  0  0  0  0  0  0  0  0  0  0  # atno 6909 bound_to 6896
  145.6756  140.9206  143.0859 H   0  0  0  0  0  0  0  0  0  0  0  0  # atno 7974 bound_to 7965
  154.8784  140.0420  157.1767 H   0  0  0  0  0  0  0  0  0  0  0  0  # atno 8008 bound_to 7997
  154.8665  140.2952  155.5486 H   0  0  0  0  0  0  0  0  0  0  0  0  # atno 8009 bound_to 7997
  156.2999  140.2437  156.3647 H   0  0  0  0  0  0  0  0  0  0  0  0  # atno 8010 bound_to 7997
  139.4849  144.4540  151.8793 H   0  0  0  0  0  0  0  0  0  0  0  0  # atno 10167 bound_to 10162
  156.0407  130.5631  150.7734 H   0  0  0  0  0  0  0  0  0  0  0  0  # atno 10718 bound_to 10713
  154.3134  135.2757  155.2555 H   0  0  0  0  0  0  0  0  0  0  0  0  # atno 10763 bound_to 10752
  154.4940  135.5826  153.6484 H   0  0  0  0  0  0  0  0  0  0  0  0  # atno 10764 bound_to 10752
  152.9885  135.6141  154.3313 H   0  0  0  0  0  0  0  0  0  0  0  0  # atno 10765 bound_to 10752
  140.9874  133.7023  156.1789 H   0  0  0  0  0  0  0  0  0  0  0  0  # atno 11005 bound_to 11000
  144.7042  139.8630  143.7435 LP  0  0  0  0  0  0  0  0  0  0  0  0  # atno 17320 bound_to 7965
  146.1008  139.4003  143.0348 LP  0  0  0  0  0  0  0  0  0  0  0  0  # atno 17321 bound_to 7965
  140.3998  144.2507  150.5894 LP  0  0  0  0  0  0  0  0  0  0  0  0  # atno 17342 bound_to 10162
  140.5067  143.2302  151.8597 LP  0  0  0  0  0  0  0  0  0  0  0  0  # atno 17343 bound_to 10162
  157.5221  131.0932  151.0064 LP  0  0  0  0  0  0  0  0  0  0  0  0  # atno 17370 bound_to 10713
  157.0392  130.5742  149.5354 LP  0  0  0  0  0  0  0  0  0  0  0  0  # atno 17371 bound_to 10713
  140.7093  134.4478  157.5582 LP  0  0  0  0  0  0  0  0  0  0  0  0  # atno 17394 bound_to 11000
  139.8976  134.8631  156.2035 LP  0  0  0  0  0  0  0  0  0  0  0  0  # atno 17395 bound_to 11000

$$$$
