AV-unprocessed.smi:2874|AV-procd|sdf|11039|dock5
  -GOLD-   2272015503D 1   1.00000     0.00000
 Structure written by MMmdl.
 40 42  0  0  0  0  0  0  0  0  2 V2000
  148.8303  136.5302  159.1450 C   0  0  0  0  0  0  0  0  0  0  0  0
  149.6168  137.3294  158.2798 O   0  0  0  0  0  0  0  0  0  0  0  0
  150.8220  137.7664  158.8866 C   0  0  0  0  0  0  0  0  0  0  0  0
  151.4387  138.8946  158.0478 C   0  0  0  0  0  0  0  0  0  0  0  0
  152.2938  139.7798  158.8508 N   0  0  0  0  0  0  0  0  0  0  0  0
  153.4428  139.5189  159.5353 C   0  0  0  0  0  0  0  0  0  0  0  0
  154.2523  137.9532  159.6521 S   0  0  0  0  0  0  0  0  0  0  0  0
  153.3687  136.9971  160.9205 C   0  0  0  0  0  0  0  0  0  0  0  0
  153.9610  137.2555  162.2946 C   0  0  0  0  0  0  0  0  0  0  0  0
  153.5228  136.4858  163.2961 N   0  0  0  0  0  0  0  0  0  0  0  0
  154.0359  136.7274  164.5220 C   0  0  0  0  0  0  0  0  0  0  0  0
  154.9885  137.7433  164.7403 C   0  0  0  0  0  0  0  0  0  0  0  0
  155.3770  138.4869  163.6082 C   0  0  0  0  0  0  0  0  0  0  0  0
  156.3110  139.5140  163.7143 N   0  0  0  0  0  0  0  0  0  0  0  0
  154.8612  138.2409  162.3851 N   0  0  0  0  0  0  0  0  0  0  0  0
  153.8542  140.6855  160.1049 N   0  3  0  0  0  0  0  0  0  0  0  0
  152.9549  141.7039  159.7889 C   0  0  0  0  0  0  0  0  0  0  0  0
  152.9433  143.0500  160.1397 C   0  0  0  0  0  0  0  0  0  0  0  0
  151.8743  143.8252  159.6435 C   0  0  0  0  0  0  0  0  0  0  0  0
  151.7934  145.5028  160.0373 Cl  0  0  0  0  0  0  0  0  0  0  0  0
  150.8719  143.2550  158.8314 C   0  0  0  0  0  0  0  0  0  0  0  0
  150.8933  141.8885  158.4827 C   0  0  0  0  0  0  0  0  0  0  0  0
  151.9521  141.1301  158.9802 C   0  0  0  0  0  0  0  0  0  0  0  0
  147.9209  136.2200  158.6304 H   0  0  0  0  0  0  0  0  0  0  0  0
  148.5392  137.0847  160.0381 H   0  0  0  0  0  0  0  0  0  0  0  0
  149.3680  135.6315  159.4498 H   0  0  0  0  0  0  0  0  0  0  0  0
  150.6209  138.1195  159.8991 H   0  0  0  0  0  0  0  0  0  0  0  0
  151.5258  136.9366  158.9646 H   0  0  0  0  0  0  0  0  0  0  0  0
  152.0217  138.4946  157.2178 H   0  0  0  0  0  0  0  0  0  0  0  0
  150.6502  139.5038  157.6048 H   0  0  0  0  0  0  0  0  0  0  0  0
  152.3176  137.2870  160.9179 H   0  0  0  0  0  0  0  0  0  0  0  0
  153.4107  135.9365  160.6690 H   0  0  0  0  0  0  0  0  0  0  0  0
  153.6831  136.1081  165.3336 H   0  0  0  0  0  0  0  0  0  0  0  0
  155.3961  137.9347  165.7222 H   0  0  0  0  0  0  0  0  0  0  0  0
  156.7320  139.7512  164.6013 H   0  0  0  0  0  0  0  0  0  0  0  0
  156.6884  139.9666  162.8943 H   0  0  0  0  0  0  0  0  0  0  0  0
  153.7117  143.4867  160.7606 H   0  0  0  0  0  0  0  0  0  0  0  0
  150.0678  143.8783  158.4678 H   0  0  0  0  0  0  0  0  0  0  0  0
  150.1208  141.4627  157.8595 H   0  0  0  0  0  0  0  0  0  0  0  0
  154.6835  140.7719  160.6791 H   0  0  0  0  0  0  0  0  0  0  0  0
  1  2  1  0  0  0  0
  1 24  1  0  0  0  0
  1 25  1  0  0  0  0
  1 26  1  0  0  0  0
  2  3  1  0  0  0  0
  3  4  1  0  0  0  0
  3 27  1  0  0  0  0
  3 28  1  0  0  0  0
  4  5  1  0  0  0  0
  4 29  1  0  0  0  0
  4 30  1  0  0  0  0
  5 23  1  0  0  0  0
  5  6  1  0  0  0  0
  6  7  1  0  0  0  0
  6 16  2  0  0  0  0
  7  8  1  0  0  0  0
  8  9  1  0  0  0  0
  8 31  1  0  0  0  0
  8 32  1  0  0  0  0
  9 15  1  0  0  0  0
  9 10  2  0  0  0  0
 10 11  1  0  0  0  0
 11 12  2  0  0  0  0
 11 33  1  0  0  0  0
 12 13  1  0  0  0  0
 12 34  1  0  0  0  0
 13 14  1  0  0  0  0
 13 15  2  0  0  0  0
 14 35  1  0  0  0  0
 14 36  1  0  0  0  0
 16 17  1  0  0  0  0
 16 40  1  0  0  0  0
 17 23  2  0  0  0  0
 17 18  1  0  0  0  0
 18 19  2  0  0  0  0
 18 37  1  0  0  0  0
 19 20  1  0  0  0  0
 19 21  1  0  0  0  0
 21 22  2  0  0  0  0
 21 38  1  0  0  0  0
 22 23  1  0  0  0  0
 22 39  1  0  0  0  0
M  CHG  1  16   1
M  END
> <s_m_source_file>
AV-unprocessed.smi

> <i_m_source_file_index>
2874

> <i_lp_mmshare_version>
43012

> <i_f3d_flags>
0

> <s_epik_input>
W2NIXTFjKENsKVtjSF1bY0hdYyhjMTIpbihbQ0gyXVtDSDJdT1tDSDNdKWMobjIpU1tDSDJdYzNuW2NIXVtjSF1jKG4zKVtOSDJd

> <s_epik_cmdline>
J2VwaWtfcHl0aG9uJywgJy1waCcsICc3LjAnLCAnLXRuJywgJzgnLCAnLW1hJywgJzIwMCcsICctbWV0YWxfYmluZGluZycsICctaW1hZScsICc8aW5maWxlLm1hZT4nLCAnLW9tYWUnLCAnPG91dGZpbGUubWFlPic=

> <r_lp_tautomer_probability>
1

> <r_epik_Ionization_Penalty>
2.48176

> <r_epik_Ionization_Penalty_Charging>
2.48043

> <r_epik_Ionization_Penalty_Neutral>
0.00132706

> <r_epik_State_Penalty>
2.64401

> <r_epik_Charging_Adjusted_Penalty>
5.12444

> <i_epik_Tot_Q>
1

> <i_epik_Tot_abs_Q>
1

> <r_epik_Metal_State_Penalty>
2.65168

> <b_epik_Metal_Only>
0

> <s_lp_Force_Field>
OPLS_2005

> <r_lp_Energy>
0.65944

> <b_lp_Chiralities_Consistent>
1

> <s_lp_Variant>
AV-unprocessed.smi:2874-2

> <Gold.Version>
5.8.1

> <Gold.Id.Protein>
6NUR|6NUR_protein|mol2

> <Gold.PLP.Fitness>
44.9833

> <Gold.PLP.PLP>
-46.3821

> <Gold.PLP.part.hbond>
0.0000

> <Gold.PLP.part.metal>
0.0000

> <Gold.PLP.part.buried>
-7.8140

> <Gold.PLP.part.nonpolar>
-39.0930

> <Gold.PLP.part.repulsive>
0.0832

> <Gold.PLP.ligand.clash>
0.0000

> <Gold.PLP.ligand.torsion>
0.7378

> <Gold.PLP.Chemscore.Hbond>
0.0000

> <Gold.PLP.Chemscore.CHOScore>
0.0000

> <Gold.PLP.Chemscore.Metal>
0.0000

> <Gold.PLP.Chemscore.Internal.Correction>
0.0767

> <Gold.Rescore>
     Score         DG    S(hbond)    S(metal)    S(lipo)     H(rot)  DE(clash)    DE(int)     intcor
     12.03     -12.60       0.00        0.00     115.74       2.51       0.04       0.52       ----

> <Gold.Chemscore.Fitness>
12.0321

> <Gold.Chemscore.DG>
-12.5996

> <Gold.Chemscore.ZeroCoef>
-5.4800

> <Gold.Chemscore.Hbond>
0.0000

> <Gold.Chemscore.Metal>
0.0000

> <Gold.Chemscore.Lipo>
115.7433

> <Gold.Chemscore.Internal_Hbond>
0.0000

> <Gold.Chemscore.DEClash>
0.0425

> <Gold.Chemscore.DEInternal>
0.5249

> <Gold.Chemscore.Rot>
2.5088

> <Gold.Chemscore.Internal.Correction>
   9.000000E+99

> <Gold.Chemscore.Hbond.Weighted>
-0.0000

> <Gold.Chemscore.Metal.Weighted>
-0.0000

> <Gold.Chemscore.Lipo.Weighted>
-13.5420

> <Gold.Chemscore.Internal_Hbond.Weighted>
0.0000

> <Gold.Chemscore.DEClash.Weighted>
0.0425

> <Gold.Chemscore.DEInternal.Weighted>
0.5249

> <Gold.Chemscore.Rot.Weighted>
6.4224

> <Gold.Chemscore.Internal.Correction.Weighted>
   9.000000E+99

> <Gold.Protein.RotatedTorsions>
[ 6907 6896 6895 6894 ] final  170.86 input  -60.11 | X-H torsion
[ 7974 7965 7964 7962 ] final  173.31 input  175.53 | X-H torsion
[ 8008 7997 7996 7995 ] final  -41.45 input   59.86 | X-H torsion
[ 10167 10162 10161 10158 ] final  132.79 input  -65.29 | X-H torsion
[ 10718 10713 10712 10709 ] final   64.48 input   66.30 | X-H torsion
[ 10763 10752 10751 10750 ] final  117.66 input  -60.55 | X-H torsion
[ 11005 11000 10999 10996 ] final  -64.27 input  -57.11 | X-H torsion

> <Gold.Protein.ActiveResidues>
 VAL166  LYS551  ARG553  GLY616  TRP617  ASP618  TYR619  PRO620  LYS621  CYS622 
 ASP623  PHE694  ASN695  SER759  ASP760  ASP761  ALA762  ILE779  LEU786  VAL792 
 PHE793  MET794  SER795  GLU796  ALA797  LYS798  CYS799  TRP800  GLU811  SER814 

> <Gold.Protein.RotatedAtoms>
  151.8093  133.3380  159.3550 H   0  0  0  0  0  0  0  0  0  0  0  0  # atno 6907 bound_to 6896
  150.7331  134.5679  159.5884 H   0  0  0  0  0  0  0  0  0  0  0  0  # atno 6908 bound_to 6896
  152.3086  134.7526  160.0393 H   0  0  0  0  0  0  0  0  0  0  0  0  # atno 6909 bound_to 6896
  144.7247  139.9628  143.6435 H   0  0  0  0  0  0  0  0  0  0  0  0  # atno 7974 bound_to 7965
  154.4004  140.1499  156.3193 H   0  0  0  0  0  0  0  0  0  0  0  0  # atno 8008 bound_to 7997
  155.8544  140.3456  155.5693 H   0  0  0  0  0  0  0  0  0  0  0  0  # atno 8009 bound_to 7997
  155.7949  140.0862  157.1979 H   0  0  0  0  0  0  0  0  0  0  0  0  # atno 8010 bound_to 7997
  139.5325  144.6646  151.4902 H   0  0  0  0  0  0  0  0  0  0  0  0  # atno 10167 bound_to 10162
  157.6042  130.9162  149.9851 H   0  0  0  0  0  0  0  0  0  0  0  0  # atno 10718 bound_to 10713
  153.5558  135.3530  155.2779 H   0  0  0  0  0  0  0  0  0  0  0  0  # atno 10763 bound_to 10752
  154.8701  135.4125  154.2886 H   0  0  0  0  0  0  0  0  0  0  0  0  # atno 10764 bound_to 10752
  153.3621  135.7060  153.6773 H   0  0  0  0  0  0  0  0  0  0  0  0  # atno 10765 bound_to 10752
  141.1419  133.6663  156.5807 H   0  0  0  0  0  0  0  0  0  0  0  0  # atno 11005 bound_to 11000
  146.0624  139.3617  143.0573 LP  0  0  0  0  0  0  0  0  0  0  0  0  # atno 17320 bound_to 7965
  145.8075  140.9741  143.0966 LP  0  0  0  0  0  0  0  0  0  0  0  0  # atno 17321 bound_to 7965
  140.6511  143.8694  150.6787 LP  0  0  0  0  0  0  0  0  0  0  0  0  # atno 17342 bound_to 10162
  140.2059  143.3922  152.1756 LP  0  0  0  0  0  0  0  0  0  0  0  0  # atno 17343 bound_to 10162
  156.1124  130.3649  150.0026 LP  0  0  0  0  0  0  0  0  0  0  0  0  # atno 17370 bound_to 10713
  156.8122  130.9329  151.3644 LP  0  0  0  0  0  0  0  0  0  0  0  0  # atno 17371 bound_to 10713
  140.3840  134.7498  157.4679 LP  0  0  0  0  0  0  0  0  0  0  0  0  # atno 17394 bound_to 11000
  140.0616  134.5988  155.8742 LP  0  0  0  0  0  0  0  0  0  0  0  0  # atno 17395 bound_to 11000

$$$$
