AV-unprocessed.smi:2340|AV-procd|sdf|9347|dock5
  -GOLD-   2272012563D 1   1.00000     0.00000
 Structure written by MMmdl.
 40 41  0  0  0  0  0  0  0  0  1 V2000
  144.7707  132.6533  149.7594 C   0  0  0  0  0  0  0  0  0  0  0  0
  144.9502  133.9353  150.5089 C   0  0  0  0  0  0  0  0  0  0  0  0
  145.6110  135.0591  150.0799 C   0  0  0  0  0  0  0  0  0  0  0  0
  145.5959  136.3195  151.2823 S   0  0  0  0  0  0  0  0  0  0  0  0
  144.6752  135.2570  152.3419 C   0  0  0  0  0  0  0  0  0  0  0  0
  144.2614  135.6401  153.7306 C   0  0  1  0  0  0  0  0  0  0  0  0
  143.0996  134.7768  154.2429 C   0  0  0  0  0  0  0  0  0  0  0  0
  145.4433  135.7062  154.7224 C   0  0  0  0  0  0  0  0  0  0  0  0
  146.5166  136.5790  154.2489 N   0  0  0  0  0  0  0  0  0  0  0  0
  146.9528  137.6851  154.8691 C   0  0  0  0  0  0  0  0  0  0  0  0
  146.4673  138.1347  155.9069 O   0  0  0  0  0  0  0  0  0  0  0  0
  147.9914  138.2363  154.2261 N   0  0  0  0  0  0  0  0  0  0  0  0
  148.7256  139.4225  154.6678 C   0  0  1  0  0  0  0  0  0  0  0  0
  149.6197  139.0861  155.8603 C   0  0  0  0  0  0  0  0  0  0  0  0
  150.9804  139.6596  155.4796 C   0  0  0  0  0  0  0  0  0  0  0  0
  150.9906  139.5624  154.0665 O   0  0  0  0  0  0  0  0  0  0  0  0
  149.7102  139.9740  153.6105 C   0  0  1  0  0  0  0  0  0  0  0  0
  149.5054  139.5394  152.1503 C   0  0  0  0  0  0  0  0  0  0  0  0
  144.4152  134.0666  151.7928 N   0  0  0  0  0  0  0  0  0  0  0  0
  145.2281  132.7009  148.7708 H   0  0  0  0  0  0  0  0  0  0  0  0
  143.7144  132.4208  149.6237 H   0  0  0  0  0  0  0  0  0  0  0  0
  145.2282  131.8202  150.2935 H   0  0  0  0  0  0  0  0  0  0  0  0
  146.1087  135.2202  149.1353 H   0  0  0  0  0  0  0  0  0  0  0  0
  143.8691  136.6553  153.6565 H   0  0  0  0  0  0  0  0  0  0  0  0
  142.2438  134.8300  153.5690 H   0  0  0  0  0  0  0  0  0  0  0  0
  142.7668  135.1105  155.2262 H   0  0  0  0  0  0  0  0  0  0  0  0
  143.3917  133.7299  154.3293 H   0  0  0  0  0  0  0  0  0  0  0  0
  145.0977  136.0889  155.6830 H   0  0  0  0  0  0  0  0  0  0  0  0
  145.8227  134.7014  154.9170 H   0  0  0  0  0  0  0  0  0  0  0  0
  146.9828  136.2999  153.3982 H   0  0  0  0  0  0  0  0  0  0  0  0
  148.3129  137.7954  153.3769 H   0  0  0  0  0  0  0  0  0  0  0  0
  148.0281  140.2126  154.9522 H   0  0  0  0  0  0  0  0  0  0  0  0
  149.2455  139.4998  156.7971 H   0  0  0  0  0  0  0  0  0  0  0  0
  149.7093  138.0064  155.9901 H   0  0  0  0  0  0  0  0  0  0  0  0
  151.0585  140.7072  155.7742 H   0  0  0  0  0  0  0  0  0  0  0  0
  151.8095  139.1128  155.9288 H   0  0  0  0  0  0  0  0  0  0  0  0
  149.6860  141.0645  153.6541 H   0  0  0  0  0  0  0  0  0  0  0  0
  148.5213  139.8355  151.7862 H   0  0  0  0  0  0  0  0  0  0  0  0
  149.6003  138.4594  152.0346 H   0  0  0  0  0  0  0  0  0  0  0  0
  150.2497  140.0035  151.5031 H   0  0  0  0  0  0  0  0  0  0  0  0
  1  2  1  0  0  0  0
  1 20  1  0  0  0  0
  1 21  1  0  0  0  0
  1 22  1  0  0  0  0
  2 19  1  0  0  0  0
  2  3  2  0  0  0  0
  3  4  1  0  0  0  0
  3 23  1  0  0  0  0
  4  5  1  0  0  0  0
  5  6  1  0  0  0  0
  5 19  2  0  0  0  0
  6  7  1  0  0  0  0
  6  8  1  0  0  0  0
  6 24  1  0  0  0  0
  7 25  1  0  0  0  0
  7 26  1  0  0  0  0
  7 27  1  0  0  0  0
  8  9  1  0  0  0  0
  8 28  1  0  0  0  0
  8 29  1  0  0  0  0
  9 10  1  0  0  0  0
  9 30  1  0  0  0  0
 10 11  2  0  0  0  0
 10 12  1  0  0  0  0
 12 13  1  0  0  0  0
 12 31  1  0  0  0  0
 13 17  1  0  0  0  0
 13 14  1  0  0  0  0
 13 32  1  0  0  0  0
 14 15  1  0  0  0  0
 14 33  1  0  0  0  0
 14 34  1  0  0  0  0
 15 16  1  0  0  0  0
 15 35  1  0  0  0  0
 15 36  1  0  0  0  0
 16 17  1  0  0  0  0
 17 18  1  0  0  0  0
 17 37  1  0  0  0  0
 18 38  1  0  0  0  0
 18 39  1  0  0  0  0
 18 40  1  0  0  0  0
M  END
> <s_m_source_file>
AV-unprocessed.smi

> <i_m_source_file_index>
2340

> <i_lp_mmshare_version>
43012

> <i_f3d_flags>
0

> <s_epik_input>
W0NIM11jMVtjSF1zYyhuMSlbQ0BIXShbQ0gzXSlbQ0gyXVtOSF1DKD1PKVtOSF1bQ0BASF0yW0NIMl1bQ0gyXU9bQ0BIXTJbQ0gzXQ==

> <s_epik_cmdline>
J2VwaWtfcHl0aG9uJywgJy1waCcsICc3LjAnLCAnLXRuJywgJzgnLCAnLW1hJywgJzIwMCcsICctbWV0YWxfYmluZGluZycsICctaW1hZScsICc8aW5maWxlLm1hZT4nLCAnLW9tYWUnLCAnPG91dGZpbGUubWFlPic=

> <r_epik_Ionization_Penalty>
0.00156622

> <r_epik_Ionization_Penalty_Charging>
0

> <r_epik_Ionization_Penalty_Neutral>
0.00156622

> <r_epik_State_Penalty>
0.00101902

> <r_epik_Charging_Adjusted_Penalty>
0.00101902

> <i_epik_Tot_Q>
0

> <i_epik_Tot_abs_Q>
0

> <r_epik_Metal_State_Penalty>
-0

> <b_epik_Metal_Only>
0

> <s_lp_Force_Field>
OPLS_2005

> <r_lp_Energy>
5.75985

> <b_lp_Chiralities_Consistent>
1

> <s_lp_Variant>
AV-unprocessed.smi:2340-4

> <Gold.Version>
5.8.1

> <Gold.Id.Protein>
6NUR|6NUR_protein|mol2

> <Gold.PLP.Fitness>
39.7202

> <Gold.PLP.PLP>
-32.1623

> <Gold.PLP.part.hbond>
-3.0000

> <Gold.PLP.part.metal>
0.0000

> <Gold.PLP.part.buried>
-4.0012

> <Gold.PLP.part.nonpolar>
-26.3684

> <Gold.PLP.part.repulsive>
1.1845

> <Gold.PLP.ligand.clash>
0.0000

> <Gold.PLP.ligand.torsion>
0.5469

> <Gold.PLP.Chemscore.Hbond>
2.8420

> <Gold.PLP.Chemscore.CHOScore>
0.0000

> <Gold.PLP.Chemscore.Metal>
0.0000

> <Gold.Chemscore.Hbonds>
donor molecule, donor type, donor heavy atom, donor atom, acceptor molecule, acceptor atom, score
      L1  H    12    31       P1  7948  0.42
      P1  H  7989  7998       L1    16  0.55

> <Gold.PLP.Chemscore.Internal.Correction>
0.1258

> <Gold.Rescore>
     Score         DG    S(hbond)    S(metal)    S(lipo)     H(rot)  DE(clash)    DE(int)     intcor
     13.75     -15.47       1.70        0.00      70.30       1.53       0.12       1.60       ----

> <Gold.Chemscore.Fitness>
13.7524

> <Gold.Chemscore.DG>
-15.4709

> <Gold.Chemscore.ZeroCoef>
-5.4800

> <Gold.Chemscore.Hbond>
1.7034

> <Gold.Chemscore.Metal>
0.0000

> <Gold.Chemscore.Lipo>
70.2992

> <Gold.Chemscore.Internal_Hbond>
0.0000

> <Gold.Chemscore.DEClash>
0.1177

> <Gold.Chemscore.DEInternal>
1.6008

> <Gold.Chemscore.Rot>
1.5325

> <Gold.Chemscore.Internal.Correction>
   9.000000E+99

> <Gold.Chemscore.Hbonds>
donor molecule, donor type, donor heavy atom, donor atom, acceptor molecule, acceptor atom, score
      L1  H     9    30       P1  7948  0.02
      L1  H    12    31       P1  7948  0.43
      P1  H  7989  7998       L1    16  0.02

> <Gold.Chemscore.Hbond.Weighted>
-5.6892

> <Gold.Chemscore.Metal.Weighted>
-0.0000

> <Gold.Chemscore.Lipo.Weighted>
-8.2250

> <Gold.Chemscore.Internal_Hbond.Weighted>
0.0000

> <Gold.Chemscore.DEClash.Weighted>
0.1177

> <Gold.Chemscore.DEInternal.Weighted>
1.6008

> <Gold.Chemscore.Rot.Weighted>
3.9233

> <Gold.Chemscore.Internal.Correction.Weighted>
   9.000000E+99

> <Gold.Protein.RotatedTorsions>
[ 6907 6896 6895 6894 ] final  123.01 input  -60.11 | X-H torsion
[ 7974 7965 7964 7962 ] final  172.35 input  175.53 | X-H torsion
[ 8008 7997 7996 7995 ] final   95.64 input   59.86 | X-H torsion
[ 10167 10162 10161 10158 ] final  154.52 input  -65.29 | X-H torsion
[ 10718 10713 10712 10709 ] final -156.65 input   66.30 | X-H torsion
[ 10763 10752 10751 10750 ] final   -5.29 input  -60.55 | X-H torsion
[ 11005 11000 10999 10996 ] final -146.92 input  -57.11 | X-H torsion

> <Gold.Protein.ActiveResidues>
 VAL166  LYS551  ARG553  GLY616  TRP617  ASP618  TYR619  PRO620  LYS621  CYS622 
 ASP623  PHE694  ASN695  SER759  ASP760  ASP761  ALA762  ILE779  LEU786  VAL792 
 PHE793  MET794  SER795  GLU796  ALA797  LYS798  CYS799  TRP800  GLU811  SER814 

> <Gold.Protein.RotatedAtoms>
  152.4197  133.7095  159.6470 H   0  0  0  0  0  0  0  0  0  0  0  0  # atno 6907 bound_to 6896
  150.8073  133.8476  159.3205 H   0  0  0  0  0  0  0  0  0  0  0  0  # atno 6908 bound_to 6896
  151.6196  135.1035  160.0150 H   0  0  0  0  0  0  0  0  0  0  0  0  # atno 6909 bound_to 6896
  144.7270  139.9485  143.6431 H   0  0  0  0  0  0  0  0  0  0  0  0  # atno 7974 bound_to 7965
  156.0711  140.3283  155.7577 H   0  0  0  0  0  0  0  0  0  0  0  0  # atno 8008 bound_to 7997
  155.5304  140.0593  157.2907 H   0  0  0  0  0  0  0  0  0  0  0  0  # atno 8009 bound_to 7997
  154.4530  140.1928  156.0478 H   0  0  0  0  0  0  0  0  0  0  0  0  # atno 8010 bound_to 7997
  139.4823  144.5179  151.7922 H   0  0  0  0  0  0  0  0  0  0  0  0  # atno 10167 bound_to 10162
  156.5294  130.8514  151.2711 H   0  0  0  0  0  0  0  0  0  0  0  0  # atno 10718 bound_to 10713
  153.3965  135.7003  153.6457 H   0  0  0  0  0  0  0  0  0  0  0  0  # atno 10763 bound_to 10752
  153.5008  135.3652  155.2539 H   0  0  0  0  0  0  0  0  0  0  0  0  # atno 10764 bound_to 10752
  154.8707  135.4111  154.3291 H   0  0  0  0  0  0  0  0  0  0  0  0  # atno 10765 bound_to 10752
  140.7770  134.3123  157.5057 H   0  0  0  0  0  0  0  0  0  0  0  0  # atno 11005 bound_to 11000
  146.0729  139.3718  143.0511 LP  0  0  0  0  0  0  0  0  0  0  0  0  # atno 17320 bound_to 7965
  145.7943  140.9800  143.1032 LP  0  0  0  0  0  0  0  0  0  0  0  0  # atno 17321 bound_to 7965
  140.4690  144.1614  150.5915 LP  0  0  0  0  0  0  0  0  0  0  0  0  # atno 17342 bound_to 10162
  140.4403  143.2529  151.9482 LP  0  0  0  0  0  0  0  0  0  0  0  0  # atno 17343 bound_to 10162
  157.7424  130.9890  150.2515 LP  0  0  0  0  0  0  0  0  0  0  0  0  # atno 17370 bound_to 10713
  156.3074  130.3767  149.7693 LP  0  0  0  0  0  0  0  0  0  0  0  0  # atno 17371 bound_to 10713
  139.8747  134.9295  156.3479 LP  0  0  0  0  0  0  0  0  0  0  0  0  # atno 17394 bound_to 11000
  140.9519  133.7445  156.0283 LP  0  0  0  0  0  0  0  0  0  0  0  0  # atno 17395 bound_to 11000

$$$$
