AV-unprocessed.smi:1115|AV-procd|sdf|4803|dock7
  -GOLD-   22720 3353D 1   1.00000     0.00000
 Structure written by MMmdl.
 50 51  0  0  0  0  0  0  0  0  1 V2000
  151.8157  144.8755  157.8567 C   0  0  0  0  0  0  0  0  0  0  0  0
  151.6983  144.5981  159.2847 N   0  0  0  0  0  0  0  0  0  0  0  0
  150.7363  145.3408  160.0895 C   0  0  0  0  0  0  0  0  0  0  0  0
  152.4163  143.5206  159.8526 C   0  0  0  0  0  0  0  0  0  0  0  0
  152.4779  143.3305  161.2558 C   0  0  0  0  0  0  0  0  0  0  0  0
  153.2052  142.2422  161.7746 C   0  0  0  0  0  0  0  0  0  0  0  0
  153.8640  141.3681  160.8798 C   0  0  0  0  0  0  0  0  0  0  0  0
  154.6082  140.2247  161.2769 N   0  0  0  0  0  0  0  0  0  0  0  0
  155.2636  139.3423  160.5037 C   0  0  0  0  0  0  0  0  0  0  0  0
  155.2968  139.3611  159.2734 O   0  0  0  0  0  0  0  0  0  0  0  0
  155.8648  138.4042  161.2487 N   0  0  0  0  0  0  0  0  0  0  0  0
  156.6245  137.2620  160.7401 C   0  0  0  0  0  0  0  0  0  0  0  0
  155.8568  135.9145  160.8851 C   0  0  0  0  0  0  0  0  0  0  0  0
  154.5990  136.0234  159.9858 C   0  0  0  0  0  0  0  0  0  0  0  0
  156.7547  134.8098  160.2769 C   0  0  0  0  0  0  0  0  0  0  0  0
  155.4812  135.6460  162.3022 N   0  0  0  0  0  0  0  0  0  0  0  0
  155.3458  134.2254  162.6460 C   0  0  0  0  0  0  0  0  0  0  0  0
  155.0815  134.0157  164.1465 C   0  0  0  0  0  0  0  0  0  0  0  0
  153.9171  134.7350  164.5329 O   0  0  0  0  0  0  0  0  0  0  0  0
  154.0287  136.1284  164.2709 C   0  0  0  0  0  0  0  0  0  0  0  0
  154.2862  136.3567  162.7715 C   0  0  0  0  0  0  0  0  0  0  0  0
  153.7365  141.6294  159.5019 C   0  0  0  0  0  0  0  0  0  0  0  0
  153.0419  142.6716  159.0007 N   0  0  0  0  0  0  0  0  0  0  0  0
  151.4430  144.0335  157.2726 H   0  0  0  0  0  0  0  0  0  0  0  0
  152.8560  145.0547  157.5834 H   0  0  0  0  0  0  0  0  0  0  0  0
  151.2429  145.7589  157.5744 H   0  0  0  0  0  0  0  0  0  0  0  0
  149.9804  144.6702  160.4994 H   0  0  0  0  0  0  0  0  0  0  0  0
  150.2220  146.0968  159.4960 H   0  0  0  0  0  0  0  0  0  0  0  0
  151.2374  145.8494  160.9138 H   0  0  0  0  0  0  0  0  0  0  0  0
  151.9799  143.9949  161.9456 H   0  0  0  0  0  0  0  0  0  0  0  0
  153.2289  142.0942  162.8429 H   0  0  0  0  0  0  0  0  0  0  0  0
  154.5971  140.0245  162.2664 H   0  0  0  0  0  0  0  0  0  0  0  0
  155.7684  138.4658  162.2516 H   0  0  0  0  0  0  0  0  0  0  0  0
  156.9097  137.4247  159.6991 H   0  0  0  0  0  0  0  0  0  0  0  0
  157.5729  137.2306  161.2758 H   0  0  0  0  0  0  0  0  0  0  0  0
  154.8482  136.4008  158.9933 H   0  0  0  0  0  0  0  0  0  0  0  0
  153.8552  136.6973  160.4121 H   0  0  0  0  0  0  0  0  0  0  0  0
  154.1172  135.0580  159.8310 H   0  0  0  0  0  0  0  0  0  0  0  0
  156.9966  135.0319  159.2368 H   0  0  0  0  0  0  0  0  0  0  0  0
  156.2697  133.8339  160.2838 H   0  0  0  0  0  0  0  0  0  0  0  0
  157.7030  134.7123  160.8048 H   0  0  0  0  0  0  0  0  0  0  0  0
  154.5284  133.7773  162.0810 H   0  0  0  0  0  0  0  0  0  0  0  0
  156.2481  133.6738  162.3889 H   0  0  0  0  0  0  0  0  0  0  0  0
  154.9331  132.9572  164.3604 H   0  0  0  0  0  0  0  0  0  0  0  0
  155.9362  134.3457  164.7391 H   0  0  0  0  0  0  0  0  0  0  0  0
  153.1065  136.6228  164.5764 H   0  0  0  0  0  0  0  0  0  0  0  0
  154.8347  136.5554  164.8700 H   0  0  0  0  0  0  0  0  0  0  0  0
  154.3847  137.4292  162.6137 H   0  0  0  0  0  0  0  0  0  0  0  0
  153.4093  136.0324  162.2109 H   0  0  0  0  0  0  0  0  0  0  0  0
  154.2095  140.9848  158.7750 H   0  0  0  0  0  0  0  0  0  0  0  0
  1  2  1  0  0  0  0
  1 24  1  0  0  0  0
  1 25  1  0  0  0  0
  1 26  1  0  0  0  0
  2  3  1  0  0  0  0
  2  4  1  0  0  0  0
  3 27  1  0  0  0  0
  3 28  1  0  0  0  0
  3 29  1  0  0  0  0
  4 23  1  0  0  0  0
  4  5  2  0  0  0  0
  5  6  1  0  0  0  0
  5 30  1  0  0  0  0
  6  7  2  0  0  0  0
  6 31  1  0  0  0  0
  7  8  1  0  0  0  0
  7 22  1  0  0  0  0
  8  9  1  0  0  0  0
  8 32  1  0  0  0  0
  9 10  2  0  0  0  0
  9 11  1  0  0  0  0
 11 12  1  0  0  0  0
 11 33  1  0  0  0  0
 12 13  1  0  0  0  0
 12 34  1  0  0  0  0
 12 35  1  0  0  0  0
 13 14  1  0  0  0  0
 13 15  1  0  0  0  0
 13 16  1  0  0  0  0
 14 36  1  0  0  0  0
 14 37  1  0  0  0  0
 14 38  1  0  0  0  0
 15 39  1  0  0  0  0
 15 40  1  0  0  0  0
 15 41  1  0  0  0  0
 16 21  1  0  0  0  0
 16 17  1  0  0  0  0
 17 18  1  0  0  0  0
 17 42  1  0  0  0  0
 17 43  1  0  0  0  0
 18 19  1  0  0  0  0
 18 44  1  0  0  0  0
 18 45  1  0  0  0  0
 19 20  1  0  0  0  0
 20 21  1  0  0  0  0
 20 46  1  0  0  0  0
 20 47  1  0  0  0  0
 21 48  1  0  0  0  0
 21 49  1  0  0  0  0
 22 23  2  0  0  0  0
 22 50  1  0  0  0  0
M  END
> <s_m_source_file>
AV-unprocessed.smi

> <i_m_source_file_index>
1115

> <i_lp_mmshare_version>
43012

> <i_f3d_flags>
0

> <s_epik_input>
W0NIM11OKFtDSDNdKWMxW2NIXVtjSF1jKFtjSF1uMSlbTkhdQyg9TylbTkhdW0NIMl1DKFtDSDNdKShbQ0gzXSlOMltDSDJdW0NIMl1PW0NIMl1bQ0gyXTI=

> <s_epik_cmdline>
J2VwaWtfcHl0aG9uJywgJy1waCcsICc3LjAnLCAnLXRuJywgJzgnLCAnLW1hJywgJzIwMCcsICctbWV0YWxfYmluZGluZycsICctaW1hZScsICc8aW5maWxlLm1hZT4nLCAnLW9tYWUnLCAnPG91dGZpbGUubWFlPic=

> <r_lp_tautomer_probability>
1

> <r_epik_Ionization_Penalty>
0.880664

> <r_epik_Ionization_Penalty_Charging>
0

> <r_epik_Ionization_Penalty_Neutral>
0.880664

> <r_epik_State_Penalty>
0.865003

> <r_epik_Charging_Adjusted_Penalty>
0.865003

> <i_epik_Tot_Q>
0

> <i_epik_Tot_abs_Q>
0

> <r_epik_Metal_State_Penalty>
0.539426

> <b_epik_Metal_Only>
0

> <s_lp_Force_Field>
OPLS_2005

> <r_lp_Energy>
45.7519

> <b_lp_Chiralities_Consistent>
1

> <s_lp_Variant>
AV-unprocessed.smi:1115-2

> <Gold.Version>
5.8.1

> <Gold.Id.Protein>
6NUR|6NUR_protein|mol2

> <Gold.PLP.Fitness>
46.0398

> <Gold.PLP.PLP>
-44.9035

> <Gold.PLP.part.hbond>
-1.0000

> <Gold.PLP.part.metal>
0.0000

> <Gold.PLP.part.buried>
-6.3742

> <Gold.PLP.part.nonpolar>
-37.0489

> <Gold.PLP.part.repulsive>
0.0966

> <Gold.PLP.ligand.clash>
0.0000

> <Gold.PLP.ligand.torsion>
0.9656

> <Gold.PLP.Chemscore.Hbond>
1.0000

> <Gold.PLP.Chemscore.CHOScore>
0.0000

> <Gold.PLP.Chemscore.Metal>
0.0000

> <Gold.Chemscore.Hbonds>
donor molecule, donor type, donor heavy atom, donor atom, acceptor molecule, acceptor atom, score
      P1  H  7997  8008       L1    10  1.00

> <Gold.PLP.Chemscore.Internal.Correction>
0.0675

> <Gold.Rescore>
     Score         DG    S(hbond)    S(metal)    S(lipo)     H(rot)  DE(clash)    DE(int)     intcor
     14.20     -17.15       0.98        0.00     102.93       1.42       0.18       2.77       ----

> <Gold.Chemscore.Fitness>
14.1990

> <Gold.Chemscore.DG>
-17.1507

> <Gold.Chemscore.ZeroCoef>
-5.4800

> <Gold.Chemscore.Hbond>
0.9784

> <Gold.Chemscore.Metal>
0.0000

> <Gold.Chemscore.Lipo>
102.9253

> <Gold.Chemscore.Internal_Hbond>
0.0000

> <Gold.Chemscore.DEClash>
0.1799

> <Gold.Chemscore.DEInternal>
2.7719

> <Gold.Chemscore.Rot>
1.4217

> <Gold.Chemscore.Internal.Correction>
   9.000000E+99

> <Gold.Chemscore.Hbonds>
donor molecule, donor type, donor heavy atom, donor atom, acceptor molecule, acceptor atom, score
      P1  H  7997  8008       L1    10  0.94

> <Gold.Chemscore.Hbond.Weighted>
-3.2680

> <Gold.Chemscore.Metal.Weighted>
-0.0000

> <Gold.Chemscore.Lipo.Weighted>
-12.0423

> <Gold.Chemscore.Internal_Hbond.Weighted>
0.0000

> <Gold.Chemscore.DEClash.Weighted>
0.1799

> <Gold.Chemscore.DEInternal.Weighted>
2.7719

> <Gold.Chemscore.Rot.Weighted>
3.6395

> <Gold.Chemscore.Internal.Correction.Weighted>
   9.000000E+99

> <Gold.Protein.RotatedTorsions>
[ 6907 6896 6895 6894 ] final -142.53 input  -60.11 | X-H torsion
[ 7974 7965 7964 7962 ] final  -19.73 input  175.53 | X-H torsion
[ 8008 7997 7996 7995 ] final -129.73 input   59.86 | X-H torsion
[ 10167 10162 10161 10158 ] final  157.99 input  -65.29 | X-H torsion
[ 10718 10713 10712 10709 ] final  -57.91 input   66.30 | X-H torsion
[ 10763 10752 10751 10750 ] final -169.04 input  -60.55 | X-H torsion
[ 11005 11000 10999 10996 ] final  105.41 input  -57.11 | X-H torsion

> <Gold.Protein.ActiveResidues>
 VAL166  LYS551  ARG553  GLY616  TRP617  ASP618  TYR619  PRO620  LYS621  CYS622 
 ASP623  PHE694  ASN695  SER759  ASP760  ASP761  ALA762  ILE779  LEU786  VAL792 
 PHE793  MET794  SER795  GLU796  ALA797  LYS798  CYS799  TRP800  GLU811  SER814 

> <Gold.Protein.RotatedAtoms>
  151.0884  133.5335  159.2616 H   0  0  0  0  0  0  0  0  0  0  0  0  # atno 6907 bound_to 6896
  151.2212  135.0518  159.8960 H   0  0  0  0  0  0  0  0  0  0  0  0  # atno 6908 bound_to 6896
  152.5431  134.0686  159.8237 H   0  0  0  0  0  0  0  0  0  0  0  0  # atno 6909 bound_to 6896
  146.1826  140.4102  142.8488 H   0  0  0  0  0  0  0  0  0  0  0  0  # atno 7974 bound_to 7965
  155.2841  140.0445  157.3018 H   0  0  0  0  0  0  0  0  0  0  0  0  # atno 8008 bound_to 7997
  154.5579  140.2337  155.8348 H   0  0  0  0  0  0  0  0  0  0  0  0  # atno 8009 bound_to 7997
  156.2023  140.3022  155.9560 H   0  0  0  0  0  0  0  0  0  0  0  0  # atno 8010 bound_to 7997
  139.4825  144.4866  151.8368 H   0  0  0  0  0  0  0  0  0  0  0  0  # atno 10167 bound_to 10162
  156.1175  130.4169  150.0505 H   0  0  0  0  0  0  0  0  0  0  0  0  # atno 10718 bound_to 10713
  154.6565  135.2919  154.9921 H   0  0  0  0  0  0  0  0  0  0  0  0  # atno 10763 bound_to 10752
  154.0996  135.6579  153.4870 H   0  0  0  0  0  0  0  0  0  0  0  0  # atno 10764 bound_to 10752
  153.0405  135.5239  154.7496 H   0  0  0  0  0  0  0  0  0  0  0  0  # atno 10765 bound_to 10752
  139.8802  134.9335  156.5510 H   0  0  0  0  0  0  0  0  0  0  0  0  # atno 11005 bound_to 11000
  144.8341  140.6754  143.6272 LP  0  0  0  0  0  0  0  0  0  0  0  0  # atno 17320 bound_to 7965
  145.4032  139.1594  143.4166 LP  0  0  0  0  0  0  0  0  0  0  0  0  # atno 17321 bound_to 7965
  140.4347  144.2068  150.5889 LP  0  0  0  0  0  0  0  0  0  0  0  0  # atno 17342 bound_to 10162
  140.4744  143.2401  151.9044 LP  0  0  0  0  0  0  0  0  0  0  0  0  # atno 17343 bound_to 10162
  156.8452  130.9439  151.3629 LP  0  0  0  0  0  0  0  0  0  0  0  0  # atno 17370 bound_to 10713
  157.6358  130.8766  149.9357 LP  0  0  0  0  0  0  0  0  0  0  0  0  # atno 17371 bound_to 10713
  140.8240  133.8331  155.8922 LP  0  0  0  0  0  0  0  0  0  0  0  0  # atno 17394 bound_to 11000
  140.9392  134.1923  157.4810 LP  0  0  0  0  0  0  0  0  0  0  0  0  # atno 17395 bound_to 11000

$$$$
