AV-unprocessed.smi:1163|AV-procd|sdf|4924|dock2
  -GOLD-   22720 3503D 1   1.00000     0.00000
 Structure written by MMmdl.
 40 41  0  0  0  0  0  0  0  0  2 V2000
  150.8310  141.7390  158.0309 C   0  0  0  0  0  0  0  0  0  0  0  0
  150.5503  141.6222  156.6404 O   0  0  0  0  0  0  0  0  0  0  0  0
  150.2523  140.3733  156.1351 C   0  0  0  0  0  0  0  0  0  0  0  0
  149.8655  139.3579  157.0315 C   0  0  0  0  0  0  0  0  0  0  0  0
  149.5582  138.0806  156.5250 C   0  0  0  0  0  0  0  0  0  0  0  0
  149.6524  137.8555  155.1300 C   0  0  0  0  0  0  0  0  0  0  0  0
  149.3626  136.6232  154.4808 N   0  0  0  0  0  0  0  0  0  0  0  0
  149.1726  135.4026  155.0115 C   0  0  0  0  0  0  0  0  0  0  0  0
  149.2374  135.1203  156.2070 O   0  0  0  0  0  0  0  0  0  0  0  0
  148.9042  134.4983  154.0593 N   0  0  0  0  0  0  0  0  0  0  0  0
  148.6354  133.0863  154.3090 C   0  0  2  0  0  0  0  0  0  0  0  0
  149.8754  132.2286  154.5377 C   0  0  0  0  0  0  0  0  0  0  0  0
  149.3426  130.8178  154.2710 C   0  0  0  0  0  0  0  0  0  0  0  0
  148.2603  130.9560  153.2626 N   0  3  1  0  0  0  0  0  0  0  0  0
  147.0509  130.1358  153.5263 C   0  0  0  0  0  0  0  0  0  0  0  0
  146.6179  129.3022  152.3066 C   0  0  0  0  0  0  0  0  0  0  0  0
  145.5722  128.5496  152.6454 F   0  0  0  0  0  0  0  0  0  0  0  0
  146.2582  130.1075  151.3073 F   0  0  0  0  0  0  0  0  0  0  0  0
  147.5977  128.4994  151.8925 F   0  0  0  0  0  0  0  0  0  0  0  0
  147.9884  132.4042  153.1038 C   0  0  0  0  0  0  0  0  0  0  0  0
  150.0433  138.9417  154.3192 C   0  0  0  0  0  0  0  0  0  0  0  0
  150.3388  140.1682  154.7979 N   0  0  0  0  0  0  0  0  0  0  0  0
  151.0444  142.7809  158.2691 H   0  0  0  0  0  0  0  0  0  0  0  0
  151.7050  141.1495  158.3117 H   0  0  0  0  0  0  0  0  0  0  0  0
  149.9791  141.4288  158.6379 H   0  0  0  0  0  0  0  0  0  0  0  0
  149.8019  139.5561  158.0914 H   0  0  0  0  0  0  0  0  0  0  0  0
  149.2517  137.3147  157.2189 H   0  0  0  0  0  0  0  0  0  0  0  0
  149.3122  136.6767  153.4741 H   0  0  0  0  0  0  0  0  0  0  0  0
  148.8740  134.8107  153.0997 H   0  0  0  0  0  0  0  0  0  0  0  0
  147.9671  132.9903  155.1677 H   0  0  0  0  0  0  0  0  0  0  0  0
  150.6529  132.4800  153.8146 H   0  0  0  0  0  0  0  0  0  0  0  0
  150.2931  132.3388  155.5389 H   0  0  0  0  0  0  0  0  0  0  0  0
  150.1236  130.1407  153.9238 H   0  0  0  0  0  0  0  0  0  0  0  0
  148.9425  130.4124  155.2016 H   0  0  0  0  0  0  0  0  0  0  0  0
  147.2095  129.4990  154.3980 H   0  0  0  0  0  0  0  0  0  0  0  0
  146.2295  130.8074  153.7798 H   0  0  0  0  0  0  0  0  0  0  0  0
  146.9264  132.6400  153.0228 H   0  0  0  0  0  0  0  0  0  0  0  0
  148.4668  132.7318  152.1793 H   0  0  0  0  0  0  0  0  0  0  0  0
  150.1233  138.8241  153.2483 H   0  0  0  0  0  0  0  0  0  0  0  0
  148.6310  130.6435  152.3764 H   0  0  0  0  0  0  0  0  0  0  0  0
  1  2  1  0  0  0  0
  1 23  1  0  0  0  0
  1 24  1  0  0  0  0
  1 25  1  0  0  0  0
  2  3  1  0  0  0  0
  3 22  1  0  0  0  0
  3  4  2  0  0  0  0
  4  5  1  0  0  0  0
  4 26  1  0  0  0  0
  5  6  2  0  0  0  0
  5 27  1  0  0  0  0
  6  7  1  0  0  0  0
  6 21  1  0  0  0  0
  7  8  1  0  0  0  0
  7 28  1  0  0  0  0
  8  9  2  0  0  0  0
  8 10  1  0  0  0  0
 10 11  1  0  0  0  0
 10 29  1  0  0  0  0
 11 20  1  0  0  0  0
 11 12  1  0  0  0  0
 11 30  1  0  0  0  0
 12 13  1  0  0  0  0
 12 31  1  0  0  0  0
 12 32  1  0  0  0  0
 13 14  1  0  0  0  0
 13 33  1  0  0  0  0
 13 34  1  0  0  0  0
 14 15  1  0  0  0  0
 14 20  1  0  0  0  0
 14 40  1  0  0  0  0
 15 16  1  0  0  0  0
 15 35  1  0  0  0  0
 15 36  1  0  0  0  0
 16 17  1  0  0  0  0
 16 18  1  0  0  0  0
 16 19  1  0  0  0  0
 20 37  1  0  0  0  0
 20 38  1  0  0  0  0
 21 22  2  0  0  0  0
 21 39  1  0  0  0  0
M  CHG  1  14   1
M  END
> <s_m_source_file>
AV-unprocessed.smi

> <i_m_source_file_index>
1163

> <i_lp_mmshare_version>
43012

> <i_f3d_flags>
0

> <s_epik_input>
W0NIM11PYzFbY0hdW2NIXWMoW2NIXW4xKVtOSF1DKD1PKVtOSF1bQ0BASF0yW0NIMl1bQ0gyXU4oW0NIMl0yKVtDSDJdQyhGKShGKUY=

> <s_epik_cmdline>
J2VwaWtfcHl0aG9uJywgJy1waCcsICc3LjAnLCAnLXRuJywgJzgnLCAnLW1hJywgJzIwMCcsICctbWV0YWxfYmluZGluZycsICctaW1hZScsICc8aW5maWxlLm1hZT4nLCAnLW9tYWUnLCAnPG91dGZpbGUubWFlPic=

> <r_lp_tautomer_probability>
1

> <r_epik_Ionization_Penalty>
1.12054

> <r_epik_Ionization_Penalty_Charging>
1.12047

> <r_epik_Ionization_Penalty_Neutral>
7.20346e-05

> <r_epik_State_Penalty>
1.17927

> <r_epik_Charging_Adjusted_Penalty>
2.29974

> <i_epik_Tot_Q>
1

> <i_epik_Tot_abs_Q>
1

> <r_epik_Metal_State_Penalty>
1.17928

> <b_epik_Metal_Only>
0

> <s_lp_Force_Field>
OPLS_2005

> <r_lp_Energy>
31.4883

> <b_lp_Chiralities_Consistent>
1

> <s_lp_Variant>
AV-unprocessed.smi:1163-5

> <Gold.Version>
5.8.1

> <Gold.Id.Protein>
6NUR|6NUR_protein|mol2

> <Gold.PLP.Fitness>
47.5335

> <Gold.PLP.PLP>
-35.0541

> <Gold.PLP.part.hbond>
-4.0000

> <Gold.PLP.part.metal>
0.0000

> <Gold.PLP.part.buried>
-2.4074

> <Gold.PLP.part.nonpolar>
-28.6943

> <Gold.PLP.part.repulsive>
0.1795

> <Gold.PLP.ligand.clash>
0.0000

> <Gold.PLP.ligand.torsion>
1.2084

> <Gold.PLP.Chemscore.Hbond>
3.8000

> <Gold.PLP.Chemscore.CHOScore>
1.0000

> <Gold.PLP.Chemscore.Metal>
0.0000

> <Gold.Chemscore.Hbonds>
donor molecule, donor type, donor heavy atom, donor atom, acceptor molecule, acceptor atom, score
      L1  H     7    28       P1  7948  1.00
      L1  H    10    29       P1  7948  0.90
      L1  H    14    40       P1 10747  0.80
      P1  H  7989  7998       L1    22  1.00
      L1  C    21    39       P1  7957  1.00

> <Gold.PLP.Chemscore.Internal.Correction>
0.4961

> <Gold.Rescore>
     Score         DG    S(hbond)    S(metal)    S(lipo)     H(rot)  DE(clash)    DE(int)     intcor
     16.08     -18.35       3.03        0.00      60.32       1.68       0.29       1.98       ----

> <Gold.Chemscore.Fitness>
16.0774

> <Gold.Chemscore.DG>
-18.3491

> <Gold.Chemscore.ZeroCoef>
-5.4800

> <Gold.Chemscore.Hbond>
3.0259

> <Gold.Chemscore.Metal>
0.0000

> <Gold.Chemscore.Lipo>
60.3214

> <Gold.Chemscore.Internal_Hbond>
0.0000

> <Gold.Chemscore.DEClash>
0.2938

> <Gold.Chemscore.DEInternal>
1.9779

> <Gold.Chemscore.Rot>
1.6778

> <Gold.Chemscore.Internal.Correction>
   9.000000E+99

> <Gold.Chemscore.Hbonds>
donor molecule, donor type, donor heavy atom, donor atom, acceptor molecule, acceptor atom, score
      L1  H     7    28       P1  7948  0.94
      L1  H    10    29       P1  7948  0.17
      L1  H    14    40       P1 10747  0.57
      P1  H  7989  7998       L1    22  0.44

> <Gold.Chemscore.Hbond.Weighted>
-10.1066

> <Gold.Chemscore.Metal.Weighted>
-0.0000

> <Gold.Chemscore.Lipo.Weighted>
-7.0576

> <Gold.Chemscore.Internal_Hbond.Weighted>
0.0000

> <Gold.Chemscore.DEClash.Weighted>
0.2938

> <Gold.Chemscore.DEInternal.Weighted>
1.9779

> <Gold.Chemscore.Rot.Weighted>
4.2951

> <Gold.Chemscore.Internal.Correction.Weighted>
   9.000000E+99

> <Gold.Protein.RotatedTorsions>
[ 6907 6896 6895 6894 ] final   63.50 input  -60.11 | X-H torsion
[ 7974 7965 7964 7962 ] final  -76.01 input  175.53 | X-H torsion
[ 8008 7997 7996 7995 ] final   38.59 input   59.86 | X-H torsion
[ 10167 10162 10161 10158 ] final  131.94 input  -65.29 | X-H torsion
[ 10718 10713 10712 10709 ] final  -30.22 input   66.30 | X-H torsion
[ 10763 10752 10751 10750 ] final   95.53 input  -60.55 | X-H torsion
[ 11005 11000 10999 10996 ] final -159.42 input  -57.11 | X-H torsion

> <Gold.Protein.ActiveResidues>
 VAL166  LYS551  ARG553  GLY616  TRP617  ASP618  TYR619  PRO620  LYS621  CYS622 
 ASP623  PHE694  ASN695  SER759  ASP760  ASP761  ALA762  ILE779  LEU786  VAL792 
 PHE793  MET794  SER795  GLU796  ALA797  LYS798  CYS799  TRP800  GLU811  SER814 

> <Gold.Protein.RotatedAtoms>
  152.4258  134.5871  159.9963 H   0  0  0  0  0  0  0  0  0  0  0  0  # atno 6907 bound_to 6896
  151.6008  133.3351  159.3055 H   0  0  0  0  0  0  0  0  0  0  0  0  # atno 6908 bound_to 6896
  150.8147  134.7360  159.6785 H   0  0  0  0  0  0  0  0  0  0  0  0  # atno 6909 bound_to 6896
  145.6185  140.9369  143.1151 H   0  0  0  0  0  0  0  0  0  0  0  0  # atno 7974 bound_to 7965
  155.2227  140.3332  155.4313 H   0  0  0  0  0  0  0  0  0  0  0  0  # atno 8008 bound_to 7997
  156.2327  140.1858  156.7248 H   0  0  0  0  0  0  0  0  0  0  0  0  # atno 8009 bound_to 7997
  154.6005  140.0624  156.9347 H   0  0  0  0  0  0  0  0  0  0  0  0  # atno 8010 bound_to 7997
  139.5362  144.6684  151.4779 H   0  0  0  0  0  0  0  0  0  0  0  0  # atno 10167 bound_to 10162
  156.4026  130.4393  149.7311 H   0  0  0  0  0  0  0  0  0  0  0  0  # atno 10718 bound_to 10713
  153.2542  135.4251  155.0829 H   0  0  0  0  0  0  0  0  0  0  0  0  # atno 10763 bound_to 10752
  154.8394  135.3433  154.6469 H   0  0  0  0  0  0  0  0  0  0  0  0  # atno 10764 bound_to 10752
  153.6890  135.7035  153.5152 H   0  0  0  0  0  0  0  0  0  0  0  0  # atno 10765 bound_to 10752
  140.6427  134.4534  157.5233 H   0  0  0  0  0  0  0  0  0  0  0  0  # atno 11005 bound_to 11000
  144.7240  139.7934  143.7371 LP  0  0  0  0  0  0  0  0  0  0  0  0  # atno 17320 bound_to 7965
  146.1449  139.4516  143.0085 LP  0  0  0  0  0  0  0  0  0  0  0  0  # atno 17321 bound_to 7965
  140.6569  143.8581  150.6845 LP  0  0  0  0  0  0  0  0  0  0  0  0  # atno 17342 bound_to 10162
  140.1963  143.3995  152.1825 LP  0  0  0  0  0  0  0  0  0  0  0  0  # atno 17343 bound_to 10162
  156.4321  130.7820  151.2840 LP  0  0  0  0  0  0  0  0  0  0  0  0  # atno 17370 bound_to 10713
  157.7504  131.0150  150.3489 LP  0  0  0  0  0  0  0  0  0  0  0  0  # atno 17371 bound_to 10713
  139.9074  134.8419  156.1654 LP  0  0  0  0  0  0  0  0  0  0  0  0  # atno 17394 bound_to 11000
  141.0595  133.6849  156.1924 LP  0  0  0  0  0  0  0  0  0  0  0  0  # atno 17395 bound_to 11000

$$$$
