AV-unprocessed.smi:1504|AV-procd|sdf|6072|dock8
  -GOLD-   22720 6193D 1   1.00000     0.00000
 Structure written by MMmdl.
 39 40  0  0  0  0  0  0  0  0  1 V2000
  145.7973  138.8842  153.7001 O   0  0  0  0  0  0  0  0  0  0  0  0
  146.8233  138.5538  153.1053 C   0  0  0  0  0  0  0  0  0  0  0  0
  146.9561  137.4152  152.4112 N   0  0  0  0  0  0  0  0  0  0  0  0
  145.9136  136.4045  152.2589 C   0  0  0  0  0  0  0  0  0  0  0  0
  145.8224  135.8500  150.8236 C   0  0  0  0  0  0  0  0  0  0  0  0
  145.6417  134.3427  150.7660 C   0  0  0  0  0  0  0  0  0  0  0  0
  144.5584  133.7710  150.0646 C   0  0  0  0  0  0  0  0  0  0  0  0
  144.4386  132.3680  150.0422 C   0  0  0  0  0  0  0  0  0  0  0  0
  145.4015  131.5942  150.7185 C   0  0  0  0  0  0  0  0  0  0  0  0
  146.4466  132.2613  151.3883 C   0  0  0  0  0  0  0  0  0  0  0  0
  146.5716  133.6058  151.4146 N   0  0  0  0  0  0  0  0  0  0  0  0
  147.9404  139.2909  153.0724 N   0  0  0  0  0  0  0  0  0  0  0  0
  148.0980  140.5768  153.7398 C   0  0  0  0  0  0  0  0  0  0  0  0
  149.4876  140.6966  154.3876 C   0  0  1  0  0  0  0  0  0  0  0  0
  149.4774  141.5944  155.6402 C   0  0  0  0  0  0  0  0  0  0  0  0
  150.8158  141.4331  156.3674 C   0  0  0  0  0  0  0  0  0  0  0  0
  151.2999  139.6844  156.1222 S   0  0  0  0  0  0  0  0  0  0  0  0
  152.6655  139.6362  155.5783 O   0  0  0  0  0  0  0  0  0  0  0  0
  150.9301  138.9023  157.3115 O   0  0  0  0  0  0  0  0  0  0  0  0
  150.0935  139.3386  154.7855 C   0  0  0  0  0  0  0  0  0  0  0  0
  147.8371  137.2341  151.9527 H   0  0  0  0  0  0  0  0  0  0  0  0
  146.1379  135.5920  152.9504 H   0  0  0  0  0  0  0  0  0  0  0  0
  144.9502  136.8130  152.5672 H   0  0  0  0  0  0  0  0  0  0  0  0
  144.9902  136.3248  150.3025 H   0  0  0  0  0  0  0  0  0  0  0  0
  146.7175  136.1226  150.2630 H   0  0  0  0  0  0  0  0  0  0  0  0
  143.8367  134.3920  149.5541 H   0  0  0  0  0  0  0  0  0  0  0  0
  143.6231  131.8944  149.5161 H   0  0  0  0  0  0  0  0  0  0  0  0
  145.3411  130.5160  150.7244 H   0  0  0  0  0  0  0  0  0  0  0  0
  147.2024  131.7001  151.9175 H   0  0  0  0  0  0  0  0  0  0  0  0
  148.7338  138.9406  152.5559 H   0  0  0  0  0  0  0  0  0  0  0  0
  147.9553  141.3726  153.0076 H   0  0  0  0  0  0  0  0  0  0  0  0
  147.3220  140.6979  154.4979 H   0  0  0  0  0  0  0  0  0  0  0  0
  150.1652  141.1597  153.6687 H   0  0  0  0  0  0  0  0  0  0  0  0
  149.2853  142.6377  155.3883 H   0  0  0  0  0  0  0  0  0  0  0  0
  148.6743  141.2746  156.3059 H   0  0  0  0  0  0  0  0  0  0  0  0
  151.5809  142.0622  155.9120 H   0  0  0  0  0  0  0  0  0  0  0  0
  150.7579  141.6653  157.4310 H   0  0  0  0  0  0  0  0  0  0  0  0
  149.3319  138.6715  155.1905 H   0  0  0  0  0  0  0  0  0  0  0  0
  150.5891  138.8336  153.9562 H   0  0  0  0  0  0  0  0  0  0  0  0
  1  2  2  0  0  0  0
  2  3  1  0  0  0  0
  2 12  1  0  0  0  0
  3  4  1  0  0  0  0
  3 21  1  0  0  0  0
  4  5  1  0  0  0  0
  4 22  1  0  0  0  0
  4 23  1  0  0  0  0
  5  6  1  0  0  0  0
  5 24  1  0  0  0  0
  5 25  1  0  0  0  0
  6 11  1  0  0  0  0
  6  7  2  0  0  0  0
  7  8  1  0  0  0  0
  7 26  1  0  0  0  0
  8  9  2  0  0  0  0
  8 27  1  0  0  0  0
  9 10  1  0  0  0  0
  9 28  1  0  0  0  0
 10 11  2  0  0  0  0
 10 29  1  0  0  0  0
 12 13  1  0  0  0  0
 12 30  1  0  0  0  0
 13 14  1  0  0  0  0
 13 31  1  0  0  0  0
 13 32  1  0  0  0  0
 14 20  1  0  0  0  0
 14 15  1  0  0  0  0
 14 33  1  0  0  0  0
 15 16  1  0  0  0  0
 15 34  1  0  0  0  0
 15 35  1  0  0  0  0
 16 17  1  0  0  0  0
 16 36  1  0  0  0  0
 16 37  1  0  0  0  0
 17 18  2  0  0  0  0
 17 19  2  0  0  0  0
 17 20  1  0  0  0  0
 20 38  1  0  0  0  0
 20 39  1  0  0  0  0
M  END
> <s_m_source_file>
AV-unprocessed.smi

> <i_m_source_file_index>
1504

> <i_lp_mmshare_version>
43012

> <i_f3d_flags>
0

> <s_epik_input>
Tz1TMSg9TylbQ0gyXVtDSDJdW0NASF0oW0NIMl0xKVtDSDJdW05IXUMoPU8pW05IXVtDSDJdW0NIMl1jMltjSF1bY0hdW2NIXVtjSF1uMg==

> <s_epik_cmdline>
J2VwaWtfcHl0aG9uJywgJy1waCcsICc3LjAnLCAnLXRuJywgJzgnLCAnLW1hJywgJzIwMCcsICctbWV0YWxfYmluZGluZycsICctaW1hZScsICc8aW5maWxlLm1hZT4nLCAnLW9tYWUnLCAnPG91dGZpbGUubWFlPic=

> <r_epik_Ionization_Penalty>
0.0431785

> <r_epik_Ionization_Penalty_Charging>
0

> <r_epik_Ionization_Penalty_Neutral>
0.0431785

> <r_epik_State_Penalty>
0.0364691

> <r_epik_Charging_Adjusted_Penalty>
0.0364691

> <i_epik_Tot_Q>
0

> <i_epik_Tot_abs_Q>
0

> <r_epik_Metal_State_Penalty>
0.0339827

> <b_epik_Metal_Only>
0

> <s_lp_Force_Field>
OPLS_2005

> <r_lp_Energy>
0.935995

> <b_lp_Chiralities_Consistent>
1

> <s_lp_Variant>
AV-unprocessed.smi:1504-2

> <Gold.Version>
5.8.1

> <Gold.Id.Protein>
6NUR|6NUR_protein|mol2

> <Gold.PLP.Fitness>
48.3105

> <Gold.PLP.PLP>
-39.7638

> <Gold.PLP.part.hbond>
-4.0000

> <Gold.PLP.part.metal>
0.0000

> <Gold.PLP.part.buried>
-4.4778

> <Gold.PLP.part.nonpolar>
-33.0253

> <Gold.PLP.part.repulsive>
0.4388

> <Gold.PLP.ligand.clash>
0.0000

> <Gold.PLP.ligand.torsion>
0.9749

> <Gold.PLP.Chemscore.Hbond>
2.4961

> <Gold.PLP.Chemscore.CHOScore>
1.0000

> <Gold.PLP.Chemscore.Metal>
0.0000

> <Gold.Chemscore.Hbonds>
donor molecule, donor type, donor heavy atom, donor atom, acceptor molecule, acceptor atom, score
      L1  H     3    21       P1  7948  0.77
      L1  H    12    30       P1  7957  0.43
      P1  H  7997  8010       L1    18  1.00
      L1  C    10    29       P1 10747  0.56

> <Gold.PLP.Chemscore.Internal.Correction>
0.0082

> <Gold.Rescore>
     Score         DG    S(hbond)    S(metal)    S(lipo)     H(rot)  DE(clash)    DE(int)     intcor
     17.86     -18.88       2.39        0.00      88.16       1.91       0.05       0.97       ----

> <Gold.Chemscore.Fitness>
17.8625

> <Gold.Chemscore.DG>
-18.8827

> <Gold.Chemscore.ZeroCoef>
-5.4800

> <Gold.Chemscore.Hbond>
2.3889

> <Gold.Chemscore.Metal>
0.0000

> <Gold.Chemscore.Lipo>
88.1590

> <Gold.Chemscore.Internal_Hbond>
0.0000

> <Gold.Chemscore.DEClash>
0.0459

> <Gold.Chemscore.DEInternal>
0.9743

> <Gold.Chemscore.Rot>
1.9105

> <Gold.Chemscore.Internal.Correction>
   9.000000E+99

> <Gold.Chemscore.Hbonds>
donor molecule, donor type, donor heavy atom, donor atom, acceptor molecule, acceptor atom, score
      L1  H     3    21       P1  7948  0.74
      L1  H    12    30       P1  7957  0.43
      P1  H  7997  8010       L1    18  1.00

> <Gold.Chemscore.Hbond.Weighted>
-7.9789

> <Gold.Chemscore.Metal.Weighted>
-0.0000

> <Gold.Chemscore.Lipo.Weighted>
-10.3146

> <Gold.Chemscore.Internal_Hbond.Weighted>
0.0000

> <Gold.Chemscore.DEClash.Weighted>
0.0459

> <Gold.Chemscore.DEInternal.Weighted>
0.9743

> <Gold.Chemscore.Rot.Weighted>
4.8908

> <Gold.Chemscore.Internal.Correction.Weighted>
   9.000000E+99

> <Gold.Protein.RotatedTorsions>
[ 6907 6896 6895 6894 ] final  -81.84 input  -60.11 | X-H torsion
[ 7974 7965 7964 7962 ] final  132.24 input  175.53 | X-H torsion
[ 8008 7997 7996 7995 ] final   95.45 input   59.86 | X-H torsion
[ 10167 10162 10161 10158 ] final  103.85 input  -65.29 | X-H torsion
[ 10718 10713 10712 10709 ] final   21.08 input   66.30 | X-H torsion
[ 10763 10752 10751 10750 ] final  -57.64 input  -60.55 | X-H torsion
[ 11005 11000 10999 10996 ] final   66.10 input  -57.11 | X-H torsion

> <Gold.Protein.ActiveResidues>
 VAL166  LYS551  ARG553  GLY616  TRP617  ASP618  TYR619  PRO620  LYS621  CYS622 
 ASP623  PHE694  ASN695  SER759  ASP760  ASP761  ALA762  ILE779  LEU786  VAL792 
 PHE793  MET794  SER795  GLU796  ALA797  LYS798  CYS799  TRP800  GLU811  SER814 

> <Gold.Protein.RotatedAtoms>
  150.6906  134.3756  159.5011 H   0  0  0  0  0  0  0  0  0  0  0  0  # atno 6907 bound_to 6896
  152.1566  134.8943  160.0553 H   0  0  0  0  0  0  0  0  0  0  0  0  # atno 6908 bound_to 6896
  152.0021  133.3794  159.4223 H   0  0  0  0  0  0  0  0  0  0  0  0  # atno 6909 bound_to 6896
  144.9989  139.4332  143.5302 H   0  0  0  0  0  0  0  0  0  0  0  0  # atno 7974 bound_to 7965
  156.0690  140.3286  155.7553 H   0  0  0  0  0  0  0  0  0  0  0  0  # atno 8008 bound_to 7997
  155.5335  140.0595  157.2901 H   0  0  0  0  0  0  0  0  0  0  0  0  # atno 8009 bound_to 7997
  154.4520  140.1923  156.0508 H   0  0  0  0  0  0  0  0  0  0  0  0  # atno 8010 bound_to 7997
  139.7227  144.7054  151.0847 H   0  0  0  0  0  0  0  0  0  0  0  0  # atno 10167 bound_to 10162
  157.1334  130.6601  149.5959 H   0  0  0  0  0  0  0  0  0  0  0  0  # atno 10718 bound_to 10713
  154.2256  135.6370  153.5158 H   0  0  0  0  0  0  0  0  0  0  0  0  # atno 10763 bound_to 10752
  152.9959  135.5507  154.6067 H   0  0  0  0  0  0  0  0  0  0  0  0  # atno 10764 bound_to 10752
  154.5538  135.2903  155.0958 H   0  0  0  0  0  0  0  0  0  0  0  0  # atno 10765 bound_to 10752
  139.9853  134.6678  156.0188 H   0  0  0  0  0  0  0  0  0  0  0  0  # atno 11005 bound_to 11000
  146.3448  139.9365  142.8746 LP  0  0  0  0  0  0  0  0  0  0  0  0  # atno 17320 bound_to 7965
  145.2181  140.9924  143.4061 LP  0  0  0  0  0  0  0  0  0  0  0  0  # atno 17321 bound_to 7965
  140.7757  143.5145  150.9612 LP  0  0  0  0  0  0  0  0  0  0  0  0  # atno 17342 bound_to 10162
  139.8832  143.7045  152.3154 LP  0  0  0  0  0  0  0  0  0  0  0  0  # atno 17343 bound_to 10162
  155.9803  130.4803  150.6765 LP  0  0  0  0  0  0  0  0  0  0  0  0  # atno 17370 bound_to 10713
  157.4372  131.0856  151.0980 LP  0  0  0  0  0  0  0  0  0  0  0  0  # atno 17371 bound_to 10713
  141.1519  133.6547  156.4039 LP  0  0  0  0  0  0  0  0  0  0  0  0  # atno 17394 bound_to 11000
  140.5015  134.6481  157.5250 LP  0  0  0  0  0  0  0  0  0  0  0  0  # atno 17395 bound_to 11000

$$$$
