AV-unprocessed.smi:3311|AV-procd|sdf|12719|dock8
  -GOLD-   2272019 63D 1   1.00000     0.00000
 Structure written by MMmdl.
 44 45  0  0  0  0  0  0  0  0  2 V2000
  152.7388  145.0351  157.7072 C   0  0  0  0  0  0  0  0  0  0  0  0
  151.9686  143.7638  158.1007 C   0  0  2  0  0  0  0  0  0  0  0  0
  150.9428  143.4921  157.0677 N   0  3  0  0  0  0  0  0  0  0  0  0
  150.2052  142.2211  157.2345 C   0  0  0  0  0  0  0  0  0  0  0  0
  150.2325  141.3598  155.9532 C   0  0  0  0  0  0  0  0  0  0  0  0
  150.2619  142.2513  154.8518 O   0  0  0  0  0  0  0  0  0  0  0  0
  151.4742  140.4348  155.9060 C   0  0  0  0  0  0  0  0  0  0  0  0
  151.4581  139.4703  154.7066 C   0  0  0  0  0  0  0  0  0  0  0  0
  150.1648  138.6447  154.6693 C   0  0  0  0  0  0  0  0  0  0  0  0
  148.9314  139.5581  154.6531 C   0  0  0  0  0  0  0  0  0  0  0  0
  148.9347  140.5233  155.8525 C   0  0  0  0  0  0  0  0  0  0  0  0
  151.3032  143.8652  159.4998 C   0  0  2  0  0  0  0  0  0  0  0  0
  150.8878  145.3003  159.8756 C   0  0  0  0  0  0  0  0  0  0  0  0
  152.1661  143.3122  160.5380 N   0  0  0  0  0  0  0  0  0  0  0  0
  153.0264  142.2368  160.4498 C   0  0  0  0  0  0  0  0  0  0  0  0
  153.6339  142.0985  161.6647 C   0  0  0  0  0  0  0  0  0  0  0  0
  153.0717  143.1459  162.4457 C   0  0  0  0  0  0  0  0  0  0  0  0
  152.1946  143.8697  161.7699 N   0  0  0  0  0  0  0  0  0  0  0  0
  153.5844  145.2151  158.3705 H   0  0  0  0  0  0  0  0  0  0  0  0
  152.0965  145.9161  157.7350 H   0  0  0  0  0  0  0  0  0  0  0  0
  153.1424  144.9495  156.6975 H   0  0  0  0  0  0  0  0  0  0  0  0
  152.6861  142.9413  158.1173 H   0  0  0  0  0  0  0  0  0  0  0  0
  150.2657  144.2413  157.0925 H   0  0  0  0  0  0  0  0  0  0  0  0
  150.6385  141.6688  158.0696 H   0  0  0  0  0  0  0  0  0  0  0  0
  149.1722  142.4440  157.5057 H   0  0  0  0  0  0  0  0  0  0  0  0
  149.9629  143.0991  155.1450 H   0  0  0  0  0  0  0  0  0  0  0  0
  152.3923  141.0224  155.8801 H   0  0  0  0  0  0  0  0  0  0  0  0
  151.5176  139.8473  156.8241 H   0  0  0  0  0  0  0  0  0  0  0  0
  151.5604  140.0331  153.7780 H   0  0  0  0  0  0  0  0  0  0  0  0
  152.3199  138.8042  154.7571 H   0  0  0  0  0  0  0  0  0  0  0  0
  150.1608  137.9980  153.7914 H   0  0  0  0  0  0  0  0  0  0  0  0
  150.1235  137.9868  155.5385 H   0  0  0  0  0  0  0  0  0  0  0  0
  148.9060  140.1236  153.7209 H   0  0  0  0  0  0  0  0  0  0  0  0
  148.0240  138.9536  154.6680 H   0  0  0  0  0  0  0  0  0  0  0  0
  148.8109  139.9401  156.7661 H   0  0  0  0  0  0  0  0  0  0  0  0
  148.0648  141.1793  155.7959 H   0  0  0  0  0  0  0  0  0  0  0  0
  150.3961  143.2584  159.4877 H   0  0  0  0  0  0  0  0  0  0  0  0
  150.1110  145.6820  159.2138 H   0  0  0  0  0  0  0  0  0  0  0  0
  151.7333  145.9873  159.8297 H   0  0  0  0  0  0  0  0  0  0  0  0
  150.4868  145.3369  160.8892 H   0  0  0  0  0  0  0  0  0  0  0  0
  153.1369  141.6662  159.5393 H   0  0  0  0  0  0  0  0  0  0  0  0
  154.3675  141.3602  161.9526 H   0  0  0  0  0  0  0  0  0  0  0  0
  153.2735  143.4005  163.4757 H   0  0  0  0  0  0  0  0  0  0  0  0
  151.3853  143.4929  156.1602 H   0  0  0  0  0  0  0  0  0  0  0  0
  1  2  1  0  0  0  0
  1 19  1  0  0  0  0
  1 20  1  0  0  0  0
  1 21  1  0  0  0  0
  2  3  1  0  0  0  0
  2 12  1  0  0  0  0
  2 22  1  0  0  0  0
  3  4  1  0  0  0  0
  3 23  1  0  0  0  0
  3 44  1  0  0  0  0
  4  5  1  0  0  0  0
  4 24  1  0  0  0  0
  4 25  1  0  0  0  0
  5 11  1  0  0  0  0
  5  6  1  0  0  0  0
  5  7  1  0  0  0  0
  6 26  1  0  0  0  0
  7  8  1  0  0  0  0
  7 27  1  0  0  0  0
  7 28  1  0  0  0  0
  8  9  1  0  0  0  0
  8 29  1  0  0  0  0
  8 30  1  0  0  0  0
  9 10  1  0  0  0  0
  9 31  1  0  0  0  0
  9 32  1  0  0  0  0
 10 11  1  0  0  0  0
 10 33  1  0  0  0  0
 10 34  1  0  0  0  0
 11 35  1  0  0  0  0
 11 36  1  0  0  0  0
 12 13  1  0  0  0  0
 12 14  1  0  0  0  0
 12 37  1  0  0  0  0
 13 38  1  0  0  0  0
 13 39  1  0  0  0  0
 13 40  1  0  0  0  0
 14 18  1  0  0  0  0
 14 15  1  0  0  0  0
 15 16  2  0  0  0  0
 15 41  1  0  0  0  0
 16 17  1  0  0  0  0
 16 42  1  0  0  0  0
 17 18  2  0  0  0  0
 17 43  1  0  0  0  0
M  CHG  1   3   1
M  END
> <s_m_source_file>
AV-unprocessed.smi

> <i_m_source_file_index>
3311

> <i_lp_mmshare_version>
43012

> <i_f3d_flags>
0

> <s_epik_input>
bjFbY0hdW2NIXVtjSF1uMVtDQEBIXShbQ0gzXSlbQ0BIXShbQ0gzXSlbTkhdW0NIMl1DMihbT0hdKVtDSDJdW0NIMl1bQ0gyXVtDSDJdW0NIMl0y

> <s_epik_cmdline>
J2VwaWtfcHl0aG9uJywgJy1waCcsICc3LjAnLCAnLXRuJywgJzgnLCAnLW1hJywgJzIwMCcsICctbWV0YWxfYmluZGluZycsICctaW1hZScsICc8aW5maWxlLm1hZT4nLCAnLW9tYWUnLCAnPG91dGZpbGUubWFlPic=

> <r_lp_tautomer_probability>
1

> <r_epik_Ionization_Penalty>
0.0141403

> <r_epik_Ionization_Penalty_Charging>
0.0141276

> <r_epik_Ionization_Penalty_Neutral>
1.27139e-05

> <r_epik_State_Penalty>
0.0110334

> <r_epik_Charging_Adjusted_Penalty>
0.025161

> <i_epik_Tot_Q>
1

> <i_epik_Tot_abs_Q>
1

> <r_epik_Metal_State_Penalty>
0.0110573

> <b_epik_Metal_Only>
0

> <s_lp_Force_Field>
OPLS_2005

> <r_lp_Energy>
21.8269

> <b_lp_Chiralities_Consistent>
1

> <s_lp_Variant>
AV-unprocessed.smi:3311-1

> <Gold.Version>
5.8.1

> <Gold.Id.Protein>
6NUR|6NUR_protein|mol2

> <Gold.PLP.Fitness>
46.0339

> <Gold.PLP.PLP>
-44.1297

> <Gold.PLP.part.hbond>
-4.0000

> <Gold.PLP.part.metal>
0.0000

> <Gold.PLP.part.buried>
1.1490

> <Gold.PLP.part.nonpolar>
-40.0891

> <Gold.PLP.part.repulsive>
0.1783

> <Gold.PLP.ligand.clash>
0.0000

> <Gold.PLP.ligand.torsion>
2.3488

> <Gold.PLP.Chemscore.Hbond>
2.1783

> <Gold.PLP.Chemscore.CHOScore>
0.0000

> <Gold.PLP.Chemscore.Metal>
0.0000

> <Gold.Chemscore.Hbonds>
donor molecule, donor type, donor heavy atom, donor atom, acceptor molecule, acceptor atom, score
      L1  H     3    23       P1  8028  1.15
      L1  H     6    26       P1  8028  1.00
      P1  H  7989  7998       L1     6  0.02

> <Gold.PLP.Chemscore.Internal.Correction>
0.0671

> <Gold.Rescore>
     Score         DG    S(hbond)    S(metal)    S(lipo)     H(rot)  DE(clash)    DE(int)     intcor
     14.26     -18.91       1.21        0.00     127.15       2.14       2.16       2.48       ----

> <Gold.Chemscore.Fitness>
14.2634

> <Gold.Chemscore.DG>
-18.9057

> <Gold.Chemscore.ZeroCoef>
-5.4800

> <Gold.Chemscore.Hbond>
1.2076

> <Gold.Chemscore.Metal>
0.0000

> <Gold.Chemscore.Lipo>
127.1530

> <Gold.Chemscore.Internal_Hbond>
0.0000

> <Gold.Chemscore.DEClash>
2.1621

> <Gold.Chemscore.DEInternal>
2.4802

> <Gold.Chemscore.Rot>
2.1424

> <Gold.Chemscore.Internal.Correction>
   9.000000E+99

> <Gold.Chemscore.Hbonds>
donor molecule, donor type, donor heavy atom, donor atom, acceptor molecule, acceptor atom, score
      L1  H     3    23       P1  8028  0.47
      L1  H     6    26       P1  8028  0.96

> <Gold.Chemscore.Hbond.Weighted>
-4.0334

> <Gold.Chemscore.Metal.Weighted>
-0.0000

> <Gold.Chemscore.Lipo.Weighted>
-14.8769

> <Gold.Chemscore.Internal_Hbond.Weighted>
0.0000

> <Gold.Chemscore.DEClash.Weighted>
2.1621

> <Gold.Chemscore.DEInternal.Weighted>
2.4802

> <Gold.Chemscore.Rot.Weighted>
5.4846

> <Gold.Chemscore.Internal.Correction.Weighted>
   9.000000E+99

> <Gold.Protein.RotatedTorsions>
[ 6907 6896 6895 6894 ] final  -65.70 input  -60.11 | X-H torsion
[ 7974 7965 7964 7962 ] final  -11.15 input  175.53 | X-H torsion
[ 8008 7997 7996 7995 ] final  141.01 input   59.86 | X-H torsion
[ 10167 10162 10161 10158 ] final  105.55 input  -65.29 | X-H torsion
[ 10718 10713 10712 10709 ] final  154.34 input   66.30 | X-H torsion
[ 10763 10752 10751 10750 ] final   31.85 input  -60.55 | X-H torsion
[ 11005 11000 10999 10996 ] final   17.52 input  -57.11 | X-H torsion

> <Gold.Protein.ActiveResidues>
 VAL166  LYS551  ARG553  GLY616  TRP617  ASP618  TYR619  PRO620  LYS621  CYS622 
 ASP623  PHE694  ASN695  SER759  ASP760  ASP761  ALA762  ILE779  LEU786  VAL792 
 PHE793  MET794  SER795  GLU796  ALA797  LYS798  CYS799  TRP800  GLU811  SER814 

> <Gold.Protein.RotatedAtoms>
  150.7508  134.6124  159.6092 H   0  0  0  0  0  0  0  0  0  0  0  0  # atno 6907 bound_to 6896
  152.3454  134.7075  160.0261 H   0  0  0  0  0  0  0  0  0  0  0  0  # atno 6908 bound_to 6896
  151.7513  133.3291  159.3429 H   0  0  0  0  0  0  0  0  0  0  0  0  # atno 6909 bound_to 6896
  146.2197  140.2869  142.8366 H   0  0  0  0  0  0  0  0  0  0  0  0  # atno 7974 bound_to 7965
  156.2971  140.2326  156.4495 H   0  0  0  0  0  0  0  0  0  0  0  0  # atno 8008 bound_to 7997
  154.8114  140.0443  157.1366 H   0  0  0  0  0  0  0  0  0  0  0  0  # atno 8009 bound_to 7997
  154.9419  140.3030  155.5120 H   0  0  0  0  0  0  0  0  0  0  0  0  # atno 8010 bound_to 7997
  139.7083  144.7082  151.1069 H   0  0  0  0  0  0  0  0  0  0  0  0  # atno 10167 bound_to 10162
  157.2329  131.0743  151.1841 H   0  0  0  0  0  0  0  0  0  0  0  0  # atno 10718 bound_to 10713
  153.0293  135.6428  154.1263 H   0  0  0  0  0  0  0  0  0  0  0  0  # atno 10763 bound_to 10752
  154.0987  135.2861  155.3258 H   0  0  0  0  0  0  0  0  0  0  0  0  # atno 10764 bound_to 10752
  154.6414  135.5458  153.7856 H   0  0  0  0  0  0  0  0  0  0  0  0  # atno 10765 bound_to 10752
  140.4350  134.1380  155.7684 H   0  0  0  0  0  0  0  0  0  0  0  0  # atno 11005 bound_to 11000
  144.9156  140.7808  143.5780 LP  0  0  0  0  0  0  0  0  0  0  0  0  # atno 17320 bound_to 7965
  145.2802  139.1921  143.4795 LP  0  0  0  0  0  0  0  0  0  0  0  0  # atno 17321 bound_to 7965
  140.7727  143.5327  150.9404 LP  0  0  0  0  0  0  0  0  0  0  0  0  # atno 17342 bound_to 10162
  139.9011  143.6834  152.3131 LP  0  0  0  0  0  0  0  0  0  0  0  0  # atno 17343 bound_to 10162
  157.3459  130.7057  149.6410 LP  0  0  0  0  0  0  0  0  0  0  0  0  # atno 17370 bound_to 10713
  155.9674  130.4266  150.4708 LP  0  0  0  0  0  0  0  0  0  0  0  0  # atno 17371 bound_to 10713
  141.1729  133.8571  157.1512 LP  0  0  0  0  0  0  0  0  0  0  0  0  # atno 17394 bound_to 11000
  140.0108  134.9989  157.0391 LP  0  0  0  0  0  0  0  0  0  0  0  0  # atno 17395 bound_to 11000

$$$$
