AV-unprocessed.smi:535|AV-procd|sdf|2860|dock1
  -GOLD-   2262023353D 1   1.00000     0.00000
 Structure written by MMmdl.
 45 47  0  0  0  0  0  0  0  0  2 V2000
  153.4799  137.0529  163.0695 C   0  0  0  0  0  0  0  0  0  0  0  0
  154.5995  137.7127  162.5060 O   0  0  0  0  0  0  0  0  0  0  0  0
  154.3661  138.1273  161.1710 C   0  0  0  0  0  0  0  0  0  0  0  0
  153.1554  139.0668  161.1459 C   0  0  0  0  0  0  0  0  0  0  0  0
  152.7980  139.4381  159.7786 N   0  0  0  0  0  0  0  0  0  0  0  0
  152.6586  140.6868  159.2527 C   0  0  0  0  0  0  0  0  0  0  0  0
  152.8723  141.8469  160.0013 N   0  0  0  0  0  0  0  0  0  0  0  0
  153.7134  141.9721  161.1913 C   0  0  0  0  0  0  0  0  0  0  0  0
  152.9573  142.6506  162.3468 C   0  0  0  0  0  0  0  0  0  0  0  0
  152.4594  144.0373  161.9178 C   0  0  0  0  0  0  0  0  0  0  0  0
  151.6655  143.9368  160.6034 C   0  0  1  0  0  0  0  0  0  0  0  0
  151.2335  145.3203  160.0995 C   0  0  0  0  0  0  0  0  0  0  0  0
  152.4920  143.1821  159.5415 C   0  0  0  0  0  0  0  0  0  0  0  0
  152.2480  140.7116  157.9833 N   0  0  0  0  0  0  0  0  0  0  0  0
  152.1313  139.3680  157.6652 C   0  0  0  0  0  0  0  0  0  0  0  0
  152.4402  138.5812  158.7309 C   0  0  0  0  0  0  0  0  0  0  0  0
  152.3537  137.1029  158.7106 C   0  0  0  0  0  0  0  0  0  0  0  0
  152.6050  136.4357  159.7118 O   0  0  0  0  0  0  0  0  0  0  0  0
  151.9657  136.6236  157.4865 N   0  5  0  0  0  0  0  0  0  0  0  0
  151.6549  137.3837  156.3798 C   0  0  0  0  0  0  0  0  0  0  0  0
  151.3099  136.8704  155.3146 O   0  0  0  0  0  0  0  0  0  0  0  0
  151.7256  138.7499  156.4510 N   0  0  0  0  0  0  0  0  0  0  0  0
  151.3912  139.5843  155.2932 C   0  0  0  0  0  0  0  0  0  0  0  0
  153.7061  136.7571  164.0938 H   0  0  0  0  0  0  0  0  0  0  0  0
  153.2279  136.1532  162.5065 H   0  0  0  0  0  0  0  0  0  0  0  0
  152.6076  137.7074  163.0932 H   0  0  0  0  0  0  0  0  0  0  0  0
  155.2460  138.6364  160.7740 H   0  0  0  0  0  0  0  0  0  0  0  0
  154.1758  137.2563  160.5416 H   0  0  0  0  0  0  0  0  0  0  0  0
  152.3115  138.5961  161.6383 H   0  0  0  0  0  0  0  0  0  0  0  0
  153.3470  139.9603  161.7360 H   0  0  0  0  0  0  0  0  0  0  0  0
  154.0950  140.9975  161.4936 H   0  0  0  0  0  0  0  0  0  0  0  0
  154.5947  142.5614  160.9346 H   0  0  0  0  0  0  0  0  0  0  0  0
  152.1098  142.0362  162.6521 H   0  0  0  0  0  0  0  0  0  0  0  0
  153.6062  142.7402  163.2181 H   0  0  0  0  0  0  0  0  0  0  0  0
  151.8433  144.4742  162.7042 H   0  0  0  0  0  0  0  0  0  0  0  0
  153.3135  144.7024  161.7831 H   0  0  0  0  0  0  0  0  0  0  0  0
  150.7605  143.3589  160.7979 H   0  0  0  0  0  0  0  0  0  0  0  0
  152.0969  145.9484  159.8774 H   0  0  0  0  0  0  0  0  0  0  0  0
  150.6277  145.8381  160.8437 H   0  0  0  0  0  0  0  0  0  0  0  0
  150.6389  145.2380  159.1895 H   0  0  0  0  0  0  0  0  0  0  0  0
  153.3903  143.7450  159.2837 H   0  0  0  0  0  0  0  0  0  0  0  0
  151.9088  143.0933  158.6240 H   0  0  0  0  0  0  0  0  0  0  0  0
  152.0271  139.3328  154.4434 H   0  0  0  0  0  0  0  0  0  0  0  0
  151.5195  140.6484  155.4895 H   0  0  0  0  0  0  0  0  0  0  0  0
  150.3520  139.4291  154.9998 H   0  0  0  0  0  0  0  0  0  0  0  0
  1  2  1  0  0  0  0
  1 24  1  0  0  0  0
  1 25  1  0  0  0  0
  1 26  1  0  0  0  0
  2  3  1  0  0  0  0
  3  4  1  0  0  0  0
  3 27  1  0  0  0  0
  3 28  1  0  0  0  0
  4  5  1  0  0  0  0
  4 29  1  0  0  0  0
  4 30  1  0  0  0  0
  5 16  1  0  0  0  0
  5  6  1  0  0  0  0
  6  7  1  0  0  0  0
  6 14  2  0  0  0  0
  7 13  1  0  0  0  0
  7  8  1  0  0  0  0
  8  9  1  0  0  0  0
  8 31  1  0  0  0  0
  8 32  1  0  0  0  0
  9 10  1  0  0  0  0
  9 33  1  0  0  0  0
  9 34  1  0  0  0  0
 10 11  1  0  0  0  0
 10 35  1  0  0  0  0
 10 36  1  0  0  0  0
 11 12  1  0  0  0  0
 11 13  1  0  0  0  0
 11 37  1  0  0  0  0
 12 38  1  0  0  0  0
 12 39  1  0  0  0  0
 12 40  1  0  0  0  0
 13 41  1  0  0  0  0
 13 42  1  0  0  0  0
 14 15  1  0  0  0  0
 15 22  1  0  0  0  0
 15 16  2  0  0  0  0
 16 17  1  0  0  0  0
 17 18  2  0  0  0  0
 17 19  1  0  0  0  0
 19 20  1  0  0  0  0
 20 21  2  0  0  0  0
 20 22  1  0  0  0  0
 22 23  1  0  0  0  0
 23 43  1  0  0  0  0
 23 44  1  0  0  0  0
 23 45  1  0  0  0  0
M  CHG  1  19  -1
M  END
> <s_m_source_file>
AV-unprocessed.smi

> <i_m_source_file_index>
535

> <i_lp_mmshare_version>
43012

> <i_f3d_flags>
0

> <s_epik_input>
W0NIM11uMWMoPU8pW25IXWMoPU8pYyhjMTIpbihbQ0gyXVtDSDJdT1tDSDNdKWMobjIpTjNbQ0gyXVtDSDJdW0NIMl1bQ0BASF0oW0NIM10pW0NIMl0z

> <s_epik_cmdline>
J2VwaWtfcHl0aG9uJywgJy1waCcsICc3LjAnLCAnLXRuJywgJzgnLCAnLW1hJywgJzIwMCcsICctbWV0YWxfYmluZGluZycsICctaW1hZScsICc8aW5maWxlLm1hZT4nLCAnLW9tYWUnLCAnPG91dGZpbGUubWFlPic=

> <r_lp_tautomer_probability>
1

> <r_epik_Ionization_Penalty>
5.11375

> <r_epik_Ionization_Penalty_Charging>
0.0788329

> <r_epik_Ionization_Penalty_Neutral>
5.03492

> <r_epik_State_Penalty>
5.02848

> <r_epik_Charging_Adjusted_Penalty>
5.10731

> <i_epik_Tot_Q>
-1

> <i_epik_Tot_abs_Q>
1

> <r_epik_Metal_State_Penalty>
1.14014

> <b_epik_Metal_Only>
1

> <s_lp_Force_Field>
OPLS_2005

> <r_lp_Energy>
43.1913

> <b_lp_Chiralities_Consistent>
1

> <s_lp_Variant>
AV-unprocessed.smi:535-3

> <Gold.Version>
5.8.1

> <Gold.Id.Protein>
6NUR|6NUR_protein|mol2

> <Gold.PLP.Fitness>
49.6706

> <Gold.PLP.PLP>
-44.8491

> <Gold.PLP.part.hbond>
-2.5689

> <Gold.PLP.part.metal>
0.0000

> <Gold.PLP.part.buried>
-3.3126

> <Gold.PLP.part.nonpolar>
-37.5059

> <Gold.PLP.part.repulsive>
0.1069

> <Gold.PLP.ligand.clash>
1.3641

> <Gold.PLP.ligand.torsion>
0.1636

> <Gold.PLP.Chemscore.Hbond>
2.0000

> <Gold.PLP.Chemscore.CHOScore>
0.0000

> <Gold.PLP.Chemscore.Metal>
0.0000

> <Gold.Chemscore.Hbonds>
donor molecule, donor type, donor heavy atom, donor atom, acceptor molecule, acceptor atom, score
      P1  H  6896  6909       L1    18  1.00
      P1  H 10752 10764       L1    21  0.47

> <Gold.PLP.Chemscore.Internal.Correction>
0.5127

> <Gold.Rescore>
     Score         DG    S(hbond)    S(metal)    S(lipo)     H(rot)  DE(clash)    DE(int)     intcor
     18.68     -20.14       1.89        0.00     102.81       1.44       0.05       1.41       ----

> <Gold.Chemscore.Fitness>
18.6829

> <Gold.Chemscore.DG>
-20.1408

> <Gold.Chemscore.ZeroCoef>
-5.4800

> <Gold.Chemscore.Hbond>
1.8898

> <Gold.Chemscore.Metal>
0.0000

> <Gold.Chemscore.Lipo>
102.8057

> <Gold.Chemscore.Internal_Hbond>
0.0000

> <Gold.Chemscore.DEClash>
0.0494

> <Gold.Chemscore.DEInternal>
1.4085

> <Gold.Chemscore.Rot>
1.4372

> <Gold.Chemscore.Internal.Correction>
   9.000000E+99

> <Gold.Chemscore.Hbonds>
donor molecule, donor type, donor heavy atom, donor atom, acceptor molecule, acceptor atom, score
      P1  H  6896  6909       L1    18  0.93
      P1  H 10752 10764       L1    21  0.37

> <Gold.Chemscore.Hbond.Weighted>
-6.3118

> <Gold.Chemscore.Metal.Weighted>
-0.0000

> <Gold.Chemscore.Lipo.Weighted>
-12.0283

> <Gold.Chemscore.Internal_Hbond.Weighted>
0.0000

> <Gold.Chemscore.DEClash.Weighted>
0.0494

> <Gold.Chemscore.DEInternal.Weighted>
1.4085

> <Gold.Chemscore.Rot.Weighted>
3.6793

> <Gold.Chemscore.Internal.Correction.Weighted>
   9.000000E+99

> <Gold.Protein.RotatedTorsions>
[ 6907 6896 6895 6894 ] final  143.91 input  -60.11 | X-H torsion
[ 7974 7965 7964 7962 ] final -129.41 input  175.53 | X-H torsion
[ 8008 7997 7996 7995 ] final   63.14 input   59.86 | X-H torsion
[ 10167 10162 10161 10158 ] final -112.20 input  -65.29 | X-H torsion
[ 10718 10713 10712 10709 ] final -112.09 input   66.30 | X-H torsion
[ 10763 10752 10751 10750 ] final  -74.29 input  -60.55 | X-H torsion
[ 11005 11000 10999 10996 ] final   73.43 input  -57.11 | X-H torsion

> <Gold.Protein.ActiveResidues>
 VAL166  LYS551  ARG553  GLY616  TRP617  ASP618  TYR619  PRO620  LYS621  CYS622 
 ASP623  PHE694  ASN695  SER759  ASP760  ASP761  ALA762  ILE779  LEU786  VAL792 
 PHE793  MET794  SER795  GLU796  ALA797  LYS798  CYS799  TRP800  GLU811  SER814 

> <Gold.Protein.RotatedAtoms>
  152.2003  133.4836  159.5054 H   0  0  0  0  0  0  0  0  0  0  0  0  # atno 6907 bound_to 6896
  150.6968  134.1599  159.4181 H   0  0  0  0  0  0  0  0  0  0  0  0  # atno 6908 bound_to 6896
  151.9516  135.0166  160.0593 H   0  0  0  0  0  0  0  0  0  0  0  0  # atno 6909 bound_to 6896
  144.9574  140.7410  143.4750 H   0  0  0  0  0  0  0  0  0  0  0  0  # atno 7974 bound_to 7965
  155.6255  140.3496  155.4666 H   0  0  0  0  0  0  0  0  0  0  0  0  # atno 8008 bound_to 7997
  156.0045  140.1220  157.0539 H   0  0  0  0  0  0  0  0  0  0  0  0  # atno 8009 bound_to 7997
  154.4259  140.1094  156.5729 H   0  0  0  0  0  0  0  0  0  0  0  0  # atno 8010 bound_to 7997
  140.1253  143.4408  152.1664 H   0  0  0  0  0  0  0  0  0  0  0  0  # atno 10167 bound_to 10162
  156.0685  130.5902  150.8462 H   0  0  0  0  0  0  0  0  0  0  0  0  # atno 10718 bound_to 10713
  154.4711  135.5869  153.6322 H   0  0  0  0  0  0  0  0  0  0  0  0  # atno 10763 bound_to 10752
  152.9834  135.6067  154.3366 H   0  0  0  0  0  0  0  0  0  0  0  0  # atno 10764 bound_to 10752
  154.3248  135.2843  155.2481 H   0  0  0  0  0  0  0  0  0  0  0  0  # atno 10765 bound_to 10752
  139.9441  134.7346  156.1025 H   0  0  0  0  0  0  0  0  0  0  0  0  # atno 11005 bound_to 11000
  145.2751  139.1939  143.4821 LP  0  0  0  0  0  0  0  0  0  0  0  0  # atno 17320 bound_to 7965
  146.3342  140.2704  142.8605 LP  0  0  0  0  0  0  0  0  0  0  0  0  # atno 17321 bound_to 7965
  139.5547  144.7364  151.4328 LP  0  0  0  0  0  0  0  0  0  0  0  0  # atno 17342 bound_to 10162
  140.6848  143.7998  150.7171 LP  0  0  0  0  0  0  0  0  0  0  0  0  # atno 17343 bound_to 10162
  157.5742  131.0946  150.9371 LP  0  0  0  0  0  0  0  0  0  0  0  0  # atno 17370 bound_to 10713
  156.9581  130.5445  149.5285 LP  0  0  0  0  0  0  0  0  0  0  0  0  # atno 17371 bound_to 10713
  141.1085  133.6651  156.2921 LP  0  0  0  0  0  0  0  0  0  0  0  0  # atno 17394 bound_to 11000
  140.5879  134.5680  157.5493 LP  0  0  0  0  0  0  0  0  0  0  0  0  # atno 17395 bound_to 11000

$$$$
