AV-unprocessed.smi:658|AV-procd|sdf|3232|dock8
  -GOLD-   22720 0173D 1   1.00000     0.00000
 Structure written by MMmdl.
 38 38  0  0  0  0  0  0  0  0  2 V2000
  151.1014  140.9250  158.6685 C   0  0  0  0  0  0  0  0  0  0  0  0
  150.7044  142.4068  158.4982 C   0  0  2  0  0  0  0  0  0  0  0  0
  150.1971  142.6461  157.1270 N   0  3  0  0  0  0  0  0  0  0  0  0
  149.2262  141.6505  156.6261 C   0  0  0  0  0  0  0  0  0  0  0  0
  148.8180  141.9651  155.1818 C   0  0  0  0  0  0  0  0  0  0  0  0
  148.4168  140.7081  154.3976 C   0  0  0  0  0  0  0  0  0  0  0  0
  149.7058  139.3939  154.5161 S   0  0  0  0  0  0  0  0  0  0  0  0
  149.7621  138.7968  152.9046 N   0  0  0  0  0  0  0  0  0  0  0  0
  151.0077  140.0165  154.7998 O   0  0  0  0  0  0  0  0  0  0  0  0
  149.1884  138.3083  155.3619 O   0  0  0  0  0  0  0  0  0  0  0  0
  151.8738  143.3821  158.8016 C   0  0  1  0  0  0  0  0  0  0  0  0
  151.4384  144.8598  158.7565 C   0  0  0  0  0  0  0  0  0  0  0  0
  152.5190  143.0937  160.0768 N   0  0  0  0  0  0  0  0  0  0  0  0
  152.4480  143.8131  161.2524 C   0  0  0  0  0  0  0  0  0  0  0  0
  153.2117  143.1608  162.1775 C   0  0  0  0  0  0  0  0  0  0  0  0
  153.7142  142.0346  161.4683 C   0  0  0  0  0  0  0  0  0  0  0  0
  153.2974  141.9959  160.2130 N   0  0  0  0  0  0  0  0  0  0  0  0
  151.4214  140.7049  159.6868 H   0  0  0  0  0  0  0  0  0  0  0  0
  151.9199  140.6566  157.9998 H   0  0  0  0  0  0  0  0  0  0  0  0
  150.2689  140.2549  158.4576 H   0  0  0  0  0  0  0  0  0  0  0  0
  149.8975  142.6253  159.1998 H   0  0  0  0  0  0  0  0  0  0  0  0
  149.7274  143.5404  157.1309 H   0  0  0  0  0  0  0  0  0  0  0  0
  149.6579  140.6509  156.6745 H   0  0  0  0  0  0  0  0  0  0  0  0
  148.3445  141.6537  157.2683 H   0  0  0  0  0  0  0  0  0  0  0  0
  147.9851  142.6695  155.1840 H   0  0  0  0  0  0  0  0  0  0  0  0
  149.6444  142.4626  154.6728 H   0  0  0  0  0  0  0  0  0  0  0  0
  147.4918  140.2979  154.8044 H   0  0  0  0  0  0  0  0  0  0  0  0
  148.2422  140.9243  153.3433 H   0  0  0  0  0  0  0  0  0  0  0  0
  150.0785  139.4931  152.2298 H   0  0  0  0  0  0  0  0  0  0  0  0
  148.9216  138.2856  152.6357 H   0  0  0  0  0  0  0  0  0  0  0  0
  152.6343  143.2405  158.0317 H   0  0  0  0  0  0  0  0  0  0  0  0
  151.0725  145.1424  157.7692 H   0  0  0  0  0  0  0  0  0  0  0  0
  152.2740  145.5201  158.9906 H   0  0  0  0  0  0  0  0  0  0  0  0
  150.6439  145.0655  159.4749 H   0  0  0  0  0  0  0  0  0  0  0  0
  151.8679  144.7206  161.3331 H   0  0  0  0  0  0  0  0  0  0  0  0
  153.3840  143.4438  163.2053 H   0  0  0  0  0  0  0  0  0  0  0  0
  154.3642  141.2496  161.8258 H   0  0  0  0  0  0  0  0  0  0  0  0
  150.9808  142.7000  156.4922 H   0  0  0  0  0  0  0  0  0  0  0  0
  1  2  1  0  0  0  0
  1 18  1  0  0  0  0
  1 19  1  0  0  0  0
  1 20  1  0  0  0  0
  2  3  1  0  0  0  0
  2 11  1  0  0  0  0
  2 21  1  0  0  0  0
  3  4  1  0  0  0  0
  3 22  1  0  0  0  0
  3 38  1  0  0  0  0
  4  5  1  0  0  0  0
  4 23  1  0  0  0  0
  4 24  1  0  0  0  0
  5  6  1  0  0  0  0
  5 25  1  0  0  0  0
  5 26  1  0  0  0  0
  6  7  1  0  0  0  0
  6 27  1  0  0  0  0
  6 28  1  0  0  0  0
  7  8  1  0  0  0  0
  7  9  2  0  0  0  0
  7 10  2  0  0  0  0
  8 29  1  0  0  0  0
  8 30  1  0  0  0  0
 11 12  1  0  0  0  0
 11 13  1  0  0  0  0
 11 31  1  0  0  0  0
 12 32  1  0  0  0  0
 12 33  1  0  0  0  0
 12 34  1  0  0  0  0
 13 17  1  0  0  0  0
 13 14  1  0  0  0  0
 14 15  2  0  0  0  0
 14 35  1  0  0  0  0
 15 16  1  0  0  0  0
 15 36  1  0  0  0  0
 16 17  2  0  0  0  0
 16 37  1  0  0  0  0
M  CHG  1   3   1
M  END
> <s_m_source_file>
AV-unprocessed.smi

> <i_m_source_file_index>
658

> <i_lp_mmshare_version>
43012

> <i_f3d_flags>
0

> <s_epik_input>
bjFbY0hdW2NIXVtjSF1uMVtDQEBIXShbQ0gzXSlbQ0BIXShbQ0gzXSlbTkhdW0NIMl1bQ0gyXVtDSDJdUyg9TykoPU8pW05IMl0=

> <s_epik_cmdline>
J2VwaWtfcHl0aG9uJywgJy1waCcsICc3LjAnLCAnLXRuJywgJzgnLCAnLW1hJywgJzIwMCcsICctbWV0YWxfYmluZGluZycsICctaW1hZScsICc8aW5maWxlLm1hZT4nLCAnLW9tYWUnLCAnPG91dGZpbGUubWFlPic=

> <r_lp_tautomer_probability>
1

> <r_epik_Ionization_Penalty>
0.00535781

> <r_epik_Ionization_Penalty_Charging>
0.00511015

> <r_epik_Ionization_Penalty_Neutral>
0.000247661

> <r_epik_State_Penalty>
-0

> <r_epik_Charging_Adjusted_Penalty>
0.00511015

> <i_epik_Tot_Q>
1

> <i_epik_Tot_abs_Q>
1

> <r_epik_Metal_State_Penalty>
0.149106

> <b_epik_Metal_Only>
0

> <s_lp_Force_Field>
OPLS_2005

> <r_lp_Energy>
7.04511

> <b_lp_Chiralities_Consistent>
1

> <s_lp_Variant>
AV-unprocessed.smi:658-3

> <Gold.Version>
5.8.1

> <Gold.Id.Protein>
6NUR|6NUR_protein|mol2

> <Gold.PLP.Fitness>
50.4575

> <Gold.PLP.PLP>
-40.0406

> <Gold.PLP.part.hbond>
-5.0000

> <Gold.PLP.part.metal>
0.0000

> <Gold.PLP.part.buried>
-2.5339

> <Gold.PLP.part.nonpolar>
-32.1663

> <Gold.PLP.part.repulsive>
0.1018

> <Gold.PLP.ligand.clash>
0.0000

> <Gold.PLP.ligand.torsion>
1.0408

> <Gold.PLP.Chemscore.Hbond>
4.0756

> <Gold.PLP.Chemscore.CHOScore>
0.0000

> <Gold.PLP.Chemscore.Metal>
0.0000

> <Gold.Chemscore.Hbonds>
donor molecule, donor type, donor heavy atom, donor atom, acceptor molecule, acceptor atom, score
      L1  H     3    22       P1  8028  1.33
      L1  H     8    29       P1  7957  0.27
      L1  H     8    30       P1  7948  0.31
      P1  H  7989  7998       L1     9  1.00

> <Gold.PLP.Chemscore.Internal.Correction>
0.2717

> <Gold.Rescore>
     Score         DG    S(hbond)    S(metal)    S(lipo)     H(rot)  DE(clash)    DE(int)     intcor
     13.43     -16.21       2.56        0.00      87.07       3.13       0.21       2.56       ----

> <Gold.Chemscore.Fitness>
13.4319

> <Gold.Chemscore.DG>
-16.2071

> <Gold.Chemscore.ZeroCoef>
-5.4800

> <Gold.Chemscore.Hbond>
2.5617

> <Gold.Chemscore.Metal>
0.0000

> <Gold.Chemscore.Lipo>
87.0697

> <Gold.Chemscore.Internal_Hbond>
0.0000

> <Gold.Chemscore.DEClash>
0.2149

> <Gold.Chemscore.DEInternal>
2.5603

> <Gold.Chemscore.Rot>
3.1312

> <Gold.Chemscore.Internal.Correction>
   9.000000E+99

> <Gold.Chemscore.Hbonds>
donor molecule, donor type, donor heavy atom, donor atom, acceptor molecule, acceptor atom, score
      L1  H     3    22       P1  8028  0.59
      L1  H     8    29       P1  7957  0.18
      L1  H     8    30       P1  7948  0.29
      P1  H  7989  7998       L1     9  0.85

> <Gold.Chemscore.Hbond.Weighted>
-8.5559

> <Gold.Chemscore.Metal.Weighted>
-0.0000

> <Gold.Chemscore.Lipo.Weighted>
-10.1872

> <Gold.Chemscore.Internal_Hbond.Weighted>
0.0000

> <Gold.Chemscore.DEClash.Weighted>
0.2149

> <Gold.Chemscore.DEInternal.Weighted>
2.5603

> <Gold.Chemscore.Rot.Weighted>
8.0160

> <Gold.Chemscore.Internal.Correction.Weighted>
   9.000000E+99

> <Gold.Protein.RotatedTorsions>
[ 6907 6896 6895 6894 ] final  -32.99 input  -60.11 | X-H torsion
[ 7974 7965 7964 7962 ] final -117.44 input  175.53 | X-H torsion
[ 8008 7997 7996 7995 ] final -111.39 input   59.86 | X-H torsion
[ 10167 10162 10161 10158 ] final  -51.11 input  -65.29 | X-H torsion
[ 10718 10713 10712 10709 ] final  141.65 input   66.30 | X-H torsion
[ 10763 10752 10751 10750 ] final -119.79 input  -60.55 | X-H torsion
[ 11005 11000 10999 10996 ] final   13.26 input  -57.11 | X-H torsion

> <Gold.Protein.ActiveResidues>
 VAL166  LYS551  ARG553  GLY616  TRP617  ASP618  TYR619  PRO620  LYS621  CYS622 
 ASP623  PHE694  ASN695  SER759  ASP760  ASP761  ALA762  ILE779  LEU786  VAL792 
 PHE793  MET794  SER795  GLU796  ALA797  LYS798  CYS799  TRP800  GLU811  SER814 

> <Gold.Protein.RotatedAtoms>
  151.0715  134.9801  159.8310 H   0  0  0  0  0  0  0  0  0  0  0  0  # atno 6907 bound_to 6896
  152.5409  134.2293  159.8828 H   0  0  0  0  0  0  0  0  0  0  0  0  # atno 6908 bound_to 6896
  151.2318  133.4403  159.2637 H   0  0  0  0  0  0  0  0  0  0  0  0  # atno 6909 bound_to 6896
  145.0852  140.8452  143.4015 H   0  0  0  0  0  0  0  0  0  0  0  0  # atno 7974 bound_to 7965
  154.9891  140.0395  157.2311 H   0  0  0  0  0  0  0  0  0  0  0  0  # atno 8008 bound_to 7997
  154.7645  140.2790  155.6165 H   0  0  0  0  0  0  0  0  0  0  0  0  # atno 8009 bound_to 7997
  156.2910  140.2622  156.2432 H   0  0  0  0  0  0  0  0  0  0  0  0  # atno 8010 bound_to 7997
  140.6604  143.2632  151.4457 H   0  0  0  0  0  0  0  0  0  0  0  0  # atno 10167 bound_to 10162
  157.3895  131.1003  151.0660 H   0  0  0  0  0  0  0  0  0  0  0  0  # atno 10718 bound_to 10713
  154.8627  135.4226  154.2355 H   0  0  0  0  0  0  0  0  0  0  0  0  # atno 10763 bound_to 10752
  153.3331  135.6989  153.6936 H   0  0  0  0  0  0  0  0  0  0  0  0  # atno 10764 bound_to 10752
  153.5945  135.3548  155.2896 H   0  0  0  0  0  0  0  0  0  0  0  0  # atno 10765 bound_to 10752
  140.4827  134.0919  155.7754 H   0  0  0  0  0  0  0  0  0  0  0  0  # atno 11005 bound_to 11000
  145.1131  139.2743  143.5627 LP  0  0  0  0  0  0  0  0  0  0  0  0  # atno 17320 bound_to 7965
  146.3531  140.0733  142.8622 LP  0  0  0  0  0  0  0  0  0  0  0  0  # atno 17321 bound_to 7965
  139.5837  144.1653  152.2001 LP  0  0  0  0  0  0  0  0  0  0  0  0  # atno 17342 bound_to 10162
  140.0986  144.5559  150.7005 LP  0  0  0  0  0  0  0  0  0  0  0  0  # atno 17343 bound_to 10162
  157.1699  130.6262  149.5637 LP  0  0  0  0  0  0  0  0  0  0  0  0  # atno 17370 bound_to 10713
  155.9795  130.4789  150.6718 LP  0  0  0  0  0  0  0  0  0  0  0  0  # atno 17371 bound_to 10713
  141.1523  133.8946  157.2066 LP  0  0  0  0  0  0  0  0  0  0  0  0  # atno 17394 bound_to 11000
  139.9817  135.0096  156.9765 LP  0  0  0  0  0  0  0  0  0  0  0  0  # atno 17395 bound_to 11000

$$$$
