AV-unprocessed.smi:1301|AV-procd|sdf|5424|dock6
  -GOLD-   22720 4583D 1   1.00000     0.00000
 Structure written by MMmdl.
 44 45  0  0  0  0  0  0  0  0  3 V2000
  151.9517  145.0115  160.2702 C   0  0  0  0  0  0  0  0  0  0  0  0
  151.5276  143.7791  159.5477 C   0  0  0  0  0  0  0  0  0  0  0  0
  152.2229  142.7890  158.9133 C   0  0  0  0  0  0  0  0  0  0  0  0
  151.1983  141.9205  158.4476 C   0  0  0  0  0  0  0  0  0  0  0  0
  151.3774  140.7919  157.7442 N   0  5  0  0  0  0  0  0  0  0  0  0
  150.9176  140.7007  156.4757 C   0  0  0  0  0  0  0  0  0  0  0  0
  150.3270  141.5800  155.8443 O   0  0  0  0  0  0  0  0  0  0  0  0
  151.1668  139.5158  155.9007 N   0  0  0  0  0  0  0  0  0  0  0  0
  150.8263  139.1269  154.5326 C   0  0  2  0  0  0  0  0  0  0  0  0
  149.3052  138.9452  154.3965 C   0  0  0  0  0  0  0  0  0  0  0  0
  148.8056  137.7025  155.1570 C   0  0  0  0  0  0  0  0  0  0  0  0
  149.5206  136.4751  154.7209 N   0  3  2  0  0  0  0  0  0  0  0  0
  148.9645  135.2490  155.3495 C   0  0  0  0  0  0  0  0  0  0  0  0
  149.6897  133.9580  154.9097 C   0  0  0  0  0  0  0  0  0  0  0  0
  149.1432  133.4176  153.5775 C   0  0  0  0  0  0  0  0  0  0  0  0
  149.5910  132.8842  156.0037 C   0  0  0  0  0  0  0  0  0  0  0  0
  150.9920  136.6080  154.8922 C   0  0  0  0  0  0  0  0  0  0  0  0
  151.5329  137.8216  154.1170 C   0  0  0  0  0  0  0  0  0  0  0  0
  149.9879  142.3538  158.7574 N   0  0  0  0  0  0  0  0  0  0  0  0
  150.1905  143.5427  159.4680 O   0  0  0  0  0  0  0  0  0  0  0  0
  152.1810  145.8105  159.5654 H   0  0  0  0  0  0  0  0  0  0  0  0
  152.8424  144.8212  160.8691 H   0  0  0  0  0  0  0  0  0  0  0  0
  151.1656  145.3641  160.9382 H   0  0  0  0  0  0  0  0  0  0  0  0
  153.2931  142.6973  158.8036 H   0  0  0  0  0  0  0  0  0  0  0  0
  151.6428  138.8276  156.4654 H   0  0  0  0  0  0  0  0  0  0  0  0
  151.1379  139.9317  153.8645 H   0  0  0  0  0  0  0  0  0  0  0  0
  148.7847  139.8358  154.7511 H   0  0  0  0  0  0  0  0  0  0  0  0
  149.0487  138.8449  153.3410 H   0  0  0  0  0  0  0  0  0  0  0  0
  148.9333  137.8365  156.2324 H   0  0  0  0  0  0  0  0  0  0  0  0
  147.7357  137.5869  154.9795 H   0  0  0  0  0  0  0  0  0  0  0  0
  148.9954  135.3588  156.4348 H   0  0  0  0  0  0  0  0  0  0  0  0
  147.9099  135.1511  155.0870 H   0  0  0  0  0  0  0  0  0  0  0  0
  150.7501  134.1689  154.7756 H   0  0  0  0  0  0  0  0  0  0  0  0
  148.0798  133.1875  153.6486 H   0  0  0  0  0  0  0  0  0  0  0  0
  149.6608  132.5038  153.2840 H   0  0  0  0  0  0  0  0  0  0  0  0
  149.2757  134.1372  152.7693 H   0  0  0  0  0  0  0  0  0  0  0  0
  148.5547  132.6025  156.1928 H   0  0  0  0  0  0  0  0  0  0  0  0
  150.0163  133.2389  156.9430 H   0  0  0  0  0  0  0  0  0  0  0  0
  150.1335  131.9819  155.7197 H   0  0  0  0  0  0  0  0  0  0  0  0
  151.2313  136.6999  155.9530 H   0  0  0  0  0  0  0  0  0  0  0  0
  151.4993  135.7130  154.5352 H   0  0  0  0  0  0  0  0  0  0  0  0
  151.3839  137.6583  153.0488 H   0  0  0  0  0  0  0  0  0  0  0  0
  152.6110  137.9031  154.2588 H   0  0  0  0  0  0  0  0  0  0  0  0
  149.3472  136.3895  153.7298 H   0  0  0  0  0  0  0  0  0  0  0  0
  1  2  1  0  0  0  0
  1 21  1  0  0  0  0
  1 22  1  0  0  0  0
  1 23  1  0  0  0  0
  2 20  1  0  0  0  0
  2  3  2  0  0  0  0
  3  4  1  0  0  0  0
  3 24  1  0  0  0  0
  4  5  1  0  0  0  0
  4 19  2  0  0  0  0
  5  6  1  0  0  0  0
  6  7  2  0  0  0  0
  6  8  1  0  0  0  0
  8  9  1  0  0  0  0
  8 25  1  0  0  0  0
  9 18  1  0  0  0  0
  9 10  1  0  0  0  0
  9 26  1  0  0  0  0
 10 11  1  0  0  0  0
 10 27  1  0  0  0  0
 10 28  1  0  0  0  0
 11 12  1  0  0  0  0
 11 29  1  0  0  0  0
 11 30  1  0  0  0  0
 12 13  1  0  0  0  0
 12 17  1  0  0  0  0
 12 44  1  0  0  0  0
 13 14  1  0  0  0  0
 13 31  1  0  0  0  0
 13 32  1  0  0  0  0
 14 15  1  0  0  0  0
 14 16  1  0  0  0  0
 14 33  1  0  0  0  0
 15 34  1  0  0  0  0
 15 35  1  0  0  0  0
 15 36  1  0  0  0  0
 16 37  1  0  0  0  0
 16 38  1  0  0  0  0
 16 39  1  0  0  0  0
 17 18  1  0  0  0  0
 17 40  1  0  0  0  0
 17 41  1  0  0  0  0
 18 42  1  0  0  0  0
 18 43  1  0  0  0  0
 19 20  1  0  0  0  0
M  CHG  1   5  -1
M  CHG  1  12   1
M  END
> <s_m_source_file>
AV-unprocessed.smi

> <i_m_source_file_index>
1301

> <i_lp_mmshare_version>
43012

> <i_f3d_flags>
0

> <s_epik_input>
W0NIM11jMVtjSF1jKG5vMSlbTkhdQyg9TylbTkhdW0NIXTJbQ0gyXVtDSDJdTihbQ0gyXVtDSDJdMilbQ0gyXVtDSF0oW0NIM10pW0NIM10=

> <s_epik_cmdline>
J2VwaWtfcHl0aG9uJywgJy1waCcsICc3LjAnLCAnLXRuJywgJzgnLCAnLW1hJywgJzIwMCcsICctbWV0YWxfYmluZGluZycsICctaW1hZScsICc8aW5maWxlLm1hZT4nLCAnLW9tYWUnLCAnPG91dGZpbGUubWFlPic=

> <r_epik_Ionization_Penalty>
6.28597

> <r_epik_Ionization_Penalty_Charging>
6.28587

> <r_epik_Ionization_Penalty_Neutral>
9.69304e-05

> <r_epik_State_Penalty>
6.28524

> <r_epik_Charging_Adjusted_Penalty>
12.5711

> <i_epik_Tot_Q>
0

> <i_epik_Tot_abs_Q>
2

> <r_epik_Metal_State_Penalty>
2.21973

> <b_epik_Metal_Only>
1

> <s_lp_Force_Field>
OPLS_2005

> <r_lp_Energy>
6.70583

> <b_lp_Chiralities_Consistent>
1

> <s_lp_Variant>
AV-unprocessed.smi:1301-4

> <Gold.Version>
5.8.1

> <Gold.Id.Protein>
6NUR|6NUR_protein|mol2

> <Gold.PLP.Fitness>
40.0931

> <Gold.PLP.PLP>
-36.0445

> <Gold.PLP.part.hbond>
-2.2907

> <Gold.PLP.part.metal>
0.0000

> <Gold.PLP.part.buried>
-4.2250

> <Gold.PLP.part.nonpolar>
-29.9825

> <Gold.PLP.part.repulsive>
0.3880

> <Gold.PLP.ligand.clash>
0.0000

> <Gold.PLP.ligand.torsion>
1.0389

> <Gold.PLP.Chemscore.Hbond>
2.0000

> <Gold.PLP.Chemscore.CHOScore>
0.0000

> <Gold.PLP.Chemscore.Metal>
0.0000

> <Gold.Chemscore.Hbonds>
donor molecule, donor type, donor heavy atom, donor atom, acceptor molecule, acceptor atom, score
      L1  H    12    44       P1  7948  2.00

> <Gold.PLP.Chemscore.Internal.Correction>
0.1264

> <Gold.Rescore>
     Score         DG    S(hbond)    S(metal)    S(lipo)     H(rot)  DE(clash)    DE(int)     intcor
     13.27     -15.12       0.98        0.00      85.31       1.41       0.19       1.67       ----

> <Gold.Chemscore.Fitness>
13.2721

> <Gold.Chemscore.DG>
-15.1248

> <Gold.Chemscore.ZeroCoef>
-5.4800

> <Gold.Chemscore.Hbond>
0.9772

> <Gold.Chemscore.Metal>
0.0000

> <Gold.Chemscore.Lipo>
85.3104

> <Gold.Chemscore.Internal_Hbond>
0.0000

> <Gold.Chemscore.DEClash>
0.1860

> <Gold.Chemscore.DEInternal>
1.6667

> <Gold.Chemscore.Rot>
1.4063

> <Gold.Chemscore.Internal.Correction>
   9.000000E+99

> <Gold.Chemscore.Hbonds>
donor molecule, donor type, donor heavy atom, donor atom, acceptor molecule, acceptor atom, score
      L1  H    12    44       P1  7948  0.88

> <Gold.Chemscore.Hbond.Weighted>
-3.2637

> <Gold.Chemscore.Metal.Weighted>
-0.0000

> <Gold.Chemscore.Lipo.Weighted>
-9.9813

> <Gold.Chemscore.Internal_Hbond.Weighted>
0.0000

> <Gold.Chemscore.DEClash.Weighted>
0.1860

> <Gold.Chemscore.DEInternal.Weighted>
1.6667

> <Gold.Chemscore.Rot.Weighted>
3.6002

> <Gold.Chemscore.Internal.Correction.Weighted>
   9.000000E+99

> <Gold.Protein.RotatedTorsions>
[ 6907 6896 6895 6894 ] final   49.98 input  -60.11 | X-H torsion
[ 7974 7965 7964 7962 ] final -131.81 input  175.53 | X-H torsion
[ 8008 7997 7996 7995 ] final  132.06 input   59.86 | X-H torsion
[ 10167 10162 10161 10158 ] final  167.93 input  -65.29 | X-H torsion
[ 10718 10713 10712 10709 ] final  -43.71 input   66.30 | X-H torsion
[ 10763 10752 10751 10750 ] final  127.40 input  -60.55 | X-H torsion
[ 11005 11000 10999 10996 ] final -120.83 input  -57.11 | X-H torsion

> <Gold.Protein.ActiveResidues>
 VAL166  LYS551  ARG553  GLY616  TRP617  ASP618  TYR619  PRO620  LYS621  CYS622 
 ASP623  PHE694  ASN695  SER759  ASP760  ASP761  ALA762  ILE779  LEU786  VAL792 
 PHE793  MET794  SER795  GLU796  ALA797  LYS798  CYS799  TRP800  GLU811  SER814 

> <Gold.Protein.RotatedAtoms>
  152.2967  134.7658  160.0366 H   0  0  0  0  0  0  0  0  0  0  0  0  # atno 6907 bound_to 6896
  151.8186  133.3386  159.3585 H   0  0  0  0  0  0  0  0  0  0  0  0  # atno 6908 bound_to 6896
  150.7255  134.5525  159.5846 H   0  0  0  0  0  0  0  0  0  0  0  0  # atno 6909 bound_to 6896
  144.9344  140.7167  143.4885 H   0  0  0  0  0  0  0  0  0  0  0  0  # atno 7974 bound_to 7965
  156.2978  140.2556  156.3027 H   0  0  0  0  0  0  0  0  0  0  0  0  # atno 8008 bound_to 7997
  154.9402  140.0396  157.2111 H   0  0  0  0  0  0  0  0  0  0  0  0  # atno 8009 bound_to 7997
  154.8134  140.2848  155.5842 H   0  0  0  0  0  0  0  0  0  0  0  0  # atno 8010 bound_to 7997
  139.4956  144.3869  151.9561 H   0  0  0  0  0  0  0  0  0  0  0  0  # atno 10167 bound_to 10162
  156.2461  130.4184  149.8703 H   0  0  0  0  0  0  0  0  0  0  0  0  # atno 10718 bound_to 10713
  153.7089  135.3271  155.3241 H   0  0  0  0  0  0  0  0  0  0  0  0  # atno 10763 bound_to 10752
  154.8391  135.4472  154.1335 H   0  0  0  0  0  0  0  0  0  0  0  0  # atno 10764 bound_to 10752
  153.2423  135.6972  153.7849 H   0  0  0  0  0  0  0  0  0  0  0  0  # atno 10765 bound_to 10752
  141.0114  134.0258  157.3408 H   0  0  0  0  0  0  0  0  0  0  0  0  # atno 11005 bound_to 11000
  145.3090  139.1825  143.4649 LP  0  0  0  0  0  0  0  0  0  0  0  0  # atno 17320 bound_to 7965
  146.3260  140.3091  142.8625 LP  0  0  0  0  0  0  0  0  0  0  0  0  # atno 17321 bound_to 7965
  140.3306  144.3321  150.5988 LP  0  0  0  0  0  0  0  0  0  0  0  0  # atno 17342 bound_to 10162
  140.5648  143.2187  151.7702 LP  0  0  0  0  0  0  0  0  0  0  0  0  # atno 17343 bound_to 10162
  156.6268  130.8649  151.3487 LP  0  0  0  0  0  0  0  0  0  0  0  0  # atno 17370 bound_to 10713
  157.7195  130.9540  150.1385 LP  0  0  0  0  0  0  0  0  0  0  0  0  # atno 17371 bound_to 10713
  139.9092  135.0186  156.7620 LP  0  0  0  0  0  0  0  0  0  0  0  0  # atno 17394 bound_to 11000
  140.6726  133.9545  155.7865 LP  0  0  0  0  0  0  0  0  0  0  0  0  # atno 17395 bound_to 11000

$$$$
