AV-unprocessed.smi:1269|AV-procd|sdf|5327|dock9
  -GOLD-   22720 4453D 1   1.00000     0.00000
 Structure written by MMmdl.
 43 44  0  0  0  0  0  0  0  0  1 V2000
  152.9598  139.3399  158.9921 C   0  0  0  0  0  0  0  0  0  0  0  0
  152.9454  139.5857  157.5902 O   0  0  0  0  0  0  0  0  0  0  0  0
  152.2171  138.7355  156.7834 C   0  0  0  0  0  0  0  0  0  0  0  0
  152.1516  139.0072  155.4027 C   0  0  0  0  0  0  0  0  0  0  0  0
  151.4144  138.1428  154.5707 C   0  0  0  0  0  0  0  0  0  0  0  0
  150.7607  137.0275  155.1490 C   0  0  0  0  0  0  0  0  0  0  0  0
  149.9864  136.0707  154.4352 N   0  0  0  0  0  0  0  0  0  0  0  0
  149.4895  134.8902  154.8440 C   0  0  0  0  0  0  0  0  0  0  0  0
  149.6526  134.3898  155.9559 O   0  0  0  0  0  0  0  0  0  0  0  0
  148.7722  134.3117  153.8692 N   0  0  0  0  0  0  0  0  0  0  0  0
  148.0482  133.0456  153.9729 C   0  0  2  0  0  0  0  0  0  0  0  0
  148.9867  131.9823  154.5594 C   0  0  0  0  0  0  0  0  0  0  0  0
  147.5218  132.6159  152.5860 C   0  0  0  0  0  0  0  0  0  0  0  0
  146.1924  133.1132  152.2289 N   0  0  0  0  0  0  0  0  0  0  0  0
  145.5535  132.3162  151.1833 C   0  0  0  0  0  0  0  0  0  0  0  0
  144.1638  132.8643  150.8157 C   0  0  0  0  0  0  0  0  0  0  0  0
  144.2771  134.2264  150.4169 O   0  0  0  0  0  0  0  0  0  0  0  0
  144.8578  135.0471  151.4253 C   0  0  0  0  0  0  0  0  0  0  0  0
  146.2494  134.5041  151.7939 C   0  0  0  0  0  0  0  0  0  0  0  0
  150.8873  136.8478  156.5423 C   0  0  0  0  0  0  0  0  0  0  0  0
  151.5931  137.6714  157.3452 N   0  0  0  0  0  0  0  0  0  0  0  0
  153.5737  140.0942  159.4840 H   0  0  0  0  0  0  0  0  0  0  0  0
  153.3889  138.3633  159.2215 H   0  0  0  0  0  0  0  0  0  0  0  0
  151.9575  139.3999  159.4189 H   0  0  0  0  0  0  0  0  0  0  0  0
  152.6601  139.8645  154.9869 H   0  0  0  0  0  0  0  0  0  0  0  0
  151.3732  138.3617  153.5163 H   0  0  0  0  0  0  0  0  0  0  0  0
  149.7602  136.3318  153.4866 H   0  0  0  0  0  0  0  0  0  0  0  0
  148.6978  134.7993  152.9886 H   0  0  0  0  0  0  0  0  0  0  0  0
  147.2155  133.1440  154.6700 H   0  0  0  0  0  0  0  0  0  0  0  0
  148.4743  131.0261  154.6696 H   0  0  0  0  0  0  0  0  0  0  0  0
  149.3469  132.2771  155.5457 H   0  0  0  0  0  0  0  0  0  0  0  0
  149.8562  131.8218  153.9209 H   0  0  0  0  0  0  0  0  0  0  0  0
  148.2393  132.9606  151.8396 H   0  0  0  0  0  0  0  0  0  0  0  0
  147.5282  131.5268  152.5185 H   0  0  0  0  0  0  0  0  0  0  0  0
  146.1828  132.3018  150.2921 H   0  0  0  0  0  0  0  0  0  0  0  0
  145.4439  131.2814  151.5042 H   0  0  0  0  0  0  0  0  0  0  0  0
  143.7328  132.2879  149.9969 H   0  0  0  0  0  0  0  0  0  0  0  0
  143.4803  132.7805  151.6622 H   0  0  0  0  0  0  0  0  0  0  0  0
  144.9355  136.0688  151.0532 H   0  0  0  0  0  0  0  0  0  0  0  0
  144.2082  135.0726  152.3018 H   0  0  0  0  0  0  0  0  0  0  0  0
  146.6765  135.1222  152.5844 H   0  0  0  0  0  0  0  0  0  0  0  0
  146.9131  134.5964  150.9327 H   0  0  0  0  0  0  0  0  0  0  0  0
  150.4068  136.0135  157.0324 H   0  0  0  0  0  0  0  0  0  0  0  0
  1  2  1  0  0  0  0
  1 22  1  0  0  0  0
  1 23  1  0  0  0  0
  1 24  1  0  0  0  0
  2  3  1  0  0  0  0
  3 21  1  0  0  0  0
  3  4  2  0  0  0  0
  4  5  1  0  0  0  0
  4 25  1  0  0  0  0
  5  6  2  0  0  0  0
  5 26  1  0  0  0  0
  6  7  1  0  0  0  0
  6 20  1  0  0  0  0
  7  8  1  0  0  0  0
  7 27  1  0  0  0  0
  8  9  2  0  0  0  0
  8 10  1  0  0  0  0
 10 11  1  0  0  0  0
 10 28  1  0  0  0  0
 11 12  1  0  0  0  0
 11 13  1  0  0  0  0
 11 29  1  0  0  0  0
 12 30  1  0  0  0  0
 12 31  1  0  0  0  0
 12 32  1  0  0  0  0
 13 14  1  0  0  0  0
 13 33  1  0  0  0  0
 13 34  1  0  0  0  0
 14 19  1  0  0  0  0
 14 15  1  0  0  0  0
 15 16  1  0  0  0  0
 15 35  1  0  0  0  0
 15 36  1  0  0  0  0
 16 17  1  0  0  0  0
 16 37  1  0  0  0  0
 16 38  1  0  0  0  0
 17 18  1  0  0  0  0
 18 19  1  0  0  0  0
 18 39  1  0  0  0  0
 18 40  1  0  0  0  0
 19 41  1  0  0  0  0
 19 42  1  0  0  0  0
 20 21  2  0  0  0  0
 20 43  1  0  0  0  0
M  END
> <s_m_source_file>
AV-unprocessed.smi

> <i_m_source_file_index>
1269

> <i_lp_mmshare_version>
43012

> <i_f3d_flags>
0

> <s_epik_input>
W0NIM11PYzFbY0hdW2NIXWMoW2NIXW4xKVtOSF1DKD1PKVtOSF1bQ0BIXShbQ0gzXSlbQ0gyXU4yW0NIMl1bQ0gyXU9bQ0gyXVtDSDJdMg==

> <s_epik_cmdline>
J2VwaWtfcHl0aG9uJywgJy1waCcsICc3LjAnLCAnLXRuJywgJzgnLCAnLW1hJywgJzIwMCcsICctbWV0YWxfYmluZGluZycsICctaW1hZScsICc8aW5maWxlLm1hZT4nLCAnLW9tYWUnLCAnPG91dGZpbGUubWFlPic=

> <r_lp_tautomer_probability>
1

> <r_epik_Ionization_Penalty>
0.266086

> <r_epik_Ionization_Penalty_Charging>
0

> <r_epik_Ionization_Penalty_Neutral>
0.266086

> <r_epik_State_Penalty>
0.257924

> <r_epik_Charging_Adjusted_Penalty>
0.257924

> <i_epik_Tot_Q>
0

> <i_epik_Tot_abs_Q>
0

> <r_epik_Metal_State_Penalty>
0.25792

> <b_epik_Metal_Only>
0

> <s_lp_Force_Field>
OPLS_2005

> <r_lp_Energy>
28.3998

> <b_lp_Chiralities_Consistent>
1

> <s_lp_Variant>
AV-unprocessed.smi:1269-1

> <Gold.Version>
5.8.1

> <Gold.Id.Protein>
6NUR|6NUR_protein|mol2

> <Gold.PLP.Fitness>
41.2309

> <Gold.PLP.PLP>
-33.5206

> <Gold.PLP.part.hbond>
-3.8866

> <Gold.PLP.part.metal>
0.0000

> <Gold.PLP.part.buried>
-2.2818

> <Gold.PLP.part.nonpolar>
-27.1499

> <Gold.PLP.part.repulsive>
0.3956

> <Gold.PLP.ligand.clash>
0.0000

> <Gold.PLP.ligand.torsion>
0.6666

> <Gold.PLP.Chemscore.Hbond>
3.0000

> <Gold.PLP.Chemscore.CHOScore>
0.0000

> <Gold.PLP.Chemscore.Metal>
0.0000

> <Gold.Chemscore.Hbonds>
donor molecule, donor type, donor heavy atom, donor atom, acceptor molecule, acceptor atom, score
      L1  H     7    27       P1  7948  1.00
      L1  H    10    28       P1  7948  1.00
      P1  H  7997  8009       L1     2  1.00

> <Gold.PLP.Chemscore.Internal.Correction>
0.0434

> <Gold.Rescore>
     Score         DG    S(hbond)    S(metal)    S(lipo)     H(rot)  DE(clash)    DE(int)     intcor
     13.11     -16.22       2.14        0.00      68.22       1.72       0.03       3.07       ----

> <Gold.Chemscore.Fitness>
13.1116

> <Gold.Chemscore.DG>
-16.2156

> <Gold.Chemscore.ZeroCoef>
-5.4800

> <Gold.Chemscore.Hbond>
2.1418

> <Gold.Chemscore.Metal>
0.0000

> <Gold.Chemscore.Lipo>
68.2249

> <Gold.Chemscore.Internal_Hbond>
0.0000

> <Gold.Chemscore.DEClash>
0.0342

> <Gold.Chemscore.DEInternal>
3.0698

> <Gold.Chemscore.Rot>
1.7189

> <Gold.Chemscore.Internal.Correction>
   9.000000E+99

> <Gold.Chemscore.Hbonds>
donor molecule, donor type, donor heavy atom, donor atom, acceptor molecule, acceptor atom, score
      L1  H     7    27       P1  7948  0.25
      L1  H    10    28       P1  7948  0.25
      P1  H  7997  8009       L1     2  0.60

> <Gold.Chemscore.Hbond.Weighted>
-7.1537

> <Gold.Chemscore.Metal.Weighted>
-0.0000

> <Gold.Chemscore.Lipo.Weighted>
-7.9823

> <Gold.Chemscore.Internal_Hbond.Weighted>
0.0000

> <Gold.Chemscore.DEClash.Weighted>
0.0342

> <Gold.Chemscore.DEInternal.Weighted>
3.0698

> <Gold.Chemscore.Rot.Weighted>
4.4004

> <Gold.Chemscore.Internal.Correction.Weighted>
   9.000000E+99

> <Gold.Protein.RotatedTorsions>
[ 6907 6896 6895 6894 ] final  112.11 input  -60.11 | X-H torsion
[ 7974 7965 7964 7962 ] final  145.17 input  175.53 | X-H torsion
[ 8008 7997 7996 7995 ] final -179.47 input   59.86 | X-H torsion
[ 10167 10162 10161 10158 ] final -156.15 input  -65.29 | X-H torsion
[ 10718 10713 10712 10709 ] final   21.92 input   66.30 | X-H torsion
[ 10763 10752 10751 10750 ] final  -78.87 input  -60.55 | X-H torsion
[ 11005 11000 10999 10996 ] final  148.48 input  -57.11 | X-H torsion

> <Gold.Protein.ActiveResidues>
 VAL166  LYS551  ARG553  GLY616  TRP617  ASP618  TYR619  PRO620  LYS621  CYS622 
 ASP623  PHE694  ASN695  SER759  ASP760  ASP761  ALA762  ILE779  LEU786  VAL792 
 PHE793  MET794  SER795  GLU796  ALA797  LYS798  CYS799  TRP800  GLU811  SER814 

> <Gold.Protein.RotatedAtoms>
  152.4934  133.8562  159.7226 H   0  0  0  0  0  0  0  0  0  0  0  0  # atno 6907 bound_to 6896
  150.9086  133.7017  159.2867 H   0  0  0  0  0  0  0  0  0  0  0  0  # atno 6908 bound_to 6896
  151.4434  135.1027  159.9729 H   0  0  0  0  0  0  0  0  0  0  0  0  # atno 6909 bound_to 6896
  144.8775  139.5751  143.5858 H   0  0  0  0  0  0  0  0  0  0  0  0  # atno 7974 bound_to 7965
  156.0309  140.1282  157.0259 H   0  0  0  0  0  0  0  0  0  0  0  0  # atno 8008 bound_to 7997
  154.4349  140.1049  156.6168 H   0  0  0  0  0  0  0  0  0  0  0  0  # atno 8009 bound_to 7997
  155.5808  140.3468  155.4542 H   0  0  0  0  0  0  0  0  0  0  0  0  # atno 8010 bound_to 7997
  139.6873  143.9480  152.2367 H   0  0  0  0  0  0  0  0  0  0  0  0  # atno 10167 bound_to 10162
  157.1451  130.6650  149.5993 H   0  0  0  0  0  0  0  0  0  0  0  0  # atno 10718 bound_to 10713
  154.5315  135.5715  153.6762 H   0  0  0  0  0  0  0  0  0  0  0  0  # atno 10763 bound_to 10752
  152.9940  135.6206  154.2623 H   0  0  0  0  0  0  0  0  0  0  0  0  # atno 10764 bound_to 10752
  154.2549  135.2858  155.2781 H   0  0  0  0  0  0  0  0  0  0  0  0  # atno 10765 bound_to 10752
  140.0963  134.9010  157.1728 H   0  0  0  0  0  0  0  0  0  0  0  0  # atno 11005 bound_to 11000
  146.2972  139.7314  142.9118 LP  0  0  0  0  0  0  0  0  0  0  0  0  # atno 17320 bound_to 7965
  145.4016  141.0386  143.3067 LP  0  0  0  0  0  0  0  0  0  0  0  0  # atno 17321 bound_to 7965
  139.9286  144.6755  150.8386 LP  0  0  0  0  0  0  0  0  0  0  0  0  # atno 17342 bound_to 10162
  140.7672  143.3324  151.2381 LP  0  0  0  0  0  0  0  0  0  0  0  0  # atno 17343 bound_to 10162
  155.9781  130.4764  150.6634 LP  0  0  0  0  0  0  0  0  0  0  0  0  # atno 17370 bound_to 10713
  157.4271  131.0844  151.1074 LP  0  0  0  0  0  0  0  0  0  0  0  0  # atno 17371 bound_to 10713
  140.3282  134.2840  155.7233 LP  0  0  0  0  0  0  0  0  0  0  0  0  # atno 17394 bound_to 11000
  141.2093  133.7753  157.0006 LP  0  0  0  0  0  0  0  0  0  0  0  0  # atno 17395 bound_to 11000

$$$$
