AV-unprocessed.smi:3154|AV-procd|sdf|12022|dock3
  -GOLD-   2272017433D 1   1.00000     0.00000
 Structure written by MMmdl.
 35 36  0  0  0  0  0  0  0  0  2 V2000
  144.0902  136.2073  153.1212 C   0  0  0  0  0  0  0  0  0  0  0  0
  145.4258  135.7246  152.5301 C   0  0  1  0  0  0  0  0  0  0  0  0
  145.3368  135.4586  151.0093 C   0  0  0  0  0  0  0  0  0  0  0  0
  144.6788  134.2043  150.6906 N   0  0  0  0  0  0  0  0  0  0  0  0
  144.3179  133.7123  149.4536 C   0  0  0  0  0  0  0  0  0  0  0  0
  143.7381  132.4927  149.6555 C   0  0  0  0  0  0  0  0  0  0  0  0
  143.7976  132.3191  151.0666 C   0  0  0  0  0  0  0  0  0  0  0  0
  144.3645  133.3440  151.6828 N   0  0  0  0  0  0  0  0  0  0  0  0
  146.4821  136.7135  152.8393 N   0  3  0  0  0  0  0  0  0  0  0  0
  146.2498  138.0784  152.3169 C   0  0  0  0  0  0  0  0  0  0  0  0
  146.9784  139.1445  153.1376 C   0  0  0  0  0  0  0  0  0  0  0  0
  148.1779  139.0306  153.3934 O   0  0  0  0  0  0  0  0  0  0  0  0
  146.2310  140.1809  153.5446 N   0  0  0  0  0  0  0  0  0  0  0  0
  146.6977  141.2878  154.3155 C   0  0  0  0  0  0  0  0  0  0  0  0
  146.5438  142.6719  153.7227 C   0  0  0  0  0  0  0  0  0  0  0  0
  147.9065  142.0408  153.8030 C   0  0  0  0  0  0  0  0  0  0  0  0
  143.3044  135.4609  153.0018 H   0  0  0  0  0  0  0  0  0  0  0  0
  143.7523  137.1258  152.6401 H   0  0  0  0  0  0  0  0  0  0  0  0
  144.1834  136.4057  154.1894 H   0  0  0  0  0  0  0  0  0  0  0  0
  145.6855  134.7944  153.0379 H   0  0  0  0  0  0  0  0  0  0  0  0
  144.7912  136.2659  150.5180 H   0  0  0  0  0  0  0  0  0  0  0  0
  146.3283  135.4338  150.5571 H   0  0  0  0  0  0  0  0  0  0  0  0
  144.4989  134.2645  148.5431 H   0  0  0  0  0  0  0  0  0  0  0  0
  143.3355  131.8243  148.9089 H   0  0  0  0  0  0  0  0  0  0  0  0
  143.4498  131.4841  151.6568 H   0  0  0  0  0  0  0  0  0  0  0  0
  146.6128  136.7599  153.8398 H   0  0  0  0  0  0  0  0  0  0  0  0
  146.5931  138.1365  151.2831 H   0  0  0  0  0  0  0  0  0  0  0  0
  145.1837  138.3052  152.3227 H   0  0  0  0  0  0  0  0  0  0  0  0
  145.2540  140.1903  153.2890 H   0  0  0  0  0  0  0  0  0  0  0  0
  146.6039  141.2192  155.3984 H   0  0  0  0  0  0  0  0  0  0  0  0
  146.0880  142.7576  152.7379 H   0  0  0  0  0  0  0  0  0  0  0  0
  146.3286  143.4899  154.4073 H   0  0  0  0  0  0  0  0  0  0  0  0
  148.6005  142.4364  154.5422 H   0  0  0  0  0  0  0  0  0  0  0  0
  148.3599  141.7066  152.8715 H   0  0  0  0  0  0  0  0  0  0  0  0
  147.3419  136.3831  152.4246 H   0  0  0  0  0  0  0  0  0  0  0  0
  1  2  1  0  0  0  0
  1 17  1  0  0  0  0
  1 18  1  0  0  0  0
  1 19  1  0  0  0  0
  2  3  1  0  0  0  0
  2  9  1  0  0  0  0
  2 20  1  0  0  0  0
  3  4  1  0  0  0  0
  3 21  1  0  0  0  0
  3 22  1  0  0  0  0
  4  8  1  0  0  0  0
  4  5  1  0  0  0  0
  5  6  2  0  0  0  0
  5 23  1  0  0  0  0
  6  7  1  0  0  0  0
  6 24  1  0  0  0  0
  7  8  2  0  0  0  0
  7 25  1  0  0  0  0
  9 10  1  0  0  0  0
  9 26  1  0  0  0  0
  9 35  1  0  0  0  0
 10 11  1  0  0  0  0
 10 27  1  0  0  0  0
 10 28  1  0  0  0  0
 11 12  2  0  0  0  0
 11 13  1  0  0  0  0
 13 14  1  0  0  0  0
 13 29  1  0  0  0  0
 14 16  1  0  0  0  0
 14 15  1  0  0  0  0
 14 30  1  0  0  0  0
 15 16  1  0  0  0  0
 15 31  1  0  0  0  0
 15 32  1  0  0  0  0
 16 33  1  0  0  0  0
 16 34  1  0  0  0  0
M  CHG  1   9   1
M  END
> <s_m_source_file>
AV-unprocessed.smi

> <i_m_source_file_index>
3154

> <i_lp_mmshare_version>
43012

> <i_f3d_flags>
0

> <s_epik_input>
bjFbY0hdW2NIXVtjSF1uMVtDSDJdW0NAQEhdKFtDSDNdKVtOSF1bQ0gyXUMoPU8pW05IXVtDSF0yW0NIMl1bQ0gyXTI=

> <s_epik_cmdline>
J2VwaWtfcHl0aG9uJywgJy1waCcsICc3LjAnLCAnLXRuJywgJzgnLCAnLW1hJywgJzIwMCcsICctbWV0YWxfYmluZGluZycsICctaW1hZScsICc8aW5maWxlLm1hZT4nLCAnLW9tYWUnLCAnPG91dGZpbGUubWFlPic=

> <r_lp_tautomer_probability>
1

> <r_epik_Ionization_Penalty>
0.12065

> <r_epik_Ionization_Penalty_Charging>
0.120646

> <r_epik_Ionization_Penalty_Neutral>
4.1343e-06

> <r_epik_State_Penalty>
0.110186

> <r_epik_Charging_Adjusted_Penalty>
0.230832

> <i_epik_Tot_Q>
1

> <i_epik_Tot_abs_Q>
1

> <r_epik_Metal_State_Penalty>
0.110197

> <b_epik_Metal_Only>
0

> <s_lp_Force_Field>
OPLS_2005

> <r_lp_Energy>
15.3554

> <b_lp_Chiralities_Consistent>
1

> <s_lp_Variant>
AV-unprocessed.smi:3154-2

> <Gold.Version>
5.8.1

> <Gold.Id.Protein>
6NUR|6NUR_protein|mol2

> <Gold.PLP.Fitness>
42.3973

> <Gold.PLP.PLP>
-31.2776

> <Gold.PLP.part.hbond>
-2.0000

> <Gold.PLP.part.metal>
0.0000

> <Gold.PLP.part.buried>
-4.3892

> <Gold.PLP.part.nonpolar>
-26.8808

> <Gold.PLP.part.repulsive>
1.2583

> <Gold.PLP.ligand.clash>
0.0000

> <Gold.PLP.ligand.torsion>
0.4773

> <Gold.PLP.Chemscore.Hbond>
3.0000

> <Gold.PLP.Chemscore.CHOScore>
1.0000

> <Gold.PLP.Chemscore.Metal>
0.0000

> <Gold.Chemscore.Hbonds>
donor molecule, donor type, donor heavy atom, donor atom, acceptor molecule, acceptor atom, score
      L1  H     9    35       P1  7948  2.00
      L1  H    13    29       P1 10175  1.00
      L1  C     5    23       P1  7921  0.77

> <Gold.PLP.Chemscore.Internal.Correction>
0.0743

> <Gold.Rescore>
     Score         DG    S(hbond)    S(metal)    S(lipo)     H(rot)  DE(clash)    DE(int)     intcor
     13.57     -14.42       1.95        0.00      68.90       2.20       0.31       0.54       ----

> <Gold.Chemscore.Fitness>
13.5712

> <Gold.Chemscore.DG>
-14.4161

> <Gold.Chemscore.ZeroCoef>
-5.4800

> <Gold.Chemscore.Hbond>
1.9515

> <Gold.Chemscore.Metal>
0.0000

> <Gold.Chemscore.Lipo>
68.8957

> <Gold.Chemscore.Internal_Hbond>
0.0000

> <Gold.Chemscore.DEClash>
0.3071

> <Gold.Chemscore.DEInternal>
0.5378

> <Gold.Chemscore.Rot>
2.2042

> <Gold.Chemscore.Internal.Correction>
   9.000000E+99

> <Gold.Chemscore.Hbonds>
donor molecule, donor type, donor heavy atom, donor atom, acceptor molecule, acceptor atom, score
      L1  H     9    35       P1  7948  1.00
      L1  H    13    29       P1 10175  1.00

> <Gold.Chemscore.Hbond.Weighted>
-6.5180

> <Gold.Chemscore.Metal.Weighted>
-0.0000

> <Gold.Chemscore.Lipo.Weighted>
-8.0608

> <Gold.Chemscore.Internal_Hbond.Weighted>
0.0000

> <Gold.Chemscore.DEClash.Weighted>
0.3071

> <Gold.Chemscore.DEInternal.Weighted>
0.5378

> <Gold.Chemscore.Rot.Weighted>
5.6427

> <Gold.Chemscore.Internal.Correction.Weighted>
   9.000000E+99

> <Gold.Protein.RotatedTorsions>
[ 6907 6896 6895 6894 ] final  -39.58 input  -60.11 | X-H torsion
[ 7974 7965 7964 7962 ] final  -38.78 input  175.53 | X-H torsion
[ 8008 7997 7996 7995 ] final  -77.40 input   59.86 | X-H torsion
[ 10167 10162 10161 10158 ] final -108.07 input  -65.29 | X-H torsion
[ 10718 10713 10712 10709 ] final   -6.85 input   66.30 | X-H torsion
[ 10763 10752 10751 10750 ] final   10.27 input  -60.55 | X-H torsion
[ 11005 11000 10999 10996 ] final  -98.70 input  -57.11 | X-H torsion

> <Gold.Protein.ActiveResidues>
 VAL166  LYS551  ARG553  GLY616  TRP617  ASP618  TYR619  PRO620  LYS621  CYS622 
 ASP623  PHE694  ASN695  SER759  ASP760  ASP761  ALA762  ILE779  LEU786  VAL792 
 PHE793  MET794  SER795  GLU796  ALA797  LYS798  CYS799  TRP800  GLU811  SER814 

> <Gold.Protein.RotatedAtoms>
  150.9887  134.9226  159.7886 H   0  0  0  0  0  0  0  0  0  0  0  0  # atno 6907 bound_to 6896
  152.5244  134.3312  159.9193 H   0  0  0  0  0  0  0  0  0  0  0  0  # atno 6908 bound_to 6896
  151.3318  133.3956  159.2697 H   0  0  0  0  0  0  0  0  0  0  0  0  # atno 6909 bound_to 6896
  146.0455  140.6551  142.9066 H   0  0  0  0  0  0  0  0  0  0  0  0  # atno 7974 bound_to 7965
  154.5593  140.0711  156.8793 H   0  0  0  0  0  0  0  0  0  0  0  0  # atno 8008 bound_to 7997
  155.2842  140.3373  155.4238 H   0  0  0  0  0  0  0  0  0  0  0  0  # atno 8009 bound_to 7997
  156.2029  140.1728  156.7848 H   0  0  0  0  0  0  0  0  0  0  0  0  # atno 8010 bound_to 7997
  140.1701  143.4050  152.1361 H   0  0  0  0  0  0  0  0  0  0  0  0  # atno 10167 bound_to 10162
  156.7258  130.5165  149.5857 H   0  0  0  0  0  0  0  0  0  0  0  0  # atno 10718 bound_to 10713
  153.2050  135.6861  153.8184 H   0  0  0  0  0  0  0  0  0  0  0  0  # atno 10763 bound_to 10752
  153.7437  135.3234  155.3310 H   0  0  0  0  0  0  0  0  0  0  0  0  # atno 10764 bound_to 10752
  154.8192  135.4664  154.0832 H   0  0  0  0  0  0  0  0  0  0  0  0  # atno 10765 bound_to 10752
  141.1335  133.8265  157.0874 H   0  0  0  0  0  0  0  0  0  0  0  0  # atno 11005 bound_to 11000
  144.7096  140.3986  143.7091 LP  0  0  0  0  0  0  0  0  0  0  0  0  # atno 17320 bound_to 7965
  145.6812  139.1619  143.2699 LP  0  0  0  0  0  0  0  0  0  0  0  0  # atno 17321 bound_to 7965
  139.5342  144.7192  151.4951 LP  0  0  0  0  0  0  0  0  0  0  0  0  # atno 17342 bound_to 10162
  140.6588  143.8543  150.6864 LP  0  0  0  0  0  0  0  0  0  0  0  0  # atno 17343 bound_to 10162
  156.1563  130.6344  151.0661 LP  0  0  0  0  0  0  0  0  0  0  0  0  # atno 17370 bound_to 10713
  157.6879  131.0819  150.7190 LP  0  0  0  0  0  0  0  0  0  0  0  0  # atno 17371 bound_to 10713
  140.0414  134.9852  157.0968 LP  0  0  0  0  0  0  0  0  0  0  0  0  # atno 17394 bound_to 11000
  140.4130  134.1961  155.7163 LP  0  0  0  0  0  0  0  0  0  0  0  0  # atno 17395 bound_to 11000

$$$$
