AV-unprocessed.smi:3134|AV-procd|sdf|11944|dock4
  -GOLD-   2272017333D 1   1.00000     0.00000
 Structure written by MMmdl.
 36 36  0  0  0  0  0  0  0  0  1 V2000
  146.2491  142.2872  153.7557 C   0  0  0  0  0  0  0  0  0  0  0  0
  146.8899  141.0055  154.3121 C   0  0  0  0  0  0  0  0  0  0  0  0
  148.4107  140.9979  154.1087 C   0  0  0  0  0  0  0  0  0  0  0  0
  146.3083  139.8286  153.6742 N   0  0  0  0  0  0  0  0  0  0  0  0
  146.6326  138.5549  153.9472 C   0  0  0  0  0  0  0  0  0  0  0  0
  147.4796  138.2369  154.7829 O   0  0  0  0  0  0  0  0  0  0  0  0
  145.8524  137.4704  153.1848 C   0  0  1  0  0  0  0  0  0  0  0  0
  144.3373  137.6827  153.3324 C   0  0  0  0  0  0  0  0  0  0  0  0
  146.2060  137.3919  151.7556 N   0  0  0  0  0  0  0  0  0  0  0  0
  145.4950  136.3565  151.0137 C   0  0  0  0  0  0  0  0  0  0  0  0
  145.6150  135.0213  151.7610 C   0  0  0  0  0  0  0  0  0  0  0  0
  145.4037  133.8956  150.8722 N   0  0  0  0  0  0  0  0  0  0  0  0
  144.2623  133.5558  150.1772 C   0  0  0  0  0  0  0  0  0  0  0  0
  144.5414  132.4228  149.4682 C   0  0  0  0  0  0  0  0  0  0  0  0
  145.8971  132.1430  149.7981 C   0  0  0  0  0  0  0  0  0  0  0  0
  146.4112  133.0275  150.6374 N   0  0  0  0  0  0  0  0  0  0  0  0
  146.6726  143.1732  154.2290 H   0  0  0  0  0  0  0  0  0  0  0  0
  145.1735  142.3033  153.9353 H   0  0  0  0  0  0  0  0  0  0  0  0
  146.4076  142.3759  152.6804 H   0  0  0  0  0  0  0  0  0  0  0  0
  146.6986  140.9585  155.3856 H   0  0  0  0  0  0  0  0  0  0  0  0
  148.8751  141.8537  154.5992 H   0  0  0  0  0  0  0  0  0  0  0  0
  148.6714  141.0393  153.0505 H   0  0  0  0  0  0  0  0  0  0  0  0
  148.8588  140.0963  154.5278 H   0  0  0  0  0  0  0  0  0  0  0  0
  145.5938  139.9940  152.9800 H   0  0  0  0  0  0  0  0  0  0  0  0
  146.0879  136.5055  153.6379 H   0  0  0  0  0  0  0  0  0  0  0  0
  144.0428  137.7195  154.3820 H   0  0  0  0  0  0  0  0  0  0  0  0
  143.7826  136.8668  152.8679 H   0  0  0  0  0  0  0  0  0  0  0  0
  144.0115  138.6116  152.8620 H   0  0  0  0  0  0  0  0  0  0  0  0
  147.2019  137.2858  151.6243 H   0  0  0  0  0  0  0  0  0  0  0  0
  144.4412  136.6155  150.9052 H   0  0  0  0  0  0  0  0  0  0  0  0
  145.9174  136.2647  150.0119 H   0  0  0  0  0  0  0  0  0  0  0  0
  146.5993  134.9236  152.2218 H   0  0  0  0  0  0  0  0  0  0  0  0
  144.8808  134.9662  152.5660 H   0  0  0  0  0  0  0  0  0  0  0  0
  143.3579  134.1427  150.2436 H   0  0  0  0  0  0  0  0  0  0  0  0
  143.8787  131.8769  148.8132 H   0  0  0  0  0  0  0  0  0  0  0  0
  146.5189  131.3297  149.4545 H   0  0  0  0  0  0  0  0  0  0  0  0
  1  2  1  0  0  0  0
  1 17  1  0  0  0  0
  1 18  1  0  0  0  0
  1 19  1  0  0  0  0
  2  3  1  0  0  0  0
  2  4  1  0  0  0  0
  2 20  1  0  0  0  0
  3 21  1  0  0  0  0
  3 22  1  0  0  0  0
  3 23  1  0  0  0  0
  4  5  1  0  0  0  0
  4 24  1  0  0  0  0
  5  6  2  0  0  0  0
  5  7  1  0  0  0  0
  7  8  1  0  0  0  0
  7  9  1  0  0  0  0
  7 25  1  0  0  0  0
  8 26  1  0  0  0  0
  8 27  1  0  0  0  0
  8 28  1  0  0  0  0
  9 10  1  0  0  0  0
  9 29  1  0  0  0  0
 10 11  1  0  0  0  0
 10 30  1  0  0  0  0
 10 31  1  0  0  0  0
 11 12  1  0  0  0  0
 11 32  1  0  0  0  0
 11 33  1  0  0  0  0
 12 16  1  0  0  0  0
 12 13  1  0  0  0  0
 13 14  2  0  0  0  0
 13 34  1  0  0  0  0
 14 15  1  0  0  0  0
 14 35  1  0  0  0  0
 15 16  2  0  0  0  0
 15 36  1  0  0  0  0
M  END
> <s_m_source_file>
AV-unprocessed.smi

> <i_m_source_file_index>
3134

> <i_lp_mmshare_version>
43012

> <i_f3d_flags>
0

> <s_epik_input>
W0NIM11bQ0hdKFtDSDNdKVtOSF1DKD1PKVtDQEhdKFtDSDNdKVtOSF1bQ0gyXVtDSDJdbjFbY0hdW2NIXVtjSF1uMQ==

> <s_epik_cmdline>
J2VwaWtfcHl0aG9uJywgJy1waCcsICc3LjAnLCAnLXRuJywgJzgnLCAnLW1hJywgJzIwMCcsICctbWV0YWxfYmluZGluZycsICctaW1hZScsICc8aW5maWxlLm1hZT4nLCAnLW9tYWUnLCAnPG91dGZpbGUubWFlPic=

> <r_lp_tautomer_probability>
1

> <r_epik_Ionization_Penalty>
0.731872

> <r_epik_Ionization_Penalty_Charging>
0

> <r_epik_Ionization_Penalty_Neutral>
0.731872

> <r_epik_State_Penalty>
0.75611

> <r_epik_Charging_Adjusted_Penalty>
0.75611

> <i_epik_Tot_Q>
0

> <i_epik_Tot_abs_Q>
0

> <r_epik_Metal_State_Penalty>
0.755373

> <b_epik_Metal_Only>
0

> <s_lp_Force_Field>
OPLS_2005

> <r_lp_Energy>
3.64981

> <b_lp_Chiralities_Consistent>
1

> <s_lp_Variant>
AV-unprocessed.smi:3134-4

> <Gold.Version>
5.8.1

> <Gold.Id.Protein>
6NUR|6NUR_protein|mol2

> <Gold.PLP.Fitness>
39.8214

> <Gold.PLP.PLP>
-28.6815

> <Gold.PLP.part.hbond>
-2.1717

> <Gold.PLP.part.metal>
0.0000

> <Gold.PLP.part.buried>
-3.3674

> <Gold.PLP.part.nonpolar>
-24.4238

> <Gold.PLP.part.repulsive>
0.2998

> <Gold.PLP.ligand.clash>
0.0000

> <Gold.PLP.ligand.torsion>
0.2994

> <Gold.PLP.Chemscore.Hbond>
1.9913

> <Gold.PLP.Chemscore.CHOScore>
1.9031

> <Gold.PLP.Chemscore.Metal>
0.0000

> <Gold.Chemscore.Hbonds>
donor molecule, donor type, donor heavy atom, donor atom, acceptor molecule, acceptor atom, score
      L1  H     4    24       P1 10175  0.99
      L1  H     9    29       P1  7948  1.00
      L1  C    13    34       P1 10186  1.00
      L1  C    15    36       P1 10747  0.74

> <Gold.PLP.Chemscore.Internal.Correction>
0.0556

> <Gold.Rescore>
     Score         DG    S(hbond)    S(metal)    S(lipo)     H(rot)  DE(clash)    DE(int)     intcor
     13.83     -14.25       1.92        0.00      65.22       2.05       0.04       0.38       ----

> <Gold.Chemscore.Fitness>
13.8340

> <Gold.Chemscore.DG>
-14.2525

> <Gold.Chemscore.ZeroCoef>
-5.4800

> <Gold.Chemscore.Hbond>
1.9154

> <Gold.Chemscore.Metal>
0.0000

> <Gold.Chemscore.Lipo>
65.2162

> <Gold.Chemscore.Internal_Hbond>
0.0000

> <Gold.Chemscore.DEClash>
0.0402

> <Gold.Chemscore.DEInternal>
0.3783

> <Gold.Chemscore.Rot>
2.0529

> <Gold.Chemscore.Internal.Correction>
   9.000000E+99

> <Gold.Chemscore.Hbonds>
donor molecule, donor type, donor heavy atom, donor atom, acceptor molecule, acceptor atom, score
      L1  H     4    24       P1 10175  0.88
      L1  H     9    29       P1  7948  0.90

> <Gold.Chemscore.Hbond.Weighted>
-6.3976

> <Gold.Chemscore.Metal.Weighted>
-0.0000

> <Gold.Chemscore.Lipo.Weighted>
-7.6303

> <Gold.Chemscore.Internal_Hbond.Weighted>
0.0000

> <Gold.Chemscore.DEClash.Weighted>
0.0402

> <Gold.Chemscore.DEInternal.Weighted>
0.3783

> <Gold.Chemscore.Rot.Weighted>
5.2554

> <Gold.Chemscore.Internal.Correction.Weighted>
   9.000000E+99

> <Gold.Protein.RotatedTorsions>
[ 6907 6896 6895 6894 ] final   67.49 input  -60.11 | X-H torsion
[ 7974 7965 7964 7962 ] final  155.04 input  175.53 | X-H torsion
[ 8008 7997 7996 7995 ] final   10.81 input   59.86 | X-H torsion
[ 10167 10162 10161 10158 ] final   24.78 input  -65.29 | X-H torsion
[ 10718 10713 10712 10709 ] final  159.39 input   66.30 | X-H torsion
[ 10763 10752 10751 10750 ] final  -56.81 input  -60.55 | X-H torsion
[ 11005 11000 10999 10996 ] final -104.18 input  -57.11 | X-H torsion

> <Gold.Protein.ActiveResidues>
 VAL166  LYS551  ARG553  GLY616  TRP617  ASP618  TYR619  PRO620  LYS621  CYS622 
 ASP623  PHE694  ASN695  SER759  ASP760  ASP761  ALA762  ILE779  LEU786  VAL792 
 PHE793  MET794  SER795  GLU796  ALA797  LYS798  CYS799  TRP800  GLU811  SER814 

> <Gold.Protein.RotatedAtoms>
  152.4555  134.5300  159.9807 H   0  0  0  0  0  0  0  0  0  0  0  0  # atno 6907 bound_to 6896
  151.5362  133.3435  159.2935 H   0  0  0  0  0  0  0  0  0  0  0  0  # atno 6908 bound_to 6896
  150.8498  134.7850  159.7062 H   0  0  0  0  0  0  0  0  0  0  0  0  # atno 6909 bound_to 6896
  144.8050  139.7014  143.6166 H   0  0  0  0  0  0  0  0  0  0  0  0  # atno 7974 bound_to 7965
  154.7985  140.2848  155.5939 H   0  0  0  0  0  0  0  0  0  0  0  0  # atno 8008 bound_to 7997
  156.2974  140.2591  156.2777 H   0  0  0  0  0  0  0  0  0  0  0  0  # atno 8009 bound_to 7997
  154.9586  140.0378  157.2169 H   0  0  0  0  0  0  0  0  0  0  0  0  # atno 8010 bound_to 7997
  140.5160  144.0081  150.6394 H   0  0  0  0  0  0  0  0  0  0  0  0  # atno 10167 bound_to 10162
  157.1649  131.0596  151.2213 H   0  0  0  0  0  0  0  0  0  0  0  0  # atno 10718 bound_to 10713
  154.2126  135.6392  153.5120 H   0  0  0  0  0  0  0  0  0  0  0  0  # atno 10763 bound_to 10752
  152.9986  135.5477  154.6199 H   0  0  0  0  0  0  0  0  0  0  0  0  # atno 10764 bound_to 10752
  154.5639  135.2911  155.0866 H   0  0  0  0  0  0  0  0  0  0  0  0  # atno 10765 bound_to 10752
  141.1112  133.8702  157.1579 H   0  0  0  0  0  0  0  0  0  0  0  0  # atno 11005 bound_to 11000
  146.2340  139.5868  142.9536 LP  0  0  0  0  0  0  0  0  0  0  0  0  # atno 17320 bound_to 7965
  145.5460  141.0417  143.2305 LP  0  0  0  0  0  0  0  0  0  0  0  0  # atno 17321 bound_to 7965
  140.3417  143.3015  152.0581 LP  0  0  0  0  0  0  0  0  0  0  0  0  # atno 17342 bound_to 10162
  139.4909  144.6437  151.6822 LP  0  0  0  0  0  0  0  0  0  0  0  0  # atno 17343 bound_to 10162
  157.4098  130.7379  149.6830 LP  0  0  0  0  0  0  0  0  0  0  0  0  # atno 17370 bound_to 10713
  155.9747  130.4098  150.3899 LP  0  0  0  0  0  0  0  0  0  0  0  0  # atno 17371 bound_to 10713
  140.0007  135.0029  157.0184 LP  0  0  0  0  0  0  0  0  0  0  0  0  # atno 17394 bound_to 11000
  140.4769  134.1329  155.7211 LP  0  0  0  0  0  0  0  0  0  0  0  0  # atno 17395 bound_to 11000

$$$$
