AV-unprocessed.smi:1197|AV-procd|sdf|5008|dock5
  -GOLD-   22720 4 23D 1   1.00000     0.00000
 Structure written by MMmdl.
 40 41  0  0  0  0  0  0  0  0  1 V2000
  136.2307  137.1816  155.4129 C   0  0  0  0  0  0  0  0  0  0  0  0
  136.9091  138.3749  155.0362 O   0  0  0  0  0  0  0  0  0  0  0  0
  138.2021  138.2725  154.5652 C   0  0  0  0  0  0  0  0  0  0  0  0
  138.9045  137.0704  154.7805 C   0  0  0  0  0  0  0  0  0  0  0  0
  140.2254  136.9575  154.3057 C   0  0  0  0  0  0  0  0  0  0  0  0
  140.8032  138.0539  153.6206 C   0  0  0  0  0  0  0  0  0  0  0  0
  142.1279  138.0819  153.1034 N   0  0  0  0  0  0  0  0  0  0  0  0
  142.9755  137.0626  152.8799 C   0  0  0  0  0  0  0  0  0  0  0  0
  142.7267  135.8712  153.0598 O   0  0  0  0  0  0  0  0  0  0  0  0
  144.1503  137.5068  152.4109 N   0  0  0  0  0  0  0  0  0  0  0  0
  145.2887  136.6618  152.0707 C   0  0  0  0  0  0  0  0  0  0  0  0
  144.9002  135.5764  151.0487 C   0  0  0  0  0  0  0  0  0  0  0  0
  145.7539  134.3900  151.0573 N   0  0  0  0  0  0  0  0  0  0  0  0
  145.1118  133.2288  150.4449 C   0  0  0  0  0  0  0  0  0  0  0  0
  146.0157  131.9843  150.4877 C   0  0  0  0  0  0  0  0  0  0  0  0
  146.3889  131.7082  151.8335 O   0  0  0  0  0  0  0  0  0  0  0  0
  147.0607  132.8011  152.4510 C   0  0  0  0  0  0  0  0  0  0  0  0
  146.1570  134.0457  152.4168 C   0  0  0  0  0  0  0  0  0  0  0  0
  140.0165  139.2140  153.4635 C   0  0  0  0  0  0  0  0  0  0  0  0
  138.7507  139.3295  153.9172 N   0  0  0  0  0  0  0  0  0  0  0  0
  135.2308  137.4321  155.7673 H   0  0  0  0  0  0  0  0  0  0  0  0
  136.7486  136.6657  156.2227 H   0  0  0  0  0  0  0  0  0  0  0  0
  136.1212  136.5017  154.5668 H   0  0  0  0  0  0  0  0  0  0  0  0
  138.4399  136.2491  155.3059 H   0  0  0  0  0  0  0  0  0  0  0  0
  140.7606  136.0400  154.4900 H   0  0  0  0  0  0  0  0  0  0  0  0
  142.4672  138.9979  152.8492 H   0  0  0  0  0  0  0  0  0  0  0  0
  144.2699  138.5015  152.2882 H   0  0  0  0  0  0  0  0  0  0  0  0
  146.0641  137.3123  151.6680 H   0  0  0  0  0  0  0  0  0  0  0  0
  145.6991  136.2074  152.9743 H   0  0  0  0  0  0  0  0  0  0  0  0
  143.8764  135.2663  151.2626 H   0  0  0  0  0  0  0  0  0  0  0  0
  144.8780  136.0075  150.0466 H   0  0  0  0  0  0  0  0  0  0  0  0
  144.1737  133.0110  150.9576 H   0  0  0  0  0  0  0  0  0  0  0  0
  144.8599  133.4378  149.4057 H   0  0  0  0  0  0  0  0  0  0  0  0
  145.4910  131.1208  150.0786 H   0  0  0  0  0  0  0  0  0  0  0  0
  146.9088  132.1355  149.8791 H   0  0  0  0  0  0  0  0  0  0  0  0
  147.3025  132.5357  153.4802 H   0  0  0  0  0  0  0  0  0  0  0  0
  148.0046  132.9942  151.9386 H   0  0  0  0  0  0  0  0  0  0  0  0
  146.6852  134.8852  152.8704 H   0  0  0  0  0  0  0  0  0  0  0  0
  145.2729  133.8656  153.0306 H   0  0  0  0  0  0  0  0  0  0  0  0
  140.4142  140.0807  152.9559 H   0  0  0  0  0  0  0  0  0  0  0  0
  1  2  1  0  0  0  0
  1 21  1  0  0  0  0
  1 22  1  0  0  0  0
  1 23  1  0  0  0  0
  2  3  1  0  0  0  0
  3 20  1  0  0  0  0
  3  4  2  0  0  0  0
  4  5  1  0  0  0  0
  4 24  1  0  0  0  0
  5  6  2  0  0  0  0
  5 25  1  0  0  0  0
  6  7  1  0  0  0  0
  6 19  1  0  0  0  0
  7  8  1  0  0  0  0
  7 26  1  0  0  0  0
  8  9  2  0  0  0  0
  8 10  1  0  0  0  0
 10 11  1  0  0  0  0
 10 27  1  0  0  0  0
 11 12  1  0  0  0  0
 11 28  1  0  0  0  0
 11 29  1  0  0  0  0
 12 13  1  0  0  0  0
 12 30  1  0  0  0  0
 12 31  1  0  0  0  0
 13 18  1  0  0  0  0
 13 14  1  0  0  0  0
 14 15  1  0  0  0  0
 14 32  1  0  0  0  0
 14 33  1  0  0  0  0
 15 16  1  0  0  0  0
 15 34  1  0  0  0  0
 15 35  1  0  0  0  0
 16 17  1  0  0  0  0
 17 18  1  0  0  0  0
 17 36  1  0  0  0  0
 17 37  1  0  0  0  0
 18 38  1  0  0  0  0
 18 39  1  0  0  0  0
 19 20  2  0  0  0  0
 19 40  1  0  0  0  0
M  END
> <s_m_source_file>
AV-unprocessed.smi

> <i_m_source_file_index>
1197

> <i_lp_mmshare_version>
43012

> <i_f3d_flags>
0

> <s_epik_input>
W0NIM11PYzFbY0hdW2NIXWMoW2NIXW4xKVtOSF1DKD1PKVtOSF1bQ0gyXVtDSDJdTjJbQ0gyXVtDSDJdT1tDSDJdW0NIMl0y

> <s_epik_cmdline>
J2VwaWtfcHl0aG9uJywgJy1waCcsICc3LjAnLCAnLXRuJywgJzgnLCAnLW1hJywgJzIwMCcsICctbWV0YWxfYmluZGluZycsICctaW1hZScsICc8aW5maWxlLm1hZT4nLCAnLW9tYWUnLCAnPG91dGZpbGUubWFlPic=

> <r_lp_tautomer_probability>
1

> <r_epik_Ionization_Penalty>
0.266083

> <r_epik_Ionization_Penalty_Charging>
0

> <r_epik_Ionization_Penalty_Neutral>
0.266083

> <r_epik_State_Penalty>
0.257924

> <r_epik_Charging_Adjusted_Penalty>
0.257924

> <i_epik_Tot_Q>
0

> <i_epik_Tot_abs_Q>
0

> <r_epik_Metal_State_Penalty>
0.257922

> <b_epik_Metal_Only>
0

> <s_lp_Force_Field>
OPLS_2005

> <r_lp_Energy>
24.2104

> <b_lp_Chiralities_Consistent>
1

> <s_lp_Variant>
AV-unprocessed.smi:1197-1

> <Gold.Version>
5.8.1

> <Gold.Id.Protein>
6NUR|6NUR_protein|mol2

> <Gold.PLP.Fitness>
41.8072

> <Gold.PLP.PLP>
-34.2481

> <Gold.PLP.part.hbond>
-3.0000

> <Gold.PLP.part.metal>
0.0000

> <Gold.PLP.part.buried>
-4.1126

> <Gold.PLP.part.nonpolar>
-27.6330

> <Gold.PLP.part.repulsive>
0.6128

> <Gold.PLP.ligand.clash>
0.0088

> <Gold.PLP.ligand.torsion>
0.5965

> <Gold.PLP.Chemscore.Hbond>
2.0000

> <Gold.PLP.Chemscore.CHOScore>
0.8986

> <Gold.PLP.Chemscore.Metal>
0.0000

> <Gold.Chemscore.Hbonds>
donor molecule, donor type, donor heavy atom, donor atom, acceptor molecule, acceptor atom, score
      L1  H     7    26       P1 10175  1.00
      L1  H    10    27       P1 10175  0.99
      L1  C    19    40       P1 10160  0.99

> <Gold.PLP.Chemscore.Internal.Correction>
0.0650

> <Gold.Rescore>
     Score         DG    S(hbond)    S(metal)    S(lipo)     H(rot)  DE(clash)    DE(int)     intcor
     12.80     -15.55       1.94        0.00      69.24       1.76       0.06       2.70       ----

> <Gold.Chemscore.Fitness>
12.7952

> <Gold.Chemscore.DG>
-15.5509

> <Gold.Chemscore.ZeroCoef>
-5.4800

> <Gold.Chemscore.Hbond>
1.9407

> <Gold.Chemscore.Metal>
0.0000

> <Gold.Chemscore.Lipo>
69.2416

> <Gold.Chemscore.Internal_Hbond>
0.0000

> <Gold.Chemscore.DEClash>
0.0591

> <Gold.Chemscore.DEInternal>
2.6966

> <Gold.Chemscore.Rot>
1.7626

> <Gold.Chemscore.Internal.Correction>
   9.000000E+99

> <Gold.Chemscore.Hbonds>
donor molecule, donor type, donor heavy atom, donor atom, acceptor molecule, acceptor atom, score
      L1  H     7    26       P1 10175  1.00
      L1  H    10    27       P1 10175  0.90

> <Gold.Chemscore.Hbond.Weighted>
-6.4819

> <Gold.Chemscore.Metal.Weighted>
-0.0000

> <Gold.Chemscore.Lipo.Weighted>
-8.1013

> <Gold.Chemscore.Internal_Hbond.Weighted>
0.0000

> <Gold.Chemscore.DEClash.Weighted>
0.0591

> <Gold.Chemscore.DEInternal.Weighted>
2.6966

> <Gold.Chemscore.Rot.Weighted>
4.5123

> <Gold.Chemscore.Internal.Correction.Weighted>
   9.000000E+99

> <Gold.Protein.RotatedTorsions>
[ 6907 6896 6895 6894 ] final   29.22 input  -60.11 | X-H torsion
[ 7974 7965 7964 7962 ] final -126.80 input  175.53 | X-H torsion
[ 8008 7997 7996 7995 ] final  -70.99 input   59.86 | X-H torsion
[ 10167 10162 10161 10158 ] final   45.30 input  -65.29 | X-H torsion
[ 10718 10713 10712 10709 ] final  149.56 input   66.30 | X-H torsion
[ 10763 10752 10751 10750 ] final   87.88 input  -60.55 | X-H torsion
[ 11005 11000 10999 10996 ] final -166.00 input  -57.11 | X-H torsion

> <Gold.Protein.ActiveResidues>
 VAL166  LYS551  ARG553  GLY616  TRP617  ASP618  TYR619  PRO620  LYS621  CYS622 
 ASP623  PHE694  ASN695  SER759  ASP760  ASP761  ALA762  ILE779  LEU786  VAL792 
 PHE793  MET794  SER795  GLU796  ALA797  LYS798  CYS799  TRP800  GLU811  SER814 

> <Gold.Protein.RotatedAtoms>
  152.0284  134.9782  160.0571 H   0  0  0  0  0  0  0  0  0  0  0  0  # atno 6907 bound_to 6896
  152.1268  133.4380  159.4710 H   0  0  0  0  0  0  0  0  0  0  0  0  # atno 6908 bound_to 6896
  150.6853  134.2387  159.4507 H   0  0  0  0  0  0  0  0  0  0  0  0  # atno 6909 bound_to 6896
  144.9836  140.7664  143.4597 H   0  0  0  0  0  0  0  0  0  0  0  0  # atno 7974 bound_to 7965
  154.5054  140.0824  156.7883 H   0  0  0  0  0  0  0  0  0  0  0  0  # atno 8008 bound_to 7997
  155.3906  140.3432  155.4233 H   0  0  0  0  0  0  0  0  0  0  0  0  # atno 8009 bound_to 7997
  156.1509  140.1558  156.8759 H   0  0  0  0  0  0  0  0  0  0  0  0  # atno 8010 bound_to 7997
  140.3255  144.2653  150.6176 H   0  0  0  0  0  0  0  0  0  0  0  0  # atno 10167 bound_to 10162
  157.2946  131.0859  151.1436 H   0  0  0  0  0  0  0  0  0  0  0  0  # atno 10718 bound_to 10713
  153.1712  135.4527  154.9905 H   0  0  0  0  0  0  0  0  0  0  0  0  # atno 10763 bound_to 10752
  154.7967  135.3240  154.7651 H   0  0  0  0  0  0  0  0  0  0  0  0  # atno 10764 bound_to 10752
  153.8127  135.6953  153.4893 H   0  0  0  0  0  0  0  0  0  0  0  0  # atno 10765 bound_to 10752
  140.5694  134.5253  157.5159 H   0  0  0  0  0  0  0  0  0  0  0  0  # atno 11005 bound_to 11000
  145.2386  139.2082  143.5005 LP  0  0  0  0  0  0  0  0  0  0  0  0  # atno 17320 bound_to 7965
  146.3414  140.2277  142.8592 LP  0  0  0  0  0  0  0  0  0  0  0  0  # atno 17321 bound_to 7965
  140.5445  143.2217  151.8030 LP  0  0  0  0  0  0  0  0  0  0  0  0  # atno 17342 bound_to 10162
  139.4866  144.4558  151.9600 LP  0  0  0  0  0  0  0  0  0  0  0  0  # atno 17343 bound_to 10162
  157.2819  130.6754  149.6070 LP  0  0  0  0  0  0  0  0  0  0  0  0  # atno 17370 bound_to 10713
  155.9668  130.4447  150.5472 LP  0  0  0  0  0  0  0  0  0  0  0  0  # atno 17371 bound_to 10713
  139.9369  134.7858  156.0779 LP  0  0  0  0  0  0  0  0  0  0  0  0  # atno 17394 bound_to 11000
  141.1066  133.6658  156.2878 LP  0  0  0  0  0  0  0  0  0  0  0  0  # atno 17395 bound_to 11000

$$$$
