AV-unprocessed.smi:2276|AV-procd|sdf|9175|dock10
  -GOLD-   2272012393D 1   1.00000     0.00000
 Structure written by MMmdl.
 53 54  0  0  0  0  0  0  0  0  2 V2000
  151.9274  145.7247  160.3642 C   0  0  0  0  0  0  0  0  0  0  0  0
  151.8994  144.3422  159.7469 C   0  0  0  0  0  0  0  0  0  0  0  0
  152.6247  143.2797  160.3192 C   0  0  0  0  0  0  0  0  0  0  0  0
  152.5583  142.0179  159.6967 C   0  0  0  0  0  0  0  0  0  0  0  0
  153.3098  140.8299  160.2597 C   0  0  0  0  0  0  0  0  0  0  0  0
  151.8355  141.7844  158.5803 N   0  0  0  0  0  0  0  0  0  0  0  0
  151.1326  142.8000  158.0206 C   0  0  0  0  0  0  0  0  0  0  0  0
  150.3420  142.6589  156.8493 N   0  0  0  0  0  0  0  0  0  0  0  0
  150.1446  141.5542  156.1085 C   0  0  0  0  0  0  0  0  0  0  0  0
  150.6313  140.4463  156.3359 O   0  0  0  0  0  0  0  0  0  0  0  0
  149.3441  141.8067  155.0627 N   0  0  0  0  0  0  0  0  0  0  0  0
  148.9348  140.8256  154.0613 C   0  0  0  0  0  0  0  0  0  0  0  0
  147.4450  140.4285  154.1740 C   0  0  1  0  0  0  0  0  0  0  0  0
  146.5548  141.6644  153.9596 C   0  0  0  0  0  0  0  0  0  0  0  0
  147.0711  139.2924  153.1930 C   0  0  0  0  0  0  0  0  0  0  0  0
  145.6429  138.8971  153.2863 N   0  3  0  0  0  0  0  0  0  0  0  0
  145.1648  138.7253  154.6815 C   0  0  0  0  0  0  0  0  0  0  0  0
  143.6571  138.3965  154.7010 C   0  0  0  0  0  0  0  0  0  0  0  0
  143.3398  137.2050  153.9118 N   0  0  0  0  0  0  0  0  0  0  0  0
  143.7940  135.9669  154.5353 C   0  0  0  0  0  0  0  0  0  0  0  0
  143.8253  137.3701  152.5408 C   0  0  0  0  0  0  0  0  0  0  0  0
  145.3357  137.6837  152.4918 C   0  0  0  0  0  0  0  0  0  0  0  0
  151.1451  144.0966  158.5817 C   0  0  0  0  0  0  0  0  0  0  0  0
  152.3817  145.7067  161.3553 H   0  0  0  0  0  0  0  0  0  0  0  0
  150.9152  146.1177  160.4618 H   0  0  0  0  0  0  0  0  0  0  0  0
  152.5021  146.4057  159.7363 H   0  0  0  0  0  0  0  0  0  0  0  0
  153.2150  143.4278  161.2118 H   0  0  0  0  0  0  0  0  0  0  0  0
  153.8899  141.1091  161.1395 H   0  0  0  0  0  0  0  0  0  0  0  0
  153.9955  140.4263  159.5142 H   0  0  0  0  0  0  0  0  0  0  0  0
  152.6123  140.0428  160.5475 H   0  0  0  0  0  0  0  0  0  0  0  0
  149.8745  143.4980  156.5401 H   0  0  0  0  0  0  0  0  0  0  0  0
  148.9823  142.7432  154.9563 H   0  0  0  0  0  0  0  0  0  0  0  0
  149.1470  141.2235  153.0674 H   0  0  0  0  0  0  0  0  0  0  0  0
  149.5652  139.9434  154.1780 H   0  0  0  0  0  0  0  0  0  0  0  0
  147.2782  140.0877  155.1951 H   0  0  0  0  0  0  0  0  0  0  0  0
  146.6609  142.0602  152.9490 H   0  0  0  0  0  0  0  0  0  0  0  0
  146.8165  142.4614  154.6564 H   0  0  0  0  0  0  0  0  0  0  0  0
  145.5016  141.4317  154.1172 H   0  0  0  0  0  0  0  0  0  0  0  0
  147.2933  139.6312  152.1800 H   0  0  0  0  0  0  0  0  0  0  0  0
  147.6863  138.4065  153.3541 H   0  0  0  0  0  0  0  0  0  0  0  0
  145.7410  137.9468  155.1830 H   0  0  0  0  0  0  0  0  0  0  0  0
  145.3279  139.6407  155.2489 H   0  0  0  0  0  0  0  0  0  0  0  0
  143.3103  138.2602  155.7260 H   0  0  0  0  0  0  0  0  0  0  0  0
  143.0963  139.2399  154.2958 H   0  0  0  0  0  0  0  0  0  0  0  0
  143.4731  135.1083  153.9446 H   0  0  0  0  0  0  0  0  0  0  0  0
  143.3587  135.8637  155.5297 H   0  0  0  0  0  0  0  0  0  0  0  0
  144.8777  135.9203  154.6359 H   0  0  0  0  0  0  0  0  0  0  0  0
  143.6036  136.4720  151.9628 H   0  0  0  0  0  0  0  0  0  0  0  0
  143.2696  138.1834  152.0717 H   0  0  0  0  0  0  0  0  0  0  0  0
  145.6275  137.8477  151.4539 H   0  0  0  0  0  0  0  0  0  0  0  0
  145.9269  136.8406  152.8514 H   0  0  0  0  0  0  0  0  0  0  0  0
  150.5815  144.8982  158.1263 H   0  0  0  0  0  0  0  0  0  0  0  0
  145.1049  139.6472  152.8761 H   0  0  0  0  0  0  0  0  0  0  0  0
  1  2  1  0  0  0  0
  1 24  1  0  0  0  0
  1 25  1  0  0  0  0
  1 26  1  0  0  0  0
  2 23  1  0  0  0  0
  2  3  2  0  0  0  0
  3  4  1  0  0  0  0
  3 27  1  0  0  0  0
  4  5  1  0  0  0  0
  4  6  2  0  0  0  0
  5 28  1  0  0  0  0
  5 29  1  0  0  0  0
  5 30  1  0  0  0  0
  6  7  1  0  0  0  0
  7  8  1  0  0  0  0
  7 23  2  0  0  0  0
  8  9  1  0  0  0  0
  8 31  1  0  0  0  0
  9 10  2  0  0  0  0
  9 11  1  0  0  0  0
 11 12  1  0  0  0  0
 11 32  1  0  0  0  0
 12 13  1  0  0  0  0
 12 33  1  0  0  0  0
 12 34  1  0  0  0  0
 13 14  1  0  0  0  0
 13 15  1  0  0  0  0
 13 35  1  0  0  0  0
 14 36  1  0  0  0  0
 14 37  1  0  0  0  0
 14 38  1  0  0  0  0
 15 16  1  0  0  0  0
 15 39  1  0  0  0  0
 15 40  1  0  0  0  0
 16 22  1  0  0  0  0
 16 17  1  0  0  0  0
 16 53  1  0  0  0  0
 17 18  1  0  0  0  0
 17 41  1  0  0  0  0
 17 42  1  0  0  0  0
 18 19  1  0  0  0  0
 18 43  1  0  0  0  0
 18 44  1  0  0  0  0
 19 20  1  0  0  0  0
 19 21  1  0  0  0  0
 20 45  1  0  0  0  0
 20 46  1  0  0  0  0
 20 47  1  0  0  0  0
 21 22  1  0  0  0  0
 21 48  1  0  0  0  0
 21 49  1  0  0  0  0
 22 50  1  0  0  0  0
 22 51  1  0  0  0  0
 23 52  1  0  0  0  0
M  CHG  1  16   1
M  END
> <s_m_source_file>
AV-unprocessed.smi

> <i_m_source_file_index>
2276

> <i_lp_mmshare_version>
43012

> <i_f3d_flags>
0

> <s_epik_input>
W0NIM11jMVtjSF1jKFtDSDNdKW5jKFtjSF0xKVtOSF1DKD1PKVtOSF1bQ0gyXVtDQEhdKFtDSDNdKVtDSDJdTjJbQ0gyXVtDSDJdTihbQ0gzXSlbQ0gyXVtDSDJdMg==

> <s_epik_cmdline>
J2VwaWtfcHl0aG9uJywgJy1waCcsICc3LjAnLCAnLXRuJywgJzgnLCAnLW1hJywgJzIwMCcsICctbWV0YWxfYmluZGluZycsICctaW1hZScsICc8aW5maWxlLm1hZT4nLCAnLW9tYWUnLCAnPG91dGZpbGUubWFlPic=

> <r_epik_Ionization_Penalty>
0.0485334

> <r_epik_Ionization_Penalty_Charging>
0.0462531

> <r_epik_Ionization_Penalty_Neutral>
0.00228028

> <r_epik_State_Penalty>
0.692588

> <r_epik_Charging_Adjusted_Penalty>
0.738841

> <i_epik_Tot_Q>
1

> <i_epik_Tot_abs_Q>
1

> <r_epik_Metal_State_Penalty>
0.692605

> <b_epik_Metal_Only>
0

> <s_lp_Force_Field>
OPLS_2005

> <r_lp_Energy>
21.6891

> <b_lp_Chiralities_Consistent>
1

> <s_lp_Variant>
AV-unprocessed.smi:2276-4

> <Gold.Version>
5.8.1

> <Gold.Id.Protein>
6NUR|6NUR_protein|mol2

> <Gold.PLP.Fitness>
56.4961

> <Gold.PLP.PLP>
-44.8955

> <Gold.PLP.part.hbond>
-3.0000

> <Gold.PLP.part.metal>
0.0000

> <Gold.PLP.part.buried>
-4.9470

> <Gold.PLP.part.nonpolar>
-38.5696

> <Gold.PLP.part.repulsive>
0.3519

> <Gold.PLP.ligand.clash>
0.0000

> <Gold.PLP.ligand.torsion>
0.1334

> <Gold.PLP.Chemscore.Hbond>
3.9280

> <Gold.PLP.Chemscore.CHOScore>
0.0000

> <Gold.PLP.Chemscore.Metal>
0.0000

> <Gold.Chemscore.Hbonds>
donor molecule, donor type, donor heavy atom, donor atom, acceptor molecule, acceptor atom, score
      L1  H     8    31       P1  8028  1.00
      L1  H    11    32       P1  8028  0.85
      L1  H    16    53       P1 10175  2.00

> <Gold.PLP.Chemscore.Internal.Correction>
0.0834

> <Gold.Rescore>
     Score         DG    S(hbond)    S(metal)    S(lipo)     H(rot)  DE(clash)    DE(int)     intcor
     21.83     -23.56       2.93        0.00     106.39       1.63       0.15       1.58       ----

> <Gold.Chemscore.Fitness>
21.8287

> <Gold.Chemscore.DG>
-23.5616

> <Gold.Chemscore.ZeroCoef>
-5.4800

> <Gold.Chemscore.Hbond>
2.9347

> <Gold.Chemscore.Metal>
0.0000

> <Gold.Chemscore.Lipo>
106.3906

> <Gold.Chemscore.Internal_Hbond>
0.0000

> <Gold.Chemscore.DEClash>
0.1543

> <Gold.Chemscore.DEInternal>
1.5786

> <Gold.Chemscore.Rot>
1.6282

> <Gold.Chemscore.Internal.Correction>
   9.000000E+99

> <Gold.Chemscore.Hbonds>
donor molecule, donor type, donor heavy atom, donor atom, acceptor molecule, acceptor atom, score
      L1  H     8    31       P1  8028  1.00
      L1  H    11    32       P1  8028  0.79
      L1  H    16    53       P1 10175  0.98

> <Gold.Chemscore.Hbond.Weighted>
-9.8021

> <Gold.Chemscore.Metal.Weighted>
-0.0000

> <Gold.Chemscore.Lipo.Weighted>
-12.4477

> <Gold.Chemscore.Internal_Hbond.Weighted>
0.0000

> <Gold.Chemscore.DEClash.Weighted>
0.1543

> <Gold.Chemscore.DEInternal.Weighted>
1.5786

> <Gold.Chemscore.Rot.Weighted>
4.1682

> <Gold.Chemscore.Internal.Correction.Weighted>
   9.000000E+99

> <Gold.Protein.RotatedTorsions>
[ 6907 6896 6895 6894 ] final -144.94 input  -60.11 | X-H torsion
[ 7974 7965 7964 7962 ] final  132.71 input  175.53 | X-H torsion
[ 8008 7997 7996 7995 ] final  -61.09 input   59.86 | X-H torsion
[ 10167 10162 10161 10158 ] final  -60.83 input  -65.29 | X-H torsion
[ 10718 10713 10712 10709 ] final  -85.45 input   66.30 | X-H torsion
[ 10763 10752 10751 10750 ] final -129.35 input  -60.55 | X-H torsion
[ 11005 11000 10999 10996 ] final  -90.46 input  -57.11 | X-H torsion

> <Gold.Protein.ActiveResidues>
 VAL166  LYS551  ARG553  GLY616  TRP617  ASP618  TYR619  PRO620  LYS621  CYS622 
 ASP623  PHE694  ASN695  SER759  ASP760  ASP761  ALA762  ILE779  LEU786  VAL792 
 PHE793  MET794  SER795  GLU796  ALA797  LYS798  CYS799  TRP800  GLU811  SER814 

> <Gold.Protein.RotatedAtoms>
  151.1209  133.5104  159.2601 H   0  0  0  0  0  0  0  0  0  0  0  0  # atno 6907 bound_to 6896
  151.1862  135.0382  159.8823 H   0  0  0  0  0  0  0  0  0  0  0  0  # atno 6908 bound_to 6896
  152.5455  134.1055  159.8389 H   0  0  0  0  0  0  0  0  0  0  0  0  # atno 6909 bound_to 6896
  144.9940  139.4378  143.5325 H   0  0  0  0  0  0  0  0  0  0  0  0  # atno 7974 bound_to 7965
  154.4430  140.1025  156.6376 H   0  0  0  0  0  0  0  0  0  0  0  0  # atno 8008 bound_to 7997
  155.5537  140.3486  155.4456 H   0  0  0  0  0  0  0  0  0  0  0  0  # atno 8009 bound_to 7997
  156.0510  140.1304  157.0039 H   0  0  0  0  0  0  0  0  0  0  0  0  # atno 8010 bound_to 7997
  140.6046  143.2370  151.5851 H   0  0  0  0  0  0  0  0  0  0  0  0  # atno 10167 bound_to 10162
  155.9997  130.4731  150.4564 H   0  0  0  0  0  0  0  0  0  0  0  0  # atno 10718 bound_to 10713
  154.8757  135.3898  154.3906 H   0  0  0  0  0  0  0  0  0  0  0  0  # atno 10763 bound_to 10752
  153.4642  135.7029  153.6037 H   0  0  0  0  0  0  0  0  0  0  0  0  # atno 10764 bound_to 10752
  153.4522  135.3831  155.2259 H   0  0  0  0  0  0  0  0  0  0  0  0  # atno 10765 bound_to 10752
  141.1565  133.7693  156.9741 H   0  0  0  0  0  0  0  0  0  0  0  0  # atno 11005 bound_to 11000
  146.3437  139.9288  142.8756 LP  0  0  0  0  0  0  0  0  0  0  0  0  # atno 17320 bound_to 7965
  145.2246  140.9949  143.4026 LP  0  0  0  0  0  0  0  0  0  0  0  0  # atno 17321 bound_to 7965
  139.5315  144.2902  152.1158 LP  0  0  0  0  0  0  0  0  0  0  0  0  # atno 17342 bound_to 10162
  140.2089  144.4583  150.6395 LP  0  0  0  0  0  0  0  0  0  0  0  0  # atno 17343 bound_to 10162
  157.2592  131.0563  151.2331 LP  0  0  0  0  0  0  0  0  0  0  0  0  # atno 17370 bound_to 10713
  157.3452  130.7053  149.6406 LP  0  0  0  0  0  0  0  0  0  0  0  0  # atno 17371 bound_to 10713
  140.1110  134.9477  157.2065 LP  0  0  0  0  0  0  0  0  0  0  0  0  # atno 17394 bound_to 11000
  140.3194  134.2933  155.7249 LP  0  0  0  0  0  0  0  0  0  0  0  0  # atno 17395 bound_to 11000

$$$$
