AV-unprocessed.smi:2761|AV-procd|sdf|10632|dock3
  -GOLD-   2272015 83D 1   1.00000     0.00000
 Structure written by MMmdl.
 27 28  0  0  0  0  0  0  0  0  1 V2000
  153.3214  140.3549  159.5434 O   0  0  0  0  0  0  0  0  0  0  0  0
  152.7994  141.2351  158.8558 C   0  0  0  0  0  0  0  0  0  0  0  0
  152.1826  141.0272  157.6716 N   0  0  0  0  0  0  0  0  0  0  0  0
  151.9870  139.8189  156.9937 C   0  0  0  0  0  0  0  0  0  0  0  0
  151.7757  140.0306  155.5818 C   0  0  0  0  0  0  0  0  0  0  0  0
  151.5723  138.9424  154.8081 C   0  0  0  0  0  0  0  0  0  0  0  0
  151.5671  137.5978  155.3831 C   0  0  0  0  0  0  0  0  0  0  0  0
  151.3894  136.5648  154.7420 O   0  0  0  0  0  0  0  0  0  0  0  0
  151.7818  137.5862  156.7254 N   0  0  0  0  0  0  0  0  0  0  0  0
  151.9975  138.6585  157.5831 N   0  0  0  0  0  0  0  0  0  0  0  0
  152.8504  142.6962  159.3305 C   0  0  2  0  0  0  0  0  0  0  0  0
  152.2047  142.8959  160.7215 C   0  0  0  0  0  0  0  0  0  0  0  0
  152.2570  144.2727  161.0723 O   0  0  0  0  0  0  0  0  0  0  0  0
  151.5637  145.0757  160.1278 C   0  0  0  0  0  0  0  0  0  0  0  0
  152.2133  144.8916  158.7474 C   0  0  0  0  0  0  0  0  0  0  0  0
  152.1585  143.5169  158.3907 O   0  0  0  0  0  0  0  0  0  0  0  0
  151.8123  141.8578  157.2330 H   0  0  0  0  0  0  0  0  0  0  0  0
  151.7730  141.0089  155.1229 H   0  0  0  0  0  0  0  0  0  0  0  0
  151.4107  139.0644  153.7473 H   0  0  0  0  0  0  0  0  0  0  0  0
  151.7923  136.6923  157.1954 H   0  0  0  0  0  0  0  0  0  0  0  0
  153.8997  142.9944  159.3649 H   0  0  0  0  0  0  0  0  0  0  0  0
  151.1703  142.5475  160.7309 H   0  0  0  0  0  0  0  0  0  0  0  0
  152.7417  142.3297  161.4833 H   0  0  0  0  0  0  0  0  0  0  0  0
  150.5076  144.8028  160.1015 H   0  0  0  0  0  0  0  0  0  0  0  0
  151.6198  146.1193  160.4377 H   0  0  0  0  0  0  0  0  0  0  0  0
  151.6809  145.4758  157.9968 H   0  0  0  0  0  0  0  0  0  0  0  0
  153.2473  145.2395  158.7529 H   0  0  0  0  0  0  0  0  0  0  0  0
  1  2  2  0  0  0  0
  2  3  1  0  0  0  0
  2 11  1  0  0  0  0
  3 17  1  0  0  0  0
  3  4  1  0  0  0  0
  4  5  1  0  0  0  0
  4 10  2  0  0  0  0
  5  6  2  0  0  0  0
  5 18  1  0  0  0  0
  6  7  1  0  0  0  0
  6 19  1  0  0  0  0
  7  8  2  0  0  0  0
  7  9  1  0  0  0  0
  9 10  1  0  0  0  0
  9 20  1  0  0  0  0
 11 16  1  0  0  0  0
 11 12  1  0  0  0  0
 11 21  1  0  0  0  0
 12 13  1  0  0  0  0
 12 22  1  0  0  0  0
 12 23  1  0  0  0  0
 13 14  1  0  0  0  0
 14 15  1  0  0  0  0
 14 24  1  0  0  0  0
 14 25  1  0  0  0  0
 15 16  1  0  0  0  0
 15 26  1  0  0  0  0
 15 27  1  0  0  0  0
M  END
> <s_m_source_file>
AV-unprocessed.smi

> <i_m_source_file_index>
2761

> <i_lp_mmshare_version>
43012

> <i_f3d_flags>
0

> <s_epik_input>
TzFbQ0gyXVtDSDJdT1tDSDJdW0NASF0xQyg9TylbTkhdYzJbY0hdW2NIXWMoW09IXSlubjI=

> <s_epik_cmdline>
J2VwaWtfcHl0aG9uJywgJy1waCcsICc3LjAnLCAnLXRuJywgJzgnLCAnLW1hJywgJzIwMCcsICctbWV0YWxfYmluZGluZycsICctaW1hZScsICc8aW5maWxlLm1hZT4nLCAnLW9tYWUnLCAnPG91dGZpbGUubWFlPic=

> <r_lp_tautomer_probability>
1

> <r_epik_Ionization_Penalty>
0.000593199

> <r_epik_Ionization_Penalty_Charging>
0.000590119

> <r_epik_Ionization_Penalty_Neutral>
3.08036e-06

> <r_epik_State_Penalty>
-0

> <r_epik_Charging_Adjusted_Penalty>
0.000590119

> <i_epik_Tot_Q>
0

> <i_epik_Tot_abs_Q>
0

> <r_epik_Metal_State_Penalty>
0.240077

> <b_epik_Metal_Only>
0

> <s_lp_Force_Field>
OPLS_2005

> <r_lp_Energy>
26.3482

> <b_lp_Chiralities_Consistent>
1

> <s_lp_Variant>
AV-unprocessed.smi:2761-1

> <Gold.Version>
5.8.1

> <Gold.Id.Protein>
6NUR|6NUR_protein|mol2

> <Gold.PLP.Fitness>
34.1815

> <Gold.PLP.PLP>
-31.4157

> <Gold.PLP.part.hbond>
-1.0000

> <Gold.PLP.part.metal>
0.0000

> <Gold.PLP.part.buried>
-3.6032

> <Gold.PLP.part.nonpolar>
-26.5188

> <Gold.PLP.part.repulsive>
0.4938

> <Gold.PLP.ligand.clash>
0.0000

> <Gold.PLP.ligand.torsion>
0.1178

> <Gold.PLP.Chemscore.Hbond>
1.0000

> <Gold.PLP.Chemscore.CHOScore>
0.0000

> <Gold.PLP.Chemscore.Metal>
0.0000

> <Gold.Chemscore.Hbonds>
donor molecule, donor type, donor heavy atom, donor atom, acceptor molecule, acceptor atom, score
      P1  H 10752 10764       L1     8  1.00

> <Gold.PLP.Chemscore.Internal.Correction>
0.0015

> <Gold.Rescore>
     Score         DG    S(hbond)    S(metal)    S(lipo)     H(rot)  DE(clash)    DE(int)     intcor
     12.34     -13.74       0.98        0.00      64.41       1.00       0.05       1.35       ----

> <Gold.Chemscore.Fitness>
12.3367

> <Gold.Chemscore.DG>
-13.7384

> <Gold.Chemscore.ZeroCoef>
-5.4800

> <Gold.Chemscore.Hbond>
0.9827

> <Gold.Chemscore.Metal>
0.0000

> <Gold.Chemscore.Lipo>
64.4131

> <Gold.Chemscore.Internal_Hbond>
0.0000

> <Gold.Chemscore.DEClash>
0.0482

> <Gold.Chemscore.DEInternal>
1.3536

> <Gold.Chemscore.Rot>
1.0000

> <Gold.Chemscore.Internal.Correction>
   9.000000E+99

> <Gold.Chemscore.Hbonds>
donor molecule, donor type, donor heavy atom, donor atom, acceptor molecule, acceptor atom, score
      P1  H 10752 10764       L1     8  0.88

> <Gold.Chemscore.Hbond.Weighted>
-3.2821

> <Gold.Chemscore.Metal.Weighted>
-0.0000

> <Gold.Chemscore.Lipo.Weighted>
-7.5363

> <Gold.Chemscore.Internal_Hbond.Weighted>
0.0000

> <Gold.Chemscore.DEClash.Weighted>
0.0482

> <Gold.Chemscore.DEInternal.Weighted>
1.3536

> <Gold.Chemscore.Rot.Weighted>
2.5600

> <Gold.Chemscore.Internal.Correction.Weighted>
   9.000000E+99

> <Gold.Protein.RotatedTorsions>
[ 6907 6896 6895 6894 ] final  -29.04 input  -60.11 | X-H torsion
[ 7974 7965 7964 7962 ] final   67.35 input  175.53 | X-H torsion
[ 8008 7997 7996 7995 ] final  -51.69 input   59.86 | X-H torsion
[ 10167 10162 10161 10158 ] final   23.48 input  -65.29 | X-H torsion
[ 10718 10713 10712 10709 ] final  -50.55 input   66.30 | X-H torsion
[ 10763 10752 10751 10750 ] final  -72.68 input  -60.55 | X-H torsion
[ 11005 11000 10999 10996 ] final  -70.41 input  -57.11 | X-H torsion

> <Gold.Protein.ActiveResidues>
 VAL166  LYS551  ARG553  GLY616  TRP617  ASP618  TYR619  PRO620  LYS621  CYS622 
 ASP623  PHE694  ASN695  SER759  ASP760  ASP761  ALA762  ILE779  LEU786  VAL792 
 PHE793  MET794  SER795  GLU796  ALA797  LYS798  CYS799  TRP800  GLU811  SER814 

> <Gold.Protein.RotatedAtoms>
  151.1246  135.0098  159.8554 H   0  0  0  0  0  0  0  0  0  0  0  0  # atno 6907 bound_to 6896
  152.5449  134.1682  159.8596 H   0  0  0  0  0  0  0  0  0  0  0  0  # atno 6908 bound_to 6896
  151.1743  133.4720  159.2627 H   0  0  0  0  0  0  0  0  0  0  0  0  # atno 6909 bound_to 6896
  145.8157  139.3057  143.1073 H   0  0  0  0  0  0  0  0  0  0  0  0  # atno 7974 bound_to 7965
  154.4089  140.1242  156.4870 H   0  0  0  0  0  0  0  0  0  0  0  0  # atno 8008 bound_to 7997
  155.7028  140.3494  155.4920 H   0  0  0  0  0  0  0  0  0  0  0  0  # atno 8009 bound_to 7997
  155.9370  140.1080  157.1076 H   0  0  0  0  0  0  0  0  0  0  0  0  # atno 8010 bound_to 7997
  140.5266  143.9913  150.6443 H   0  0  0  0  0  0  0  0  0  0  0  0  # atno 10167 bound_to 10162
  156.1790  130.4150  149.9534 H   0  0  0  0  0  0  0  0  0  0  0  0  # atno 10718 bound_to 10713
  154.4490  135.5922  153.6179 H   0  0  0  0  0  0  0  0  0  0  0  0  # atno 10763 bound_to 10752
  152.9812  135.6016  154.3628 H   0  0  0  0  0  0  0  0  0  0  0  0  # atno 10764 bound_to 10752
  154.3487  135.2841  155.2362 H   0  0  0  0  0  0  0  0  0  0  0  0  # atno 10765 bound_to 10752
  141.1573  133.6789  156.6748 H   0  0  0  0  0  0  0  0  0  0  0  0  # atno 11005 bound_to 11000
  145.9729  140.8745  143.0153 LP  0  0  0  0  0  0  0  0  0  0  0  0  # atno 17320 bound_to 7965
  144.6752  140.1972  143.7391 LP  0  0  0  0  0  0  0  0  0  0  0  0  # atno 17321 bound_to 7965
  140.3277  143.3097  152.0720 LP  0  0  0  0  0  0  0  0  0  0  0  0  # atno 17342 bound_to 10162
  139.4940  144.6531  151.6632 LP  0  0  0  0  0  0  0  0  0  0  0  0  # atno 17343 bound_to 10162
  156.7310  130.9043  151.3626 LP  0  0  0  0  0  0  0  0  0  0  0  0  # atno 17370 bound_to 10713
  157.6855  130.9182  150.0377 LP  0  0  0  0  0  0  0  0  0  0  0  0  # atno 17371 bound_to 10713
  140.3147  134.8057  157.4204 LP  0  0  0  0  0  0  0  0  0  0  0  0  # atno 17394 bound_to 11000
  140.1148  134.5297  155.8234 LP  0  0  0  0  0  0  0  0  0  0  0  0  # atno 17395 bound_to 11000

$$$$
