#       Name:                AV-unprocessed.smi:1392
#       Creating user name   scv26
#       Creation time:       Fri Mar 27 05:28:32 2020


#       File generated by GOLD software.
#

@<TRIPOS>MOLECULE
AV-unprocessed.smi:1392
    44    45     1
SMALL
NO_CHARGES


@<TRIPOS>ATOM
      1 ****        -5.8590  -0.4531  -2.6521 C.3            1 S1                 0.0000
      2 ****        -5.1842  -0.0785  -1.4164 N.pl3          1 S1                 0.0000
      3 ****        -5.9464   0.4552  -0.2930 C.3            1 S1                 0.0000
      4 ****        -3.7894  -0.2596  -1.2949 C.ar           1 S1                 0.0000
      5 ****        -2.9810  -0.7808  -2.3346 C.ar           1 S1                 0.0000
      6 ****        -1.5936  -0.9333  -2.1352 C.ar           1 S1                 0.0000
      7 ****        -1.0167  -0.5739  -0.8994 C.ar           1 S1                 0.0000
      8 ****         0.3880  -0.7393  -0.7528 N.am           1 S1                 0.0000
      9 ****         1.1203  -0.7526   0.3747 C.2            1 S1                 0.0000
     10 ****         0.6760  -0.6226   1.5150 O.2            1 S1                 0.0000
     11 ****         2.4199  -0.9432   0.1064 N.am           1 S1                 0.0000
     12 ****         3.4783  -1.0208   1.1081 C.3            1 S1                 0.0000
     13 ****         3.9241   0.3736   1.5871 C.3            1 S1                 0.0000
     14 ****         5.0529   0.3448   2.5966 C.3            1 S1                 0.0000
     15 ****         5.5721   1.7760   2.5185 C.3            1 S1                 0.0000
     16 ****         5.4035   2.1678   1.1597 O.3            1 S1                 0.0000
     17 ****         4.5195   1.2677   0.4963 C.3            1 S1                 0.0000
     18 ****        -1.8641  -0.0469   0.1044 C.ar           1 S1                 0.0000
     19 ****        -3.1879   0.0833  -0.1296 N.pl3          1 S1                 1.0000
     20 ****        -5.4652   0.1190  -3.4926 H              1 S1                 0.0000
     21 ****        -6.9305  -0.2611  -2.5923 H              1 S1                 0.0000
     22 ****        -5.7221  -1.5154  -2.8574 H              1 S1                 0.0000
     23 ****        -5.5914   1.4516  -0.0277 H              1 S1                 0.0000
     24 ****        -5.8484  -0.1923   0.5790 H              1 S1                 0.0000
     25 ****        -7.0071   0.5325  -0.5333 H              1 S1                 0.0000
     26 ****        -3.4023  -1.0674  -3.2865 H              1 S1                 0.0000
     27 ****        -0.9792  -1.3301  -2.9303 H              1 S1                 0.0000
     28 ****         0.8935  -0.9189  -1.6079 H              1 S1                 0.0000
     29 ****         2.6995  -1.0448  -0.8583 H              1 S1                 0.0000
     30 ****         3.1458  -1.6227   1.9555 H              1 S1                 0.0000
     31 ****         4.3216  -1.5533   0.6670 H              1 S1                 0.0000
     32 ****         3.0779   0.8930   2.0405 H              1 S1                 0.0000
     33 ****         4.7250   0.0662   3.5985 H              1 S1                 0.0000
     34 ****         5.8305  -0.3534   2.2835 H              1 S1                 0.0000
     35 ****         4.9696   2.4327   3.1471 H              1 S1                 0.0000
     36 ****         6.6116   1.8629   2.8352 H              1 S1                 0.0000
     37 ****         5.1018   0.6791  -0.2137 H              1 S1                 0.0000
     38 ****         3.7527   1.8056  -0.0616 H              1 S1                 0.0000
     39 ****        -1.5448   0.2864   1.0801 H              1 S1                 0.0000
     40 ****        -3.7690   0.4648   0.6171 H              1 S1                 0.0000
     41 ****        -0.3055  -0.4942   1.6576 LP             1 S1                 0.0000
     42 ****         1.2964  -0.6453   2.2989 LP             1 S1                 0.0000
     43 ****         6.2915   2.1582   0.7001 LP             1 S1                 0.0000
     44 ****         5.0212   3.0913   1.1268 LP             1 S1                 0.0000
@<TRIPOS>BOND
    1    1    2 1     
    2    1   20 1     
    3    1   21 1     
    4    1   22 1     
    5    2    3 1     
    6    2    4 1     
    7    3   23 1     
    8    3   24 1     
    9    3   25 1     
   10    4   19 ar    
   11    4    5 ar    
   12    5    6 ar    
   13    5   26 1     
   14    6    7 ar    
   15    6   27 1     
   16    7    8 1     
   17    7   18 ar    
   18    8    9 am    
   19    8   28 1     
   20    9   10 2     
   21    9   11 am    
   22   11   12 1     
   23   11   29 1     
   24   12   13 1     
   25   12   30 1     
   26   12   31 1     
   27   13   17 1     
   28   13   14 1     
   29   13   32 1     
   30   14   15 1     
   31   14   33 1     
   32   14   34 1     
   33   15   16 1     
   34   15   35 1     
   35   15   36 1     
   36   16   17 1     
   37   17   37 1     
   38   17   38 1     
   39   18   19 ar    
   40   18   39 1     
   41   19   40 1     
   42   10   41 1     
   43   10   42 1     
   44   16   43 1     
   45   16   44 1     
@<TRIPOS>SUBSTRUCTURE
      1 S1             1
@<TRIPOS>SET
LONE_PAIRS      STATIC     ATOMS    <user>   **** ""
4 41 42 43 44
DONOR_HYDROGENS      STATIC     ATOMS    <user>   **** ""
3 28 29 40
ATOM$BLUE        STATIC     ATOMS    COLORGROUP SYSTEM
4 41 42 43 44
ATOM$RED        STATIC     ATOMS    COLORGROUP SYSTEM
3 28 29 40
