AV-unprocessed.smi:175|AV-procd|sdf|1431|dock2
  -GOLD-   2262019213D 1   1.00000     0.00000
 Structure written by MMmdl.
 47 50  0  0  0  0  0  0  0  0  1 V2000
  147.0895  140.5749  153.1849 C   0  0  0  0  0  0  0  0  0  0  0  0
  147.6582  140.3632  154.5976 C   0  0  2  0  0  0  0  0  0  0  0  0
  147.1288  141.3296  155.4946 O   0  0  0  0  0  0  0  0  0  0  0  0
  147.9830  141.3657  156.6233 C   0  0  0  0  0  0  0  0  0  0  0  0
  149.3682  141.3519  155.9901 C   0  0  0  0  0  0  0  0  0  0  0  0
  149.1998  140.4574  154.7585 C   0  0  2  0  0  0  0  0  0  0  0  0
  149.8087  141.1062  153.6543 O   0  0  0  0  0  0  0  0  0  0  0  0
  149.8771  139.0772  154.9496 C   0  0  0  0  0  0  0  0  0  0  0  0
  150.8599  139.0531  156.0226 N   0  0  0  0  0  0  0  0  0  0  0  0
  152.0220  139.7893  156.0975 C   0  0  0  0  0  0  0  0  0  0  0  0
  152.7384  139.5943  157.1713 N   0  0  0  0  0  0  0  0  0  0  0  0
  152.0207  138.6430  157.8838 C   0  0  0  0  0  0  0  0  0  0  0  0
  152.2195  137.9838  159.1239 C   0  0  0  0  0  0  0  0  0  0  0  0
  153.3000  138.2284  159.8978 N   0  0  0  0  0  0  0  0  0  0  0  0
  153.4937  139.6240  160.2922 C   0  0  0  0  0  0  0  0  0  0  0  0
  153.7603  139.5201  161.7806 C   0  0  0  0  0  0  0  0  0  0  0  0
  153.9940  140.4940  162.4943 O   0  0  0  0  0  0  0  0  0  0  0  0
  153.7072  138.2444  162.1676 N   0  0  0  0  0  0  0  0  0  0  0  0
  153.9223  137.7287  163.5177 C   0  0  0  0  0  0  0  0  0  0  0  0
  155.2746  138.1699  164.1056 C   0  0  0  0  0  0  0  0  0  0  0  0
  156.2293  137.9606  163.2000 F   0  0  0  0  0  0  0  0  0  0  0  0
  155.2655  139.4654  164.4179 F   0  0  0  0  0  0  0  0  0  0  0  0
  155.5601  137.4579  165.1958 F   0  0  0  0  0  0  0  0  0  0  0  0
  153.4398  137.3463  161.0569 C   0  0  0  0  0  0  0  0  0  0  0  0
  151.2896  137.0752  159.5207 N   0  0  0  0  0  0  0  0  0  0  0  0
  150.2257  136.8318  158.7490 C   0  0  0  0  0  0  0  0  0  0  0  0
  149.9069  137.3729  157.5705 N   0  0  0  0  0  0  0  0  0  0  0  0
  150.8414  138.2847  157.1736 C   0  0  0  0  0  0  0  0  0  0  0  0
  147.4971  139.8464  152.4834 H   0  0  0  0  0  0  0  0  0  0  0  0
  147.3165  141.5722  152.8073 H   0  0  0  0  0  0  0  0  0  0  0  0
  146.0050  140.4635  153.1849 H   0  0  0  0  0  0  0  0  0  0  0  0
  147.3147  139.3961  154.9669 H   0  0  0  0  0  0  0  0  0  0  0  0
  147.8073  142.2504  157.2356 H   0  0  0  0  0  0  0  0  0  0  0  0
  147.8225  140.4793  157.2391 H   0  0  0  0  0  0  0  0  0  0  0  0
  149.6281  142.3718  155.7007 H   0  0  0  0  0  0  0  0  0  0  0  0
  150.1372  141.0045  156.6810 H   0  0  0  0  0  0  0  0  0  0  0  0
  149.8354  140.5028  152.9276 H   0  0  0  0  0  0  0  0  0  0  0  0
  149.1270  138.3128  155.1569 H   0  0  0  0  0  0  0  0  0  0  0  0
  150.3735  138.7718  154.0274 H   0  0  0  0  0  0  0  0  0  0  0  0
  152.3227  140.4855  155.3283 H   0  0  0  0  0  0  0  0  0  0  0  0
  154.3592  140.0443  159.7795 H   0  0  0  0  0  0  0  0  0  0  0  0
  152.6300  140.2633  160.1021 H   0  0  0  0  0  0  0  0  0  0  0  0
  153.1126  138.0742  164.1619 H   0  0  0  0  0  0  0  0  0  0  0  0
  153.8570  136.6394  163.5061 H   0  0  0  0  0  0  0  0  0  0  0  0
  152.5479  136.7493  161.2571 H   0  0  0  0  0  0  0  0  0  0  0  0
  154.2799  136.6676  160.9061 H   0  0  0  0  0  0  0  0  0  0  0  0
  149.5302  136.0987  159.1303 H   0  0  0  0  0  0  0  0  0  0  0  0
  1  2  1  0  0  0  0
  1 29  1  0  0  0  0
  1 30  1  0  0  0  0
  1 31  1  0  0  0  0
  2  6  1  0  0  0  0
  2  3  1  0  0  0  0
  2 32  1  0  0  0  0
  3  4  1  0  0  0  0
  4  5  1  0  0  0  0
  4 33  1  0  0  0  0
  4 34  1  0  0  0  0
  5  6  1  0  0  0  0
  5 35  1  0  0  0  0
  5 36  1  0  0  0  0
  6  7  1  0  0  0  0
  6  8  1  0  0  0  0
  7 37  1  0  0  0  0
  8  9  1  0  0  0  0
  8 38  1  0  0  0  0
  8 39  1  0  0  0  0
  9 28  1  0  0  0  0
  9 10  1  0  0  0  0
 10 11  2  0  0  0  0
 10 40  1  0  0  0  0
 11 12  1  0  0  0  0
 12 28  2  0  0  0  0
 12 13  1  0  0  0  0
 13 14  1  0  0  0  0
 13 25  2  0  0  0  0
 14 24  1  0  0  0  0
 14 15  1  0  0  0  0
 15 16  1  0  0  0  0
 15 41  1  0  0  0  0
 15 42  1  0  0  0  0
 16 17  2  0  0  0  0
 16 18  1  0  0  0  0
 18 19  1  0  0  0  0
 18 24  1  0  0  0  0
 19 20  1  0  0  0  0
 19 43  1  0  0  0  0
 19 44  1  0  0  0  0
 20 21  1  0  0  0  0
 20 22  1  0  0  0  0
 20 23  1  0  0  0  0
 24 45  1  0  0  0  0
 24 46  1  0  0  0  0
 25 26  1  0  0  0  0
 26 27  2  0  0  0  0
 26 47  1  0  0  0  0
 27 28  1  0  0  0  0
M  END
> <s_m_source_file>
AV-unprocessed.smi

> <i_m_source_file_index>
175

> <i_lp_mmshare_version>
43012

> <i_f3d_flags>
0

> <s_epik_input>
W0NIMl0xW0NIMl1PW0NAQEhdKFtDSDNdKVtDQEBdMShbT0hdKVtDSDJdbihbY0hdbjIpYyhjMjMpbltjSF1uYzNONFtDSDJdQyg9TylOKFtDSDJdNClbQ0gyXUMoRikoRilG

> <s_epik_cmdline>
J2VwaWtfcHl0aG9uJywgJy1waCcsICc3LjAnLCAnLXRuJywgJzgnLCAnLW1hJywgJzIwMCcsICctbWV0YWxfYmluZGluZycsICctaW1hZScsICc8aW5maWxlLm1hZT4nLCAnLW9tYWUnLCAnPG91dGZpbGUubWFlPic=

> <r_lp_tautomer_probability>
1

> <r_epik_Ionization_Penalty>
0.000307802

> <r_epik_Ionization_Penalty_Charging>
0

> <r_epik_Ionization_Penalty_Neutral>
0.000307802

> <r_epik_State_Penalty>
-0

> <r_epik_Charging_Adjusted_Penalty>
0

> <i_epik_Tot_Q>
0

> <i_epik_Tot_abs_Q>
0

> <r_epik_Metal_State_Penalty>
-0

> <b_epik_Metal_Only>
0

> <s_epik_Chemistry_Notes>
This compound contains an acetal/aminal-like group ( X-CH(R)-Y where X, Y are N, S, or O) that may be acid/base labile, releasing an aldehyde.

> <s_lp_Force_Field>
OPLS_2005

> <r_lp_Energy>
38.2687

> <b_lp_Chiralities_Consistent>
1

> <s_lp_Variant>
AV-unprocessed.smi:175-3

> <Gold.Version>
5.8.1

> <Gold.Id.Protein>
6NUR|6NUR_protein|mol2

> <Gold.PLP.Fitness>
47.4315

> <Gold.PLP.PLP>
-37.0040

> <Gold.PLP.part.hbond>
-3.9421

> <Gold.PLP.part.metal>
0.0000

> <Gold.PLP.part.buried>
-4.4680

> <Gold.PLP.part.nonpolar>
-28.3307

> <Gold.PLP.part.repulsive>
0.1110

> <Gold.PLP.ligand.clash>
0.0000

> <Gold.PLP.ligand.torsion>
1.1113

> <Gold.PLP.Chemscore.Hbond>
4.1040

> <Gold.PLP.Chemscore.CHOScore>
0.0000

> <Gold.PLP.Chemscore.Metal>
0.0000

> <Gold.Chemscore.Hbonds>
donor molecule, donor type, donor heavy atom, donor atom, acceptor molecule, acceptor atom, score
      L1  H     7    37       P1  7957  1.00
      P1  H  6896  6907       L1    25  0.55
      P1  H  7997  8009       L1    11  1.00
      P1  H  8011  8017       L1     7  0.19

> <Gold.PLP.Chemscore.Internal.Correction>
0.3380

> <Gold.Rescore>
     Score         DG    S(hbond)    S(metal)    S(lipo)     H(rot)  DE(clash)    DE(int)     intcor
     10.24     -12.80       2.64        0.00      54.06       3.05       0.02       2.54       ----

> <Gold.Chemscore.Fitness>
10.2368

> <Gold.Chemscore.DG>
-12.8028

> <Gold.Chemscore.ZeroCoef>
-5.4800

> <Gold.Chemscore.Hbond>
2.6355

> <Gold.Chemscore.Metal>
0.0000

> <Gold.Chemscore.Lipo>
54.0572

> <Gold.Chemscore.Internal_Hbond>
0.0000

> <Gold.Chemscore.DEClash>
0.0234

> <Gold.Chemscore.DEInternal>
2.5426

> <Gold.Chemscore.Rot>
3.0487

> <Gold.Chemscore.Internal.Correction>
   9.000000E+99

> <Gold.Chemscore.Hbonds>
donor molecule, donor type, donor heavy atom, donor atom, acceptor molecule, acceptor atom, score
      L1  H     7    37       P1  7957  0.97
      P1  H  6896  6907       L1    25  0.03
      P1  H  7997  8009       L1    11  0.35

> <Gold.Chemscore.Hbond.Weighted>
-8.8027

> <Gold.Chemscore.Metal.Weighted>
-0.0000

> <Gold.Chemscore.Lipo.Weighted>
-6.3247

> <Gold.Chemscore.Internal_Hbond.Weighted>
0.0000

> <Gold.Chemscore.DEClash.Weighted>
0.0234

> <Gold.Chemscore.DEInternal.Weighted>
2.5426

> <Gold.Chemscore.Rot.Weighted>
7.8046

> <Gold.Chemscore.Internal.Correction.Weighted>
   9.000000E+99

> <Gold.Protein.RotatedTorsions>
[ 6907 6896 6895 6894 ] final   -7.59 input  -60.11 | X-H torsion
[ 7974 7965 7964 7962 ] final  -41.22 input  175.53 | X-H torsion
[ 8008 7997 7996 7995 ] final -178.52 input   59.86 | X-H torsion
[ 10167 10162 10161 10158 ] final  -36.36 input  -65.29 | X-H torsion
[ 10718 10713 10712 10709 ] final  -59.15 input   66.30 | X-H torsion
[ 10763 10752 10751 10750 ] final   82.04 input  -60.55 | X-H torsion
[ 11005 11000 10999 10996 ] final  126.98 input  -57.11 | X-H torsion

> <Gold.Protein.ActiveResidues>
 VAL166  LYS551  ARG553  GLY616  TRP617  ASP618  TYR619  PRO620  LYS621  CYS622 
 ASP623  PHE694  ASN695  SER759  ASP760  ASP761  ALA762  ILE779  LEU786  VAL792 
 PHE793  MET794  SER795  GLU796  ALA797  LYS798  CYS799  TRP800  GLU811  SER814 

> <Gold.Protein.RotatedAtoms>
  151.4472  135.1026  159.9686 H   0  0  0  0  0  0  0  0  0  0  0  0  # atno 6907 bound_to 6896
  152.4901  133.8474  159.7194 H   0  0  0  0  0  0  0  0  0  0  0  0  # atno 6908 bound_to 6896
  150.9047  133.7014  159.2897 H   0  0  0  0  0  0  0  0  0  0  0  0  # atno 6909 bound_to 6896
  146.0232  140.6824  142.9168 H   0  0  0  0  0  0  0  0  0  0  0  0  # atno 7974 bound_to 7965
  156.0198  140.1258  157.0369 H   0  0  0  0  0  0  0  0  0  0  0  0  # atno 8008 bound_to 7997
  154.4307  140.1071  156.6018 H   0  0  0  0  0  0  0  0  0  0  0  0  # atno 8009 bound_to 7997
  155.5960  140.3470  155.4582 H   0  0  0  0  0  0  0  0  0  0  0  0  # atno 8010 bound_to 7997
  140.7144  143.3414  151.2350 H   0  0  0  0  0  0  0  0  0  0  0  0  # atno 10167 bound_to 10162
  156.1083  130.4178  150.0675 H   0  0  0  0  0  0  0  0  0  0  0  0  # atno 10718 bound_to 10713
  153.1169  135.4743  154.9130 H   0  0  0  0  0  0  0  0  0  0  0  0  # atno 10763 bound_to 10752
  154.7537  135.3112  154.8513 H   0  0  0  0  0  0  0  0  0  0  0  0  # atno 10764 bound_to 10752
  153.9087  135.6867  153.4805 H   0  0  0  0  0  0  0  0  0  0  0  0  # atno 10765 bound_to 10752
  139.9484  134.9626  156.8787 H   0  0  0  0  0  0  0  0  0  0  0  0  # atno 11005 bound_to 11000
  144.6998  140.3602  143.7165 LP  0  0  0  0  0  0  0  0  0  0  0  0  # atno 17320 bound_to 7965
  145.7160  139.1697  143.2511 LP  0  0  0  0  0  0  0  0  0  0  0  0  # atno 17321 bound_to 7965
  139.6922  143.9673  152.2865 LP  0  0  0  0  0  0  0  0  0  0  0  0  # atno 17342 bound_to 10162
  139.9338  144.6725  150.8336 LP  0  0  0  0  0  0  0  0  0  0  0  0  # atno 17343 bound_to 10162
  156.8645  130.9503  151.3615 LP  0  0  0  0  0  0  0  0  0  0  0  0  # atno 17370 bound_to 10713
  157.6262  130.8693  149.9193 LP  0  0  0  0  0  0  0  0  0  0  0  0  # atno 17371 bound_to 10713
  140.5779  134.0380  155.7453 LP  0  0  0  0  0  0  0  0  0  0  0  0  # atno 17394 bound_to 11000
  141.1140  133.9570  157.2857 LP  0  0  0  0  0  0  0  0  0  0  0  0  # atno 17395 bound_to 11000

$$$$
