AV-unprocessed.smi:1033|AV-procd|sdf|4513|dock2
  -GOLD-   22720 2523D 1   1.00000     0.00000
 Structure written by MMmdl.
 57 59  0  0  0  0  0  0  0  0  3 V2000
  151.0365  144.7192  159.5901 C   0  0  0  0  0  0  0  0  0  0  0  0
  151.7780  143.4118  159.8076 C   0  0  0  0  0  0  0  0  0  0  0  0
  152.6285  143.2831  160.9288 C   0  0  0  0  0  0  0  0  0  0  0  0
  153.3367  142.0850  161.1667 C   0  0  0  0  0  0  0  0  0  0  0  0
  154.2086  141.7436  162.1863 N   0  0  0  0  0  0  0  0  0  0  0  0
  154.5372  140.4992  161.8531 C   0  0  0  0  0  0  0  0  0  0  0  0
  153.9764  139.9902  160.7392 N   0  0  0  0  0  0  0  0  0  0  0  0
  154.1824  138.6636  160.1856 C   0  0  0  0  0  0  0  0  0  0  0  0
  153.6481  137.5507  161.1076 C   0  0  1  0  0  0  0  0  0  0  0  0
  153.7254  136.3072  160.4369 O   0  0  0  0  0  0  0  0  0  0  0  0
  154.4609  137.4524  162.4137 C   0  0  0  0  0  0  0  0  0  0  0  0
  154.7573  136.0477  162.7971 N   0  3  2  0  0  0  0  0  0  0  0  0
  154.7131  135.8103  164.2629 C   0  0  0  0  0  0  0  0  0  0  0  0
  154.9294  134.3197  164.5869 C   0  0  0  0  0  0  0  0  0  0  0  0
  156.1995  133.8071  164.0135 N   0  3  2  0  0  0  0  0  0  0  0  0
  157.4071  134.2202  164.7789 C   0  0  0  0  0  0  0  0  0  0  0  0
  157.4749  133.5789  166.1799 C   0  0  1  0  0  0  0  0  0  0  0  0
  157.4789  132.0467  166.1038 C   0  0  0  0  0  0  0  0  0  0  0  0
  158.6664  133.9821  166.8245 O   0  0  0  0  0  0  0  0  0  0  0  0
  156.2699  134.0709  162.5516 C   0  0  0  0  0  0  0  0  0  0  0  0
  156.0295  135.5565  162.2114 C   0  0  0  0  0  0  0  0  0  0  0  0
  153.1698  141.0101  160.2449 C   0  0  0  0  0  0  0  0  0  0  0  0
  152.3254  141.1257  159.1265 C   0  0  0  0  0  0  0  0  0  0  0  0
  151.6260  142.3302  158.9033 C   0  0  0  0  0  0  0  0  0  0  0  0
  150.7171  142.4454  157.6923 C   0  0  0  0  0  0  0  0  0  0  0  0
  151.2214  145.4219  160.4029 H   0  0  0  0  0  0  0  0  0  0  0  0
  149.9616  144.5461  159.5370 H   0  0  0  0  0  0  0  0  0  0  0  0
  151.3585  145.1894  158.6607 H   0  0  0  0  0  0  0  0  0  0  0  0
  152.7444  144.1069  161.6178 H   0  0  0  0  0  0  0  0  0  0  0  0
  155.2240  139.9224  162.4554 H   0  0  0  0  0  0  0  0  0  0  0  0
  153.7035  138.6153  159.2067 H   0  0  0  0  0  0  0  0  0  0  0  0
  155.2514  138.5297  160.0146 H   0  0  0  0  0  0  0  0  0  0  0  0
  152.6000  137.7562  161.3240 H   0  0  0  0  0  0  0  0  0  0  0  0
  154.4087  136.3590  159.7844 H   0  0  0  0  0  0  0  0  0  0  0  0
  155.3946  138.0011  162.2779 H   0  0  0  0  0  0  0  0  0  0  0  0
  153.9361  137.9478  163.2320 H   0  0  0  0  0  0  0  0  0  0  0  0
  155.4722  136.4192  164.7566 H   0  0  0  0  0  0  0  0  0  0  0  0
  153.7510  136.1226  164.6677 H   0  0  0  0  0  0  0  0  0  0  0  0
  154.9011  134.1509  165.6641 H   0  0  0  0  0  0  0  0  0  0  0  0
  154.1065  133.7374  164.1702 H   0  0  0  0  0  0  0  0  0  0  0  0
  158.3051  133.9787  164.2102 H   0  0  0  0  0  0  0  0  0  0  0  0
  157.4152  135.3049  164.8989 H   0  0  0  0  0  0  0  0  0  0  0  0
  156.6299  133.8868  166.7946 H   0  0  0  0  0  0  0  0  0  0  0  0
  156.5680  131.6761  165.6329 H   0  0  0  0  0  0  0  0  0  0  0  0
  157.5369  131.6036  167.0987 H   0  0  0  0  0  0  0  0  0  0  0  0
  158.3265  131.6771  165.5252 H   0  0  0  0  0  0  0  0  0  0  0  0
  158.9613  133.2887  167.3944 H   0  0  0  0  0  0  0  0  0  0  0  0
  157.2208  133.7374  162.1376 H   0  0  0  0  0  0  0  0  0  0  0  0
  155.5036  133.4659  162.0648 H   0  0  0  0  0  0  0  0  0  0  0  0
  155.9991  135.6712  161.1270 H   0  0  0  0  0  0  0  0  0  0  0  0
  156.8566  136.1732  162.5658 H   0  0  0  0  0  0  0  0  0  0  0  0
  152.2163  140.2944  158.4460 H   0  0  0  0  0  0  0  0  0  0  0  0
  150.7625  141.5483  157.0741 H   0  0  0  0  0  0  0  0  0  0  0  0
  151.0094  143.2927  157.0717 H   0  0  0  0  0  0  0  0  0  0  0  0
  149.6823  142.5852  158.0050 H   0  0  0  0  0  0  0  0  0  0  0  0
  156.1578  132.8035  164.1228 H   0  0  0  0  0  0  0  0  0  0  0  0
  154.0239  135.4890  162.3832 H   0  0  0  0  0  0  0  0  0  0  0  0
  1  2  1  0  0  0  0
  1 26  1  0  0  0  0
  1 27  1  0  0  0  0
  1 28  1  0  0  0  0
  2 24  1  0  0  0  0
  2  3  2  0  0  0  0
  3  4  1  0  0  0  0
  3 29  1  0  0  0  0
  4 22  2  0  0  0  0
  4  5  1  0  0  0  0
  5  6  2  0  0  0  0
  6  7  1  0  0  0  0
  6 30  1  0  0  0  0
  7  8  1  0  0  0  0
  7 22  1  0  0  0  0
  8  9  1  0  0  0  0
  8 31  1  0  0  0  0
  8 32  1  0  0  0  0
  9 10  1  0  0  0  0
  9 11  1  0  0  0  0
  9 33  1  0  0  0  0
 10 34  1  0  0  0  0
 11 12  1  0  0  0  0
 11 35  1  0  0  0  0
 11 36  1  0  0  0  0
 12 21  1  0  0  0  0
 12 13  1  0  0  0  0
 12 57  1  0  0  0  0
 13 14  1  0  0  0  0
 13 37  1  0  0  0  0
 13 38  1  0  0  0  0
 14 15  1  0  0  0  0
 14 39  1  0  0  0  0
 14 40  1  0  0  0  0
 15 16  1  0  0  0  0
 15 20  1  0  0  0  0
 15 56  1  0  0  0  0
 16 17  1  0  0  0  0
 16 41  1  0  0  0  0
 16 42  1  0  0  0  0
 17 18  1  0  0  0  0
 17 19  1  0  0  0  0
 17 43  1  0  0  0  0
 18 44  1  0  0  0  0
 18 45  1  0  0  0  0
 18 46  1  0  0  0  0
 19 47  1  0  0  0  0
 20 21  1  0  0  0  0
 20 48  1  0  0  0  0
 20 49  1  0  0  0  0
 21 50  1  0  0  0  0
 21 51  1  0  0  0  0
 22 23  1  0  0  0  0
 23 24  2  0  0  0  0
 23 52  1  0  0  0  0
 24 25  1  0  0  0  0
 25 53  1  0  0  0  0
 25 54  1  0  0  0  0
 25 55  1  0  0  0  0
M  CHG  1  12   1
M  CHG  1  15   1
M  END
> <s_m_source_file>
AV-unprocessed.smi

> <i_m_source_file_index>
1033

> <i_lp_mmshare_version>
43012

> <i_f3d_flags>
0

> <s_epik_input>
W0NIM11jKFtjSF0xKWMoW0NIM10pW2NIXWMoYzEyKW4oW2NIXW4yKVtDSDJdW0NASF0oW09IXSlbQ0gyXU4zW0NIMl1bQ0gyXU4oW0NIMl1bQ0gyXTMpW0NIMl1bQ0BIXShbQ0gzXSlbT0hd

> <s_epik_cmdline>
J2VwaWtfcHl0aG9uJywgJy1waCcsICc3LjAnLCAnLXRuJywgJzgnLCAnLW1hJywgJzIwMCcsICctbWV0YWxfYmluZGluZycsICctaW1hZScsICc8aW5maWxlLm1hZT4nLCAnLW9tYWUnLCAnPG91dGZpbGUubWFlPic=

> <r_epik_Ionization_Penalty>
3.16016

> <r_epik_Ionization_Penalty_Charging>
3.07679

> <r_epik_Ionization_Penalty_Neutral>
0.083365

> <r_epik_State_Penalty>
2.09701

> <r_epik_Charging_Adjusted_Penalty>
5.1738

> <i_epik_Tot_Q>
2

> <i_epik_Tot_abs_Q>
2

> <r_epik_Metal_State_Penalty>
2.02534

> <b_epik_Metal_Only>
0

> <s_lp_Force_Field>
OPLS_2005

> <r_lp_Energy>
29.7728

> <b_lp_Chiralities_Consistent>
1

> <s_lp_Variant>
AV-unprocessed.smi:1033-24

> <Gold.Version>
5.8.1

> <Gold.Id.Protein>
6NUR|6NUR_protein|mol2

> <Gold.PLP.Fitness>
52.1967

> <Gold.PLP.PLP>
-51.3297

> <Gold.PLP.part.hbond>
-2.0000

> <Gold.PLP.part.metal>
0.0000

> <Gold.PLP.part.buried>
-6.7112

> <Gold.PLP.part.nonpolar>
-43.0112

> <Gold.PLP.part.repulsive>
0.0358

> <Gold.PLP.ligand.clash>
0.0000

> <Gold.PLP.ligand.torsion>
1.1918

> <Gold.PLP.Chemscore.Hbond>
1.0000

> <Gold.PLP.Chemscore.CHOScore>
0.0000

> <Gold.PLP.Chemscore.Metal>
0.0000

> <Gold.Chemscore.Hbonds>
donor molecule, donor type, donor heavy atom, donor atom, acceptor molecule, acceptor atom, score
      P1  H  6896  6908       L1    10  0.86

> <Gold.PLP.Chemscore.Internal.Correction>
0.2507

> <Gold.Rescore>
     Score         DG    S(hbond)    S(metal)    S(lipo)     H(rot)  DE(clash)    DE(int)     intcor
     16.10     -17.39       0.95        0.00     143.47       3.14       0.03       1.26       ----

> <Gold.Chemscore.Fitness>
16.1046

> <Gold.Chemscore.DG>
-17.3913

> <Gold.Chemscore.ZeroCoef>
-5.4800

> <Gold.Chemscore.Hbond>
0.9457

> <Gold.Chemscore.Metal>
0.0000

> <Gold.Chemscore.Lipo>
143.4696

> <Gold.Chemscore.Internal_Hbond>
0.0000

> <Gold.Chemscore.DEClash>
0.0252

> <Gold.Chemscore.DEInternal>
1.2614

> <Gold.Chemscore.Rot>
3.1380

> <Gold.Chemscore.Internal.Correction>
   9.000000E+99

> <Gold.Chemscore.Hbonds>
donor molecule, donor type, donor heavy atom, donor atom, acceptor molecule, acceptor atom, score
      P1  H  6896  6908       L1    10  0.79

> <Gold.Chemscore.Hbond.Weighted>
-3.1585

> <Gold.Chemscore.Metal.Weighted>
-0.0000

> <Gold.Chemscore.Lipo.Weighted>
-16.7859

> <Gold.Chemscore.Internal_Hbond.Weighted>
0.0000

> <Gold.Chemscore.DEClash.Weighted>
0.0252

> <Gold.Chemscore.DEInternal.Weighted>
1.2614

> <Gold.Chemscore.Rot.Weighted>
8.0332

> <Gold.Chemscore.Internal.Correction.Weighted>
   9.000000E+99

> <Gold.Protein.RotatedTorsions>
[ 6907 6896 6895 6894 ] final  -84.48 input  -60.11 | X-H torsion
[ 7974 7965 7964 7962 ] final  -53.03 input  175.53 | X-H torsion
[ 8008 7997 7996 7995 ] final   94.83 input   59.86 | X-H torsion
[ 10167 10162 10161 10158 ] final -153.77 input  -65.29 | X-H torsion
[ 10718 10713 10712 10709 ] final   49.29 input   66.30 | X-H torsion
[ 10763 10752 10751 10750 ] final    6.44 input  -60.55 | X-H torsion
[ 11005 11000 10999 10996 ] final   50.97 input  -57.11 | X-H torsion

> <Gold.Protein.ActiveResidues>
 VAL166  LYS551  ARG553  GLY616  TRP617  ASP618  TYR619  PRO620  LYS621  CYS622 
 ASP623  PHE694  ASN695  SER759  ASP760  ASP761  ALA762  ILE779  LEU786  VAL792 
 PHE793  MET794  SER795  GLU796  ALA797  LYS798  CYS799  TRP800  GLU811  SER814 

> <Gold.Protein.RotatedAtoms>
  150.6876  134.3352  159.4843 H   0  0  0  0  0  0  0  0  0  0  0  0  # atno 6907 bound_to 6896
  152.1211  134.9202  160.0572 H   0  0  0  0  0  0  0  0  0  0  0  0  # atno 6908 bound_to 6896
  152.0407  133.3941  159.4373 H   0  0  0  0  0  0  0  0  0  0  0  0  # atno 6909 bound_to 6896
  145.9013  140.7991  142.9742 H   0  0  0  0  0  0  0  0  0  0  0  0  # atno 7974 bound_to 7965
  156.0623  140.3294  155.7476 H   0  0  0  0  0  0  0  0  0  0  0  0  # atno 8008 bound_to 7997
  155.5436  140.0604  157.2882 H   0  0  0  0  0  0  0  0  0  0  0  0  # atno 8009 bound_to 7997
  154.4487  140.1906  156.0604 H   0  0  0  0  0  0  0  0  0  0  0  0  # atno 8010 bound_to 7997
  139.7069  143.9171  152.2452 H   0  0  0  0  0  0  0  0  0  0  0  0  # atno 10167 bound_to 10162
  157.4772  130.8292  149.8053 H   0  0  0  0  0  0  0  0  0  0  0  0  # atno 10718 bound_to 10713
  153.2477  135.6910  153.7713 H   0  0  0  0  0  0  0  0  0  0  0  0  # atno 10763 bound_to 10752
  153.6819  135.3327  155.3181 H   0  0  0  0  0  0  0  0  0  0  0  0  # atno 10764 bound_to 10752
  154.8381  135.4524  154.1423 H   0  0  0  0  0  0  0  0  0  0  0  0  # atno 10765 bound_to 10752
  140.0972  134.5130  155.8796 H   0  0  0  0  0  0  0  0  0  0  0  0  # atno 11005 bound_to 11000
  144.6736  140.1682  143.7416 LP  0  0  0  0  0  0  0  0  0  0  0  0  # atno 17320 bound_to 7965
  145.8787  139.2311  143.1618 LP  0  0  0  0  0  0  0  0  0  0  0  0  # atno 17321 bound_to 7965
  139.9030  144.6901  150.8645 LP  0  0  0  0  0  0  0  0  0  0  0  0  # atno 17342 bound_to 10162
  140.7724  143.3500  151.2034 LP  0  0  0  0  0  0  0  0  0  0  0  0  # atno 17343 bound_to 10162
  156.0103  130.3836  150.2288 LP  0  0  0  0  0  0  0  0  0  0  0  0  # atno 17370 bound_to 10713
  157.0473  131.0052  151.3265 LP  0  0  0  0  0  0  0  0  0  0  0  0  # atno 17371 bound_to 10713
  141.2095  133.6685  156.6446 LP  0  0  0  0  0  0  0  0  0  0  0  0  # atno 17394 bound_to 11000
  140.3270  134.7960  157.4297 LP  0  0  0  0  0  0  0  0  0  0  0  0  # atno 17395 bound_to 11000

$$$$
