AV-unprocessed.smi:739|AV-procd|sdf|3542|dock5
  -GOLD-   22720 0533D 1   1.00000     0.00000
 Structure written by MMmdl.
 32 34  0  0  0  0  0  0  0  0  1 V2000
  148.9941  142.6067  157.0507 O   0  0  0  0  0  0  0  0  0  0  0  0
  150.2616  142.0510  157.3347 C   0  0  2  0  0  0  0  0  0  0  0  0
  151.3031  143.1874  157.3122 C   0  0  0  0  0  0  0  0  0  0  0  0
  151.3868  143.8795  158.5859 N   0  0  0  0  0  0  0  0  0  0  0  0
  150.8304  145.0649  158.9008 C   0  0  0  0  0  0  0  0  0  0  0  0
  151.0166  145.5159  160.1379 N   0  0  0  0  0  0  0  0  0  0  0  0
  151.7860  144.5066  160.6910 C   0  0  0  0  0  0  0  0  0  0  0  0
  152.3224  144.3705  161.9912 C   0  0  0  0  0  0  0  0  0  0  0  0
  153.0851  143.2350  162.3349 C   0  0  0  0  0  0  0  0  0  0  0  0
  153.5909  143.1202  163.5858 F   0  0  0  0  0  0  0  0  0  0  0  0
  153.3233  142.2202  161.3841 C   0  0  0  0  0  0  0  0  0  0  0  0
  154.0553  141.1323  161.7221 F   0  0  0  0  0  0  0  0  0  0  0  0
  152.8005  142.3349  160.0821 C   0  0  0  0  0  0  0  0  0  0  0  0
  152.0389  143.4688  159.7442 C   0  0  0  0  0  0  0  0  0  0  0  0
  150.6203  140.9187  156.3816 C   0  0  0  0  0  0  0  0  0  0  0  0
  149.7353  140.5688  155.3386 C   0  0  0  0  0  0  0  0  0  0  0  0
  150.0444  139.5021  154.4725 C   0  0  0  0  0  0  0  0  0  0  0  0
  151.2411  138.7801  154.6427 C   0  0  0  0  0  0  0  0  0  0  0  0
  151.5378  137.7542  153.8104 F   0  0  0  0  0  0  0  0  0  0  0  0
  152.1287  139.1252  155.6797 C   0  0  0  0  0  0  0  0  0  0  0  0
  151.8195  140.1908  156.5472 C   0  0  0  0  0  0  0  0  0  0  0  0
  149.1083  143.3131  156.4332 H   0  0  0  0  0  0  0  0  0  0  0  0
  150.2001  141.6484  158.3469 H   0  0  0  0  0  0  0  0  0  0  0  0
  152.2907  142.8061  157.0495 H   0  0  0  0  0  0  0  0  0  0  0  0
  151.0405  143.9219  156.5494 H   0  0  0  0  0  0  0  0  0  0  0  0
  150.2508  145.6257  158.1821 H   0  0  0  0  0  0  0  0  0  0  0  0
  152.1460  145.1406  162.7274 H   0  0  0  0  0  0  0  0  0  0  0  0
  152.9797  141.5578  159.3542 H   0  0  0  0  0  0  0  0  0  0  0  0
  148.8104  141.1106  155.2058 H   0  0  0  0  0  0  0  0  0  0  0  0
  149.3618  139.2356  153.6791 H   0  0  0  0  0  0  0  0  0  0  0  0
  153.0456  138.5703  155.8122 H   0  0  0  0  0  0  0  0  0  0  0  0
  152.5017  140.4408  157.3466 H   0  0  0  0  0  0  0  0  0  0  0  0
  1  2  1  0  0  0  0
  1 22  1  0  0  0  0
  2  3  1  0  0  0  0
  2 15  1  0  0  0  0
  2 23  1  0  0  0  0
  3  4  1  0  0  0  0
  3 24  1  0  0  0  0
  3 25  1  0  0  0  0
  4 14  1  0  0  0  0
  4  5  1  0  0  0  0
  5  6  2  0  0  0  0
  5 26  1  0  0  0  0
  6  7  1  0  0  0  0
  7 14  2  0  0  0  0
  7  8  1  0  0  0  0
  8  9  2  0  0  0  0
  8 27  1  0  0  0  0
  9 10  1  0  0  0  0
  9 11  1  0  0  0  0
 11 12  1  0  0  0  0
 11 13  2  0  0  0  0
 13 14  1  0  0  0  0
 13 28  1  0  0  0  0
 15 21  1  0  0  0  0
 15 16  2  0  0  0  0
 16 17  1  0  0  0  0
 16 29  1  0  0  0  0
 17 18  2  0  0  0  0
 17 30  1  0  0  0  0
 18 19  1  0  0  0  0
 18 20  1  0  0  0  0
 20 21  2  0  0  0  0
 20 31  1  0  0  0  0
 21 32  1  0  0  0  0
M  END
> <s_m_source_file>
AV-unprocessed.smi

> <i_m_source_file_index>
739

> <i_lp_mmshare_version>
43012

> <i_f3d_flags>
0

> <s_epik_input>
W2NIXTFbY0hdYyhGKVtjSF1bY0hdYzFbQ0BIXShbT0hdKVtDSDJdbihbY0hdbjIpYyhjMjMpW2NIXWMoRiljKEYpW2NIXTM=

> <s_epik_cmdline>
J2VwaWtfcHl0aG9uJywgJy1waCcsICc3LjAnLCAnLXRuJywgJzgnLCAnLW1hJywgJzIwMCcsICctbWV0YWxfYmluZGluZycsICctaW1hZScsICc8aW5maWxlLm1hZT4nLCAnLW9tYWUnLCAnPG91dGZpbGUubWFlPic=

> <r_epik_Ionization_Penalty>
0.0156356

> <r_epik_Ionization_Penalty_Charging>
0

> <r_epik_Ionization_Penalty_Neutral>
0.0156356

> <r_epik_State_Penalty>
0.0122974

> <r_epik_Charging_Adjusted_Penalty>
0.0122974

> <i_epik_Tot_Q>
0

> <i_epik_Tot_abs_Q>
0

> <r_epik_Metal_State_Penalty>
1.24258e-05

> <b_epik_Metal_Only>
0

> <s_lp_Force_Field>
OPLS_2005

> <r_lp_Energy>
11.0566

> <b_lp_Chiralities_Consistent>
1

> <s_lp_Variant>
AV-unprocessed.smi:739-1

> <Gold.Version>
5.8.1

> <Gold.Id.Protein>
6NUR|6NUR_protein|mol2

> <Gold.PLP.Fitness>
60.8671

> <Gold.PLP.PLP>
-56.0189

> <Gold.PLP.part.hbond>
-1.2891

> <Gold.PLP.part.metal>
0.0000

> <Gold.PLP.part.buried>
-3.0966

> <Gold.PLP.part.nonpolar>
-51.7375

> <Gold.PLP.part.repulsive>
0.2130

> <Gold.PLP.ligand.clash>
0.0000

> <Gold.PLP.ligand.torsion>
0.5867

> <Gold.PLP.Chemscore.Hbond>
1.0000

> <Gold.PLP.Chemscore.CHOScore>
1.0000

> <Gold.PLP.Chemscore.Metal>
0.0000

> <Gold.Chemscore.Hbonds>
donor molecule, donor type, donor heavy atom, donor atom, acceptor molecule, acceptor atom, score
      L1  H     1    22       P1  8028  1.00
      L1  C     5    26       P1  8029  1.00

> <Gold.PLP.Chemscore.Internal.Correction>
0.0216

> <Gold.Rescore>
     Score         DG    S(hbond)    S(metal)    S(lipo)     H(rot)  DE(clash)    DE(int)     intcor
     17.48     -18.31       0.98        0.00     126.86       2.07       0.29       0.54       ----

> <Gold.Chemscore.Fitness>
17.4794

> <Gold.Chemscore.DG>
-18.3123

> <Gold.Chemscore.ZeroCoef>
-5.4800

> <Gold.Chemscore.Hbond>
0.9847

> <Gold.Chemscore.Metal>
0.0000

> <Gold.Chemscore.Lipo>
126.8606

> <Gold.Chemscore.Internal_Hbond>
0.0000

> <Gold.Chemscore.DEClash>
0.2940

> <Gold.Chemscore.DEInternal>
0.5389

> <Gold.Chemscore.Rot>
2.0700

> <Gold.Chemscore.Internal.Correction>
   9.000000E+99

> <Gold.Chemscore.Hbonds>
donor molecule, donor type, donor heavy atom, donor atom, acceptor molecule, acceptor atom, score
      L1  H     1    22       P1  8028  0.98

> <Gold.Chemscore.Hbond.Weighted>
-3.2888

> <Gold.Chemscore.Metal.Weighted>
-0.0000

> <Gold.Chemscore.Lipo.Weighted>
-14.8427

> <Gold.Chemscore.Internal_Hbond.Weighted>
0.0000

> <Gold.Chemscore.DEClash.Weighted>
0.2940

> <Gold.Chemscore.DEInternal.Weighted>
0.5389

> <Gold.Chemscore.Rot.Weighted>
5.2992

> <Gold.Chemscore.Internal.Correction.Weighted>
   9.000000E+99

> <Gold.Protein.RotatedTorsions>
[ 6907 6896 6895 6894 ] final  -91.52 input  -60.11 | X-H torsion
[ 7974 7965 7964 7962 ] final   82.59 input  175.53 | X-H torsion
[ 8008 7997 7996 7995 ] final  144.03 input   59.86 | X-H torsion
[ 10167 10162 10161 10158 ] final -135.67 input  -65.29 | X-H torsion
[ 10718 10713 10712 10709 ] final   11.94 input   66.30 | X-H torsion
[ 10763 10752 10751 10750 ] final -142.52 input  -60.55 | X-H torsion
[ 11005 11000 10999 10996 ] final   61.48 input  -57.11 | X-H torsion

> <Gold.Protein.ActiveResidues>
 VAL166  LYS551  ARG553  GLY616  TRP617  ASP618  TYR619  PRO620  LYS621  CYS622 
 ASP623  PHE694  ASN695  SER759  ASP760  ASP761  ALA762  ILE779  LEU786  VAL792 
 PHE793  MET794  SER795  GLU796  ALA797  LYS798  CYS799  TRP800  GLU811  SER814 

> <Gold.Protein.RotatedAtoms>
  150.6893  134.2264  159.4416 H   0  0  0  0  0  0  0  0  0  0  0  0  # atno 6907 bound_to 6896
  152.0217  134.9816  160.0580 H   0  0  0  0  0  0  0  0  0  0  0  0  # atno 6908 bound_to 6896
  152.1390  133.4418  159.4794 H   0  0  0  0  0  0  0  0  0  0  0  0  # atno 6909 bound_to 6896
  145.6231  139.2389  143.2127 H   0  0  0  0  0  0  0  0  0  0  0  0  # atno 7974 bound_to 7965
  156.2917  140.2246  156.4987 H   0  0  0  0  0  0  0  0  0  0  0  0  # atno 8008 bound_to 7997
  154.7709  140.0467  157.1071 H   0  0  0  0  0  0  0  0  0  0  0  0  # atno 8009 bound_to 7997
  154.9876  140.3086  155.4923 H   0  0  0  0  0  0  0  0  0  0  0  0  # atno 8010 bound_to 7997
  139.8755  143.6903  152.2634 H   0  0  0  0  0  0  0  0  0  0  0  0  # atno 10167 bound_to 10162
  157.0030  130.6087  149.5698 H   0  0  0  0  0  0  0  0  0  0  0  0  # atno 10718 bound_to 10713
  154.8506  135.3493  154.6041 H   0  0  0  0  0  0  0  0  0  0  0  0  # atno 10763 bound_to 10752
  153.6650  135.6988  153.5170 H   0  0  0  0  0  0  0  0  0  0  0  0  # atno 10764 bound_to 10752
  153.2788  135.4270  155.1015 H   0  0  0  0  0  0  0  0  0  0  0  0  # atno 10765 bound_to 10752
  140.0158  134.6227  155.9711 H   0  0  0  0  0  0  0  0  0  0  0  0  # atno 11005 bound_to 11000
  146.1416  140.7050  142.9364 LP  0  0  0  0  0  0  0  0  0  0  0  0  # atno 17320 bound_to 7965
  144.7223  140.4414  143.6999 LP  0  0  0  0  0  0  0  0  0  0  0  0  # atno 17321 bound_to 7965
  139.7244  144.7596  151.0903 LP  0  0  0  0  0  0  0  0  0  0  0  0  # atno 17342 bound_to 10162
  140.7753  143.5167  150.9586 LP  0  0  0  0  0  0  0  0  0  0  0  0  # atno 17343 bound_to 10162
  156.0164  130.5258  150.8147 LP  0  0  0  0  0  0  0  0  0  0  0  0  # atno 17370 bound_to 10713
  157.5376  131.0939  150.9870 LP  0  0  0  0  0  0  0  0  0  0  0  0  # atno 17371 bound_to 10713
  141.1742  133.6539  156.4765 LP  0  0  0  0  0  0  0  0  0  0  0  0  # atno 17394 bound_to 11000
  140.4473  134.6961  157.5022 LP  0  0  0  0  0  0  0  0  0  0  0  0  # atno 17395 bound_to 11000

$$$$
