AV-unprocessed.smi:926|AV-procd|sdf|4185|dock2
  -GOLD-   22720 2 93D 1   1.00000     0.00000
 Structure written by MMmdl.
 37 39  0  0  0  0  0  0  0  0  1 V2000
  152.7368  139.7698  154.9141 O   0  0  0  0  0  0  0  0  0  0  0  0
  151.6552  139.3199  155.2919 C   0  0  0  0  0  0  0  0  0  0  0  0
  151.2647  137.8828  154.9462 C   0  0  0  0  0  0  0  0  0  0  0  0
  151.2899  137.0415  156.1271 N   0  0  0  0  0  0  0  0  0  0  0  0
  150.3935  136.8692  157.1010 C   0  0  0  0  0  0  0  0  0  0  0  0
  150.8175  136.0017  158.0076 N   0  0  0  0  0  0  0  0  0  0  0  0
  152.0649  135.6336  157.5315 N   0  0  0  0  0  0  0  0  0  0  0  0
  152.3512  136.2481  156.4165 N   0  0  0  0  0  0  0  0  0  0  0  0
  150.7661  140.0288  156.0045 N   0  0  0  0  0  0  0  0  0  0  0  0
  150.9475  141.4104  156.4340 C   0  0  0  0  0  0  0  0  0  0  0  0
  150.8862  141.5387  157.9661 C   0  0  0  0  0  0  0  0  0  0  0  0
  150.9094  143.0027  158.4481 C   0  0  2  0  0  0  0  0  0  0  0  0
  151.6126  143.9726  157.4693 C   0  0  0  0  0  0  0  0  0  0  0  0
  152.6804  144.6464  158.3498 C   0  0  1  0  0  0  0  0  0  0  0  0
  151.9969  145.5712  159.3741 C   0  0  0  0  0  0  0  0  0  0  0  0
  151.3590  144.5727  160.3585 C   0  0  0  0  0  0  0  0  0  0  0  0
  151.7274  143.2083  159.7444 C   0  0  2  0  0  0  0  0  0  0  0  0
  153.1347  143.4841  159.2229 C   0  0  0  0  0  0  0  0  0  0  0  0
  150.2580  137.8681  154.5263 H   0  0  0  0  0  0  0  0  0  0  0  0
  151.9344  137.4676  154.1910 H   0  0  0  0  0  0  0  0  0  0  0  0
  149.4406  137.3760  157.1456 H   0  0  0  0  0  0  0  0  0  0  0  0
  149.9010  139.5793  156.2680 H   0  0  0  0  0  0  0  0  0  0  0  0
  151.9160  141.7487  156.0658 H   0  0  0  0  0  0  0  0  0  0  0  0
  150.1990  142.0520  155.9659 H   0  0  0  0  0  0  0  0  0  0  0  0
  149.9701  141.0676  158.3247 H   0  0  0  0  0  0  0  0  0  0  0  0
  151.7082  140.9805  158.4150 H   0  0  0  0  0  0  0  0  0  0  0  0
  149.8791  143.3200  158.6160 H   0  0  0  0  0  0  0  0  0  0  0  0
  152.0915  143.4353  156.6496 H   0  0  0  0  0  0  0  0  0  0  0  0
  150.9209  144.6931  157.0315 H   0  0  0  0  0  0  0  0  0  0  0  0
  153.4729  145.1328  157.7806 H   0  0  0  0  0  0  0  0  0  0  0  0
  152.7296  146.1978  159.8840 H   0  0  0  0  0  0  0  0  0  0  0  0
  151.2596  146.2267  158.9093 H   0  0  0  0  0  0  0  0  0  0  0  0
  151.7990  144.6803  161.3507 H   0  0  0  0  0  0  0  0  0  0  0  0
  150.2817  144.7116  160.4563 H   0  0  0  0  0  0  0  0  0  0  0  0
  151.6517  142.3833  160.4537 H   0  0  0  0  0  0  0  0  0  0  0  0
  153.5626  142.6566  158.6554 H   0  0  0  0  0  0  0  0  0  0  0  0
  153.8364  143.7799  160.0050 H   0  0  0  0  0  0  0  0  0  0  0  0
  1  2  2  0  0  0  0
  2  3  1  0  0  0  0
  2  9  1  0  0  0  0
  3  4  1  0  0  0  0
  3 19  1  0  0  0  0
  3 20  1  0  0  0  0
  4  8  1  0  0  0  0
  4  5  1  0  0  0  0
  5  6  2  0  0  0  0
  5 21  1  0  0  0  0
  6  7  1  0  0  0  0
  7  8  2  0  0  0  0
  9 10  1  0  0  0  0
  9 22  1  0  0  0  0
 10 11  1  0  0  0  0
 10 23  1  0  0  0  0
 10 24  1  0  0  0  0
 11 12  1  0  0  0  0
 11 25  1  0  0  0  0
 11 26  1  0  0  0  0
 12 17  1  0  0  0  0
 12 13  1  0  0  0  0
 12 27  1  0  0  0  0
 13 14  1  0  0  0  0
 13 28  1  0  0  0  0
 13 29  1  0  0  0  0
 14 18  1  0  0  0  0
 14 15  1  0  0  0  0
 14 30  1  0  0  0  0
 15 16  1  0  0  0  0
 15 31  1  0  0  0  0
 15 32  1  0  0  0  0
 16 17  1  0  0  0  0
 16 33  1  0  0  0  0
 16 34  1  0  0  0  0
 17 18  1  0  0  0  0
 17 35  1  0  0  0  0
 18 36  1  0  0  0  0
 18 37  1  0  0  0  0
M  END
> <s_m_source_file>
AV-unprocessed.smi

> <i_m_source_file_index>
926

> <i_lp_mmshare_version>
43012

> <i_f3d_flags>
0

> <s_epik_input>
bjFubltjSF1uMVtDSDJdQyg9TylbTkhdW0NIMl1bQ0gyXVtDQEhdKFtDSDJdW0NASF0yMylbQ0BIXShbQ0gyXTMpW0NIMl1bQ0gyXTI=

> <s_epik_cmdline>
J2VwaWtfcHl0aG9uJywgJy1waCcsICc3LjAnLCAnLXRuJywgJzgnLCAnLW1hJywgJzIwMCcsICctbWV0YWxfYmluZGluZycsICctaW1hZScsICc8aW5maWxlLm1hZT4nLCAnLW9tYWUnLCAnPG91dGZpbGUubWFlPic=

> <r_lp_tautomer_probability>
1

> <r_epik_Ionization_Penalty>
4.22645e-07

> <r_epik_Ionization_Penalty_Charging>
0

> <r_epik_Ionization_Penalty_Neutral>
4.22645e-07

> <r_epik_State_Penalty>
-0

> <r_epik_Charging_Adjusted_Penalty>
0

> <i_epik_Tot_Q>
0

> <i_epik_Tot_abs_Q>
0

> <r_epik_Metal_State_Penalty>
-0

> <b_epik_Metal_Only>
0

> <s_lp_Force_Field>
OPLS_2005

> <r_lp_Energy>
50.9279

> <b_lp_Chiralities_Consistent>
1

> <s_lp_Variant>
AV-unprocessed.smi:926-3

> <Gold.Version>
5.8.1

> <Gold.Id.Protein>
6NUR|6NUR_protein|mol2

> <Gold.PLP.Fitness>
49.5218

> <Gold.PLP.PLP>
-43.2653

> <Gold.PLP.part.hbond>
-5.0000

> <Gold.PLP.part.metal>
0.0000

> <Gold.PLP.part.buried>
-4.3278

> <Gold.PLP.part.nonpolar>
-34.7506

> <Gold.PLP.part.repulsive>
0.1217

> <Gold.PLP.ligand.clash>
0.0000

> <Gold.PLP.ligand.torsion>
0.9045

> <Gold.PLP.Chemscore.Hbond>
2.6579

> <Gold.PLP.Chemscore.CHOScore>
0.0000

> <Gold.PLP.Chemscore.Metal>
0.0000

> <Gold.Chemscore.Hbonds>
donor molecule, donor type, donor heavy atom, donor atom, acceptor molecule, acceptor atom, score
      P1  H  6896  6907       L1     6  0.46
      P1  H  7989  7998       L1     1  0.18
      P1  H  7997  8008       L1     1  0.93
      P1  H 10752 10765       L1     8  1.00

> <Gold.PLP.Chemscore.Internal.Correction>
0.0916

> <Gold.Rescore>
     Score         DG    S(hbond)    S(metal)    S(lipo)     H(rot)  DE(clash)    DE(int)     intcor
     17.45     -18.38       2.15        0.00     104.55       2.54       0.01       0.92       ----

> <Gold.Chemscore.Fitness>
17.4452

> <Gold.Chemscore.DG>
-18.3845

> <Gold.Chemscore.ZeroCoef>
-5.4800

> <Gold.Chemscore.Hbond>
2.1507

> <Gold.Chemscore.Metal>
0.0000

> <Gold.Chemscore.Lipo>
104.5543

> <Gold.Chemscore.Internal_Hbond>
0.0000

> <Gold.Chemscore.DEClash>
0.0145

> <Gold.Chemscore.DEInternal>
0.9248

> <Gold.Chemscore.Rot>
2.5436

> <Gold.Chemscore.Internal.Correction>
   9.000000E+99

> <Gold.Chemscore.Hbonds>
donor molecule, donor type, donor heavy atom, donor atom, acceptor molecule, acceptor atom, score
      P1  H  6896  6907       L1     6  0.07
      P1  H  7997  8008       L1     1  0.88
      P1  H 10752 10765       L1     8  0.97

> <Gold.Chemscore.Hbond.Weighted>
-7.1834

> <Gold.Chemscore.Metal.Weighted>
-0.0000

> <Gold.Chemscore.Lipo.Weighted>
-12.2328

> <Gold.Chemscore.Internal_Hbond.Weighted>
0.0000

> <Gold.Chemscore.DEClash.Weighted>
0.0145

> <Gold.Chemscore.DEInternal.Weighted>
0.9248

> <Gold.Chemscore.Rot.Weighted>
6.5117

> <Gold.Chemscore.Internal.Correction.Weighted>
   9.000000E+99

> <Gold.Protein.RotatedTorsions>
[ 6907 6896 6895 6894 ] final  -49.02 input  -60.11 | X-H torsion
[ 7974 7965 7964 7962 ] final   17.14 input  175.53 | X-H torsion
[ 8008 7997 7996 7995 ] final   -1.75 input   59.86 | X-H torsion
[ 10167 10162 10161 10158 ] final  134.99 input  -65.29 | X-H torsion
[ 10718 10713 10712 10709 ] final   71.92 input   66.30 | X-H torsion
[ 10763 10752 10751 10750 ] final -140.65 input  -60.55 | X-H torsion
[ 11005 11000 10999 10996 ] final  -30.97 input  -57.11 | X-H torsion

> <Gold.Protein.ActiveResidues>
 VAL166  LYS551  ARG553  GLY616  TRP617  ASP618  TYR619  PRO620  LYS621  CYS622 
 ASP623  PHE694  ASN695  SER759  ASP760  ASP761  ALA762  ILE779  LEU786  VAL792 
 PHE793  MET794  SER795  GLU796  ALA797  LYS798  CYS799  TRP800  GLU811  SER814 

> <Gold.Protein.RotatedAtoms>
  150.8847  134.8243  159.7249 H   0  0  0  0  0  0  0  0  0  0  0  0  # atno 6907 bound_to 6896
  152.4800  134.4742  159.9655 H   0  0  0  0  0  0  0  0  0  0  0  0  # atno 6908 bound_to 6896
  151.4812  133.3507  159.2874 H   0  0  0  0  0  0  0  0  0  0  0  0  # atno 6909 bound_to 6896
  146.2228  139.8645  142.8598 H   0  0  0  0  0  0  0  0  0  0  0  0  # atno 7974 bound_to 7965
  154.6433  140.2551  155.7297 H   0  0  0  0  0  0  0  0  0  0  0  0  # atno 8008 bound_to 7997
  156.2539  140.2883  156.0756 H   0  0  0  0  0  0  0  0  0  0  0  0  # atno 8009 bound_to 7997
  155.1563  140.0383  157.2823 H   0  0  0  0  0  0  0  0  0  0  0  0  # atno 8010 bound_to 7997
  139.5234  144.6539  151.5219 H   0  0  0  0  0  0  0  0  0  0  0  0  # atno 10167 bound_to 10162
  157.6475  130.9552  150.0856 H   0  0  0  0  0  0  0  0  0  0  0  0  # atno 10718 bound_to 10713
  154.8572  135.3547  154.5741 H   0  0  0  0  0  0  0  0  0  0  0  0  # atno 10763 bound_to 10752
  153.6353  135.7000  153.5265 H   0  0  0  0  0  0  0  0  0  0  0  0  # atno 10764 bound_to 10752
  153.3016  135.4205  155.1216 H   0  0  0  0  0  0  0  0  0  0  0  0  # atno 10765 bound_to 10752
  140.9428  133.7268  156.1101 H   0  0  0  0  0  0  0  0  0  0  0  0  # atno 11005 bound_to 11000
  145.2670  141.0096  143.3793 LP  0  0  0  0  0  0  0  0  0  0  0  0  # atno 17320 bound_to 7965
  144.9253  139.4363  143.6521 LP  0  0  0  0  0  0  0  0  0  0  0  0  # atno 17321 bound_to 7965
  140.6357  143.8989  150.6645 LP  0  0  0  0  0  0  0  0  0  0  0  0  # atno 17342 bound_to 10162
  140.2308  143.3737  152.1567 LP  0  0  0  0  0  0  0  0  0  0  0  0  # atno 17343 bound_to 10162
  156.1820  130.3650  149.9023 LP  0  0  0  0  0  0  0  0  0  0  0  0  # atno 17370 bound_to 10713
  156.6973  130.8919  151.3595 LP  0  0  0  0  0  0  0  0  0  0  0  0  # atno 17371 bound_to 10713
  140.7711  134.3832  157.5507 LP  0  0  0  0  0  0  0  0  0  0  0  0  # atno 17394 bound_to 11000
  139.8825  134.9022  156.2828 LP  0  0  0  0  0  0  0  0  0  0  0  0  # atno 17395 bound_to 11000

$$$$
