AV-unprocessed.smi:658|AV-procd|sdf|3234|dock2
  -GOLD-   22720 0183D 1   1.00000     0.00000
 Structure written by MMmdl.
 37 37  0  0  0  0  0  0  0  0  3 V2000
  152.8925  139.3159  159.4612 C   0  0  0  0  0  0  0  0  0  0  0  0
  152.3006  140.6762  159.0572 C   0  0  2  0  0  0  0  0  0  0  0  0
  152.1567  140.7356  157.5843 N   0  3  0  0  0  0  0  0  0  0  0  0
  150.8484  141.2190  157.1029 C   0  0  0  0  0  0  0  0  0  0  0  0
  150.4417  140.4918  155.8173 C   0  0  0  0  0  0  0  0  0  0  0  0
  150.6578  138.9764  155.9064 C   0  0  0  0  0  0  0  0  0  0  0  0
  152.3266  138.5159  155.2800 S   0  0  0  0  0  0  0  0  0  0  0  0
  151.9386  137.4421  154.1411 N   0  5  0  0  0  0  0  0  0  0  0  0
  152.8987  139.7512  154.7231 O   0  0  0  0  0  0  0  0  0  0  0  0
  153.0274  137.9001  156.4168 O   0  0  0  0  0  0  0  0  0  0  0  0
  153.1266  141.8740  159.5953 C   0  0  2  0  0  0  0  0  0  0  0  0
  153.6835  141.6294  161.0106 C   0  0  0  0  0  0  0  0  0  0  0  0
  152.4190  143.1482  159.5043 N   0  0  0  0  0  0  0  0  0  0  0  0
  152.7534  144.2557  158.7514 C   0  0  0  0  0  0  0  0  0  0  0  0
  151.7960  145.2046  158.9691 C   0  0  0  0  0  0  0  0  0  0  0  0
  150.8999  144.5784  159.8786 C   0  0  0  0  0  0  0  0  0  0  0  0
  151.2715  143.3483  160.1925 N   0  0  0  0  0  0  0  0  0  0  0  0
  153.0041  139.2432  160.5433 H   0  0  0  0  0  0  0  0  0  0  0  0
  153.8733  139.1508  159.0138 H   0  0  0  0  0  0  0  0  0  0  0  0
  152.2444  138.4987  159.1431 H   0  0  0  0  0  0  0  0  0  0  0  0
  151.3092  140.7401  159.5094 H   0  0  0  0  0  0  0  0  0  0  0  0
  152.8725  141.3525  157.2261 H   0  0  0  0  0  0  0  0  0  0  0  0
  150.0983  141.0595  157.8786 H   0  0  0  0  0  0  0  0  0  0  0  0
  150.9073  142.2928  156.9203 H   0  0  0  0  0  0  0  0  0  0  0  0
  149.3921  140.6949  155.6004 H   0  0  0  0  0  0  0  0  0  0  0  0
  151.0138  140.8900  154.9785 H   0  0  0  0  0  0  0  0  0  0  0  0
  150.5778  138.6304  156.9372 H   0  0  0  0  0  0  0  0  0  0  0  0
  149.9149  138.4409  155.3148 H   0  0  0  0  0  0  0  0  0  0  0  0
  150.9229  137.4835  153.9961 H   0  0  0  0  0  0  0  0  0  0  0  0
  153.9978  141.9667  158.9448 H   0  0  0  0  0  0  0  0  0  0  0  0
  154.2871  140.7221  161.0419 H   0  0  0  0  0  0  0  0  0  0  0  0
  152.8896  141.5219  161.7504 H   0  0  0  0  0  0  0  0  0  0  0  0
  154.3192  142.4567  161.3278 H   0  0  0  0  0  0  0  0  0  0  0  0
  153.6367  144.2781  158.1300 H   0  0  0  0  0  0  0  0  0  0  0  0
  151.7437  146.1959  158.5434 H   0  0  0  0  0  0  0  0  0  0  0  0
  149.9960  144.9770  160.3153 H   0  0  0  0  0  0  0  0  0  0  0  0
  152.3186  139.8126  157.2077 H   0  0  0  0  0  0  0  0  0  0  0  0
  1  2  1  0  0  0  0
  1 18  1  0  0  0  0
  1 19  1  0  0  0  0
  1 20  1  0  0  0  0
  2  3  1  0  0  0  0
  2 11  1  0  0  0  0
  2 21  1  0  0  0  0
  3  4  1  0  0  0  0
  3 22  1  0  0  0  0
  3 37  1  0  0  0  0
  4  5  1  0  0  0  0
  4 23  1  0  0  0  0
  4 24  1  0  0  0  0
  5  6  1  0  0  0  0
  5 25  1  0  0  0  0
  5 26  1  0  0  0  0
  6  7  1  0  0  0  0
  6 27  1  0  0  0  0
  6 28  1  0  0  0  0
  7  8  1  0  0  0  0
  7  9  2  0  0  0  0
  7 10  2  0  0  0  0
  8 29  1  0  0  0  0
 11 12  1  0  0  0  0
 11 13  1  0  0  0  0
 11 30  1  0  0  0  0
 12 31  1  0  0  0  0
 12 32  1  0  0  0  0
 12 33  1  0  0  0  0
 13 17  1  0  0  0  0
 13 14  1  0  0  0  0
 14 15  2  0  0  0  0
 14 34  1  0  0  0  0
 15 16  1  0  0  0  0
 15 35  1  0  0  0  0
 16 17  2  0  0  0  0
 16 36  1  0  0  0  0
M  CHG  1   3   1
M  CHG  1   8  -1
M  END
> <s_m_source_file>
AV-unprocessed.smi

> <i_m_source_file_index>
658

> <i_lp_mmshare_version>
43012

> <i_f3d_flags>
0

> <s_epik_input>
bjFbY0hdW2NIXVtjSF1uMVtDQEBIXShbQ0gzXSlbQ0BIXShbQ0gzXSlbTkhdW0NIMl1bQ0gyXVtDSDJdUyg9TykoPU8pW05IMl0=

> <s_epik_cmdline>
J2VwaWtfcHl0aG9uJywgJy1waCcsICc3LjAnLCAnLXRuJywgJzgnLCAnLW1hJywgJzIwMCcsICctbWV0YWxfYmluZGluZycsICctaW1hZScsICc8aW5maWxlLm1hZT4nLCAnLW9tYWUnLCAnPG91dGZpbGUubWFlPic=

> <r_lp_tautomer_probability>
1

> <r_epik_Ionization_Penalty>
4.63642

> <r_epik_Ionization_Penalty_Charging>
4.63641

> <r_epik_Ionization_Penalty_Neutral>
1.08396e-05

> <r_epik_State_Penalty>
4.63466

> <r_epik_Charging_Adjusted_Penalty>
9.27106

> <i_epik_Tot_Q>
0

> <i_epik_Tot_abs_Q>
2

> <r_epik_Metal_State_Penalty>
0.890424

> <b_epik_Metal_Only>
1

> <s_lp_Force_Field>
OPLS_2005

> <r_lp_Energy>
0.307927

> <b_lp_Chiralities_Consistent>
1

> <s_lp_Variant>
AV-unprocessed.smi:658-5

> <Gold.Version>
5.8.1

> <Gold.Id.Protein>
6NUR|6NUR_protein|mol2

> <Gold.PLP.Fitness>
48.7983

> <Gold.PLP.PLP>
-41.4242

> <Gold.PLP.part.hbond>
-4.1445

> <Gold.PLP.part.metal>
0.0000

> <Gold.PLP.part.buried>
-5.6404

> <Gold.PLP.part.nonpolar>
-32.6604

> <Gold.PLP.part.repulsive>
0.1885

> <Gold.PLP.ligand.clash>
0.0000

> <Gold.PLP.ligand.torsion>
1.4728

> <Gold.PLP.Chemscore.Hbond>
3.3053

> <Gold.PLP.Chemscore.CHOScore>
0.0000

> <Gold.PLP.Chemscore.Metal>
0.0000

> <Gold.Chemscore.Hbonds>
donor molecule, donor type, donor heavy atom, donor atom, acceptor molecule, acceptor atom, score
      P1  H  7989  7998       L1     9  0.38
      P1  H  7997  8009       L1     9  1.00
      P1  H 10752 10763       L1     8  1.81

> <Gold.PLP.Chemscore.Internal.Correction>
0.4037

> <Gold.Rescore>
     Score         DG    S(hbond)    S(metal)    S(lipo)     H(rot)  DE(clash)    DE(int)     intcor
     13.42     -14.79       2.05        0.00      87.48       3.04       0.02       1.35       ----

> <Gold.Chemscore.Fitness>
13.4167

> <Gold.Chemscore.DG>
-14.7899

> <Gold.Chemscore.ZeroCoef>
-5.4800

> <Gold.Chemscore.Hbond>
2.0536

> <Gold.Chemscore.Metal>
0.0000

> <Gold.Chemscore.Lipo>
87.4848

> <Gold.Chemscore.Internal_Hbond>
0.0000

> <Gold.Chemscore.DEClash>
0.0202

> <Gold.Chemscore.DEInternal>
1.3530

> <Gold.Chemscore.Rot>
3.0409

> <Gold.Chemscore.Internal.Correction>
   9.000000E+99

> <Gold.Chemscore.Hbonds>
donor molecule, donor type, donor heavy atom, donor atom, acceptor molecule, acceptor atom, score
      P1  H  7989  7998       L1     9  0.34
      P1  H  7997  8009       L1     9  0.68
      P1  H 10752 10763       L1     8  0.79

> <Gold.Chemscore.Hbond.Weighted>
-6.8590

> <Gold.Chemscore.Metal.Weighted>
-0.0000

> <Gold.Chemscore.Lipo.Weighted>
-10.2357

> <Gold.Chemscore.Internal_Hbond.Weighted>
0.0000

> <Gold.Chemscore.DEClash.Weighted>
0.0202

> <Gold.Chemscore.DEInternal.Weighted>
1.3530

> <Gold.Chemscore.Rot.Weighted>
7.7848

> <Gold.Chemscore.Internal.Correction.Weighted>
   9.000000E+99

> <Gold.Protein.RotatedTorsions>
[ 6907 6896 6895 6894 ] final  -23.40 input  -60.11 | X-H torsion
[ 7974 7965 7964 7962 ] final -162.70 input  175.53 | X-H torsion
[ 8008 7997 7996 7995 ] final -126.53 input   59.86 | X-H torsion
[ 10167 10162 10161 10158 ] final -112.15 input  -65.29 | X-H torsion
[ 10718 10713 10712 10709 ] final  168.16 input   66.30 | X-H torsion
[ 10763 10752 10751 10750 ] final   26.61 input  -60.55 | X-H torsion
[ 11005 11000 10999 10996 ] final -166.21 input  -57.11 | X-H torsion

> <Gold.Protein.ActiveResidues>
 VAL166  LYS551  ARG553  GLY616  TRP617  ASP618  TYR619  PRO620  LYS621  CYS622 
 ASP623  PHE694  ASN695  SER759  ASP760  ASP761  ALA762  ILE779  LEU786  VAL792 
 PHE793  MET794  SER795  GLU796  ALA797  LYS798  CYS799  TRP800  GLU811  SER814 

> <Gold.Protein.RotatedAtoms>
  151.2045  135.0456  159.8885 H   0  0  0  0  0  0  0  0  0  0  0  0  # atno 6907 bound_to 6896
  152.5430  134.0813  159.8247 H   0  0  0  0  0  0  0  0  0  0  0  0  # atno 6908 bound_to 6896
  151.0958  133.5233  159.2644 H   0  0  0  0  0  0  0  0  0  0  0  0  # atno 6909 bound_to 6896
  144.7349  140.3214  143.6170 H   0  0  0  0  0  0  0  0  0  0  0  0  # atno 7974 bound_to 7965
  155.2312  140.0425  157.2962 H   0  0  0  0  0  0  0  0  0  0  0  0  # atno 8008 bound_to 7997
  154.5887  140.2421  155.7921 H   0  0  0  0  0  0  0  0  0  0  0  0  # atno 8009 bound_to 7997
  156.2244  140.2959  156.0039 H   0  0  0  0  0  0  0  0  0  0  0  0  # atno 8010 bound_to 7997
  140.1259  143.4403  152.1660 H   0  0  0  0  0  0  0  0  0  0  0  0  # atno 10167 bound_to 10162
  157.0412  131.0287  151.2713 H   0  0  0  0  0  0  0  0  0  0  0  0  # atno 10718 bound_to 10713
  153.0611  135.6556  154.0462 H   0  0  0  0  0  0  0  0  0  0  0  0  # atno 10763 bound_to 10752
  154.0129  135.2926  155.3391 H   0  0  0  0  0  0  0  0  0  0  0  0  # atno 10764 bound_to 10752
  154.6949  135.5268  153.8512 H   0  0  0  0  0  0  0  0  0  0  0  0  # atno 10765 bound_to 10752
  140.5670  134.5276  157.5154 H   0  0  0  0  0  0  0  0  0  0  0  0  # atno 11005 bound_to 11000
  145.7565  139.1810  143.2291 LP  0  0  0  0  0  0  0  0  0  0  0  0  # atno 17320 bound_to 7965
  146.1020  140.7532  142.9544 LP  0  0  0  0  0  0  0  0  0  0  0  0  # atno 17321 bound_to 7965
  139.5544  144.7362  151.4337 LP  0  0  0  0  0  0  0  0  0  0  0  0  # atno 17342 bound_to 10162
  140.6845  143.8005  150.7167 LP  0  0  0  0  0  0  0  0  0  0  0  0  # atno 17343 bound_to 10162
  157.5103  130.7934  149.7698 LP  0  0  0  0  0  0  0  0  0  0  0  0  # atno 17370 bound_to 10713
  156.0037  130.3866  150.2508 LP  0  0  0  0  0  0  0  0  0  0  0  0  # atno 17371 bound_to 10713
  139.9380  134.7839  156.0752 LP  0  0  0  0  0  0  0  0  0  0  0  0  # atno 17394 bound_to 11000
  141.1080  133.6653  156.2909 LP  0  0  0  0  0  0  0  0  0  0  0  0  # atno 17395 bound_to 11000

$$$$
