AV-unprocessed.smi:2790|AV-procd|sdf|10766|dock2
  -GOLD-   2272015203D 1   1.00000     0.00000
 Structure written by MMmdl.
 46 47  0  0  0  0  0  0  0  0  2 V2000
  145.9399  135.1208  151.0782 C   0  0  0  0  0  0  0  0  0  0  0  0
  146.3885  135.7261  152.3541 N   0  3  0  0  0  0  0  0  0  0  0  0
  145.6060  136.9357  152.6889 C   0  0  0  0  0  0  0  0  0  0  0  0
  146.4316  134.7548  153.4769 C   0  0  0  0  0  0  0  0  0  0  0  0
  146.9561  135.3663  154.7796 C   0  0  0  0  0  0  0  0  0  0  0  0
  146.5383  134.9727  155.8688 O   0  0  0  0  0  0  0  0  0  0  0  0
  147.8861  136.3218  154.6511 N   0  0  0  0  0  0  0  0  0  0  0  0
  148.5012  137.0352  155.7665 C   0  0  0  0  0  0  0  0  0  0  0  0
  149.5144  138.1099  155.2956 C   0  0  0  0  0  0  0  0  0  0  0  0
  148.7327  139.2988  154.6867 C   0  0  0  0  0  0  0  0  0  0  0  0
  147.8107  139.1430  153.6210 C   0  0  0  0  0  0  0  0  0  0  0  0
  147.1162  140.2701  153.1393 C   0  0  0  0  0  0  0  0  0  0  0  0
  147.2654  141.5088  153.6495 N   0  0  0  0  0  0  0  0  0  0  0  0
  148.1258  141.6613  154.6760 C   0  0  0  0  0  0  0  0  0  0  0  0
  148.8684  140.5998  155.2290 C   0  0  0  0  0  0  0  0  0  0  0  0
  150.3581  138.5509  156.5269 C   0  0  0  0  0  0  0  0  0  0  0  0
  151.5036  139.5109  156.1598 C   0  0  0  0  0  0  0  0  0  0  0  0
  152.4569  138.8578  155.1503 C   0  0  0  0  0  0  0  0  0  0  0  0
  151.6959  138.3724  153.9094 C   0  0  0  0  0  0  0  0  0  0  0  0
  150.5184  137.4536  154.2976 C   0  0  0  0  0  0  0  0  0  0  0  0
  144.9116  134.7649  151.1544 H   0  0  0  0  0  0  0  0  0  0  0  0
  146.5716  134.2785  150.7949 H   0  0  0  0  0  0  0  0  0  0  0  0
  145.9882  135.8517  150.2703 H   0  0  0  0  0  0  0  0  0  0  0  0
  144.5632  136.6839  152.8865 H   0  0  0  0  0  0  0  0  0  0  0  0
  145.6351  137.6538  151.8688 H   0  0  0  0  0  0  0  0  0  0  0  0
  146.0135  137.4283  153.5724 H   0  0  0  0  0  0  0  0  0  0  0  0
  145.4239  134.3926  153.6852 H   0  0  0  0  0  0  0  0  0  0  0  0
  147.0256  133.8837  153.1949 H   0  0  0  0  0  0  0  0  0  0  0  0
  148.1800  136.5865  153.7218 H   0  0  0  0  0  0  0  0  0  0  0  0
  147.7088  137.5053  156.3515 H   0  0  0  0  0  0  0  0  0  0  0  0
  148.9867  136.3155  156.4281 H   0  0  0  0  0  0  0  0  0  0  0  0
  147.6175  138.1877  153.1603 H   0  0  0  0  0  0  0  0  0  0  0  0
  146.4145  140.1710  152.3242 H   0  0  0  0  0  0  0  0  0  0  0  0
  148.2198  142.6598  155.0764 H   0  0  0  0  0  0  0  0  0  0  0  0
  149.5202  140.7998  156.0650 H   0  0  0  0  0  0  0  0  0  0  0  0
  149.7388  138.9966  157.3038 H   0  0  0  0  0  0  0  0  0  0  0  0
  150.7965  137.6681  156.9951 H   0  0  0  0  0  0  0  0  0  0  0  0
  151.1020  140.4375  155.7479 H   0  0  0  0  0  0  0  0  0  0  0  0
  152.0553  139.7883  157.0582 H   0  0  0  0  0  0  0  0  0  0  0  0
  153.2375  139.5618  154.8604 H   0  0  0  0  0  0  0  0  0  0  0  0
  152.9612  138.0128  155.6209 H   0  0  0  0  0  0  0  0  0  0  0  0
  151.3428  139.2338  153.3438 H   0  0  0  0  0  0  0  0  0  0  0  0
  152.3774  137.8369  153.2481 H   0  0  0  0  0  0  0  0  0  0  0  0
  150.9399  136.5595  154.7597 H   0  0  0  0  0  0  0  0  0  0  0  0
  150.0150  137.0892  153.4027 H   0  0  0  0  0  0  0  0  0  0  0  0
  147.3404  136.0348  152.2128 H   0  0  0  0  0  0  0  0  0  0  0  0
  1  2  1  0  0  0  0
  1 21  1  0  0  0  0
  1 22  1  0  0  0  0
  1 23  1  0  0  0  0
  2  3  1  0  0  0  0
  2  4  1  0  0  0  0
  2 46  1  0  0  0  0
  3 24  1  0  0  0  0
  3 25  1  0  0  0  0
  3 26  1  0  0  0  0
  4  5  1  0  0  0  0
  4 27  1  0  0  0  0
  4 28  1  0  0  0  0
  5  6  2  0  0  0  0
  5  7  1  0  0  0  0
  7  8  1  0  0  0  0
  7 29  1  0  0  0  0
  8  9  1  0  0  0  0
  8 30  1  0  0  0  0
  8 31  1  0  0  0  0
  9 20  1  0  0  0  0
  9 10  1  0  0  0  0
  9 16  1  0  0  0  0
 10 15  1  0  0  0  0
 10 11  2  0  0  0  0
 11 12  1  0  0  0  0
 11 32  1  0  0  0  0
 12 13  2  0  0  0  0
 12 33  1  0  0  0  0
 13 14  1  0  0  0  0
 14 15  2  0  0  0  0
 14 34  1  0  0  0  0
 15 35  1  0  0  0  0
 16 17  1  0  0  0  0
 16 36  1  0  0  0  0
 16 37  1  0  0  0  0
 17 18  1  0  0  0  0
 17 38  1  0  0  0  0
 17 39  1  0  0  0  0
 18 19  1  0  0  0  0
 18 40  1  0  0  0  0
 18 41  1  0  0  0  0
 19 20  1  0  0  0  0
 19 42  1  0  0  0  0
 19 43  1  0  0  0  0
 20 44  1  0  0  0  0
 20 45  1  0  0  0  0
M  CHG  1   2   1
M  END
> <s_m_source_file>
AV-unprocessed.smi

> <i_m_source_file_index>
2790

> <i_lp_mmshare_version>
43012

> <i_f3d_flags>
0

> <s_epik_input>
W0NIM11OKFtDSDNdKVtDSDJdQyg9TylbTkhdW0NIMl1DMShbQ0gyXVtDSDJdW0NIMl1bQ0gyXVtDSDJdMSljMltjSF1bY0hdbltjSF1bY0hdMg==

> <s_epik_cmdline>
J2VwaWtfcHl0aG9uJywgJy1waCcsICc3LjAnLCAnLXRuJywgJzgnLCAnLW1hJywgJzIwMCcsICctbWV0YWxfYmluZGluZycsICctaW1hZScsICc8aW5maWxlLm1hZT4nLCAnLW9tYWUnLCAnPG91dGZpbGUubWFlPic=

> <r_epik_Ionization_Penalty>
0.089928

> <r_epik_Ionization_Penalty_Charging>
0.0368445

> <r_epik_Ionization_Penalty_Neutral>
0.0530835

> <r_epik_State_Penalty>
0.0777876

> <r_epik_Charging_Adjusted_Penalty>
0.114632

> <i_epik_Tot_Q>
1

> <i_epik_Tot_abs_Q>
1

> <r_epik_Metal_State_Penalty>
0.0848697

> <b_epik_Metal_Only>
0

> <s_lp_Force_Field>
OPLS_2005

> <r_lp_Energy>
21.8656

> <b_lp_Chiralities_Consistent>
1

> <s_lp_Variant>
AV-unprocessed.smi:2790-1

> <Gold.Version>
5.8.1

> <Gold.Id.Protein>
6NUR|6NUR_protein|mol2

> <Gold.PLP.Fitness>
37.0589

> <Gold.PLP.PLP>
-24.3921

> <Gold.PLP.part.hbond>
-2.0000

> <Gold.PLP.part.metal>
0.0000

> <Gold.PLP.part.buried>
-0.6225

> <Gold.PLP.part.nonpolar>
-21.5106

> <Gold.PLP.part.repulsive>
0.1965

> <Gold.PLP.ligand.clash>
0.0203

> <Gold.PLP.ligand.torsion>
0.5221

> <Gold.PLP.Chemscore.Hbond>
2.9913

> <Gold.PLP.Chemscore.CHOScore>
1.5615

> <Gold.PLP.Chemscore.Metal>
0.0000

> <Gold.Chemscore.Hbonds>
donor molecule, donor type, donor heavy atom, donor atom, acceptor molecule, acceptor atom, score
      L1  H     2    46       P1  7948  2.00
      L1  H     7    29       P1  7948  0.98
      L1  C    12    33       P1 10175  0.44
      L1  C    14    34       P1  8028  1.00

> <Gold.PLP.Chemscore.Internal.Correction>
0.0730

> <Gold.Rescore>
     Score         DG    S(hbond)    S(metal)    S(lipo)     H(rot)  DE(clash)    DE(int)     intcor
     13.47     -17.27       1.92        0.00      82.31       1.65       1.37       2.43       ----

> <Gold.Chemscore.Fitness>
13.4747

> <Gold.Chemscore.DG>
-17.2729

> <Gold.Chemscore.ZeroCoef>
-5.4800

> <Gold.Chemscore.Hbond>
1.9158

> <Gold.Chemscore.Metal>
0.0000

> <Gold.Chemscore.Lipo>
82.3108

> <Gold.Chemscore.Internal_Hbond>
0.0000

> <Gold.Chemscore.DEClash>
1.3660

> <Gold.Chemscore.DEInternal>
2.4322

> <Gold.Chemscore.Rot>
1.6547

> <Gold.Chemscore.Internal.Correction>
   9.000000E+99

> <Gold.Chemscore.Hbonds>
donor molecule, donor type, donor heavy atom, donor atom, acceptor molecule, acceptor atom, score
      L1  H     2    46       P1  7948  1.00
      L1  H     7    29       P1  7948  0.89

> <Gold.Chemscore.Hbond.Weighted>
-6.3987

> <Gold.Chemscore.Metal.Weighted>
-0.0000

> <Gold.Chemscore.Lipo.Weighted>
-9.6304

> <Gold.Chemscore.Internal_Hbond.Weighted>
0.0000

> <Gold.Chemscore.DEClash.Weighted>
1.3660

> <Gold.Chemscore.DEInternal.Weighted>
2.4322

> <Gold.Chemscore.Rot.Weighted>
4.2361

> <Gold.Chemscore.Internal.Correction.Weighted>
   9.000000E+99

> <Gold.Protein.RotatedTorsions>
[ 6907 6896 6895 6894 ] final  -39.43 input  -60.11 | X-H torsion
[ 7974 7965 7964 7962 ] final   47.09 input  175.53 | X-H torsion
[ 8008 7997 7996 7995 ] final  -97.46 input   59.86 | X-H torsion
[ 10167 10162 10161 10158 ] final   27.48 input  -65.29 | X-H torsion
[ 10718 10713 10712 10709 ] final  -34.61 input   66.30 | X-H torsion
[ 10763 10752 10751 10750 ] final   78.61 input  -60.55 | X-H torsion
[ 11005 11000 10999 10996 ] final  -33.66 input  -57.11 | X-H torsion

> <Gold.Protein.ActiveResidues>
 VAL166  LYS551  ARG553  GLY616  TRP617  ASP618  TYR619  PRO620  LYS621  CYS622 
 ASP623  PHE694  ASN695  SER759  ASP760  ASP761  ALA762  ILE779  LEU786  VAL792 
 PHE793  MET794  SER795  GLU796  ALA797  LYS798  CYS799  TRP800  GLU811  SER814 

> <Gold.Protein.RotatedAtoms>
  150.9904  134.9240  159.7896 H   0  0  0  0  0  0  0  0  0  0  0  0  # atno 6907 bound_to 6896
  152.5249  134.3289  159.9185 H   0  0  0  0  0  0  0  0  0  0  0  0  # atno 6908 bound_to 6896
  151.3295  133.3965  159.2696 H   0  0  0  0  0  0  0  0  0  0  0  0  # atno 6909 bound_to 6896
  146.0330  139.4786  142.9826 H   0  0  0  0  0  0  0  0  0  0  0  0  # atno 7974 bound_to 7965
  154.7880  140.0463  157.1179 H   0  0  0  0  0  0  0  0  0  0  0  0  # atno 8008 bound_to 7997
  154.9625  140.3079  155.5005 H   0  0  0  0  0  0  0  0  0  0  0  0  # atno 8009 bound_to 7997
  156.2946  140.2268  156.4711 H   0  0  0  0  0  0  0  0  0  0  0  0  # atno 8010 bound_to 7997
  140.4934  144.0430  150.6305 H   0  0  0  0  0  0  0  0  0  0  0  0  # atno 10167 bound_to 10162
  156.3485  130.4304  149.7725 H   0  0  0  0  0  0  0  0  0  0  0  0  # atno 10718 bound_to 10713
  153.0888  135.4870  154.8649 H   0  0  0  0  0  0  0  0  0  0  0  0  # atno 10763 bound_to 10752
  154.7243  135.3046  154.8998 H   0  0  0  0  0  0  0  0  0  0  0  0  # atno 10764 bound_to 10752
  153.9653  135.6807  153.4799 H   0  0  0  0  0  0  0  0  0  0  0  0  # atno 10765 bound_to 10752
  140.9653  133.7141  156.1435 H   0  0  0  0  0  0  0  0  0  0  0  0  # atno 11005 bound_to 11000
  145.7010  141.0136  143.1504 LP  0  0  0  0  0  0  0  0  0  0  0  0  # atno 17320 bound_to 7965
  144.7039  139.8644  143.7436 LP  0  0  0  0  0  0  0  0  0  0  0  0  # atno 17321 bound_to 7965
  140.3706  143.2857  152.0282 LP  0  0  0  0  0  0  0  0  0  0  0  0  # atno 17342 bound_to 10162
  139.4856  144.6233  151.7213 LP  0  0  0  0  0  0  0  0  0  0  0  0  # atno 17343 bound_to 10162
  156.4935  130.8096  151.3104 LP  0  0  0  0  0  0  0  0  0  0  0  0  # atno 17370 bound_to 10713
  157.7457  130.9968  150.2792 LP  0  0  0  0  0  0  0  0  0  0  0  0  # atno 17371 bound_to 10713
  140.7409  134.4151  157.5555 LP  0  0  0  0  0  0  0  0  0  0  0  0  # atno 17394 bound_to 11000
  139.8892  134.8836  156.2433 LP  0  0  0  0  0  0  0  0  0  0  0  0  # atno 17395 bound_to 11000

$$$$
