#       Name:                AV-unprocessed.smi:3350
#       Creating user name   scv26
#       Creation time:       Fri Mar 27 19:37:23 2020


#       File generated by GOLD software.
#

@<TRIPOS>MOLECULE
AV-unprocessed.smi:3350
    46    47     1
SMALL
NO_CHARGES


@<TRIPOS>ATOM
      1 ****        -3.6426  -1.4710  -1.6812 C.3            1 S1                 0.0000
      2 ****        -2.9844  -0.7709  -0.4819 C.3            1 S1                 0.0000
      3 ****        -3.4463  -1.3854   0.8537 C.3            1 S1                 0.0000
      4 ****        -2.9573  -0.6429   2.0025 N.pl3          1 S1                 0.0000
      5 ****        -3.4961   0.4858   2.5832 C.2            1 S1                 0.0000
      6 ****        -2.6880   0.8300   3.6287 C.2            1 S1                 0.0000
      7 ****        -1.6675  -0.1613   3.6078 C.2            1 S1                 0.0000
      8 ****        -1.8316  -1.0422   2.6341 N.2            1 S1                 0.0000
      9 ****        -1.5296  -0.8506  -0.5944 N.am           1 S1                 0.0000
     10 ****        -0.7537   0.0146  -1.2607 C.2            1 S1                 0.0000
     11 ****        -1.1807   0.9748  -1.9021 O.2            1 S1                 0.0000
     12 ****         0.5445  -0.2931  -1.1385 N.am           1 S1                 0.0000
     13 ****         1.6524   0.4578  -1.7234 C.3            1 S1                 0.0000
     14 ****         1.9549  -0.0763  -3.1325 C.3            1 S1                 0.0000
     15 ****         2.8808   0.3694  -0.7986 C.3            1 S1                 0.0000
     16 ****         2.6487   0.8824   0.6245 C.3            1 S1                 0.0000
     17 ****         4.0366   1.2972   1.0883 C.3            1 S1                 0.0000
     18 ****         4.8671   1.3304  -0.1976 C.3            1 S1                 0.0000
     19 ****         3.9215   1.2206  -1.2518 O.3            1 S1                 0.0000
     20 ****        -4.7295  -1.4064  -1.6240 H              1 S1                 0.0000
     21 ****        -3.3730  -2.5269  -1.7216 H              1 S1                 0.0000
     22 ****        -3.3378  -1.0135  -2.6230 H              1 S1                 0.0000
     23 ****        -3.2884   0.2777  -0.4926 H              1 S1                 0.0000
     24 ****        -4.5359  -1.3940   0.9031 H              1 S1                 0.0000
     25 ****        -3.1243  -2.4251   0.9343 H              1 S1                 0.0000
     26 ****        -4.3981   0.9455   2.2067 H              1 S1                 0.0000
     27 ****        -2.8073   1.6635   4.3047 H              1 S1                 0.0000
     28 ****        -0.8186  -0.2658   4.2672 H              1 S1                 0.0000
     29 ****        -1.0787  -1.6045  -0.0967 H              1 S1                 0.0000
     30 ****         0.7892  -1.1020  -0.5865 H              1 S1                 0.0000
     31 ****         1.3694   1.5090  -1.8060 H              1 S1                 0.0000
     32 ****         2.7666   0.4826  -3.5989 H              1 S1                 0.0000
     33 ****         1.0837   0.0102  -3.7828 H              1 S1                 0.0000
     34 ****         2.2474  -1.1265  -3.1047 H              1 S1                 0.0000
     35 ****         3.2556  -0.6557  -0.7625 H              1 S1                 0.0000
     36 ****         1.9946   1.7556   0.6083 H              1 S1                 0.0000
     37 ****         2.1916   0.1338   1.2720 H              1 S1                 0.0000
     38 ****         4.0070   2.2737   1.5729 H              1 S1                 0.0000
     39 ****         4.4537   0.5820   1.7983 H              1 S1                 0.0000
     40 ****         5.4585   2.2413  -0.2921 H              1 S1                 0.0000
     41 ****         5.5468   0.4779  -0.2369 H              1 S1                 0.0000
     42 ****        -1.2524  -1.8274   2.4149 LP             1 S1                 0.0000
     43 ****        -2.1646   1.1474  -1.9483 LP             1 S1                 0.0000
     44 ****        -0.5437   1.5820  -2.3768 LP             1 S1                 0.0000
     45 ****         3.5526   2.1226  -1.4758 LP             1 S1                 0.0000
     46 ****         4.3564   0.8277  -2.0620 LP             1 S1                 0.0000
@<TRIPOS>BOND
    1    1    2 1     
    2    1   20 1     
    3    1   21 1     
    4    1   22 1     
    5    2    3 1     
    6    2    9 1     
    7    2   23 1     
    8    3    4 1     
    9    3   24 1     
   10    3   25 1     
   11    4    8 1     
   12    4    5 1     
   13    5    6 2     
   14    5   26 1     
   15    6    7 1     
   16    6   27 1     
   17    7    8 2     
   18    7   28 1     
   19    9   10 am    
   20    9   29 1     
   21   10   11 2     
   22   10   12 am    
   23   12   13 1     
   24   12   30 1     
   25   13   14 1     
   26   13   15 1     
   27   13   31 1     
   28   14   32 1     
   29   14   33 1     
   30   14   34 1     
   31   15   19 1     
   32   15   16 1     
   33   15   35 1     
   34   16   17 1     
   35   16   36 1     
   36   16   37 1     
   37   17   18 1     
   38   17   38 1     
   39   17   39 1     
   40   18   19 1     
   41   18   40 1     
   42   18   41 1     
   43    8   42 1     
   44   11   43 1     
   45   11   44 1     
   46   19   45 1     
   47   19   46 1     
@<TRIPOS>SUBSTRUCTURE
      1 S1             1
@<TRIPOS>SET
LONE_PAIRS      STATIC     ATOMS    <user>   **** ""
5 42 43 44 45 46
DONOR_HYDROGENS      STATIC     ATOMS    <user>   **** ""
2 29 30
ATOM$BLUE        STATIC     ATOMS    COLORGROUP SYSTEM
5 42 43 44 45 46
ATOM$RED        STATIC     ATOMS    COLORGROUP SYSTEM
2 29 30
