AV-unprocessed.smi:2078|AV-procd|sdf|8468|dock9
  -GOLD-   2272011173D 1   1.00000     0.00000
 Structure written by MMmdl.
 41 42  0  0  0  0  0  0  0  0  3 V2000
  152.5329  140.2545  158.9870 C   0  0  0  0  0  0  0  0  0  0  0  0
  152.1851  139.9814  157.5637 C   0  0  0  0  0  0  0  0  0  0  0  0
  151.0517  140.1891  156.8301 C   0  0  0  0  0  0  0  0  0  0  0  0
  151.4055  139.7048  155.5412 C   0  0  0  0  0  0  0  0  0  0  0  0
  150.6072  139.6799  154.4625 N   0  5  0  0  0  0  0  0  0  0  0  0
  149.2939  139.3841  154.5933 C   0  0  0  0  0  0  0  0  0  0  0  0
  148.6849  139.1980  155.6491 O   0  0  0  0  0  0  0  0  0  0  0  0
  148.6442  139.2952  153.4253 N   0  0  0  0  0  0  0  0  0  0  0  0
  147.2303  138.9813  153.2742 C   0  0  0  0  0  0  0  0  0  0  0  0
  146.8894  137.6859  154.0270 C   0  0  0  0  0  0  0  0  0  0  0  0
  146.5147  136.5805  153.1101 N   0  3  2  0  0  0  0  0  0  0  0  0
  145.4592  136.9852  152.1458 C   0  0  0  0  0  0  0  0  0  0  0  0
  145.1974  135.8798  151.1107 C   0  0  0  0  0  0  0  0  0  0  0  0
  144.8350  134.5565  151.7986 C   0  0  0  0  0  0  0  0  0  0  0  0
  145.8967  134.1609  152.8414 C   0  0  1  0  0  0  0  0  0  0  0  0
  147.1964  133.6414  152.2019 C   0  0  0  0  0  0  0  0  0  0  0  0
  146.1534  135.3242  153.8223 C   0  0  0  0  0  0  0  0  0  0  0  0
  152.6392  139.2301  155.5005 N   0  0  0  0  0  0  0  0  0  0  0  0
  153.1485  139.4100  156.7922 O   0  0  0  0  0  0  0  0  0  0  0  0
  151.7488  139.8917  159.6514 H   0  0  0  0  0  0  0  0  0  0  0  0
  152.6514  141.3249  159.1552 H   0  0  0  0  0  0  0  0  0  0  0  0
  153.4651  139.7628  159.2657 H   0  0  0  0  0  0  0  0  0  0  0  0
  150.1192  140.6210  157.1608 H   0  0  0  0  0  0  0  0  0  0  0  0
  149.1770  139.4576  152.5832 H   0  0  0  0  0  0  0  0  0  0  0  0
  146.6282  139.8052  153.6616 H   0  0  0  0  0  0  0  0  0  0  0  0
  147.0115  138.8917  152.2102 H   0  0  0  0  0  0  0  0  0  0  0  0
  147.7190  137.3748  154.6636 H   0  0  0  0  0  0  0  0  0  0  0  0
  146.0521  137.8982  154.6936 H   0  0  0  0  0  0  0  0  0  0  0  0
  144.5415  137.2217  152.6868 H   0  0  0  0  0  0  0  0  0  0  0  0
  145.7628  137.8940  151.6245 H   0  0  0  0  0  0  0  0  0  0  0  0
  144.3905  136.1815  150.4420 H   0  0  0  0  0  0  0  0  0  0  0  0
  146.0789  135.7457  150.4830 H   0  0  0  0  0  0  0  0  0  0  0  0
  143.8690  134.6664  152.2933 H   0  0  0  0  0  0  0  0  0  0  0  0
  144.7097  133.7655  151.0583 H   0  0  0  0  0  0  0  0  0  0  0  0
  145.4881  133.3312  153.4196 H   0  0  0  0  0  0  0  0  0  0  0  0
  147.7020  134.4116  151.6193 H   0  0  0  0  0  0  0  0  0  0  0  0
  146.9966  132.8002  151.5374 H   0  0  0  0  0  0  0  0  0  0  0  0
  147.8953  133.2957  152.9643 H   0  0  0  0  0  0  0  0  0  0  0  0
  146.9393  135.0372  154.5201 H   0  0  0  0  0  0  0  0  0  0  0  0
  145.2596  135.5022  154.4224 H   0  0  0  0  0  0  0  0  0  0  0  0
  147.3370  136.3803  152.5585 H   0  0  0  0  0  0  0  0  0  0  0  0
  1  2  1  0  0  0  0
  1 20  1  0  0  0  0
  1 21  1  0  0  0  0
  1 22  1  0  0  0  0
  2 19  1  0  0  0  0
  2  3  2  0  0  0  0
  3  4  1  0  0  0  0
  3 23  1  0  0  0  0
  4  5  1  0  0  0  0
  4 18  2  0  0  0  0
  5  6  1  0  0  0  0
  6  7  2  0  0  0  0
  6  8  1  0  0  0  0
  8  9  1  0  0  0  0
  8 24  1  0  0  0  0
  9 10  1  0  0  0  0
  9 25  1  0  0  0  0
  9 26  1  0  0  0  0
 10 11  1  0  0  0  0
 10 27  1  0  0  0  0
 10 28  1  0  0  0  0
 11 17  1  0  0  0  0
 11 12  1  0  0  0  0
 11 41  1  0  0  0  0
 12 13  1  0  0  0  0
 12 29  1  0  0  0  0
 12 30  1  0  0  0  0
 13 14  1  0  0  0  0
 13 31  1  0  0  0  0
 13 32  1  0  0  0  0
 14 15  1  0  0  0  0
 14 33  1  0  0  0  0
 14 34  1  0  0  0  0
 15 16  1  0  0  0  0
 15 17  1  0  0  0  0
 15 35  1  0  0  0  0
 16 36  1  0  0  0  0
 16 37  1  0  0  0  0
 16 38  1  0  0  0  0
 17 39  1  0  0  0  0
 17 40  1  0  0  0  0
 18 19  1  0  0  0  0
M  CHG  1   5  -1
M  CHG  1  11   1
M  END
> <s_m_source_file>
AV-unprocessed.smi

> <i_m_source_file_index>
2078

> <i_lp_mmshare_version>
43012

> <i_f3d_flags>
0

> <s_epik_input>
W0NIM11jMVtjSF1jKG5vMSlbTkhdQyg9TylbTkhdW0NIMl1bQ0gyXU4yW0NIMl1bQ0gyXVtDSDJdW0NAQEhdKFtDSDNdKVtDSDJdMg==

> <s_epik_cmdline>
J2VwaWtfcHl0aG9uJywgJy1waCcsICc3LjAnLCAnLXRuJywgJzgnLCAnLW1hJywgJzIwMCcsICctbWV0YWxfYmluZGluZycsICctaW1hZScsICc8aW5maWxlLm1hZT4nLCAnLW9tYWUnLCAnPG91dGZpbGUubWFlPic=

> <r_epik_Ionization_Penalty>
6.22434

> <r_epik_Ionization_Penalty_Charging>
6.22425

> <r_epik_Ionization_Penalty_Neutral>
9.37855e-05

> <r_epik_State_Penalty>
6.22423

> <r_epik_Charging_Adjusted_Penalty>
12.4485

> <i_epik_Tot_Q>
0

> <i_epik_Tot_abs_Q>
2

> <r_epik_Metal_State_Penalty>
2.16764

> <b_epik_Metal_Only>
1

> <s_lp_Force_Field>
OPLS_2005

> <r_lp_Energy>
8.87897

> <b_lp_Chiralities_Consistent>
1

> <s_lp_Variant>
AV-unprocessed.smi:2078-6

> <Gold.Version>
5.8.1

> <Gold.Id.Protein>
6NUR|6NUR_protein|mol2

> <Gold.PLP.Fitness>
42.9645

> <Gold.PLP.PLP>
-29.5196

> <Gold.PLP.part.hbond>
-4.7531

> <Gold.PLP.part.metal>
0.0000

> <Gold.PLP.part.buried>
-3.2167

> <Gold.PLP.part.nonpolar>
-22.0036

> <Gold.PLP.part.repulsive>
0.2467

> <Gold.PLP.ligand.clash>
0.0000

> <Gold.PLP.ligand.torsion>
0.7069

> <Gold.PLP.Chemscore.Hbond>
4.9420

> <Gold.PLP.Chemscore.CHOScore>
0.0000

> <Gold.PLP.Chemscore.Metal>
0.0000

> <Gold.Chemscore.Hbonds>
donor molecule, donor type, donor heavy atom, donor atom, acceptor molecule, acceptor atom, score
      L1  H     8    24       P1  7957  1.00
      L1  H    11    41       P1  7948  2.00
      P1  H  7989  7998       L1     5  0.75
      P1  H  7997  8010       L1    19  0.89

> <Gold.PLP.Chemscore.Internal.Correction>
0.0327

> <Gold.Rescore>
     Score         DG    S(hbond)    S(metal)    S(lipo)     H(rot)  DE(clash)    DE(int)     intcor
     14.19     -17.67       3.00        0.00      52.12       1.54       0.05       3.42       ----

> <Gold.Chemscore.Fitness>
14.1903

> <Gold.Chemscore.DG>
-17.6685

> <Gold.Chemscore.ZeroCoef>
-5.4800

> <Gold.Chemscore.Hbond>
3.0045

> <Gold.Chemscore.Metal>
0.0000

> <Gold.Chemscore.Lipo>
52.1214

> <Gold.Chemscore.Internal_Hbond>
0.0000

> <Gold.Chemscore.DEClash>
0.0544

> <Gold.Chemscore.DEInternal>
3.4238

> <Gold.Chemscore.Rot>
1.5409

> <Gold.Chemscore.Internal.Correction>
   9.000000E+99

> <Gold.Chemscore.Hbonds>
donor molecule, donor type, donor heavy atom, donor atom, acceptor molecule, acceptor atom, score
      L1  H     8    24       P1  7957  0.98
      L1  H    11    41       P1  7948  1.00
      P1  H  7989  7998       L1     5  0.09
      P1  H  7997  8010       L1    19  0.70

> <Gold.Chemscore.Hbond.Weighted>
-10.0350

> <Gold.Chemscore.Metal.Weighted>
-0.0000

> <Gold.Chemscore.Lipo.Weighted>
-6.0982

> <Gold.Chemscore.Internal_Hbond.Weighted>
0.0000

> <Gold.Chemscore.DEClash.Weighted>
0.0544

> <Gold.Chemscore.DEInternal.Weighted>
3.4238

> <Gold.Chemscore.Rot.Weighted>
3.9446

> <Gold.Chemscore.Internal.Correction.Weighted>
   9.000000E+99

> <Gold.Protein.RotatedTorsions>
[ 6907 6896 6895 6894 ] final   10.42 input  -60.11 | X-H torsion
[ 7974 7965 7964 7962 ] final  177.92 input  175.53 | X-H torsion
[ 8008 7997 7996 7995 ] final   42.41 input   59.86 | X-H torsion
[ 10167 10162 10161 10158 ] final -147.86 input  -65.29 | X-H torsion
[ 10718 10713 10712 10709 ] final  153.99 input   66.30 | X-H torsion
[ 10763 10752 10751 10750 ] final    6.99 input  -60.55 | X-H torsion
[ 11005 11000 10999 10996 ] final   46.02 input  -57.11 | X-H torsion

> <Gold.Protein.ActiveResidues>
 VAL166  LYS551  ARG553  GLY616  TRP617  ASP618  TYR619  PRO620  LYS621  CYS622 
 ASP623  PHE694  ASN695  SER759  ASP760  ASP761  ALA762  ILE779  LEU786  VAL792 
 PHE793  MET794  SER795  GLU796  ALA797  LYS798  CYS799  TRP800  GLU811  SER814 

> <Gold.Protein.RotatedAtoms>
  151.7380  135.0860  160.0310 H   0  0  0  0  0  0  0  0  0  0  0  0  # atno 6907 bound_to 6896
  152.3498  133.6161  159.5945 H   0  0  0  0  0  0  0  0  0  0  0  0  # atno 6908 bound_to 6896
  150.7532  133.9508  159.3527 H   0  0  0  0  0  0  0  0  0  0  0  0  # atno 6909 bound_to 6896
  144.7162  140.0319  143.6439 H   0  0  0  0  0  0  0  0  0  0  0  0  # atno 7974 bound_to 7965
  155.2857  140.3375  155.4255 H   0  0  0  0  0  0  0  0  0  0  0  0  # atno 8008 bound_to 7997
  156.2069  140.1754  156.7820 H   0  0  0  0  0  0  0  0  0  0  0  0  # atno 8009 bound_to 7997
  154.5633  140.0683  156.8837 H   0  0  0  0  0  0  0  0  0  0  0  0  # atno 8010 bound_to 7997
  139.7583  143.8414  152.2602 H   0  0  0  0  0  0  0  0  0  0  0  0  # atno 10167 bound_to 10162
  157.2376  131.0752  151.1813 H   0  0  0  0  0  0  0  0  0  0  0  0  # atno 10718 bound_to 10713
  153.2414  135.6904  153.7779 H   0  0  0  0  0  0  0  0  0  0  0  0  # atno 10763 bound_to 10752
  153.6907  135.3313  155.3202 H   0  0  0  0  0  0  0  0  0  0  0  0  # atno 10764 bound_to 10752
  154.8357  135.4544  154.1338 H   0  0  0  0  0  0  0  0  0  0  0  0  # atno 10765 bound_to 10752
  140.1407  134.4587  155.8452 H   0  0  0  0  0  0  0  0  0  0  0  0  # atno 11005 bound_to 11000
  146.0095  139.3158  143.0879 LP  0  0  0  0  0  0  0  0  0  0  0  0  # atno 17320 bound_to 7965
  145.8698  140.9426  143.0656 LP  0  0  0  0  0  0  0  0  0  0  0  0  # atno 17321 bound_to 7965
  139.8413  144.7208  150.9328 LP  0  0  0  0  0  0  0  0  0  0  0  0  # atno 17342 bound_to 10162
  140.7805  143.3981  151.1195 LP  0  0  0  0  0  0  0  0  0  0  0  0  # atno 17343 bound_to 10162
  157.3413  130.7035  149.6383 LP  0  0  0  0  0  0  0  0  0  0  0  0  # atno 17370 bound_to 10713
  155.9672  130.4279  150.4764 LP  0  0  0  0  0  0  0  0  0  0  0  0  # atno 17371 bound_to 10713
  141.2185  133.6832  156.7241 LP  0  0  0  0  0  0  0  0  0  0  0  0  # atno 17394 bound_to 11000
  140.2726  134.8380  157.3861 LP  0  0  0  0  0  0  0  0  0  0  0  0  # atno 17395 bound_to 11000

$$$$
