#       Name:                AV-unprocessed.smi:1278
#       Creating user name   scv26
#       Creation time:       Fri Mar 27 04:48:29 2020


#       File generated by GOLD software.
#

@<TRIPOS>MOLECULE
AV-unprocessed.smi:1278
    42    43     1
SMALL
NO_CHARGES


@<TRIPOS>ATOM
      1 ****        -0.9691   4.1614  -2.8447 C.3            1 S1                 0.0000
      2 ****        -1.1736   3.4306  -1.5102 C.3            1 S1                 0.0000
      3 ****        -2.6454   3.4750  -1.0663 C.3            1 S1                 0.0000
      4 ****        -2.8253   2.7153   0.2535 C.3            1 S1                 0.0000
      5 ****        -2.2937   1.2783   0.1374 C.3            1 S1                 0.0000
      6 ****        -0.8698   1.2664  -0.2870 N.4            1 S1                 1.0000
      7 ****        -0.2939  -0.1017  -0.2720 C.3            1 S1                 0.0000
      8 ****         1.2431  -0.0931  -0.1545 C.3            1 S1                 0.0000
      9 ****         1.7824  -1.4460  -0.0761 N.am           1 S1                 0.0000
     10 ****         1.7732  -2.2096   1.0262 C.2            1 S1                 0.0000
     11 ****         1.2937  -1.8399   2.0986 O.2            1 S1                 0.0000
     12 ****         2.3438  -3.4058   0.7993 N.am           1 S1                 0.0000
     13 ****         2.5065  -4.4852   1.7073 C.2            1 S1                 0.0000
     14 ****         2.0903  -4.4701   2.9789 N.2            1 S1                 0.0000
     15 ****         2.3798  -5.6665   3.6398 C.2            1 S1                 0.0000
     16 ****         3.0207  -6.5885   2.8504 C.2            1 S1                 0.0000
     17 ****         3.2873  -5.9875   1.2355 S.3            1 S1                 0.0000
     18 ****        -0.6808   1.9712  -1.5837 C.3            1 S1                 0.0000
     19 ****        -1.5409   3.6923  -3.6461 H              1 S1                 0.0000
     20 ****         0.0808   4.1576  -3.1388 H              1 S1                 0.0000
     21 ****        -1.2871   5.2021  -2.7746 H              1 S1                 0.0000
     22 ****        -0.5781   3.9498  -0.7574 H              1 S1                 0.0000
     23 ****        -2.9746   4.5079  -0.9472 H              1 S1                 0.0000
     24 ****        -3.2810   3.0312  -1.8339 H              1 S1                 0.0000
     25 ****        -2.2987   3.2383   1.0531 H              1 S1                 0.0000
     26 ****        -3.8789   2.7016   0.5344 H              1 S1                 0.0000
     27 ****        -2.3969   0.7829   1.1036 H              1 S1                 0.0000
     28 ****        -2.8926   0.7103  -0.5763 H              1 S1                 0.0000
     29 ****        -0.7001  -0.6437   0.5830 H              1 S1                 0.0000
     30 ****        -0.6123  -0.6490  -1.1608 H              1 S1                 0.0000
     31 ****         1.6976   0.3846  -1.0216 H              1 S1                 0.0000
     32 ****         1.5569   0.4824   0.7182 H              1 S1                 0.0000
     33 ****         2.1983  -1.8231  -0.9154 H              1 S1                 0.0000
     34 ****         2.6996  -3.5664  -0.1315 H              1 S1                 0.0000
     35 ****         2.0925  -5.7768   4.6750 H              1 S1                 0.0000
     36 ****         3.3502  -7.5809   3.1204 H              1 S1                 0.0000
     37 ****        -1.2121   1.4321  -2.3700 H              1 S1                 0.0000
     38 ****         0.3731   1.9699  -1.8595 H              1 S1                 0.0000
     39 ****        -0.3665   1.7935   0.4124 H              1 S1                 0.0000
     40 ****         0.8855  -0.9304   2.1767 LP             1 S1                 0.0000
     41 ****         1.3126  -2.4493   2.8913 LP             1 S1                 0.0000
     42 ****         1.6266  -3.6938   3.4060 LP             1 S1                 0.0000
@<TRIPOS>BOND
    1    1    2 1     
    2    1   19 1     
    3    1   20 1     
    4    1   21 1     
    5    2   18 1     
    6    2    3 1     
    7    2   22 1     
    8    3    4 1     
    9    3   23 1     
   10    3   24 1     
   11    4    5 1     
   12    4   25 1     
   13    4   26 1     
   14    5    6 1     
   15    5   27 1     
   16    5   28 1     
   17    6    7 1     
   18    6   18 1     
   19    6   39 1     
   20    7    8 1     
   21    7   29 1     
   22    7   30 1     
   23    8    9 1     
   24    8   31 1     
   25    8   32 1     
   26    9   10 am    
   27    9   33 1     
   28   10   11 2     
   29   10   12 am    
   30   12   13 1     
   31   12   34 1     
   32   13   17 1     
   33   13   14 2     
   34   14   15 1     
   35   15   16 2     
   36   15   35 1     
   37   16   17 1     
   38   16   36 1     
   39   18   37 1     
   40   18   38 1     
   41   11   40 1     
   42   11   41 1     
   43   14   42 1     
@<TRIPOS>SUBSTRUCTURE
      1 S1             1
@<TRIPOS>SET
LONE_PAIRS      STATIC     ATOMS    <user>   **** ""
3 40 41 42
DONOR_HYDROGENS      STATIC     ATOMS    <user>   **** ""
3 39 33 34
ATOM$BLUE        STATIC     ATOMS    COLORGROUP SYSTEM
3 40 41 42
ATOM$RED        STATIC     ATOMS    COLORGROUP SYSTEM
3 39 33 34
