AV-unprocessed.smi:3056|AV-procd|sdf|11650|dock6
  -GOLD-   2272017 43D 1   1.00000     0.00000
 Structure written by MMmdl.
 48 49  0  0  0  0  0  0  0  0  2 V2000
  146.7769  138.6980  152.0262 C   0  0  0  0  0  0  0  0  0  0  0  0
  147.2444  139.5421  153.1766 C   0  0  0  0  0  0  0  0  0  0  0  0
  146.7331  140.8000  153.6037 C   0  0  0  0  0  0  0  0  0  0  0  0
  147.3787  141.2885  154.6500 N   0  0  0  0  0  0  0  0  0  0  0  0
  148.3130  140.3568  154.9405 N   0  0  0  0  0  0  0  0  0  0  0  0
  149.2451  140.5902  156.0375 C   0  0  1  0  0  0  0  0  0  0  0  0
  148.9909  139.5683  157.1625 C   0  0  0  0  0  0  0  0  0  0  0  0
  150.7159  140.6067  155.5360 C   0  0  2  0  0  0  0  0  0  0  0  0
  151.4093  139.2441  155.7057 C   0  0  0  0  0  0  0  0  0  0  0  0
  151.5123  141.6261  156.2643 N   0  3  0  0  0  0  0  0  0  0  0  0
  150.9945  142.0311  157.5928 C   0  0  0  0  0  0  0  0  0  0  0  0
  151.9524  141.7098  158.7524 C   0  0  0  0  0  0  0  0  0  0  0  0
  152.2135  140.5314  159.0004 O   0  0  0  0  0  0  0  0  0  0  0  0
  152.4727  142.7319  159.4727 N   0  0  0  0  0  0  0  0  0  0  0  0
  152.1678  144.1552  159.2977 C   0  0  0  0  0  0  0  0  0  0  0  0
  151.4242  144.6422  160.5536 C   0  0  0  0  0  0  0  0  0  0  0  0
  152.2264  144.4043  161.7084 O   0  0  0  0  0  0  0  0  0  0  0  0
  152.5721  143.0314  161.8898 C   0  0  2  0  0  0  0  0  0  0  0  0
  153.4096  142.9113  163.1675 C   0  0  0  0  0  0  0  0  0  0  0  0
  153.3320  142.5339  160.6431 C   0  0  0  0  0  0  0  0  0  0  0  0
  148.2589  139.2960  154.0576 C   0  0  0  0  0  0  0  0  0  0  0  0
  145.8203  139.0425  151.6326 H   0  0  0  0  0  0  0  0  0  0  0  0
  146.6462  137.6558  152.3182 H   0  0  0  0  0  0  0  0  0  0  0  0
  147.4884  138.7146  151.2006 H   0  0  0  0  0  0  0  0  0  0  0  0
  145.9201  141.3729  153.1820 H   0  0  0  0  0  0  0  0  0  0  0  0
  149.0190  141.5748  156.4515 H   0  0  0  0  0  0  0  0  0  0  0  0
  149.5267  139.8312  158.0741 H   0  0  0  0  0  0  0  0  0  0  0  0
  149.3004  138.5640  156.8721 H   0  0  0  0  0  0  0  0  0  0  0  0
  147.9320  139.5281  157.4213 H   0  0  0  0  0  0  0  0  0  0  0  0
  150.7241  140.8423  154.4704 H   0  0  0  0  0  0  0  0  0  0  0  0
  150.9448  138.4740  155.0902 H   0  0  0  0  0  0  0  0  0  0  0  0
  151.3806  138.9087  156.7431 H   0  0  0  0  0  0  0  0  0  0  0  0
  152.4558  139.2972  155.4042 H   0  0  0  0  0  0  0  0  0  0  0  0
  152.4460  141.2585  156.3813 H   0  0  0  0  0  0  0  0  0  0  0  0
  150.7477  143.0919  157.5927 H   0  0  0  0  0  0  0  0  0  0  0  0
  150.0665  141.4827  157.7568 H   0  0  0  0  0  0  0  0  0  0  0  0
  153.0995  144.7102  159.1771 H   0  0  0  0  0  0  0  0  0  0  0  0
  151.5752  144.3773  158.4119 H   0  0  0  0  0  0  0  0  0  0  0  0
  151.2183  145.7102  160.4809 H   0  0  0  0  0  0  0  0  0  0  0  0
  150.4627  144.1367  160.6563 H   0  0  0  0  0  0  0  0  0  0  0  0
  151.6574  142.4498  162.0173 H   0  0  0  0  0  0  0  0  0  0  0  0
  153.6952  141.8757  163.3536 H   0  0  0  0  0  0  0  0  0  0  0  0
  152.8494  143.2619  164.0346 H   0  0  0  0  0  0  0  0  0  0  0  0
  154.3223  143.5038  163.0986 H   0  0  0  0  0  0  0  0  0  0  0  0
  153.6286  141.4930  160.7789 H   0  0  0  0  0  0  0  0  0  0  0  0
  154.2581  143.0960  160.5120 H   0  0  0  0  0  0  0  0  0  0  0  0
  148.9430  138.4627  154.1233 H   0  0  0  0  0  0  0  0  0  0  0  0
  151.5648  142.4583  155.6943 H   0  0  0  0  0  0  0  0  0  0  0  0
  1  2  1  0  0  0  0
  1 22  1  0  0  0  0
  1 23  1  0  0  0  0
  1 24  1  0  0  0  0
  2 21  2  0  0  0  0
  2  3  1  0  0  0  0
  3  4  2  0  0  0  0
  3 25  1  0  0  0  0
  4  5  1  0  0  0  0
  5  6  1  0  0  0  0
  5 21  1  0  0  0  0
  6  7  1  0  0  0  0
  6  8  1  0  0  0  0
  6 26  1  0  0  0  0
  7 27  1  0  0  0  0
  7 28  1  0  0  0  0
  7 29  1  0  0  0  0
  8  9  1  0  0  0  0
  8 10  1  0  0  0  0
  8 30  1  0  0  0  0
  9 31  1  0  0  0  0
  9 32  1  0  0  0  0
  9 33  1  0  0  0  0
 10 11  1  0  0  0  0
 10 34  1  0  0  0  0
 10 48  1  0  0  0  0
 11 12  1  0  0  0  0
 11 35  1  0  0  0  0
 11 36  1  0  0  0  0
 12 13  2  0  0  0  0
 12 14  1  0  0  0  0
 14 20  1  0  0  0  0
 14 15  1  0  0  0  0
 15 16  1  0  0  0  0
 15 37  1  0  0  0  0
 15 38  1  0  0  0  0
 16 17  1  0  0  0  0
 16 39  1  0  0  0  0
 16 40  1  0  0  0  0
 17 18  1  0  0  0  0
 18 19  1  0  0  0  0
 18 20  1  0  0  0  0
 18 41  1  0  0  0  0
 19 42  1  0  0  0  0
 19 43  1  0  0  0  0
 19 44  1  0  0  0  0
 20 45  1  0  0  0  0
 20 46  1  0  0  0  0
 21 47  1  0  0  0  0
M  CHG  1  10   1
M  END
> <s_m_source_file>
AV-unprocessed.smi

> <i_m_source_file_index>
3056

> <i_lp_mmshare_version>
43012

> <i_f3d_flags>
0

> <s_epik_input>
W0NIM11jMVtjSF1ubihbY0hdMSlbQ0BIXShbQ0gzXSlbQ0BIXShbQ0gzXSlbTkhdW0NIMl1DKD1PKU4yW0NIMl1bQ0gyXU9bQ0BASF0oW0NIM10pW0NIMl0y

> <s_epik_cmdline>
J2VwaWtfcHl0aG9uJywgJy1waCcsICc3LjAnLCAnLXRuJywgJzgnLCAnLW1hJywgJzIwMCcsICctbWV0YWxfYmluZGluZycsICctaW1hZScsICc8aW5maWxlLm1hZT4nLCAnLW9tYWUnLCAnPG91dGZpbGUubWFlPic=

> <r_lp_tautomer_probability>
1

> <r_epik_Ionization_Penalty>
0.233715

> <r_epik_Ionization_Penalty_Charging>
0.233698

> <r_epik_Ionization_Penalty_Neutral>
1.68157e-05

> <r_epik_State_Penalty>
0.225221

> <r_epik_Charging_Adjusted_Penalty>
0.458919

> <i_epik_Tot_Q>
1

> <i_epik_Tot_abs_Q>
1

> <r_epik_Metal_State_Penalty>
0.225535

> <b_epik_Metal_Only>
0

> <s_lp_Force_Field>
OPLS_2005

> <r_lp_Energy>
28.2676

> <b_lp_Chiralities_Consistent>
1

> <s_lp_Variant>
AV-unprocessed.smi:3056-6

> <Gold.Version>
5.8.1

> <Gold.Id.Protein>
6NUR|6NUR_protein|mol2

> <Gold.PLP.Fitness>
42.3550

> <Gold.PLP.PLP>
-43.7629

> <Gold.PLP.part.hbond>
0.0000

> <Gold.PLP.part.metal>
0.0000

> <Gold.PLP.part.buried>
-0.2212

> <Gold.PLP.part.nonpolar>
-43.2279

> <Gold.PLP.part.repulsive>
0.7494

> <Gold.PLP.ligand.clash>
0.0448

> <Gold.PLP.ligand.torsion>
1.9229

> <Gold.PLP.Chemscore.Hbond>
0.0000

> <Gold.PLP.Chemscore.CHOScore>
0.7943

> <Gold.PLP.Chemscore.Metal>
0.0000

> <Gold.Chemscore.Hbonds>
donor molecule, donor type, donor heavy atom, donor atom, acceptor molecule, acceptor atom, score
      L1  C     3    25       P1 10175  0.79

> <Gold.PLP.Chemscore.Internal.Correction>
0.0998

> <Gold.Rescore>
     Score         DG    S(hbond)    S(metal)    S(lipo)     H(rot)  DE(clash)    DE(int)     intcor
     11.53     -14.06       0.00        0.00     111.32       1.74       0.57       1.96       ----

> <Gold.Chemscore.Fitness>
11.5281

> <Gold.Chemscore.DG>
-14.0613

> <Gold.Chemscore.ZeroCoef>
-5.4800

> <Gold.Chemscore.Hbond>
0.0000

> <Gold.Chemscore.Metal>
0.0000

> <Gold.Chemscore.Lipo>
111.3153

> <Gold.Chemscore.Internal_Hbond>
0.0000

> <Gold.Chemscore.DEClash>
0.5700

> <Gold.Chemscore.DEInternal>
1.9632

> <Gold.Chemscore.Rot>
1.7354

> <Gold.Chemscore.Internal.Correction>
   9.000000E+99

> <Gold.Chemscore.Hbond.Weighted>
-0.0000

> <Gold.Chemscore.Metal.Weighted>
-0.0000

> <Gold.Chemscore.Lipo.Weighted>
-13.0239

> <Gold.Chemscore.Internal_Hbond.Weighted>
0.0000

> <Gold.Chemscore.DEClash.Weighted>
0.5700

> <Gold.Chemscore.DEInternal.Weighted>
1.9632

> <Gold.Chemscore.Rot.Weighted>
4.4426

> <Gold.Chemscore.Internal.Correction.Weighted>
   9.000000E+99

> <Gold.Protein.RotatedTorsions>
[ 6907 6896 6895 6894 ] final  -16.59 input  -60.11 | X-H torsion
[ 7974 7965 7964 7962 ] final   95.80 input  175.53 | X-H torsion
[ 8008 7997 7996 7995 ] final  146.82 input   59.86 | X-H torsion
[ 10167 10162 10161 10158 ] final  -94.95 input  -65.29 | X-H torsion
[ 10718 10713 10712 10709 ] final    7.07 input   66.30 | X-H torsion
[ 10763 10752 10751 10750 ] final   93.06 input  -60.55 | X-H torsion
[ 11005 11000 10999 10996 ] final -135.58 input  -57.11 | X-H torsion

> <Gold.Protein.ActiveResidues>
 VAL166  LYS551  ARG553  GLY616  TRP617  ASP618  TYR619  PRO620  LYS621  CYS622 
 ASP623  PHE694  ASN695  SER759  ASP760  ASP761  ALA762  ILE779  LEU786  VAL792 
 PHE793  MET794  SER795  GLU796  ALA797  LYS798  CYS799  TRP800  GLU811  SER814 

> <Gold.Protein.RotatedAtoms>
  151.3063  135.0782  159.9256 H   0  0  0  0  0  0  0  0  0  0  0  0  # atno 6907 bound_to 6896
  152.5287  133.9781  159.7804 H   0  0  0  0  0  0  0  0  0  0  0  0  # atno 6908 bound_to 6896
  151.0077  133.5943  159.2717 H   0  0  0  0  0  0  0  0  0  0  0  0  # atno 6909 bound_to 6896
  145.4473  139.2296  143.3059 H   0  0  0  0  0  0  0  0  0  0  0  0  # atno 7974 bound_to 7965
  156.2844  140.2172  156.5438 H   0  0  0  0  0  0  0  0  0  0  0  0  # atno 8008 bound_to 7997
  154.7348  140.0492  157.0781 H   0  0  0  0  0  0  0  0  0  0  0  0  # atno 8009 bound_to 7997
  155.0307  140.3134  155.4762 H   0  0  0  0  0  0  0  0  0  0  0  0  # atno 8010 bound_to 7997
  140.3092  143.3115  152.0166 H   0  0  0  0  0  0  0  0  0  0  0  0  # atno 10167 bound_to 10162
  156.9315  130.5827  149.5649 H   0  0  0  0  0  0  0  0  0  0  0  0  # atno 10718 bound_to 10713
  153.2261  135.4339  155.0543 H   0  0  0  0  0  0  0  0  0  0  0  0  # atno 10763 bound_to 10752
  154.8274  135.3368  154.6856 H   0  0  0  0  0  0  0  0  0  0  0  0  # atno 10764 bound_to 10752
  153.7285  135.7012  153.5051 H   0  0  0  0  0  0  0  0  0  0  0  0  # atno 10765 bound_to 10752
  140.8885  134.1842  157.4544 H   0  0  0  0  0  0  0  0  0  0  0  0  # atno 11005 bound_to 11000
  146.2524  140.5228  142.8888 LP  0  0  0  0  0  0  0  0  0  0  0  0  # atno 17320 bound_to 7965
  144.8084  140.6341  143.6432 LP  0  0  0  0  0  0  0  0  0  0  0  0  # atno 17321 bound_to 7965
  139.4897  144.6397  151.6902 LP  0  0  0  0  0  0  0  0  0  0  0  0  # atno 17342 bound_to 10162
  140.5583  144.0311  150.6158 LP  0  0  0  0  0  0  0  0  0  0  0  0  # atno 17343 bound_to 10162
  156.0445  130.5523  150.8849 LP  0  0  0  0  0  0  0  0  0  0  0  0  # atno 17370 bound_to 10713
  157.5844  131.0946  150.9220 LP  0  0  0  0  0  0  0  0  0  0  0  0  # atno 17371 bound_to 10713
  139.8727  134.9848  156.5255 LP  0  0  0  0  0  0  0  0  0  0  0  0  # atno 17394 bound_to 11000
  140.8376  133.8230  155.9043 LP  0  0  0  0  0  0  0  0  0  0  0  0  # atno 17395 bound_to 11000

$$$$
