AV-unprocessed.smi:1126|AV-procd|sdf|4838|dock2
  -GOLD-   22720 3403D 1   1.00000     0.00000
 Structure written by MMmdl.
 48 49  0  0  0  0  0  0  0  0  2 V2000
  145.7892  136.0795  150.3563 C   0  0  0  0  0  0  0  0  0  0  0  0
  145.8194  136.3977  151.7367 O   0  0  0  0  0  0  0  0  0  0  0  0
  146.0942  137.7687  151.9740 C   0  0  0  0  0  0  0  0  0  0  0  0
  145.8102  138.0822  153.4510 C   0  0  0  0  0  0  0  0  0  0  0  0
  146.1233  139.4913  153.8007 N   0  3  2  0  0  0  0  0  0  0  0  0
  147.4889  139.8874  153.3714 C   0  0  0  0  0  0  0  0  0  0  0  0
  147.7385  141.3868  153.6163 C   0  0  0  0  0  0  0  0  0  0  0  0
  147.5048  141.7853  155.0856 C   0  0  2  0  0  0  0  0  0  0  0  0
  148.6446  141.2931  156.0078 C   0  0  0  0  0  0  0  0  0  0  0  0
  149.5687  142.3631  156.3690 N   0  0  0  0  0  0  0  0  0  0  0  0
  150.7175  142.2119  157.0475 C   0  0  0  0  0  0  0  0  0  0  0  0
  151.1124  141.1305  157.4829 O   0  0  0  0  0  0  0  0  0  0  0  0
  151.5436  143.4783  157.2799 C   0  0  0  0  0  0  0  0  0  0  0  0
  151.8470  143.6589  158.6887 N   0  0  0  0  0  0  0  0  0  0  0  0
  152.4212  142.7605  159.5634 C   0  0  0  0  0  0  0  0  0  0  0  0
  152.5206  143.3760  160.7790 C   0  0  0  0  0  0  0  0  0  0  0  0
  153.0769  142.8324  162.0634 C   0  0  0  0  0  0  0  0  0  0  0  0
  151.9704  144.6678  160.5419 C   0  0  0  0  0  0  0  0  0  0  0  0
  151.5688  144.8349  159.2922 N   0  0  0  0  0  0  0  0  0  0  0  0
  146.0968  141.3125  155.5043 C   0  0  0  0  0  0  0  0  0  0  0  0
  145.8837  139.8128  155.2323 C   0  0  0  0  0  0  0  0  0  0  0  0
  145.5757  135.0179  150.2297 H   0  0  0  0  0  0  0  0  0  0  0  0
  146.7492  136.2882  149.8824 H   0  0  0  0  0  0  0  0  0  0  0  0
  145.0123  136.6431  149.8381 H   0  0  0  0  0  0  0  0  0  0  0  0
  147.1224  138.0093  151.7033 H   0  0  0  0  0  0  0  0  0  0  0  0
  145.4483  138.3816  151.3436 H   0  0  0  0  0  0  0  0  0  0  0  0
  144.7694  137.8655  153.6957 H   0  0  0  0  0  0  0  0  0  0  0  0
  146.4145  137.4075  154.0592 H   0  0  0  0  0  0  0  0  0  0  0  0
  148.2289  139.2821  153.8964 H   0  0  0  0  0  0  0  0  0  0  0  0
  147.6122  139.6793  152.3078 H   0  0  0  0  0  0  0  0  0  0  0  0
  148.7498  141.6534  153.3077 H   0  0  0  0  0  0  0  0  0  0  0  0
  147.0682  141.9648  152.9786 H   0  0  0  0  0  0  0  0  0  0  0  0
  147.5134  142.8754  155.1316 H   0  0  0  0  0  0  0  0  0  0  0  0
  148.2512  140.8035  156.8992 H   0  0  0  0  0  0  0  0  0  0  0  0
  149.2283  140.5334  155.4869 H   0  0  0  0  0  0  0  0  0  0  0  0
  149.3315  143.2932  156.0538 H   0  0  0  0  0  0  0  0  0  0  0  0
  152.4719  143.4268  156.7086 H   0  0  0  0  0  0  0  0  0  0  0  0
  150.9967  144.3532  156.9260 H   0  0  0  0  0  0  0  0  0  0  0  0
  152.7108  141.7682  159.2492 H   0  0  0  0  0  0  0  0  0  0  0  0
  152.6454  143.3284  162.9330 H   0  0  0  0  0  0  0  0  0  0  0  0
  154.1572  142.9647  162.1203 H   0  0  0  0  0  0  0  0  0  0  0  0
  152.8769  141.7661  162.1708 H   0  0  0  0  0  0  0  0  0  0  0  0
  151.8530  145.4856  161.2378 H   0  0  0  0  0  0  0  0  0  0  0  0
  145.9032  141.5356  156.5530 H   0  0  0  0  0  0  0  0  0  0  0  0
  145.3521  141.8788  154.9433 H   0  0  0  0  0  0  0  0  0  0  0  0
  144.8643  139.5506  155.5133 H   0  0  0  0  0  0  0  0  0  0  0  0
  146.5428  139.2121  155.8602 H   0  0  0  0  0  0  0  0  0  0  0  0
  145.4867  140.0614  153.2617 H   0  0  0  0  0  0  0  0  0  0  0  0
  1  2  1  0  0  0  0
  1 22  1  0  0  0  0
  1 23  1  0  0  0  0
  1 24  1  0  0  0  0
  2  3  1  0  0  0  0
  3  4  1  0  0  0  0
  3 25  1  0  0  0  0
  3 26  1  0  0  0  0
  4  5  1  0  0  0  0
  4 27  1  0  0  0  0
  4 28  1  0  0  0  0
  5 21  1  0  0  0  0
  5  6  1  0  0  0  0
  5 48  1  0  0  0  0
  6  7  1  0  0  0  0
  6 29  1  0  0  0  0
  6 30  1  0  0  0  0
  7  8  1  0  0  0  0
  7 31  1  0  0  0  0
  7 32  1  0  0  0  0
  8  9  1  0  0  0  0
  8 20  1  0  0  0  0
  8 33  1  0  0  0  0
  9 10  1  0  0  0  0
  9 34  1  0  0  0  0
  9 35  1  0  0  0  0
 10 11  1  0  0  0  0
 10 36  1  0  0  0  0
 11 12  2  0  0  0  0
 11 13  1  0  0  0  0
 13 14  1  0  0  0  0
 13 37  1  0  0  0  0
 13 38  1  0  0  0  0
 14 19  1  0  0  0  0
 14 15  1  0  0  0  0
 15 16  2  0  0  0  0
 15 39  1  0  0  0  0
 16 17  1  0  0  0  0
 16 18  1  0  0  0  0
 17 40  1  0  0  0  0
 17 41  1  0  0  0  0
 17 42  1  0  0  0  0
 18 19  2  0  0  0  0
 18 43  1  0  0  0  0
 20 21  1  0  0  0  0
 20 44  1  0  0  0  0
 20 45  1  0  0  0  0
 21 46  1  0  0  0  0
 21 47  1  0  0  0  0
M  CHG  1   5   1
M  END
> <s_m_source_file>
AV-unprocessed.smi

> <i_m_source_file_index>
1126

> <i_lp_mmshare_version>
43012

> <i_f3d_flags>
0

> <s_epik_input>
W0NIM11PW0NIMl1bQ0gyXU4xW0NIMl1bQ0gyXVtDSF0oW0NIMl1bQ0gyXTEpW0NIMl1bTkhdQyg9TylbQ0gyXW4yW2NIXWMoW0NIM10pW2NIXW4y

> <s_epik_cmdline>
J2VwaWtfcHl0aG9uJywgJy1waCcsICc3LjAnLCAnLXRuJywgJzgnLCAnLW1hJywgJzIwMCcsICctbWV0YWxfYmluZGluZycsICctaW1hZScsICc8aW5maWxlLm1hZT4nLCAnLW9tYWUnLCAnPG91dGZpbGUubWFlPic=

> <r_lp_tautomer_probability>
1

> <r_epik_Ionization_Penalty>
0.00992859

> <r_epik_Ionization_Penalty_Charging>
0.00990284

> <r_epik_Ionization_Penalty_Neutral>
2.57527e-05

> <r_epik_State_Penalty>
0.00754525

> <r_epik_Charging_Adjusted_Penalty>
0.0174481

> <i_epik_Tot_Q>
1

> <i_epik_Tot_abs_Q>
1

> <r_epik_Metal_State_Penalty>
0.00754529

> <b_epik_Metal_Only>
0

> <s_lp_Force_Field>
OPLS_2005

> <r_lp_Energy>
20.6922

> <b_lp_Chiralities_Consistent>
1

> <s_lp_Variant>
AV-unprocessed.smi:1126-2

> <Gold.Version>
5.8.1

> <Gold.Id.Protein>
6NUR|6NUR_protein|mol2

> <Gold.PLP.Fitness>
51.2196

> <Gold.PLP.PLP>
-43.6961

> <Gold.PLP.part.hbond>
-1.9706

> <Gold.PLP.part.metal>
0.0000

> <Gold.PLP.part.buried>
-6.7537

> <Gold.PLP.part.nonpolar>
-36.5182

> <Gold.PLP.part.repulsive>
0.3698

> <Gold.PLP.ligand.clash>
0.0000

> <Gold.PLP.ligand.torsion>
0.8127

> <Gold.PLP.Chemscore.Hbond>
3.0000

> <Gold.PLP.Chemscore.CHOScore>
0.0000

> <Gold.PLP.Chemscore.Metal>
0.0000

> <Gold.Chemscore.Hbonds>
donor molecule, donor type, donor heavy atom, donor atom, acceptor molecule, acceptor atom, score
      L1  H     5    48       P1 10175  2.00
      L1  H    10    36       P1  8028  1.00

> <Gold.PLP.Chemscore.Internal.Correction>
0.1489

> <Gold.Rescore>
     Score         DG    S(hbond)    S(metal)    S(lipo)     H(rot)  DE(clash)    DE(int)     intcor
     17.81     -18.75       1.96        0.00     103.49       2.10       0.12       0.82       ----

> <Gold.Chemscore.Fitness>
17.8089

> <Gold.Chemscore.DG>
-18.7465

> <Gold.Chemscore.ZeroCoef>
-5.4800

> <Gold.Chemscore.Hbond>
1.9568

> <Gold.Chemscore.Metal>
0.0000

> <Gold.Chemscore.Lipo>
103.4903

> <Gold.Chemscore.Internal_Hbond>
0.0000

> <Gold.Chemscore.DEClash>
0.1215

> <Gold.Chemscore.DEInternal>
0.8160

> <Gold.Chemscore.Rot>
2.1006

> <Gold.Chemscore.Internal.Correction>
   9.000000E+99

> <Gold.Chemscore.Hbonds>
donor molecule, donor type, donor heavy atom, donor atom, acceptor molecule, acceptor atom, score
      L1  H     5    48       P1 10175  0.92
      L1  H    10    36       P1  8028  0.94

> <Gold.Chemscore.Hbond.Weighted>
-6.5357

> <Gold.Chemscore.Metal.Weighted>
-0.0000

> <Gold.Chemscore.Lipo.Weighted>
-12.1084

> <Gold.Chemscore.Internal_Hbond.Weighted>
0.0000

> <Gold.Chemscore.DEClash.Weighted>
0.1215

> <Gold.Chemscore.DEInternal.Weighted>
0.8160

> <Gold.Chemscore.Rot.Weighted>
5.3775

> <Gold.Chemscore.Internal.Correction.Weighted>
   9.000000E+99

> <Gold.Protein.RotatedTorsions>
[ 6907 6896 6895 6894 ] final  175.74 input  -60.11 | X-H torsion
[ 7974 7965 7964 7962 ] final  -58.91 input  175.53 | X-H torsion
[ 8008 7997 7996 7995 ] final -119.36 input   59.86 | X-H torsion
[ 10167 10162 10161 10158 ] final -156.06 input  -65.29 | X-H torsion
[ 10718 10713 10712 10709 ] final   70.32 input   66.30 | X-H torsion
[ 10763 10752 10751 10750 ] final  -90.07 input  -60.55 | X-H torsion
[ 11005 11000 10999 10996 ] final  -45.34 input  -57.11 | X-H torsion

> <Gold.Protein.ActiveResidues>
 VAL166  LYS551  ARG553  GLY616  TRP617  ASP618  TYR619  PRO620  LYS621  CYS622 
 ASP623  PHE694  ASN695  SER759  ASP760  ASP761  ALA762  ILE779  LEU786  VAL792 
 PHE793  MET794  SER795  GLU796  ALA797  LYS798  CYS799  TRP800  GLU811  SER814 

> <Gold.Protein.RotatedAtoms>
  151.7313  133.3318  159.3340 H   0  0  0  0  0  0  0  0  0  0  0  0  # atno 6907 bound_to 6896
  150.7611  134.6361  159.6221 H   0  0  0  0  0  0  0  0  0  0  0  0  # atno 6908 bound_to 6896
  152.3590  134.6901  160.0265 H   0  0  0  0  0  0  0  0  0  0  0  0  # atno 6909 bound_to 6896
  145.8337  140.8463  143.0070 H   0  0  0  0  0  0  0  0  0  0  0  0  # atno 7974 bound_to 7965
  155.1144  140.0397  157.2733 H   0  0  0  0  0  0  0  0  0  0  0  0  # atno 8008 bound_to 7997
  154.6661  140.2602  155.7031 H   0  0  0  0  0  0  0  0  0  0  0  0  # atno 8009 bound_to 7997
  156.2639  140.2807  156.1151 H   0  0  0  0  0  0  0  0  0  0  0  0  # atno 8010 bound_to 7997
  139.6881  143.9467  152.2371 H   0  0  0  0  0  0  0  0  0  0  0  0  # atno 10167 bound_to 10162
  157.6394  130.9471  150.0635 H   0  0  0  0  0  0  0  0  0  0  0  0  # atno 10718 bound_to 10713
  154.6620  135.5318  153.8029 H   0  0  0  0  0  0  0  0  0  0  0  0  # atno 10763 bound_to 10752
  153.0447  135.6508  154.0858 H   0  0  0  0  0  0  0  0  0  0  0  0  # atno 10764 bound_to 10752
  154.0765  135.2950  155.3278 H   0  0  0  0  0  0  0  0  0  0  0  0  # atno 10765 bound_to 10752
  141.0509  133.6743  156.2999 H   0  0  0  0  0  0  0  0  0  0  0  0  # atno 11005 bound_to 11000
  144.6738  140.0710  143.7473 LP  0  0  0  0  0  0  0  0  0  0  0  0  # atno 17320 bound_to 7965
  145.9542  139.2755  143.1194 LP  0  0  0  0  0  0  0  0  0  0  0  0  # atno 17321 bound_to 7965
  139.9276  144.6761  150.8396 LP  0  0  0  0  0  0  0  0  0  0  0  0  # atno 17342 bound_to 10162
  140.7674  143.3331  151.2367 LP  0  0  0  0  0  0  0  0  0  0  0  0  # atno 17343 bound_to 10162
  156.1661  130.3645  149.9231 LP  0  0  0  0  0  0  0  0  0  0  0  0  # atno 17370 bound_to 10713
  156.7217  130.9009  151.3619 LP  0  0  0  0  0  0  0  0  0  0  0  0  # atno 17371 bound_to 10713
  140.6057  134.5509  157.5525 LP  0  0  0  0  0  0  0  0  0  0  0  0  # atno 17394 bound_to 11000
  139.9350  134.7893  156.0828 LP  0  0  0  0  0  0  0  0  0  0  0  0  # atno 17395 bound_to 11000

$$$$
