#       Name:                AV-unprocessed.smi:1897
#       Creating user name   scv26
#       Creation time:       Fri Mar 27 09:42:58 2020


#       File generated by GOLD software.
#

@<TRIPOS>MOLECULE
AV-unprocessed.smi:1897
    43    45     1
SMALL
NO_CHARGES


@<TRIPOS>ATOM
      1 ****         0.2626   7.6209  -3.3424 C.3            1 S1                 0.0000
      2 ****         0.5567   6.3253  -2.6670 C.2            1 S1                 0.0000
      3 ****         1.7467   5.7188  -2.7511 N.2            1 S1                 0.0000
      4 ****         1.7827   4.5313  -2.0354 N.2            1 S1                 0.0000
      5 ****         0.6120   4.2675  -1.4366 C.2            1 S1                 0.0000
      6 ****         0.3609   3.1287  -0.6163 N.am           1 S1                 0.0000
      7 ****         1.1442   2.0841  -0.2731 C.2            1 S1                 0.0000
      8 ****         2.2985   1.9937  -0.6873 O.2            1 S1                 0.0000
      9 ****         0.5891   1.1635   0.5322 N.am           1 S1                 0.0000
     10 ****         1.2196  -0.0796   0.9629 C.3            1 S1                 0.0000
     11 ****         0.7268  -0.5580   2.3405 C.3            1 S1                 0.0000
     12 ****         0.5972  -2.0893   2.2208 C.3            1 S1                 0.0000
     13 ****         1.1285  -2.4226   0.8856 N.4            1 S1                 1.0000
     14 ****         0.6665  -3.6873   0.2730 C.3            1 S1                 0.0000
     15 ****         1.3887  -3.8936  -1.0737 C.3            1 S1                 0.0000
     16 ****         1.2362  -2.6685  -1.9985 C.3            1 S1                 0.0000
     17 ****         1.6429  -1.3704  -1.2747 C.3            1 S1                 0.0000
     18 ****         0.8589  -1.2484   0.0428 C.3            1 S1                 0.0000
     19 ****        -0.6382   5.4727  -1.6973 S.3            1 S1                 0.0000
     20 ****         1.1783   8.1974  -3.4779 H              1 S1                 0.0000
     21 ****        -0.4318   8.2087  -2.7419 H              1 S1                 0.0000
     22 ****        -0.1852   7.4382  -4.3192 H              1 S1                 0.0000
     23 ****        -0.5316   3.1506  -0.1440 H              1 S1                 0.0000
     24 ****        -0.3617   1.3208   0.8358 H              1 S1                 0.0000
     25 ****         2.3052   0.0302   1.0063 H              1 S1                 0.0000
     26 ****         1.4282  -0.2726   3.1254 H              1 S1                 0.0000
     27 ****        -0.2417  -0.1239   2.5941 H              1 S1                 0.0000
     28 ****         1.1468  -2.6174   3.0004 H              1 S1                 0.0000
     29 ****        -0.4521  -2.3805   2.2885 H              1 S1                 0.0000
     30 ****         0.8782  -4.5193   0.9453 H              1 S1                 0.0000
     31 ****        -0.4146  -3.6569   0.1265 H              1 S1                 0.0000
     32 ****         2.4486  -4.0743  -0.8896 H              1 S1                 0.0000
     33 ****         1.0067  -4.7862  -1.5702 H              1 S1                 0.0000
     34 ****         1.8365  -2.8003  -2.8992 H              1 S1                 0.0000
     35 ****         0.1992  -2.5900  -2.3277 H              1 S1                 0.0000
     36 ****         2.7154  -1.3748  -1.0758 H              1 S1                 0.0000
     37 ****         1.4459  -0.5106  -1.9156 H              1 S1                 0.0000
     38 ****        -0.2117  -1.2153  -0.1737 H              1 S1                 0.0000
     39 ****         2.1323  -2.4816   0.9809 H              1 S1                 0.0000
     40 ****         2.5211   6.0804  -3.2703 LP             1 S1                 0.0000
     41 ****         2.5874   3.9409  -1.9731 LP             1 S1                 0.0000
     42 ****         2.6708   2.7009  -1.2884 LP             1 S1                 0.0000
     43 ****         2.8648   1.2131  -0.4230 LP             1 S1                 0.0000
@<TRIPOS>BOND
    1    1    2 1     
    2    1   20 1     
    3    1   21 1     
    4    1   22 1     
    5    2   19 1     
    6    2    3 2     
    7    3    4 1     
    8    4    5 2     
    9    5    6 1     
   10    5   19 1     
   11    6    7 am    
   12    6   23 1     
   13    7    8 2     
   14    7    9 am    
   15    9   10 1     
   16    9   24 1     
   17   10   18 1     
   18   10   11 1     
   19   10   25 1     
   20   11   12 1     
   21   11   26 1     
   22   11   27 1     
   23   12   13 1     
   24   12   28 1     
   25   12   29 1     
   26   13   18 1     
   27   13   14 1     
   28   13   39 1     
   29   14   15 1     
   30   14   30 1     
   31   14   31 1     
   32   15   16 1     
   33   15   32 1     
   34   15   33 1     
   35   16   17 1     
   36   16   34 1     
   37   16   35 1     
   38   17   18 1     
   39   17   36 1     
   40   17   37 1     
   41   18   38 1     
   42    3   40 1     
   43    4   41 1     
   44    8   42 1     
   45    8   43 1     
@<TRIPOS>SUBSTRUCTURE
      1 S1             1
@<TRIPOS>SET
LONE_PAIRS      STATIC     ATOMS    <user>   **** ""
4 40 41 42 43
DONOR_HYDROGENS      STATIC     ATOMS    <user>   **** ""
3 23 24 39
ATOM$BLUE        STATIC     ATOMS    COLORGROUP SYSTEM
4 40 41 42 43
ATOM$RED        STATIC     ATOMS    COLORGROUP SYSTEM
3 23 24 39
