AV-unprocessed.smi:1897|AV-procd|sdf|7687|dock6
  -GOLD-   22720 9423D 1   1.00000     0.00000
 Structure written by MMmdl.
 39 41  0  0  0  0  0  0  0  0  2 V2000
  150.1282  142.7591  157.8753 C   0  0  0  0  0  0  0  0  0  0  0  0
  150.0421  141.9085  156.6544 C   0  0  0  0  0  0  0  0  0  0  0  0
  151.1176  141.3597  156.0772 N   0  0  0  0  0  0  0  0  0  0  0  0
  150.7871  140.6038  154.9623 N   0  0  0  0  0  0  0  0  0  0  0  0
  149.4678  140.6140  154.7199 C   0  0  0  0  0  0  0  0  0  0  0  0
  148.8403  139.9032  153.6555 N   0  0  0  0  0  0  0  0  0  0  0  0
  147.6377  139.2950  153.5840 C   0  0  0  0  0  0  0  0  0  0  0  0
  146.8680  139.2907  154.5427 O   0  0  0  0  0  0  0  0  0  0  0  0
  147.3448  138.7049  152.4129 N   0  0  0  0  0  0  0  0  0  0  0  0
  146.1367  137.9385  152.1178 C   0  0  1  0  0  0  0  0  0  0  0  0
  146.1069  137.4077  150.6711 C   0  0  0  0  0  0  0  0  0  0  0  0
  145.5936  135.9691  150.7932 C   0  0  0  0  0  0  0  0  0  0  0  0
  146.1189  135.5413  152.0948 N   0  3  2  0  0  0  0  0  0  0  0  0
  145.6208  134.2773  152.6746 C   0  0  0  0  0  0  0  0  0  0  0  0
  146.4447  133.9620  153.9416 C   0  0  0  0  0  0  0  0  0  0  0  0
  146.4742  135.1492  154.9306 C   0  0  0  0  0  0  0  0  0  0  0  0
  146.8812  136.4653  154.2335 C   0  0  0  0  0  0  0  0  0  0  0  0
  145.9726  136.6859  153.0101 C   0  0  1  0  0  0  0  0  0  0  0  0
  148.5126  141.5373  155.8680 S   0  0  0  0  0  0  0  0  0  0  0  0
  151.1021  143.2462  157.9339 H   0  0  0  0  0  0  0  0  0  0  0  0
  149.9877  142.1463  158.7658 H   0  0  0  0  0  0  0  0  0  0  0  0
  149.3561  143.5283  157.8534 H   0  0  0  0  0  0  0  0  0  0  0  0
  149.3466  139.9338  152.7824 H   0  0  0  0  0  0  0  0  0  0  0  0
  148.0344  138.7661  151.6770 H   0  0  0  0  0  0  0  0  0  0  0  0
  145.2623  138.5772  152.2584 H   0  0  0  0  0  0  0  0  0  0  0  0
  145.4852  138.0160  150.0136 H   0  0  0  0  0  0  0  0  0  0  0  0
  147.1139  137.3950  150.2504 H   0  0  0  0  0  0  0  0  0  0  0  0
  144.5026  135.9511  150.8117 H   0  0  0  0  0  0  0  0  0  0  0  0
  145.9382  135.3279  149.9815 H   0  0  0  0  0  0  0  0  0  0  0  0
  144.5594  134.3644  152.9115 H   0  0  0  0  0  0  0  0  0  0  0  0
  145.7262  133.4715  151.9474 H   0  0  0  0  0  0  0  0  0  0  0  0
  146.0474  133.0744  154.4348 H   0  0  0  0  0  0  0  0  0  0  0  0
  147.4670  133.7173  153.6504 H   0  0  0  0  0  0  0  0  0  0  0  0
  145.4856  135.2689  155.3756 H   0  0  0  0  0  0  0  0  0  0  0  0
  147.1562  134.9342  155.7537 H   0  0  0  0  0  0  0  0  0  0  0  0
  146.7909  137.2971  154.9327 H   0  0  0  0  0  0  0  0  0  0  0  0
  147.9276  136.4177  153.9284 H   0  0  0  0  0  0  0  0  0  0  0  0
  144.9379  136.6939  153.3599 H   0  0  0  0  0  0  0  0  0  0  0  0
  147.1122  135.4211  151.9567 H   0  0  0  0  0  0  0  0  0  0  0  0
  1  2  1  0  0  0  0
  1 20  1  0  0  0  0
  1 21  1  0  0  0  0
  1 22  1  0  0  0  0
  2 19  1  0  0  0  0
  2  3  2  0  0  0  0
  3  4  1  0  0  0  0
  4  5  2  0  0  0  0
  5  6  1  0  0  0  0
  5 19  1  0  0  0  0
  6  7  1  0  0  0  0
  6 23  1  0  0  0  0
  7  8  2  0  0  0  0
  7  9  1  0  0  0  0
  9 10  1  0  0  0  0
  9 24  1  0  0  0  0
 10 18  1  0  0  0  0
 10 11  1  0  0  0  0
 10 25  1  0  0  0  0
 11 12  1  0  0  0  0
 11 26  1  0  0  0  0
 11 27  1  0  0  0  0
 12 13  1  0  0  0  0
 12 28  1  0  0  0  0
 12 29  1  0  0  0  0
 13 18  1  0  0  0  0
 13 14  1  0  0  0  0
 13 39  1  0  0  0  0
 14 15  1  0  0  0  0
 14 30  1  0  0  0  0
 14 31  1  0  0  0  0
 15 16  1  0  0  0  0
 15 32  1  0  0  0  0
 15 33  1  0  0  0  0
 16 17  1  0  0  0  0
 16 34  1  0  0  0  0
 16 35  1  0  0  0  0
 17 18  1  0  0  0  0
 17 36  1  0  0  0  0
 17 37  1  0  0  0  0
 18 38  1  0  0  0  0
M  CHG  1  13   1
M  END
> <s_m_source_file>
AV-unprocessed.smi

> <i_m_source_file_index>
1897

> <i_lp_mmshare_version>
43012

> <i_f3d_flags>
0

> <s_epik_input>
W0NIM11jMW5uYyhzMSlbTkhdQyg9TylbTkhdW0NASF0oW0NIMl1bQ0gyXTIpW0NAQEhdKE4yMylbQ0gyXVtDSDJdW0NIMl1bQ0gyXTM=

> <s_epik_cmdline>
J2VwaWtfcHl0aG9uJywgJy1waCcsICc3LjAnLCAnLXRuJywgJzgnLCAnLW1hJywgJzIwMCcsICctbWV0YWxfYmluZGluZycsICctaW1hZScsICc8aW5maWxlLm1hZT4nLCAnLW9tYWUnLCAnPG91dGZpbGUubWFlPic=

> <r_lp_tautomer_probability>
1

> <r_epik_Ionization_Penalty>
0.00228891

> <r_epik_Ionization_Penalty_Charging>
0.00107044

> <r_epik_Ionization_Penalty_Neutral>
0.00121847

> <r_epik_State_Penalty>
-0

> <r_epik_Charging_Adjusted_Penalty>
0.00107044

> <i_epik_Tot_Q>
1

> <i_epik_Tot_abs_Q>
1

> <r_epik_Metal_State_Penalty>
0.304057

> <b_epik_Metal_Only>
0

> <s_lp_Force_Field>
OPLS_2005

> <r_lp_Energy>
42.6082

> <b_lp_Chiralities_Consistent>
1

> <s_lp_Variant>
AV-unprocessed.smi:1897-4

> <Gold.Version>
5.8.1

> <Gold.Id.Protein>
6NUR|6NUR_protein|mol2

> <Gold.PLP.Fitness>
39.1377

> <Gold.PLP.PLP>
-25.3865

> <Gold.PLP.part.hbond>
-5.0000

> <Gold.PLP.part.metal>
0.0000

> <Gold.PLP.part.buried>
3.6666

> <Gold.PLP.part.nonpolar>
-22.8908

> <Gold.PLP.part.repulsive>
0.4008

> <Gold.PLP.ligand.clash>
0.0000

> <Gold.PLP.ligand.torsion>
0.2289

> <Gold.PLP.Chemscore.Hbond>
4.7360

> <Gold.PLP.Chemscore.CHOScore>
0.0000

> <Gold.PLP.Chemscore.Metal>
0.0000

> <Gold.Chemscore.Hbonds>
donor molecule, donor type, donor heavy atom, donor atom, acceptor molecule, acceptor atom, score
      L1  H     6    23       P1  7957  1.00
      L1  H     9    24       P1  7957  0.74
      L1  H    13    39       P1  7948  2.00
      P1  H  7989  7998       L1     4  0.98

> <Gold.PLP.Chemscore.Internal.Correction>
0.0011

> <Gold.Rescore>
     Score         DG    S(hbond)    S(metal)    S(lipo)     H(rot)  DE(clash)    DE(int)     intcor
     16.52     -20.68       3.37        0.00      55.62       1.00       3.00       1.16       ----

> <Gold.Chemscore.Fitness>
16.5226

> <Gold.Chemscore.DG>
-20.6779

> <Gold.Chemscore.ZeroCoef>
-5.4800

> <Gold.Chemscore.Hbond>
3.3684

> <Gold.Chemscore.Metal>
0.0000

> <Gold.Chemscore.Lipo>
55.6180

> <Gold.Chemscore.Internal_Hbond>
0.0000

> <Gold.Chemscore.DEClash>
2.9996

> <Gold.Chemscore.DEInternal>
1.1557

> <Gold.Chemscore.Rot>
1.0000

> <Gold.Chemscore.Internal.Correction>
   9.000000E+99

> <Gold.Chemscore.Hbonds>
donor molecule, donor type, donor heavy atom, donor atom, acceptor molecule, acceptor atom, score
      L1  H     6    23       P1  7957  0.99
      L1  H     9    24       P1  7957  0.55
      L1  H    13    39       P1  7948  0.92
      P1  H  7989  7998       L1     4  0.62

> <Gold.Chemscore.Hbond.Weighted>
-11.2506

> <Gold.Chemscore.Metal.Weighted>
-0.0000

> <Gold.Chemscore.Lipo.Weighted>
-6.5073

> <Gold.Chemscore.Internal_Hbond.Weighted>
0.0000

> <Gold.Chemscore.DEClash.Weighted>
2.9996

> <Gold.Chemscore.DEInternal.Weighted>
1.1557

> <Gold.Chemscore.Rot.Weighted>
2.5600

> <Gold.Chemscore.Internal.Correction.Weighted>
   9.000000E+99

> <Gold.Protein.RotatedTorsions>
[ 6907 6896 6895 6894 ] final -179.80 input  -60.11 | X-H torsion
[ 7974 7965 7964 7962 ] final  -70.87 input  175.53 | X-H torsion
[ 8008 7997 7996 7995 ] final   66.45 input   59.86 | X-H torsion
[ 10167 10162 10161 10158 ] final  -93.25 input  -65.29 | X-H torsion
[ 10718 10713 10712 10709 ] final  -48.57 input   66.30 | X-H torsion
[ 10763 10752 10751 10750 ] final   75.25 input  -60.55 | X-H torsion
[ 11005 11000 10999 10996 ] final -142.89 input  -57.11 | X-H torsion

> <Gold.Protein.ActiveResidues>
 VAL166  LYS551  ARG553  GLY616  TRP617  ASP618  TYR619  PRO620  LYS621  CYS622 
 ASP623  PHE694  ASN695  SER759  ASP760  ASP761  ALA762  ILE779  LEU786  VAL792 
 PHE793  MET794  SER795  GLU796  ALA797  LYS798  CYS799  TRP800  GLU811  SER814 

> <Gold.Protein.RotatedAtoms>
  151.6592  133.3317  159.3169 H   0  0  0  0  0  0  0  0  0  0  0  0  # atno 6907 bound_to 6896
  150.7922  134.6958  159.6531 H   0  0  0  0  0  0  0  0  0  0  0  0  # atno 6908 bound_to 6896
  152.4003  134.6301  160.0124 H   0  0  0  0  0  0  0  0  0  0  0  0  # atno 6909 bound_to 6896
  145.6854  140.9173  143.0810 H   0  0  0  0  0  0  0  0  0  0  0  0  # atno 7974 bound_to 7965
  155.6775  140.3496  155.4842 H   0  0  0  0  0  0  0  0  0  0  0  0  # atno 8008 bound_to 7997
  155.9635  140.1142  157.0897 H   0  0  0  0  0  0  0  0  0  0  0  0  # atno 8009 bound_to 7997
  154.4149  140.1171  156.5197 H   0  0  0  0  0  0  0  0  0  0  0  0  # atno 8010 bound_to 7997
  140.3265  143.3019  151.9989 H   0  0  0  0  0  0  0  0  0  0  0  0  # atno 10167 bound_to 10162
  156.1976  130.4155  149.9285 H   0  0  0  0  0  0  0  0  0  0  0  0  # atno 10718 bound_to 10713
  153.0642  135.4995  154.8163 H   0  0  0  0  0  0  0  0  0  0  0  0  # atno 10763 bound_to 10752
  154.6929  135.2987  154.9456 H   0  0  0  0  0  0  0  0  0  0  0  0  # atno 10764 bound_to 10752
  154.0205  135.6742  153.4825 H   0  0  0  0  0  0  0  0  0  0  0  0  # atno 10765 bound_to 10752
  140.8180  134.2666  157.4913 H   0  0  0  0  0  0  0  0  0  0  0  0  # atno 11005 bound_to 11000
  144.7013  139.8751  143.7443 LP  0  0  0  0  0  0  0  0  0  0  0  0  # atno 17320 bound_to 7965
  146.0928  139.3919  143.0395 LP  0  0  0  0  0  0  0  0  0  0  0  0  # atno 17321 bound_to 7965
  139.4864  144.6269  151.7146 LP  0  0  0  0  0  0  0  0  0  0  0  0  # atno 17342 bound_to 10162
  140.5436  144.0539  150.6098 LP  0  0  0  0  0  0  0  0  0  0  0  0  # atno 17343 bound_to 10162
  156.7005  130.8931  151.3599 LP  0  0  0  0  0  0  0  0  0  0  0  0  # atno 17370 bound_to 10713
  157.6966  130.9289  150.0664 LP  0  0  0  0  0  0  0  0  0  0  0  0  # atno 17371 bound_to 10713
  139.8710  134.9519  156.4100 LP  0  0  0  0  0  0  0  0  0  0  0  0  # atno 17394 bound_to 11000
  140.9129  133.7699  155.9813 LP  0  0  0  0  0  0  0  0  0  0  0  0  # atno 17395 bound_to 11000

$$$$
