#       Name:                AV-unprocessed.smi:720
#       Creating user name   scv26
#       Creation time:       Fri Mar 27 00:49:12 2020


#       File generated by GOLD software.
#

@<TRIPOS>MOLECULE
AV-unprocessed.smi:720
    50    52     1
SMALL
NO_CHARGES


@<TRIPOS>ATOM
      1 ****        -2.7229   5.7925   2.6889 C.3            1 S1                 0.0000
      2 ****        -2.8134   4.9858   1.4500 N.4            1 S1                 1.0000
      3 ****        -4.2040   4.9159   0.9490 C.3            1 S1                 0.0000
      4 ****        -2.1985   3.6406   1.5736 C.3            1 S1                 0.0000
      5 ****        -0.6635   3.6965   1.6881 C.3            1 S1                 0.0000
      6 ****        -0.0732   2.3739   1.6208 N.pl3          1 S1                 0.0000
      7 ****         0.4860   1.6253   2.6375 C.2            1 S1                 0.0000
      8 ****         0.9156   0.4485   2.0921 C.2            1 S1                 0.0000
      9 ****         0.5693   0.5784   0.7191 C.2            1 S1                 0.0000
     10 ****         0.8595  -0.4581  -0.2036 N.am           1 S1                 0.0000
     11 ****         0.5767  -0.4922  -1.5209 C.2            1 S1                 0.0000
     12 ****        -0.0234   0.3927  -2.1288 O.2            1 S1                 0.0000
     13 ****         0.9997  -1.6050  -2.1471 N.am           1 S1                 0.0000
     14 ****         0.8544  -1.9534  -3.5623 C.3            1 S1                 0.0000
     15 ****         1.8566  -1.2083  -4.4757 C.3            1 S1                 0.0000
     16 ****         2.6161  -2.3587  -5.1622 C.3            1 S1                 0.0000
     17 ****         1.6752  -3.0869  -6.1414 C.3            1 S1                 0.0000
     18 ****         0.7229  -3.8487  -5.1986 C.3            1 S1                 0.0000
     19 ****         1.2271  -3.4321  -3.8043 C.3            1 S1                 0.0000
     20 ****         2.7350  -3.3701  -4.0303 C.3            1 S1                 0.0000
     21 ****        -0.0208   1.7309   0.4351 N.2            1 S1                 0.0000
     22 ****        -3.2334   5.2981   3.5164 H              1 S1                 0.0000
     23 ****        -3.1829   6.7705   2.5432 H              1 S1                 0.0000
     24 ****        -1.6868   5.9658   2.9778 H              1 S1                 0.0000
     25 ****        -4.8488   4.3937   1.6572 H              1 S1                 0.0000
     26 ****        -4.2482   4.3909  -0.0059 H              1 S1                 0.0000
     27 ****        -4.6084   5.9165   0.7920 H              1 S1                 0.0000
     28 ****        -2.6284   3.1100   2.4245 H              1 S1                 0.0000
     29 ****        -2.4584   3.0619   0.6855 H              1 S1                 0.0000
     30 ****        -0.2419   4.3003   0.8830 H              1 S1                 0.0000
     31 ****        -0.3558   4.1581   2.6266 H              1 S1                 0.0000
     32 ****         0.5325   1.9879   3.6539 H              1 S1                 0.0000
     33 ****         1.4020  -0.3735   2.5965 H              1 S1                 0.0000
     34 ****         1.3411  -1.2608   0.1740 H              1 S1                 0.0000
     35 ****         1.4626  -2.2951  -1.5731 H              1 S1                 0.0000
     36 ****        -0.1767  -1.7731  -3.8724 H              1 S1                 0.0000
     37 ****         1.3553  -0.5580  -5.1937 H              1 S1                 0.0000
     38 ****         2.5462  -0.5914  -3.8974 H              1 S1                 0.0000
     39 ****         3.5625  -2.0529  -5.6088 H              1 S1                 0.0000
     40 ****         1.1466  -2.3950  -6.7982 H              1 S1                 0.0000
     41 ****         2.2316  -3.7847  -6.7683 H              1 S1                 0.0000
     42 ****        -0.3235  -3.5878  -5.3609 H              1 S1                 0.0000
     43 ****         0.8241  -4.9254  -5.3411 H              1 S1                 0.0000
     44 ****         0.9056  -4.1079  -3.0109 H              1 S1                 0.0000
     45 ****         3.1656  -4.3230  -4.3434 H              1 S1                 0.0000
     46 ****         3.2895  -2.9935  -3.1690 H              1 S1                 0.0000
     47 ****        -2.2868   5.4772   0.7414 H              1 S1                 0.0000
     48 ****        -0.3377   1.2082  -1.6429 LP             1 S1                 0.0000
     49 ****        -0.1969   0.2966  -3.1089 LP             1 S1                 0.0000
     50 ****        -0.3511   2.0504  -0.4530 LP             1 S1                 0.0000
@<TRIPOS>BOND
    1    1    2 1     
    2    1   22 1     
    3    1   23 1     
    4    1   24 1     
    5    2    3 1     
    6    2    4 1     
    7    2   47 1     
    8    3   25 1     
    9    3   26 1     
   10    3   27 1     
   11    4    5 1     
   12    4   28 1     
   13    4   29 1     
   14    5    6 1     
   15    5   30 1     
   16    5   31 1     
   17    6   21 1     
   18    6    7 1     
   19    7    8 2     
   20    7   32 1     
   21    8    9 1     
   22    8   33 1     
   23    9   10 1     
   24    9   21 2     
   25   10   11 am    
   26   10   34 1     
   27   11   12 2     
   28   11   13 am    
   29   13   14 1     
   30   13   35 1     
   31   14   19 1     
   32   14   15 1     
   33   14   36 1     
   34   15   16 1     
   35   15   37 1     
   36   15   38 1     
   37   16   20 1     
   38   16   17 1     
   39   16   39 1     
   40   17   18 1     
   41   17   40 1     
   42   17   41 1     
   43   18   19 1     
   44   18   42 1     
   45   18   43 1     
   46   19   20 1     
   47   19   44 1     
   48   20   45 1     
   49   20   46 1     
   50   12   48 1     
   51   12   49 1     
   52   21   50 1     
@<TRIPOS>SUBSTRUCTURE
      1 S1             1
@<TRIPOS>SET
LONE_PAIRS      STATIC     ATOMS    <user>   **** ""
3 48 49 50
DONOR_HYDROGENS      STATIC     ATOMS    <user>   **** ""
3 47 34 35
ATOM$BLUE        STATIC     ATOMS    COLORGROUP SYSTEM
3 48 49 50
ATOM$RED        STATIC     ATOMS    COLORGROUP SYSTEM
3 47 34 35
