AV-unprocessed.smi:2155|AV-procd|sdf|8778|dock5
  -GOLD-   2272011553D 1   1.00000     0.00000
 Structure written by MMmdl.
 42 43  0  0  0  0  0  0  0  0  1 V2000
  149.1973  134.5885  155.4648 C   0  0  0  0  0  0  0  0  0  0  0  0
  149.1493  135.9850  155.0840 N   0  0  0  0  0  0  0  0  0  0  0  0
  147.8914  136.5914  154.8480 C   0  0  0  0  0  0  0  0  0  0  0  0
  146.8280  135.9794  154.9535 O   0  0  0  0  0  0  0  0  0  0  0  0
  147.9615  138.0000  154.4780 C   0  0  0  0  0  0  0  0  0  0  0  0
  149.1499  138.6360  154.3876 C   0  0  0  0  0  0  0  0  0  0  0  0
  150.3645  138.0218  154.6335 N   0  0  0  0  0  0  0  0  0  0  0  0
  151.6084  138.7918  154.5024 C   0  0  0  0  0  0  0  0  0  0  0  0
  151.8035  139.8252  155.6208 C   0  0  0  0  0  0  0  0  0  0  0  0
  152.6415  139.6509  156.5069 O   0  0  0  0  0  0  0  0  0  0  0  0
  151.0263  140.9146  155.5532 N   0  0  0  0  0  0  0  0  0  0  0  0
  151.0603  142.0124  156.5116 C   0  0  0  0  0  0  0  0  0  0  0  0
  150.7580  141.5241  157.9387 C   0  0  0  0  0  0  0  0  0  0  0  0
  151.2931  142.4437  159.0265 C   0  0  0  0  0  0  0  0  0  0  0  0
  151.0107  143.7610  159.0506 C   0  0  0  0  0  0  0  0  0  0  0  0
  151.5015  144.7195  160.1212 C   0  0  0  0  0  0  0  0  0  0  0  0
  152.0602  143.9866  161.3523 C   0  0  0  0  0  0  0  0  0  0  0  0
  152.9471  142.8058  160.9384 C   0  0  0  0  0  0  0  0  0  0  0  0
  152.1641  141.7868  160.0912 C   0  0  0  0  0  0  0  0  0  0  0  0
  150.3877  136.6581  154.9960 C   0  0  0  0  0  0  0  0  0  0  0  0
  151.4562  136.0860  155.2274 O   0  0  0  0  0  0  0  0  0  0  0  0
  148.2244  134.1129  155.3441 H   0  0  0  0  0  0  0  0  0  0  0  0
  149.5143  134.5537  156.5082 H   0  0  0  0  0  0  0  0  0  0  0  0
  149.9172  134.0907  154.8123 H   0  0  0  0  0  0  0  0  0  0  0  0
  147.0492  138.5412  154.2738 H   0  0  0  0  0  0  0  0  0  0  0  0
  149.1480  139.6791  154.1066 H   0  0  0  0  0  0  0  0  0  0  0  0
  152.4645  138.1156  154.5111 H   0  0  0  0  0  0  0  0  0  0  0  0
  151.6398  139.2928  153.5329 H   0  0  0  0  0  0  0  0  0  0  0  0
  150.3630  140.9856  154.7952 H   0  0  0  0  0  0  0  0  0  0  0  0
  152.0398  142.4911  156.4751 H   0  0  0  0  0  0  0  0  0  0  0  0
  150.3295  142.7694  156.2232 H   0  0  0  0  0  0  0  0  0  0  0  0
  149.6807  141.4202  158.0711 H   0  0  0  0  0  0  0  0  0  0  0  0
  151.1764  140.5253  158.0709 H   0  0  0  0  0  0  0  0  0  0  0  0
  150.4053  144.1955  158.2684 H   0  0  0  0  0  0  0  0  0  0  0  0
  152.2711  145.3521  159.6781 H   0  0  0  0  0  0  0  0  0  0  0  0
  150.6836  145.3756  160.4199 H   0  0  0  0  0  0  0  0  0  0  0  0
  152.6200  144.6824  161.9779 H   0  0  0  0  0  0  0  0  0  0  0  0
  151.2353  143.6167  161.9625 H   0  0  0  0  0  0  0  0  0  0  0  0
  153.7961  143.1802  160.3646 H   0  0  0  0  0  0  0  0  0  0  0  0
  153.3622  142.3155  161.8193 H   0  0  0  0  0  0  0  0  0  0  0  0
  151.5191  141.1906  160.7375 H   0  0  0  0  0  0  0  0  0  0  0  0
  152.8621  141.0962  159.6170 H   0  0  0  0  0  0  0  0  0  0  0  0
  1  2  1  0  0  0  0
  1 22  1  0  0  0  0
  1 23  1  0  0  0  0
  1 24  1  0  0  0  0
  2 20  1  0  0  0  0
  2  3  1  0  0  0  0
  3  4  2  0  0  0  0
  3  5  1  0  0  0  0
  5  6  2  0  0  0  0
  5 25  1  0  0  0  0
  6  7  1  0  0  0  0
  6 26  1  0  0  0  0
  7  8  1  0  0  0  0
  7 20  1  0  0  0  0
  8  9  1  0  0  0  0
  8 27  1  0  0  0  0
  8 28  1  0  0  0  0
  9 10  2  0  0  0  0
  9 11  1  0  0  0  0
 11 12  1  0  0  0  0
 11 29  1  0  0  0  0
 12 13  1  0  0  0  0
 12 30  1  0  0  0  0
 12 31  1  0  0  0  0
 13 14  1  0  0  0  0
 13 32  1  0  0  0  0
 13 33  1  0  0  0  0
 14 19  1  0  0  0  0
 14 15  2  0  0  0  0
 15 16  1  0  0  0  0
 15 34  1  0  0  0  0
 16 17  1  0  0  0  0
 16 35  1  0  0  0  0
 16 36  1  0  0  0  0
 17 18  1  0  0  0  0
 17 37  1  0  0  0  0
 17 38  1  0  0  0  0
 18 19  1  0  0  0  0
 18 39  1  0  0  0  0
 18 40  1  0  0  0  0
 19 41  1  0  0  0  0
 19 42  1  0  0  0  0
 20 21  2  0  0  0  0
M  END
> <s_m_source_file>
AV-unprocessed.smi

> <i_m_source_file_index>
2155

> <i_lp_mmshare_version>
43012

> <i_f3d_flags>
0

> <s_epik_input>
W0NIM11uMWMoPU8pW2NIXVtjSF1uKGMxPU8pW0NIMl1DKD1PKVtOSF1bQ0gyXVtDSDJdQzI9W0NIXVtDSDJdW0NIMl1bQ0gyXVtDSDJdMg==

> <s_epik_cmdline>
J2VwaWtfcHl0aG9uJywgJy1waCcsICc3LjAnLCAnLXRuJywgJzgnLCAnLW1hJywgJzIwMCcsICctbWV0YWxfYmluZGluZycsICctaW1hZScsICc8aW5maWxlLm1hZT4nLCAnLW9tYWUnLCAnPG91dGZpbGUubWFlPic=

> <r_lp_tautomer_probability>
1

> <r_epik_Ionization_Penalty>
3.01725e-08

> <r_epik_Ionization_Penalty_Charging>
1.20689e-08

> <r_epik_Ionization_Penalty_Neutral>
1.81035e-08

> <r_epik_State_Penalty>
-0

> <r_epik_Charging_Adjusted_Penalty>
1.20689e-08

> <i_epik_Tot_Q>
0

> <i_epik_Tot_abs_Q>
0

> <r_epik_Metal_State_Penalty>
-0

> <b_epik_Metal_Only>
0

> <s_lp_Force_Field>
OPLS_2005

> <r_lp_Energy>
16.2907

> <b_lp_Chiralities_Consistent>
1

> <s_lp_Variant>
AV-unprocessed.smi:2155-1

> <Gold.Version>
5.8.1

> <Gold.Id.Protein>
6NUR|6NUR_protein|mol2

> <Gold.PLP.Fitness>
45.9837

> <Gold.PLP.PLP>
-40.7842

> <Gold.PLP.part.hbond>
-2.0000

> <Gold.PLP.part.metal>
0.0000

> <Gold.PLP.part.buried>
-7.0939

> <Gold.PLP.part.nonpolar>
-32.7558

> <Gold.PLP.part.repulsive>
1.0598

> <Gold.PLP.ligand.clash>
0.0000

> <Gold.PLP.ligand.torsion>
0.4326

> <Gold.PLP.Chemscore.Hbond>
2.0000

> <Gold.PLP.Chemscore.CHOScore>
0.0000

> <Gold.PLP.Chemscore.Metal>
0.0000

> <Gold.Chemscore.Hbonds>
donor molecule, donor type, donor heavy atom, donor atom, acceptor molecule, acceptor atom, score
      P1  H  7997  8009       L1    10  1.00
      P1  H 10752 10763       L1    21  0.98

> <Gold.PLP.Chemscore.Internal.Correction>
0.0647

> <Gold.Rescore>
     Score         DG    S(hbond)    S(metal)    S(lipo)     H(rot)  DE(clash)    DE(int)     intcor
     17.08     -18.41       2.00        0.00      95.95       1.94       0.17       1.16       ----

> <Gold.Chemscore.Fitness>
17.0785

> <Gold.Chemscore.DG>
-18.4069

> <Gold.Chemscore.ZeroCoef>
-5.4800

> <Gold.Chemscore.Hbond>
1.9955

> <Gold.Chemscore.Metal>
0.0000

> <Gold.Chemscore.Lipo>
95.9482

> <Gold.Chemscore.Internal_Hbond>
0.0000

> <Gold.Chemscore.DEClash>
0.1695

> <Gold.Chemscore.DEInternal>
1.1590

> <Gold.Chemscore.Rot>
1.9390

> <Gold.Chemscore.Internal.Correction>
   9.000000E+99

> <Gold.Chemscore.Hbonds>
donor molecule, donor type, donor heavy atom, donor atom, acceptor molecule, acceptor atom, score
      P1  H  7997  8009       L1    10  1.00
      P1  H 10752 10763       L1    21  0.93

> <Gold.Chemscore.Hbond.Weighted>
-6.6649

> <Gold.Chemscore.Metal.Weighted>
-0.0000

> <Gold.Chemscore.Lipo.Weighted>
-11.2259

> <Gold.Chemscore.Internal_Hbond.Weighted>
0.0000

> <Gold.Chemscore.DEClash.Weighted>
0.1695

> <Gold.Chemscore.DEInternal.Weighted>
1.1590

> <Gold.Chemscore.Rot.Weighted>
4.9639

> <Gold.Chemscore.Internal.Correction.Weighted>
   9.000000E+99

> <Gold.Protein.RotatedTorsions>
[ 6907 6896 6895 6894 ] final  167.77 input  -60.11 | X-H torsion
[ 7974 7965 7964 7962 ] final -121.82 input  175.53 | X-H torsion
[ 8008 7997 7996 7995 ] final -167.75 input   59.86 | X-H torsion
[ 10167 10162 10161 10158 ] final   31.04 input  -65.29 | X-H torsion
[ 10718 10713 10712 10709 ] final   10.24 input   66.30 | X-H torsion
[ 10763 10752 10751 10750 ] final   87.13 input  -60.55 | X-H torsion
[ 11005 11000 10999 10996 ] final  -99.36 input  -57.11 | X-H torsion

> <Gold.Protein.ActiveResidues>
 VAL166  LYS551  ARG553  GLY616  TRP617  ASP618  TYR619  PRO620  LYS621  CYS622 
 ASP623  PHE694  ASN695  SER759  ASP760  ASP761  ALA762  ILE779  LEU786  VAL792 
 PHE793  MET794  SER795  GLU796  ALA797  LYS798  CYS799  TRP800  GLU811  SER814 

> <Gold.Protein.RotatedAtoms>
  151.8581  133.3452  159.3694 H   0  0  0  0  0  0  0  0  0  0  0  0  # atno 6907 bound_to 6896
  150.7187  134.5233  159.5674 H   0  0  0  0  0  0  0  0  0  0  0  0  # atno 6908 bound_to 6896
  152.2741  134.7901  160.0460 H   0  0  0  0  0  0  0  0  0  0  0  0  # atno 6909 bound_to 6896
  145.0362  140.8108  143.4294 H   0  0  0  0  0  0  0  0  0  0  0  0  # atno 7974 bound_to 7965
  155.8820  140.1010  157.1479 H   0  0  0  0  0  0  0  0  0  0  0  0  # atno 8008 bound_to 7997
  154.4006  140.1327  156.4271 H   0  0  0  0  0  0  0  0  0  0  0  0  # atno 8009 bound_to 7997
  155.7632  140.3462  155.5211 H   0  0  0  0  0  0  0  0  0  0  0  0  # atno 8010 bound_to 7997
  140.4624  144.0887  150.6216 H   0  0  0  0  0  0  0  0  0  0  0  0  # atno 10167 bound_to 10162
  156.9781  130.5995  149.5674 H   0  0  0  0  0  0  0  0  0  0  0  0  # atno 10718 bound_to 10713
  153.1638  135.4555  154.9808 H   0  0  0  0  0  0  0  0  0  0  0  0  # atno 10763 bound_to 10752
  154.7917  135.3223  154.7765 H   0  0  0  0  0  0  0  0  0  0  0  0  # atno 10764 bound_to 10752
  153.8251  135.6943  153.4876 H   0  0  0  0  0  0  0  0  0  0  0  0  # atno 10765 bound_to 10752
  141.1311  133.8315  157.0961 H   0  0  0  0  0  0  0  0  0  0  0  0  # atno 11005 bound_to 11000
  145.1706  139.2406  143.5344 LP  0  0  0  0  0  0  0  0  0  0  0  0  # atno 17320 bound_to 7965
  146.3504  140.1456  142.8593 LP  0  0  0  0  0  0  0  0  0  0  0  0  # atno 17321 bound_to 7965
  140.4077  143.2672  151.9871 LP  0  0  0  0  0  0  0  0  0  0  0  0  # atno 17342 bound_to 10162
  139.4808  144.5942  151.7718 LP  0  0  0  0  0  0  0  0  0  0  0  0  # atno 17343 bound_to 10162
  156.0255  130.5349  150.8395 LP  0  0  0  0  0  0  0  0  0  0  0  0  # atno 17370 bound_to 10713
  157.5545  131.0944  150.9648 LP  0  0  0  0  0  0  0  0  0  0  0  0  # atno 17371 bound_to 10713
  140.0362  134.9877  157.0875 LP  0  0  0  0  0  0  0  0  0  0  0  0  # atno 17394 bound_to 11000
  140.4207  134.1884  155.7164 LP  0  0  0  0  0  0  0  0  0  0  0  0  # atno 17395 bound_to 11000

$$$$
