AV-unprocessed.smi:2528|AV-procd|sdf|9955|dock8
  -GOLD-   2272013593D 1   1.00000     0.00000
 Structure written by MMmdl.
 44 46  0  0  0  0  0  0  0  0  2 V2000
  151.0520  140.7800  155.9112 O   0  0  0  0  0  0  0  0  0  0  0  0
  150.2385  141.7045  155.9101 C   0  0  0  0  0  0  0  0  0  0  0  0
  149.1880  141.7580  155.0786 N   0  0  0  0  0  0  0  0  0  0  0  0
  148.8542  140.7404  154.0872 C   0  0  0  0  0  0  0  0  0  0  0  0
  147.3732  140.3279  154.1603 C   0  0  1  0  0  0  0  0  0  0  0  0
  147.0904  139.0494  153.3509 C   0  0  0  0  0  0  0  0  0  0  0  0
  145.6693  138.6550  153.4875 N   0  3  1  0  0  0  0  0  0  0  0  0
  145.3350  137.4521  152.6842 C   0  0  0  0  0  0  0  0  0  0  0  0
  143.8347  137.1298  152.7714 C   0  0  0  0  0  0  0  0  0  0  0  0
  143.3994  136.9554  154.2321 C   0  0  0  0  0  0  0  0  0  0  0  0
  143.7812  138.1988  155.0468 C   0  0  0  0  0  0  0  0  0  0  0  0
  145.2853  138.5120  154.9184 C   0  0  2  0  0  0  0  0  0  0  0  0
  145.6590  139.7908  155.6943 C   0  0  0  0  0  0  0  0  0  0  0  0
  147.0408  140.0778  155.5219 O   0  0  0  0  0  0  0  0  0  0  0  0
  150.2769  142.7778  156.7192 N   0  0  0  0  0  0  0  0  0  0  0  0
  151.2206  143.0759  157.7386 C   0  0  0  0  0  0  0  0  0  0  0  0
  151.8816  141.9545  158.2892 C   0  0  0  0  0  0  0  0  0  0  0  0
  152.8396  142.1441  159.3040 C   0  0  0  0  0  0  0  0  0  0  0  0
  153.1119  143.4516  159.7440 C   0  0  0  0  0  0  0  0  0  0  0  0
  152.4082  144.5124  159.1445 C   0  0  0  0  0  0  0  0  0  0  0  0
  151.4897  144.3332  158.1716 N   0  0  0  0  0  0  0  0  0  0  0  0
  148.5702  142.5542  155.1396 H   0  0  0  0  0  0  0  0  0  0  0  0
  149.0950  141.1139  153.0905 H   0  0  0  0  0  0  0  0  0  0  0  0
  149.4941  139.8736  154.2549 H   0  0  0  0  0  0  0  0  0  0  0  0
  146.7521  141.1391  153.7758 H   0  0  0  0  0  0  0  0  0  0  0  0
  147.3208  139.2178  152.2981 H   0  0  0  0  0  0  0  0  0  0  0  0
  147.7309  138.2352  153.6940 H   0  0  0  0  0  0  0  0  0  0  0  0
  145.6111  137.6201  151.6426 H   0  0  0  0  0  0  0  0  0  0  0  0
  145.9221  136.6020  153.0354 H   0  0  0  0  0  0  0  0  0  0  0  0
  143.2594  137.9333  152.3094 H   0  0  0  0  0  0  0  0  0  0  0  0
  143.6132  136.2248  152.2051 H   0  0  0  0  0  0  0  0  0  0  0  0
  142.3241  136.7839  154.2874 H   0  0  0  0  0  0  0  0  0  0  0  0
  143.8798  136.0735  154.6579 H   0  0  0  0  0  0  0  0  0  0  0  0
  143.1950  139.0521  154.7021 H   0  0  0  0  0  0  0  0  0  0  0  0
  143.5181  138.0469  156.0943 H   0  0  0  0  0  0  0  0  0  0  0  0
  145.8521  137.6789  155.3384 H   0  0  0  0  0  0  0  0  0  0  0  0
  145.0580  140.6411  155.3670 H   0  0  0  0  0  0  0  0  0  0  0  0
  145.4629  139.6556  156.7584 H   0  0  0  0  0  0  0  0  0  0  0  0
  149.5394  143.4565  156.6004 H   0  0  0  0  0  0  0  0  0  0  0  0
  151.6616  140.9562  157.9393 H   0  0  0  0  0  0  0  0  0  0  0  0
  153.3563  141.3001  159.7366 H   0  0  0  0  0  0  0  0  0  0  0  0
  153.8397  143.6369  160.5202 H   0  0  0  0  0  0  0  0  0  0  0  0
  152.5865  145.5315  159.4540 H   0  0  0  0  0  0  0  0  0  0  0  0
  145.1200  139.4159  153.1138 H   0  0  0  0  0  0  0  0  0  0  0  0
  1  2  2  0  0  0  0
  2  3  1  0  0  0  0
  2 15  1  0  0  0  0
  3  4  1  0  0  0  0
  3 22  1  0  0  0  0
  4  5  1  0  0  0  0
  4 23  1  0  0  0  0
  4 24  1  0  0  0  0
  5 14  1  0  0  0  0
  5  6  1  0  0  0  0
  5 25  1  0  0  0  0
  6  7  1  0  0  0  0
  6 26  1  0  0  0  0
  6 27  1  0  0  0  0
  7 12  1  0  0  0  0
  7  8  1  0  0  0  0
  7 44  1  0  0  0  0
  8  9  1  0  0  0  0
  8 28  1  0  0  0  0
  8 29  1  0  0  0  0
  9 10  1  0  0  0  0
  9 30  1  0  0  0  0
  9 31  1  0  0  0  0
 10 11  1  0  0  0  0
 10 32  1  0  0  0  0
 10 33  1  0  0  0  0
 11 12  1  0  0  0  0
 11 34  1  0  0  0  0
 11 35  1  0  0  0  0
 12 13  1  0  0  0  0
 12 36  1  0  0  0  0
 13 14  1  0  0  0  0
 13 37  1  0  0  0  0
 13 38  1  0  0  0  0
 15 16  1  0  0  0  0
 15 39  1  0  0  0  0
 16 21  1  0  0  0  0
 16 17  2  0  0  0  0
 17 18  1  0  0  0  0
 17 40  1  0  0  0  0
 18 19  2  0  0  0  0
 18 41  1  0  0  0  0
 19 20  1  0  0  0  0
 19 42  1  0  0  0  0
 20 21  2  0  0  0  0
 20 43  1  0  0  0  0
M  CHG  1   7   1
M  END
> <s_m_source_file>
AV-unprocessed.smi

> <i_m_source_file_index>
2528

> <i_lp_mmshare_version>
43012

> <i_f3d_flags>
0

> <s_epik_input>
bjFbY0hdW2NIXVtjSF1bY0hdYzFbTkhdQyg9TylbTkhdW0NIMl1bQ0BIXShbQ0gyXTIpT1tDSDJdW0NAQEhdKE4yMylbQ0gyXVtDSDJdW0NIMl1bQ0gyXTM=

> <s_epik_cmdline>
J2VwaWtfcHl0aG9uJywgJy1waCcsICc3LjAnLCAnLXRuJywgJzgnLCAnLW1hJywgJzIwMCcsICctbWV0YWxfYmluZGluZycsICctaW1hZScsICc8aW5maWxlLm1hZT4nLCAnLW9tYWUnLCAnPG91dGZpbGUubWFlPic=

> <r_epik_Ionization_Penalty>
0.0932337

> <r_epik_Ionization_Penalty_Charging>
0.0931942

> <r_epik_Ionization_Penalty_Neutral>
3.9565e-05

> <r_epik_State_Penalty>
0.0834605

> <r_epik_Charging_Adjusted_Penalty>
0.176655

> <i_epik_Tot_Q>
1

> <i_epik_Tot_abs_Q>
1

> <r_epik_Metal_State_Penalty>
0.0834607

> <b_epik_Metal_Only>
0

> <s_lp_Force_Field>
OPLS_2005

> <r_lp_Energy>
24.376

> <b_lp_Chiralities_Consistent>
1

> <s_lp_Variant>
AV-unprocessed.smi:2528-8

> <Gold.Version>
5.8.1

> <Gold.Id.Protein>
6NUR|6NUR_protein|mol2

> <Gold.PLP.Fitness>
44.8804

> <Gold.PLP.PLP>
-35.3511

> <Gold.PLP.part.hbond>
-3.0000

> <Gold.PLP.part.metal>
0.0000

> <Gold.PLP.part.buried>
-4.5678

> <Gold.PLP.part.nonpolar>
-28.7242

> <Gold.PLP.part.repulsive>
0.4059

> <Gold.PLP.ligand.clash>
0.0000

> <Gold.PLP.ligand.torsion>
0.2674

> <Gold.PLP.Chemscore.Hbond>
3.3546

> <Gold.PLP.Chemscore.CHOScore>
0.0000

> <Gold.PLP.Chemscore.Metal>
0.0000

> <Gold.Chemscore.Hbonds>
donor molecule, donor type, donor heavy atom, donor atom, acceptor molecule, acceptor atom, score
      L1  H     3    22       P1  8028  0.34
      L1  H     7    44       P1 10175  2.00
      L1  H    15    39       P1  8028  0.96

> <Gold.PLP.Chemscore.Internal.Correction>
0.0002

> <Gold.Rescore>
     Score         DG    S(hbond)    S(metal)    S(lipo)     H(rot)  DE(clash)    DE(int)     intcor
     19.15     -20.95       2.78        0.00      80.97       1.29       0.16       1.64       ----

> <Gold.Chemscore.Fitness>
19.1493

> <Gold.Chemscore.DG>
-20.9478

> <Gold.Chemscore.ZeroCoef>
-5.4800

> <Gold.Chemscore.Hbond>
2.7811

> <Gold.Chemscore.Metal>
0.0000

> <Gold.Chemscore.Lipo>
80.9718

> <Gold.Chemscore.Internal_Hbond>
0.0000

> <Gold.Chemscore.DEClash>
0.1616

> <Gold.Chemscore.DEInternal>
1.6369

> <Gold.Chemscore.Rot>
1.2870

> <Gold.Chemscore.Internal.Correction>
   9.000000E+99

> <Gold.Chemscore.Hbonds>
donor molecule, donor type, donor heavy atom, donor atom, acceptor molecule, acceptor atom, score
      L1  H     3    22       P1  8028  0.34
      L1  H     7    44       P1 10175  1.00
      L1  H    15    39       P1  8028  0.92

> <Gold.Chemscore.Hbond.Weighted>
-9.2890

> <Gold.Chemscore.Metal.Weighted>
-0.0000

> <Gold.Chemscore.Lipo.Weighted>
-9.4737

> <Gold.Chemscore.Internal_Hbond.Weighted>
0.0000

> <Gold.Chemscore.DEClash.Weighted>
0.1616

> <Gold.Chemscore.DEInternal.Weighted>
1.6369

> <Gold.Chemscore.Rot.Weighted>
3.2948

> <Gold.Chemscore.Internal.Correction.Weighted>
   9.000000E+99

> <Gold.Protein.RotatedTorsions>
[ 6907 6896 6895 6894 ] final -134.96 input  -60.11 | X-H torsion
[ 7974 7965 7964 7962 ] final -118.62 input  175.53 | X-H torsion
[ 8008 7997 7996 7995 ] final -116.34 input   59.86 | X-H torsion
[ 10167 10162 10161 10158 ] final  -24.50 input  -65.29 | X-H torsion
[ 10718 10713 10712 10709 ] final   42.73 input   66.30 | X-H torsion
[ 10763 10752 10751 10750 ] final   12.43 input  -60.55 | X-H torsion
[ 11005 11000 10999 10996 ] final -122.07 input  -57.11 | X-H torsion

> <Gold.Protein.ActiveResidues>
 VAL166  LYS551  ARG553  GLY616  TRP617  ASP618  TYR619  PRO620  LYS621  CYS622 
 ASP623  PHE694  ASN695  SER759  ASP760  ASP761  ALA762  ILE779  LEU786  VAL792 
 PHE793  MET794  SER795  GLU796  ALA797  LYS798  CYS799  TRP800  GLU811  SER814 

> <Gold.Protein.RotatedAtoms>
  150.9921  133.6139  159.2706 H   0  0  0  0  0  0  0  0  0  0  0  0  # atno 6907 bound_to 6896
  151.3357  135.0851  159.9363 H   0  0  0  0  0  0  0  0  0  0  0  0  # atno 6908 bound_to 6896
  152.5249  133.9542  159.7740 H   0  0  0  0  0  0  0  0  0  0  0  0  # atno 6909 bound_to 6896
  145.0717  140.8364  143.4092 H   0  0  0  0  0  0  0  0  0  0  0  0  # atno 7974 bound_to 7965
  155.0662  140.0393  157.2593 H   0  0  0  0  0  0  0  0  0  0  0  0  # atno 8008 bound_to 7997
  154.7019  140.2675  155.6687 H   0  0  0  0  0  0  0  0  0  0  0  0  # atno 8009 bound_to 7997
  156.2763  140.2739  156.1632 H   0  0  0  0  0  0  0  0  0  0  0  0  # atno 8010 bound_to 7997
  140.7288  143.4348  151.0746 H   0  0  0  0  0  0  0  0  0  0  0  0  # atno 10167 bound_to 10162
  157.4081  130.7898  149.7406 H   0  0  0  0  0  0  0  0  0  0  0  0  # atno 10718 bound_to 10713
  153.1824  135.6830  153.8461 H   0  0  0  0  0  0  0  0  0  0  0  0  # atno 10763 bound_to 10752
  153.7788  135.3185  155.3364 H   0  0  0  0  0  0  0  0  0  0  0  0  # atno 10764 bound_to 10752
  154.8067  135.4743  154.0507 H   0  0  0  0  0  0  0  0  0  0  0  0  # atno 10765 bound_to 10752
  141.0022  134.0386  157.3522 H   0  0  0  0  0  0  0  0  0  0  0  0  # atno 11005 bound_to 11000
  145.1284  139.2647  143.5552 LP  0  0  0  0  0  0  0  0  0  0  0  0  # atno 17320 bound_to 7965
  146.3529  140.0928  142.8611 LP  0  0  0  0  0  0  0  0  0  0  0  0  # atno 17321 bound_to 7965
  139.8009  143.8085  152.3162 LP  0  0  0  0  0  0  0  0  0  0  0  0  # atno 17342 bound_to 10162
  139.8102  144.7339  150.9708 LP  0  0  0  0  0  0  0  0  0  0  0  0  # atno 17343 bound_to 10162
  155.9842  130.3993  150.3322 LP  0  0  0  0  0  0  0  0  0  0  0  0  # atno 17370 bound_to 10713
  157.1457  131.0308  151.2908 LP  0  0  0  0  0  0  0  0  0  0  0  0  # atno 17371 bound_to 10713
  139.9045  135.0175  156.7422 LP  0  0  0  0  0  0  0  0  0  0  0  0  # atno 17394 bound_to 11000
  140.6870  133.9424  155.7943 LP  0  0  0  0  0  0  0  0  0  0  0  0  # atno 17395 bound_to 11000

$$$$
