AV-unprocessed.smi:3253|AV-procd|sdf|12448|dock8
  -GOLD-   2272018343D 1   1.00000     0.00000
 Structure written by MMmdl.
 37 38  0  0  0  0  0  0  0  0  2 V2000
  145.3434  129.7534  160.6015 C   0  0  0  0  0  0  0  0  0  0  0  0
  144.2776  130.8452  160.7645 C   0  0  1  0  0  0  0  0  0  0  0  0
  142.9173  130.2418  161.1796 C   0  0  0  0  0  0  0  0  0  0  0  0
  142.0718  129.8814  160.0360 N   0  0  0  0  0  0  0  0  0  0  0  0
  142.3419  128.9551  159.0610 C   0  0  0  0  0  0  0  0  0  0  0  0
  141.2595  128.9470  158.2193 C   0  0  0  0  0  0  0  0  0  0  0  0
  140.3797  129.8744  158.7101 N   0  3  0  0  0  0  0  0  0  0  0  0
  140.8777  130.4452  159.8117 C   0  0  0  0  0  0  0  0  0  0  0  0
  144.7439  131.8198  161.7505 N   0  0  0  0  0  0  0  0  0  0  0  0
  145.5428  132.8685  161.4960 C   0  0  0  0  0  0  0  0  0  0  0  0
  145.9956  133.1171  160.3777 O   0  0  0  0  0  0  0  0  0  0  0  0
  145.8548  133.7977  162.6789 C   0  0  1  0  0  0  0  0  0  0  0  0
  147.3481  134.1821  162.7263 C   0  0  0  0  0  0  0  0  0  0  0  0
  147.3571  135.6585  162.3645 C   0  0  0  0  0  0  0  0  0  0  0  0
  148.3928  136.2969  162.1852 O   0  0  0  0  0  0  0  0  0  0  0  0
  146.1122  136.1325  162.2617 N   0  0  0  0  0  0  0  0  0  0  0  0
  145.7461  137.4970  161.9074 C   0  0  0  0  0  0  0  0  0  0  0  0
  145.0984  135.1395  162.5709 C   0  0  0  0  0  0  0  0  0  0  0  0
  145.0428  129.0198  159.8531 H   0  0  0  0  0  0  0  0  0  0  0  0
  145.5152  129.2213  161.5380 H   0  0  0  0  0  0  0  0  0  0  0  0
  146.2949  130.1781  160.2798 H   0  0  0  0  0  0  0  0  0  0  0  0
  144.1665  131.3311  159.7934 H   0  0  0  0  0  0  0  0  0  0  0  0
  143.0672  129.3368  161.7701 H   0  0  0  0  0  0  0  0  0  0  0  0
  142.3597  130.9390  161.8069 H   0  0  0  0  0  0  0  0  0  0  0  0
  143.2553  128.3783  159.0445 H   0  0  0  0  0  0  0  0  0  0  0  0
  141.0543  128.3659  157.3320 H   0  0  0  0  0  0  0  0  0  0  0  0
  140.4022  131.2019  160.4100 H   0  0  0  0  0  0  0  0  0  0  0  0
  144.4226  131.6929  162.6996 H   0  0  0  0  0  0  0  0  0  0  0  0
  145.5758  133.2963  163.6074 H   0  0  0  0  0  0  0  0  0  0  0  0
  147.7548  134.0529  163.7295 H   0  0  0  0  0  0  0  0  0  0  0  0
  147.9724  133.6136  162.0351 H   0  0  0  0  0  0  0  0  0  0  0  0
  146.2125  138.2094  162.5889 H   0  0  0  0  0  0  0  0  0  0  0  0
  144.6664  137.6402  161.9566 H   0  0  0  0  0  0  0  0  0  0  0  0
  146.0729  137.7269  160.8927 H   0  0  0  0  0  0  0  0  0  0  0  0
  144.3215  135.1328  161.8038 H   0  0  0  0  0  0  0  0  0  0  0  0
  144.6227  135.3932  163.5193 H   0  0  0  0  0  0  0  0  0  0  0  0
  139.4800  130.0959  158.3021 H   0  0  0  0  0  0  0  0  0  0  0  0
  1  2  1  0  0  0  0
  1 19  1  0  0  0  0
  1 20  1  0  0  0  0
  1 21  1  0  0  0  0
  2  3  1  0  0  0  0
  2  9  1  0  0  0  0
  2 22  1  0  0  0  0
  3  4  1  0  0  0  0
  3 23  1  0  0  0  0
  3 24  1  0  0  0  0
  4  8  1  0  0  0  0
  4  5  1  0  0  0  0
  5  6  2  0  0  0  0
  5 25  1  0  0  0  0
  6  7  1  0  0  0  0
  6 26  1  0  0  0  0
  7  8  2  0  0  0  0
  7 37  1  0  0  0  0
  8 27  1  0  0  0  0
  9 10  1  0  0  0  0
  9 28  1  0  0  0  0
 10 11  2  0  0  0  0
 10 12  1  0  0  0  0
 12 18  1  0  0  0  0
 12 13  1  0  0  0  0
 12 29  1  0  0  0  0
 13 14  1  0  0  0  0
 13 30  1  0  0  0  0
 13 31  1  0  0  0  0
 14 15  2  0  0  0  0
 14 16  1  0  0  0  0
 16 17  1  0  0  0  0
 16 18  1  0  0  0  0
 17 32  1  0  0  0  0
 17 33  1  0  0  0  0
 17 34  1  0  0  0  0
 18 35  1  0  0  0  0
 18 36  1  0  0  0  0
M  CHG  1   7   1
M  END
> <s_m_source_file>
AV-unprocessed.smi

> <i_m_source_file_index>
3253

> <i_lp_mmshare_version>
43012

> <i_f3d_flags>
0

> <s_epik_input>
W2NIXTFuW2NIXVtjSF1uMVtDSDJdW0NAQEhdKFtDSDNdKVtOSF1DKD1PKVtDQEBIXTJbQ0gyXUMoPU8pTihbQ0gzXSlbQ0gyXTI=

> <s_epik_cmdline>
J2VwaWtfcHl0aG9uJywgJy1waCcsICc3LjAnLCAnLXRuJywgJzgnLCAnLW1hJywgJzIwMCcsICctbWV0YWxfYmluZGluZycsICctaW1hZScsICc8aW5maWxlLm1hZT4nLCAnLW9tYWUnLCAnPG91dGZpbGUubWFlPic=

> <r_lp_tautomer_probability>
1

> <r_epik_Ionization_Penalty>
0.251561

> <r_epik_Ionization_Penalty_Charging>
0

> <r_epik_Ionization_Penalty_Neutral>
0.251561

> <r_epik_State_Penalty>
0.242926

> <r_epik_Charging_Adjusted_Penalty>
0.242926

> <i_epik_Tot_Q>
1

> <i_epik_Tot_abs_Q>
1

> <r_epik_Metal_State_Penalty>
0.533885

> <b_epik_Metal_Only>
0

> <s_lp_Force_Field>
OPLS_2005

> <r_lp_Energy>
13.8895

> <b_lp_Chiralities_Consistent>
1

> <s_lp_Variant>
AV-unprocessed.smi:3253-4

> <Gold.Version>
5.8.1

> <Gold.Id.Protein>
6NUR|6NUR_protein|mol2

> <Gold.PLP.Fitness>
41.4180

> <Gold.PLP.PLP>
-37.6588

> <Gold.PLP.part.hbond>
-2.3486

> <Gold.PLP.part.metal>
0.0000

> <Gold.PLP.part.buried>
-6.5427

> <Gold.PLP.part.nonpolar>
-28.2724

> <Gold.PLP.part.repulsive>
0.1101

> <Gold.PLP.ligand.clash>
0.0000

> <Gold.PLP.ligand.torsion>
1.0949

> <Gold.PLP.Chemscore.Hbond>
1.9760

> <Gold.PLP.Chemscore.CHOScore>
0.0000

> <Gold.PLP.Chemscore.Metal>
0.0000

> <Gold.Chemscore.Hbonds>
donor molecule, donor type, donor heavy atom, donor atom, acceptor molecule, acceptor atom, score
      L1  H     7    37       P1 10998  0.50
      P1  H  6931  6943       L1    15  0.93

> <Gold.PLP.Chemscore.Internal.Correction>
0.0210

> <Gold.Rescore>
     Score         DG    S(hbond)    S(metal)    S(lipo)     H(rot)  DE(clash)    DE(int)     intcor
     12.15     -13.11       1.98        0.00      53.07       2.03       0.00       0.96       ----

> <Gold.Chemscore.Fitness>
12.1496

> <Gold.Chemscore.DG>
-13.1084

> <Gold.Chemscore.ZeroCoef>
-5.4800

> <Gold.Chemscore.Hbond>
1.9839

> <Gold.Chemscore.Metal>
0.0000

> <Gold.Chemscore.Lipo>
53.0717

> <Gold.Chemscore.Internal_Hbond>
0.0000

> <Gold.Chemscore.DEClash>
0.0004

> <Gold.Chemscore.DEInternal>
0.9584

> <Gold.Chemscore.Rot>
2.0341

> <Gold.Chemscore.Internal.Correction>
   9.000000E+99

> <Gold.Chemscore.Hbonds>
donor molecule, donor type, donor heavy atom, donor atom, acceptor molecule, acceptor atom, score
      L1  H     7    37       P1 10998  0.49
      P1  H  6931  6943       L1    15  0.89

> <Gold.Chemscore.Hbond.Weighted>
-6.6262

> <Gold.Chemscore.Metal.Weighted>
-0.0000

> <Gold.Chemscore.Lipo.Weighted>
-6.2094

> <Gold.Chemscore.Internal_Hbond.Weighted>
0.0000

> <Gold.Chemscore.DEClash.Weighted>
0.0004

> <Gold.Chemscore.DEInternal.Weighted>
0.9584

> <Gold.Chemscore.Rot.Weighted>
5.2072

> <Gold.Chemscore.Internal.Correction.Weighted>
   9.000000E+99

> <Gold.Protein.RotatedTorsions>
[ 6907 6896 6895 6894 ] final -140.18 input  -60.11 | X-H torsion
[ 7974 7965 7964 7962 ] final   58.66 input  175.53 | X-H torsion
[ 8008 7997 7996 7995 ] final   90.74 input   59.86 | X-H torsion
[ 10167 10162 10161 10158 ] final  -45.89 input  -65.29 | X-H torsion
[ 10718 10713 10712 10709 ] final  -30.59 input   66.30 | X-H torsion
[ 10763 10752 10751 10750 ] final -128.11 input  -60.55 | X-H torsion
[ 11005 11000 10999 10996 ] final   62.66 input  -57.11 | X-H torsion

> <Gold.Protein.ActiveResidues>
 VAL166  LYS551  ARG553  GLY616  TRP617  ASP618  TYR619  PRO620  LYS621  CYS622 
 ASP623  PHE694  ASN695  SER759  ASP760  ASP761  ALA762  ILE779  LEU786  VAL792 
 PHE793  MET794  SER795  GLU796  ALA797  LYS798  CYS799  TRP800  GLU811  SER814 

> <Gold.Protein.RotatedAtoms>
  151.0573  133.5573  159.2636 H   0  0  0  0  0  0  0  0  0  0  0  0  # atno 6907 bound_to 6896
  151.2562  135.0638  159.9090 H   0  0  0  0  0  0  0  0  0  0  0  0  # atno 6908 bound_to 6896
  152.5392  134.0326  159.8085 H   0  0  0  0  0  0  0  0  0  0  0  0  # atno 6909 bound_to 6896
  145.9157  139.3689  143.0508 H   0  0  0  0  0  0  0  0  0  0  0  0  # atno 7974 bound_to 7965
  156.0155  140.3346  155.6984 H   0  0  0  0  0  0  0  0  0  0  0  0  # atno 8008 bound_to 7997
  155.6097  140.0664  157.2727 H   0  0  0  0  0  0  0  0  0  0  0  0  # atno 8009 bound_to 7997
  154.4297  140.1795  156.1247 H   0  0  0  0  0  0  0  0  0  0  0  0  # atno 8010 bound_to 7997
  140.6840  143.2857  151.3704 H   0  0  0  0  0  0  0  0  0  0  0  0  # atno 10167 bound_to 10162
  156.3979  130.4385  149.7344 H   0  0  0  0  0  0  0  0  0  0  0  0  # atno 10718 bound_to 10713
  154.8755  135.3939  154.3704 H   0  0  0  0  0  0  0  0  0  0  0  0  # atno 10763 bound_to 10752
  153.4464  135.7027  153.6141 H   0  0  0  0  0  0  0  0  0  0  0  0  # atno 10764 bound_to 10752
  153.4700  135.3792  155.2355 H   0  0  0  0  0  0  0  0  0  0  0  0  # atno 10765 bound_to 10752
  140.0077  134.6344  155.9829 H   0  0  0  0  0  0  0  0  0  0  0  0  # atno 11005 bound_to 11000
  145.8614  140.9473  143.0698 LP  0  0  0  0  0  0  0  0  0  0  0  0  # atno 17320 bound_to 7965
  144.6747  140.0536  143.7478 LP  0  0  0  0  0  0  0  0  0  0  0  0  # atno 17321 bound_to 7965
  139.6183  144.0958  152.2367 LP  0  0  0  0  0  0  0  0  0  0  0  0  # atno 17342 bound_to 10162
  140.0394  144.6019  150.7423 LP  0  0  0  0  0  0  0  0  0  0  0  0  # atno 17343 bound_to 10162
  156.4372  130.7844  151.2864 LP  0  0  0  0  0  0  0  0  0  0  0  0  # atno 17370 bound_to 10713
  157.7502  131.0136  150.3430 LP  0  0  0  0  0  0  0  0  0  0  0  0  # atno 17371 bound_to 10713
  141.1689  133.6537  156.4579 LP  0  0  0  0  0  0  0  0  0  0  0  0  # atno 17394 bound_to 11000
  140.4611  134.6841  157.5085 LP  0  0  0  0  0  0  0  0  0  0  0  0  # atno 17395 bound_to 11000

$$$$
