AV-unprocessed.smi:837|AV-procd|sdf|3893|dock1
  -GOLD-   22720 1353D 1   1.00000     0.00000
 Structure written by MMmdl.
 49 51  0  0  0  0  0  0  0  0  1 V2000
  152.1803  139.0640  156.8877 C   0  0  0  0  0  0  0  0  0  0  0  0
  150.8368  139.7042  156.4798 C   0  0  1  0  0  0  0  0  0  0  0  0
  151.0379  140.7049  155.3213 C   0  0  0  0  0  0  0  0  0  0  0  0
  149.7302  141.4273  154.9609 C   0  0  0  0  0  0  0  0  0  0  0  0
  148.6133  140.4314  154.6181 C   0  0  0  0  0  0  0  0  0  0  0  0
  148.3955  139.4244  155.7617 C   0  0  0  0  0  0  0  0  0  0  0  0
  149.6931  138.6851  156.1761 C   0  0  2  0  0  0  0  0  0  0  0  0
  149.4246  137.8384  157.3257 N   0  0  0  0  0  0  0  0  0  0  0  0
  149.5791  136.5336  157.0693 C   0  0  0  0  0  0  0  0  0  0  0  0
  149.3900  135.6250  157.8765 O   0  0  0  0  0  0  0  0  0  0  0  0
  149.9701  136.3984  155.7901 N   0  0  0  0  0  0  0  0  0  0  0  0
  150.2090  135.1084  155.1289 C   0  0  0  0  0  0  0  0  0  0  0  0
  148.9686  134.2033  155.0902 C   0  0  0  0  0  0  0  0  0  0  0  0
  148.6358  133.5369  156.0718 O   0  0  0  0  0  0  0  0  0  0  0  0
  148.2937  134.1858  153.9312 N   0  0  0  0  0  0  0  0  0  0  0  0
  147.0955  133.3957  153.6740 C   0  0  0  0  0  0  0  0  0  0  0  0
  147.3454  132.3240  152.6002 C   0  0  0  0  0  0  0  0  0  0  0  0
  146.1031  132.0404  151.7790 C   0  0  0  0  0  0  0  0  0  0  0  0
  144.9034  132.7415  152.0189 C   0  0  0  0  0  0  0  0  0  0  0  0
  143.7768  132.4478  151.2266 C   0  0  0  0  0  0  0  0  0  0  0  0
  143.8987  131.4631  150.2259 C   0  0  0  0  0  0  0  0  0  0  0  0
  145.0427  130.7860  149.9869 N   0  0  0  0  0  0  0  0  0  0  0  0
  146.1185  131.0735  150.7510 C   0  0  0  0  0  0  0  0  0  0  0  0
  150.0678  137.5868  155.1786 C   0  0  0  0  0  0  0  0  0  0  0  0
  150.3974  137.7859  154.0090 O   0  0  0  0  0  0  0  0  0  0  0  0
  152.6195  138.4890  156.0721 H   0  0  0  0  0  0  0  0  0  0  0  0
  152.0668  138.3981  157.7431 H   0  0  0  0  0  0  0  0  0  0  0  0
  152.9033  139.8292  157.1709 H   0  0  0  0  0  0  0  0  0  0  0  0
  150.5107  140.2888  157.3418 H   0  0  0  0  0  0  0  0  0  0  0  0
  151.7886  141.4455  155.5993 H   0  0  0  0  0  0  0  0  0  0  0  0
  151.4308  140.1946  154.4417 H   0  0  0  0  0  0  0  0  0  0  0  0
  149.4167  142.0522  155.7981 H   0  0  0  0  0  0  0  0  0  0  0  0
  149.8974  142.1002  154.1194 H   0  0  0  0  0  0  0  0  0  0  0  0
  147.6866  140.9713  154.4222 H   0  0  0  0  0  0  0  0  0  0  0  0
  148.8578  139.9079  153.6939 H   0  0  0  0  0  0  0  0  0  0  0  0
  147.9932  139.9554  156.6256 H   0  0  0  0  0  0  0  0  0  0  0  0
  147.6255  138.7087  155.4684 H   0  0  0  0  0  0  0  0  0  0  0  0
  149.1330  138.2094  158.2182 H   0  0  0  0  0  0  0  0  0  0  0  0
  150.5580  135.2744  154.1081 H   0  0  0  0  0  0  0  0  0  0  0  0
  151.0148  134.5731  155.6338 H   0  0  0  0  0  0  0  0  0  0  0  0
  148.6331  134.7612  153.1739 H   0  0  0  0  0  0  0  0  0  0  0  0
  146.7458  132.9357  154.6001 H   0  0  0  0  0  0  0  0  0  0  0  0
  146.3064  134.0737  153.3471 H   0  0  0  0  0  0  0  0  0  0  0  0
  148.1480  132.6414  151.9329 H   0  0  0  0  0  0  0  0  0  0  0  0
  147.6806  131.3942  153.0624 H   0  0  0  0  0  0  0  0  0  0  0  0
  144.8466  133.4922  152.7937 H   0  0  0  0  0  0  0  0  0  0  0  0
  142.8415  132.9651  151.3819 H   0  0  0  0  0  0  0  0  0  0  0  0
  143.0545  131.2130  149.6002 H   0  0  0  0  0  0  0  0  0  0  0  0
  147.0186  130.5175  150.5333 H   0  0  0  0  0  0  0  0  0  0  0  0
  1  2  1  0  0  0  0
  1 26  1  0  0  0  0
  1 27  1  0  0  0  0
  1 28  1  0  0  0  0
  2  7  1  0  0  0  0
  2  3  1  0  0  0  0
  2 29  1  0  0  0  0
  3  4  1  0  0  0  0
  3 30  1  0  0  0  0
  3 31  1  0  0  0  0
  4  5  1  0  0  0  0
  4 32  1  0  0  0  0
  4 33  1  0  0  0  0
  5  6  1  0  0  0  0
  5 34  1  0  0  0  0
  5 35  1  0  0  0  0
  6  7  1  0  0  0  0
  6 36  1  0  0  0  0
  6 37  1  0  0  0  0
  7 24  1  0  0  0  0
  7  8  1  0  0  0  0
  8  9  1  0  0  0  0
  8 38  1  0  0  0  0
  9 10  2  0  0  0  0
  9 11  1  0  0  0  0
 11 12  1  0  0  0  0
 11 24  1  0  0  0  0
 12 13  1  0  0  0  0
 12 39  1  0  0  0  0
 12 40  1  0  0  0  0
 13 14  2  0  0  0  0
 13 15  1  0  0  0  0
 15 16  1  0  0  0  0
 15 41  1  0  0  0  0
 16 17  1  0  0  0  0
 16 42  1  0  0  0  0
 16 43  1  0  0  0  0
 17 18  1  0  0  0  0
 17 44  1  0  0  0  0
 17 45  1  0  0  0  0
 18 23  1  0  0  0  0
 18 19  2  0  0  0  0
 19 20  1  0  0  0  0
 19 46  1  0  0  0  0
 20 21  2  0  0  0  0
 20 47  1  0  0  0  0
 21 22  1  0  0  0  0
 21 48  1  0  0  0  0
 22 23  2  0  0  0  0
 23 49  1  0  0  0  0
 24 25  2  0  0  0  0
M  END
> <s_m_source_file>
AV-unprocessed.smi

> <i_m_source_file_index>
837

> <i_lp_mmshare_version>
43012

> <i_f3d_flags>
0

> <s_epik_input>
W0NIMl0xW0NIMl1bQ0gyXVtDSDJdW0NAQEhdKFtDSDNdKVtDQEBdMTJbTkhdQyg9TylOKEMyPU8pW0NIMl1DKD1PKVtOSF1bQ0gyXVtDSDJdYzNbY0hdW2NIXVtjSF1uW2NIXTM=

> <s_epik_cmdline>
J2VwaWtfcHl0aG9uJywgJy1waCcsICc3LjAnLCAnLXRuJywgJzgnLCAnLW1hJywgJzIwMCcsICctbWV0YWxfYmluZGluZycsICctaW1hZScsICc8aW5maWxlLm1hZT4nLCAnLW9tYWUnLCAnPG91dGZpbGUubWFlPic=

> <r_lp_tautomer_probability>
1

> <r_epik_Ionization_Penalty>
0.0127837

> <r_epik_Ionization_Penalty_Charging>
0

> <r_epik_Ionization_Penalty_Neutral>
0.0127837

> <r_epik_State_Penalty>
0.00987657

> <r_epik_Charging_Adjusted_Penalty>
0.00987657

> <i_epik_Tot_Q>
0

> <i_epik_Tot_abs_Q>
0

> <r_epik_Metal_State_Penalty>
0.0309865

> <b_epik_Metal_Only>
0

> <s_lp_Force_Field>
OPLS_2005

> <r_lp_Energy>
18.239

> <b_lp_Chiralities_Consistent>
1

> <s_lp_Variant>
AV-unprocessed.smi:837-2

> <Gold.Version>
5.8.1

> <Gold.Id.Protein>
6NUR|6NUR_protein|mol2

> <Gold.PLP.Fitness>
47.5960

> <Gold.PLP.PLP>
-34.9895

> <Gold.PLP.part.hbond>
-3.0000

> <Gold.PLP.part.metal>
0.0000

> <Gold.PLP.part.buried>
-5.6812

> <Gold.PLP.part.nonpolar>
-28.3262

> <Gold.PLP.part.repulsive>
0.4475

> <Gold.PLP.ligand.clash>
0.0000

> <Gold.PLP.ligand.torsion>
0.5054

> <Gold.PLP.Chemscore.Hbond>
1.9800

> <Gold.PLP.Chemscore.CHOScore>
2.5388

> <Gold.PLP.Chemscore.Metal>
0.0000

> <Gold.Chemscore.Hbonds>
donor molecule, donor type, donor heavy atom, donor atom, acceptor molecule, acceptor atom, score
      L1  H    15    41       P1  7948  1.00
      L1  C    21    48       P1 10952  1.00
      L1  C    23    49       P1 10747  0.90

> <Gold.PLP.Chemscore.Internal.Correction>
0.0609

> <Gold.Rescore>
     Score         DG    S(hbond)    S(metal)    S(lipo)     H(rot)  DE(clash)    DE(int)     intcor
     14.61     -16.87       1.87        0.00      84.65       1.86       0.28       1.98       ----

> <Gold.Chemscore.Fitness>
14.6140

> <Gold.Chemscore.DG>
-16.8745

> <Gold.Chemscore.ZeroCoef>
-5.4800

> <Gold.Chemscore.Hbond>
1.8685

> <Gold.Chemscore.Metal>
0.0000

> <Gold.Chemscore.Lipo>
84.6455

> <Gold.Chemscore.Internal_Hbond>
0.0000

> <Gold.Chemscore.DEClash>
0.2811

> <Gold.Chemscore.DEInternal>
1.9795

> <Gold.Chemscore.Rot>
1.8553

> <Gold.Chemscore.Internal.Correction>
   9.000000E+99

> <Gold.Chemscore.Hbonds>
donor molecule, donor type, donor heavy atom, donor atom, acceptor molecule, acceptor atom, score
      L1  H    15    41       P1  7948  0.39
      P1  H  6896  6908       L1    10  0.05

> <Gold.Chemscore.Hbond.Weighted>
-6.2407

> <Gold.Chemscore.Metal.Weighted>
-0.0000

> <Gold.Chemscore.Lipo.Weighted>
-9.9035

> <Gold.Chemscore.Internal_Hbond.Weighted>
0.0000

> <Gold.Chemscore.DEClash.Weighted>
0.2811

> <Gold.Chemscore.DEInternal.Weighted>
1.9795

> <Gold.Chemscore.Rot.Weighted>
4.7497

> <Gold.Chemscore.Internal.Correction.Weighted>
   9.000000E+99

> <Gold.Protein.RotatedTorsions>
[ 6907 6896 6895 6894 ] final  143.16 input  -60.11 | X-H torsion
[ 7974 7965 7964 7962 ] final  -71.17 input  175.53 | X-H torsion
[ 8008 7997 7996 7995 ] final  -80.40 input   59.86 | X-H torsion
[ 10167 10162 10161 10158 ] final -120.04 input  -65.29 | X-H torsion
[ 10718 10713 10712 10709 ] final -116.00 input   66.30 | X-H torsion
[ 10763 10752 10751 10750 ] final  106.36 input  -60.55 | X-H torsion
[ 11005 11000 10999 10996 ] final   84.16 input  -57.11 | X-H torsion

> <Gold.Protein.ActiveResidues>
 VAL166  LYS551  ARG553  GLY616  TRP617  ASP618  TYR619  PRO620  LYS621  CYS622 
 ASP623  PHE694  ASN695  SER759  ASP760  ASP761  ALA762  ILE779  LEU786  VAL792 
 PHE793  MET794  SER795  GLU796  ALA797  LYS798  CYS799  TRP800  GLU811  SER814 

> <Gold.Protein.RotatedAtoms>
  152.2097  133.4902  159.5103 H   0  0  0  0  0  0  0  0  0  0  0  0  # atno 6907 bound_to 6896
  150.6987  134.1483  159.4140 H   0  0  0  0  0  0  0  0  0  0  0  0  # atno 6908 bound_to 6896
  151.9402  135.0216  160.0586 H   0  0  0  0  0  0  0  0  0  0  0  0  # atno 6909 bound_to 6896
  145.6815  140.9186  143.0829 H   0  0  0  0  0  0  0  0  0  0  0  0  # atno 7974 bound_to 7965
  154.5880  140.0663  156.9198 H   0  0  0  0  0  0  0  0  0  0  0  0  # atno 8008 bound_to 7997
  155.2346  140.3340  155.4281 H   0  0  0  0  0  0  0  0  0  0  0  0  # atno 8009 bound_to 7997
  156.2236  140.1809  156.7402 H   0  0  0  0  0  0  0  0  0  0  0  0  # atno 8010 bound_to 7997
  140.0402  143.5161  152.2134 H   0  0  0  0  0  0  0  0  0  0  0  0  # atno 10167 bound_to 10162
  156.0934  130.6112  150.8979 H   0  0  0  0  0  0  0  0  0  0  0  0  # atno 10718 bound_to 10713
  153.3920  135.3879  155.1929 H   0  0  0  0  0  0  0  0  0  0  0  0  # atno 10763 bound_to 10752
  154.8720  135.3750  154.4726 H   0  0  0  0  0  0  0  0  0  0  0  0  # atno 10764 bound_to 10752
  153.5214  135.7087  153.5791 H   0  0  0  0  0  0  0  0  0  0  0  0  # atno 10765 bound_to 10752
  139.9008  134.8197  156.2408 H   0  0  0  0  0  0  0  0  0  0  0  0  # atno 11005 bound_to 11000
  144.7024  139.8703  143.7440 LP  0  0  0  0  0  0  0  0  0  0  0  0  # atno 17320 bound_to 7965
  146.0960  139.3952  143.0376 LP  0  0  0  0  0  0  0  0  0  0  0  0  # atno 17321 bound_to 7965
  139.6019  144.7585  151.3152 LP  0  0  0  0  0  0  0  0  0  0  0  0  # atno 17342 bound_to 10162
  140.7263  143.6993  150.7858 LP  0  0  0  0  0  0  0  0  0  0  0  0  # atno 17343 bound_to 10162
  157.6089  131.0937  150.8830 LP  0  0  0  0  0  0  0  0  0  0  0  0  # atno 17370 bound_to 10713
  156.8974  130.5234  149.5284 LP  0  0  0  0  0  0  0  0  0  0  0  0  # atno 17371 bound_to 10713
  141.0286  133.7001  156.1391 LP  0  0  0  0  0  0  0  0  0  0  0  0  # atno 17394 bound_to 11000
  140.7130  134.4441  157.5580 LP  0  0  0  0  0  0  0  0  0  0  0  0  # atno 17395 bound_to 11000

$$$$
