AV-unprocessed.smi:2345|AV-procd|sdf|9363|dock6
  -GOLD-   2272012583D 1   1.00000     0.00000
 Structure written by MMmdl.
 37 38  0  0  0  0  0  0  0  0  1 V2000
  155.2943  138.7713  162.5803 C   0  0  0  0  0  0  0  0  0  0  0  0
  154.8987  140.2198  162.2824 C   0  0  0  0  0  0  0  0  0  0  0  0
  153.8480  140.3294  160.8081 S   0  0  0  0  0  0  0  0  0  0  0  0
  153.4987  142.1188  160.7764 C   0  0  2  0  0  0  0  0  0  0  0  0
  152.7534  142.6203  162.0130 C   0  0  0  0  0  0  0  0  0  0  0  0
  152.2273  143.9898  161.5882 C   0  0  0  0  0  0  0  0  0  0  0  0
  151.9200  143.8672  160.0899 C   0  0  0  0  0  0  0  0  0  0  0  0
  152.6385  142.5955  159.5869 C   0  0  2  0  0  0  0  0  0  0  0  0
  151.6701  141.5814  159.1690 N   0  0  0  0  0  0  0  0  0  0  0  0
  151.9616  140.4747  158.4719 C   0  0  0  0  0  0  0  0  0  0  0  0
  153.0914  140.2019  158.0663 O   0  0  0  0  0  0  0  0  0  0  0  0
  150.8652  139.7287  158.2596 N   0  0  0  0  0  0  0  0  0  0  0  0
  150.7898  138.5077  157.5418 C   0  0  0  0  0  0  0  0  0  0  0  0
  151.5631  138.3753  156.3702 C   0  0  0  0  0  0  0  0  0  0  0  0
  151.4795  137.1752  155.6364 C   0  0  0  0  0  0  0  0  0  0  0  0
  150.6827  136.1441  155.9881 N   0  0  0  0  0  0  0  0  0  0  0  0
  149.9238  136.2841  157.0963 C   0  0  0  0  0  0  0  0  0  0  0  0
  149.9294  137.4412  157.9012 C   0  0  0  0  0  0  0  0  0  0  0  0
  149.1003  137.5205  158.9697 F   0  0  0  0  0  0  0  0  0  0  0  0
  155.9250  138.7155  163.4676 H   0  0  0  0  0  0  0  0  0  0  0  0
  155.8496  138.3364  161.7488 H   0  0  0  0  0  0  0  0  0  0  0  0
  154.4145  138.1521  162.7576 H   0  0  0  0  0  0  0  0  0  0  0  0
  154.3659  140.6408  163.1348 H   0  0  0  0  0  0  0  0  0  0  0  0
  155.7918  140.8256  162.1276 H   0  0  0  0  0  0  0  0  0  0  0  0
  154.4568  142.6383  160.7225 H   0  0  0  0  0  0  0  0  0  0  0  0
  151.9182  141.9571  162.2424 H   0  0  0  0  0  0  0  0  0  0  0  0
  153.3890  142.6795  162.8966 H   0  0  0  0  0  0  0  0  0  0  0  0
  151.3570  144.2977  162.1685 H   0  0  0  0  0  0  0  0  0  0  0  0
  153.0048  144.7398  161.7401 H   0  0  0  0  0  0  0  0  0  0  0  0
  150.8422  143.8090  159.9314 H   0  0  0  0  0  0  0  0  0  0  0  0
  152.2687  144.7515  159.5557 H   0  0  0  0  0  0  0  0  0  0  0  0
  153.2895  142.8287  158.7422 H   0  0  0  0  0  0  0  0  0  0  0  0
  150.7136  141.7248  159.4588 H   0  0  0  0  0  0  0  0  0  0  0  0
  149.9838  140.1321  158.5402 H   0  0  0  0  0  0  0  0  0  0  0  0
  152.2165  139.1707  156.0423 H   0  0  0  0  0  0  0  0  0  0  0  0
  152.0673  137.0416  154.7403 H   0  0  0  0  0  0  0  0  0  0  0  0
  149.2813  135.4517  157.3425 H   0  0  0  0  0  0  0  0  0  0  0  0
  1  2  1  0  0  0  0
  1 20  1  0  0  0  0
  1 21  1  0  0  0  0
  1 22  1  0  0  0  0
  2  3  1  0  0  0  0
  2 23  1  0  0  0  0
  2 24  1  0  0  0  0
  3  4  1  0  0  0  0
  4  8  1  0  0  0  0
  4  5  1  0  0  0  0
  4 25  1  0  0  0  0
  5  6  1  0  0  0  0
  5 26  1  0  0  0  0
  5 27  1  0  0  0  0
  6  7  1  0  0  0  0
  6 28  1  0  0  0  0
  6 29  1  0  0  0  0
  7  8  1  0  0  0  0
  7 30  1  0  0  0  0
  7 31  1  0  0  0  0
  8  9  1  0  0  0  0
  8 32  1  0  0  0  0
  9 10  1  0  0  0  0
  9 33  1  0  0  0  0
 10 11  2  0  0  0  0
 10 12  1  0  0  0  0
 12 13  1  0  0  0  0
 12 34  1  0  0  0  0
 13 18  1  0  0  0  0
 13 14  2  0  0  0  0
 14 15  1  0  0  0  0
 14 35  1  0  0  0  0
 15 16  2  0  0  0  0
 15 36  1  0  0  0  0
 16 17  1  0  0  0  0
 17 18  2  0  0  0  0
 17 37  1  0  0  0  0
 18 19  1  0  0  0  0
M  END
> <s_m_source_file>
AV-unprocessed.smi

> <i_m_source_file_index>
2345

> <i_lp_mmshare_version>
43012

> <i_f3d_flags>
0

> <s_epik_input>
W0NIM11bQ0gyXVNbQ0BASF0xW0NIMl1bQ0gyXVtDSDJdW0NASF0xW05IXUMoPU8pW05IXWMyW2NIXVtjSF1uW2NIXWMyRg==

> <s_epik_cmdline>
J2VwaWtfcHl0aG9uJywgJy1waCcsICc3LjAnLCAnLXRuJywgJzgnLCAnLW1hJywgJzIwMCcsICctbWV0YWxfYmluZGluZycsICctaW1hZScsICc8aW5maWxlLm1hZT4nLCAnLW9tYWUnLCAnPG91dGZpbGUubWFlPic=

> <r_epik_Ionization_Penalty>
0.00333745

> <r_epik_Ionization_Penalty_Charging>
0

> <r_epik_Ionization_Penalty_Neutral>
0.00333745

> <r_epik_State_Penalty>
0.00233401

> <r_epik_Charging_Adjusted_Penalty>
0.00233401

> <i_epik_Tot_Q>
0

> <i_epik_Tot_abs_Q>
0

> <r_epik_Metal_State_Penalty>
-0

> <b_epik_Metal_Only>
0

> <s_lp_Force_Field>
OPLS_2005

> <r_lp_Energy>
24.389

> <b_lp_Chiralities_Consistent>
1

> <s_lp_Variant>
AV-unprocessed.smi:2345-3

> <Gold.Version>
5.8.1

> <Gold.Id.Protein>
6NUR|6NUR_protein|mol2

> <Gold.PLP.Fitness>
36.8762

> <Gold.PLP.PLP>
-34.6805

> <Gold.PLP.part.hbond>
-1.0000

> <Gold.PLP.part.metal>
0.0000

> <Gold.PLP.part.buried>
-3.7190

> <Gold.PLP.part.nonpolar>
-30.1895

> <Gold.PLP.part.repulsive>
0.3175

> <Gold.PLP.ligand.clash>
0.0000

> <Gold.PLP.ligand.torsion>
0.4455

> <Gold.PLP.Chemscore.Hbond>
0.9760

> <Gold.PLP.Chemscore.CHOScore>
0.0000

> <Gold.PLP.Chemscore.Metal>
0.0000

> <Gold.Chemscore.Hbonds>
donor molecule, donor type, donor heavy atom, donor atom, acceptor molecule, acceptor atom, score
      P1  H  7997  8008       L1    11  0.98

> <Gold.PLP.Chemscore.Internal.Correction>
0.1587

> <Gold.Rescore>
     Score         DG    S(hbond)    S(metal)    S(lipo)     H(rot)  DE(clash)    DE(int)     intcor
     12.58     -16.95       0.91        0.00     101.54       1.35       0.14       4.23       ----

> <Gold.Chemscore.Fitness>
12.5826

> <Gold.Chemscore.DG>
-16.9477

> <Gold.Chemscore.ZeroCoef>
-5.4800

> <Gold.Chemscore.Hbond>
0.9093

> <Gold.Chemscore.Metal>
0.0000

> <Gold.Chemscore.Lipo>
101.5415

> <Gold.Chemscore.Internal_Hbond>
0.0000

> <Gold.Chemscore.DEClash>
0.1372

> <Gold.Chemscore.DEInternal>
4.2279

> <Gold.Chemscore.Rot>
1.3475

> <Gold.Chemscore.Internal.Correction>
   9.000000E+99

> <Gold.Chemscore.Hbonds>
donor molecule, donor type, donor heavy atom, donor atom, acceptor molecule, acceptor atom, score
      P1  H  7997  8008       L1    11  0.93

> <Gold.Chemscore.Hbond.Weighted>
-3.0369

> <Gold.Chemscore.Metal.Weighted>
-0.0000

> <Gold.Chemscore.Lipo.Weighted>
-11.8804

> <Gold.Chemscore.Internal_Hbond.Weighted>
0.0000

> <Gold.Chemscore.DEClash.Weighted>
0.1372

> <Gold.Chemscore.DEInternal.Weighted>
4.2279

> <Gold.Chemscore.Rot.Weighted>
3.4496

> <Gold.Chemscore.Internal.Correction.Weighted>
   9.000000E+99

> <Gold.Protein.RotatedTorsions>
[ 6907 6896 6895 6894 ] final  138.57 input  -60.11 | X-H torsion
[ 7974 7965 7964 7962 ] final   21.65 input  175.53 | X-H torsion
[ 8008 7997 7996 7995 ] final  -80.24 input   59.86 | X-H torsion
[ 10167 10162 10161 10158 ] final -168.97 input  -65.29 | X-H torsion
[ 10718 10713 10712 10709 ] final  -62.15 input   66.30 | X-H torsion
[ 10763 10752 10751 10750 ] final    0.80 input  -60.55 | X-H torsion
[ 11005 11000 10999 10996 ] final   85.43 input  -57.11 | X-H torsion

> <Gold.Protein.ActiveResidues>
 VAL166  LYS551  ARG553  GLY616  TRP617  ASP618  TYR619  PRO620  LYS621  CYS622 
 ASP623  PHE694  ASN695  SER759  ASP760  ASP761  ALA762  ILE779  LEU786  VAL792 
 PHE793  MET794  SER795  GLU796  ALA797  LYS798  CYS799  TRP800  GLU811  SER814 

> <Gold.Protein.RotatedAtoms>
  152.2651  133.5332  159.5404 H   0  0  0  0  0  0  0  0  0  0  0  0  # atno 6907 bound_to 6896
  150.7139  134.0776  159.3895 H   0  0  0  0  0  0  0  0  0  0  0  0  # atno 6908 bound_to 6896
  151.8692  135.0496  160.0528 H   0  0  0  0  0  0  0  0  0  0  0  0  # atno 6909 bound_to 6896
  146.2062  139.7997  142.8724 H   0  0  0  0  0  0  0  0  0  0  0  0  # atno 7974 bound_to 7965
  154.5863  140.0666  156.9176 H   0  0  0  0  0  0  0  0  0  0  0  0  # atno 8008 bound_to 7997
  155.2373  140.3342  155.4278 H   0  0  0  0  0  0  0  0  0  0  0  0  # atno 8009 bound_to 7997
  156.2225  140.1805  156.7427 H   0  0  0  0  0  0  0  0  0  0  0  0  # atno 8010 bound_to 7997
  139.5952  144.1128  152.1680 H   0  0  0  0  0  0  0  0  0  0  0  0  # atno 10167 bound_to 10162
  156.0874  130.4206  150.1094 H   0  0  0  0  0  0  0  0  0  0  0  0  # atno 10718 bound_to 10713
  153.3160  135.6966  153.7073 H   0  0  0  0  0  0  0  0  0  0  0  0  # atno 10763 bound_to 10752
  153.5931  135.3476  155.2919 H   0  0  0  0  0  0  0  0  0  0  0  0  # atno 10764 bound_to 10752
  154.8586  135.4322  154.2311 H   0  0  0  0  0  0  0  0  0  0  0  0  # atno 10765 bound_to 10752
  139.8972  134.8286  156.2581 H   0  0  0  0  0  0  0  0  0  0  0  0  # atno 11005 bound_to 11000
  145.3309  141.0266  143.3447 LP  0  0  0  0  0  0  0  0  0  0  0  0  # atno 17320 bound_to 7965
  144.8799  139.4918  143.6728 LP  0  0  0  0  0  0  0  0  0  0  0  0  # atno 17321 bound_to 7965
  140.0712  144.5778  150.7190 LP  0  0  0  0  0  0  0  0  0  0  0  0  # atno 17342 bound_to 10162
  140.7206  143.2585  151.4292 LP  0  0  0  0  0  0  0  0  0  0  0  0  # atno 17343 bound_to 10162
  156.9112  130.9652  151.3562 LP  0  0  0  0  0  0  0  0  0  0  0  0  # atno 17370 bound_to 10713
  157.6013  130.8514  149.8806 LP  0  0  0  0  0  0  0  0  0  0  0  0  # atno 17371 bound_to 10713
  141.0180  133.7057  156.1221 LP  0  0  0  0  0  0  0  0  0  0  0  0  # atno 17394 bound_to 11000
  140.7274  134.4292  157.5569 LP  0  0  0  0  0  0  0  0  0  0  0  0  # atno 17395 bound_to 11000

$$$$
