AV-unprocessed.smi:2492|AV-procd|sdf|9814|dock1
  -GOLD-   2272013443D 1   1.00000     0.00000
 Structure written by MMmdl.
 33 34  0  0  0  0  0  0  0  0  1 V2000
  153.9320  141.6640  161.1638 C   0  0  0  0  0  0  0  0  0  0  0  0
  152.5466  142.5709  161.9005 S   0  0  0  0  0  0  0  0  0  0  0  0
  151.8412  143.3435  160.4165 C   0  0  1  0  0  0  0  0  0  0  0  0
  152.3082  144.7827  160.2039 C   0  0  0  0  0  0  0  0  0  0  0  0
  152.0429  145.0524  158.7213 C   0  0  0  0  0  0  0  0  0  0  0  0
  152.1367  143.6850  158.0114 C   0  0  2  0  0  0  0  0  0  0  0  0
  150.9593  143.4169  157.1894 N   0  0  0  0  0  0  0  0  0  0  0  0
  150.6446  142.2243  156.6634 C   0  0  0  0  0  0  0  0  0  0  0  0
  151.3277  141.2114  156.8165 O   0  0  0  0  0  0  0  0  0  0  0  0
  149.5041  142.2865  155.9582 N   0  0  0  0  0  0  0  0  0  0  0  0
  148.8806  141.2279  155.2553 C   0  0  0  0  0  0  0  0  0  0  0  0
  148.2549  141.4150  154.0974 N   0  0  0  0  0  0  0  0  0  0  0  0
  147.8375  140.1466  153.8275 C   0  0  0  0  0  0  0  0  0  0  0  0
  147.0667  139.7940  152.6015 C   0  0  0  0  0  0  0  0  0  0  0  0
  148.1635  139.2219  154.7239 N   0  0  0  0  0  0  0  0  0  0  0  0
  148.8697  139.9459  155.6960 O   0  0  0  0  0  0  0  0  0  0  0  0
  152.2638  142.6343  159.1284 C   0  0  0  0  0  0  0  0  0  0  0  0
  154.5019  141.1547  161.9409 H   0  0  0  0  0  0  0  0  0  0  0  0
  154.5991  142.3479  160.6388 H   0  0  0  0  0  0  0  0  0  0  0  0
  153.5708  140.9169  160.4571 H   0  0  0  0  0  0  0  0  0  0  0  0
  150.7529  143.3227  160.4892 H   0  0  0  0  0  0  0  0  0  0  0  0
  151.7957  145.4938  160.8521 H   0  0  0  0  0  0  0  0  0  0  0  0
  153.3781  144.8611  160.4030 H   0  0  0  0  0  0  0  0  0  0  0  0
  151.0447  145.4787  158.6104 H   0  0  0  0  0  0  0  0  0  0  0  0
  152.7472  145.7761  158.3096 H   0  0  0  0  0  0  0  0  0  0  0  0
  153.0292  143.6433  157.3841 H   0  0  0  0  0  0  0  0  0  0  0  0
  150.3418  144.1955  157.0116 H   0  0  0  0  0  0  0  0  0  0  0  0
  149.0361  143.1794  155.9151 H   0  0  0  0  0  0  0  0  0  0  0  0
  146.3558  138.9943  152.8115 H   0  0  0  0  0  0  0  0  0  0  0  0
  147.7438  139.4598  151.8154 H   0  0  0  0  0  0  0  0  0  0  0  0
  146.5115  140.6585  152.2366 H   0  0  0  0  0  0  0  0  0  0  0  0
  153.3078  142.3272  159.2063 H   0  0  0  0  0  0  0  0  0  0  0  0
  151.6796  141.7317  158.9438 H   0  0  0  0  0  0  0  0  0  0  0  0
  1  2  1  0  0  0  0
  1 18  1  0  0  0  0
  1 19  1  0  0  0  0
  1 20  1  0  0  0  0
  2  3  1  0  0  0  0
  3 17  1  0  0  0  0
  3  4  1  0  0  0  0
  3 21  1  0  0  0  0
  4  5  1  0  0  0  0
  4 22  1  0  0  0  0
  4 23  1  0  0  0  0
  5  6  1  0  0  0  0
  5 24  1  0  0  0  0
  5 25  1  0  0  0  0
  6  7  1  0  0  0  0
  6 17  1  0  0  0  0
  6 26  1  0  0  0  0
  7  8  1  0  0  0  0
  7 27  1  0  0  0  0
  8  9  2  0  0  0  0
  8 10  1  0  0  0  0
 10 11  1  0  0  0  0
 10 28  1  0  0  0  0
 11 16  1  0  0  0  0
 11 12  2  0  0  0  0
 12 13  1  0  0  0  0
 13 14  1  0  0  0  0
 13 15  2  0  0  0  0
 14 29  1  0  0  0  0
 14 30  1  0  0  0  0
 14 31  1  0  0  0  0
 15 16  1  0  0  0  0
 17 32  1  0  0  0  0
 17 33  1  0  0  0  0
M  END
> <s_m_source_file>
AV-unprocessed.smi

> <i_m_source_file_index>
2492

> <i_lp_mmshare_version>
43012

> <i_f3d_flags>
0

> <s_epik_input>
W0NIM11TW0NAQEhdMVtDSDJdW0NIMl1bQ0BIXShbQ0gyXTEpW05IXUMoPU8pW05IXWMybmMoW0NIM10pbm8y

> <s_epik_cmdline>
J2VwaWtfcHl0aG9uJywgJy1waCcsICc3LjAnLCAnLXRuJywgJzgnLCAnLW1hJywgJzIwMCcsICctbWV0YWxfYmluZGluZycsICctaW1hZScsICc8aW5maWxlLm1hZT4nLCAnLW9tYWUnLCAnPG91dGZpbGUubWFlPic=

> <r_lp_tautomer_probability>
1

> <r_epik_Ionization_Penalty>
3.56659e-05

> <r_epik_Ionization_Penalty_Charging>
0

> <r_epik_Ionization_Penalty_Neutral>
3.56659e-05

> <r_epik_State_Penalty>
-0

> <r_epik_Charging_Adjusted_Penalty>
0

> <i_epik_Tot_Q>
0

> <i_epik_Tot_abs_Q>
0

> <r_epik_Metal_State_Penalty>
0.0146047

> <b_epik_Metal_Only>
0

> <s_lp_Force_Field>
OPLS_2005

> <r_lp_Energy>
12.826

> <b_lp_Chiralities_Consistent>
1

> <s_lp_Variant>
AV-unprocessed.smi:2492-4

> <Gold.Version>
5.8.1

> <Gold.Id.Protein>
6NUR|6NUR_protein|mol2

> <Gold.PLP.Fitness>
40.1818

> <Gold.PLP.PLP>
-36.6334

> <Gold.PLP.part.hbond>
-2.1129

> <Gold.PLP.part.metal>
0.0000

> <Gold.PLP.part.buried>
-2.6021

> <Gold.PLP.part.nonpolar>
-32.2494

> <Gold.PLP.part.repulsive>
0.4306

> <Gold.PLP.ligand.clash>
0.0000

> <Gold.PLP.ligand.torsion>
0.9306

> <Gold.PLP.Chemscore.Hbond>
1.8000

> <Gold.PLP.Chemscore.CHOScore>
0.0000

> <Gold.PLP.Chemscore.Metal>
0.0000

> <Gold.Chemscore.Hbonds>
donor molecule, donor type, donor heavy atom, donor atom, acceptor molecule, acceptor atom, score
      L1  H     7    27       P1  8028  0.80
      L1  H    10    28       P1  8028  1.00

> <Gold.PLP.Chemscore.Internal.Correction>
0.0095

> <Gold.Rescore>
     Score         DG    S(hbond)    S(metal)    S(lipo)     H(rot)  DE(clash)    DE(int)     intcor
     14.80     -19.54       1.95        0.00      92.70       1.28       1.51       3.23       ----

> <Gold.Chemscore.Fitness>
14.7971

> <Gold.Chemscore.DG>
-19.5419

> <Gold.Chemscore.ZeroCoef>
-5.4800

> <Gold.Chemscore.Hbond>
1.9451

> <Gold.Chemscore.Metal>
0.0000

> <Gold.Chemscore.Lipo>
92.7021

> <Gold.Chemscore.Internal_Hbond>
0.0000

> <Gold.Chemscore.DEClash>
1.5144

> <Gold.Chemscore.DEInternal>
3.2304

> <Gold.Chemscore.Rot>
1.2815

> <Gold.Chemscore.Internal.Correction>
   9.000000E+99

> <Gold.Chemscore.Hbonds>
donor molecule, donor type, donor heavy atom, donor atom, acceptor molecule, acceptor atom, score
      L1  H     7    27       P1  8028  0.70
      L1  H    10    28       P1  8028  0.96

> <Gold.Chemscore.Hbond.Weighted>
-6.4966

> <Gold.Chemscore.Metal.Weighted>
-0.0000

> <Gold.Chemscore.Lipo.Weighted>
-10.8461

> <Gold.Chemscore.Internal_Hbond.Weighted>
0.0000

> <Gold.Chemscore.DEClash.Weighted>
1.5144

> <Gold.Chemscore.DEInternal.Weighted>
3.2304

> <Gold.Chemscore.Rot.Weighted>
3.2808

> <Gold.Chemscore.Internal.Correction.Weighted>
   9.000000E+99

> <Gold.Protein.RotatedTorsions>
[ 6907 6896 6895 6894 ] final    4.14 input  -60.11 | X-H torsion
[ 7974 7965 7964 7962 ] final   55.69 input  175.53 | X-H torsion
[ 8008 7997 7996 7995 ] final   28.87 input   59.86 | X-H torsion
[ 10167 10162 10161 10158 ] final   21.67 input  -65.29 | X-H torsion
[ 10718 10713 10712 10709 ] final   88.67 input   66.30 | X-H torsion
[ 10763 10752 10751 10750 ] final -104.73 input  -60.55 | X-H torsion
[ 11005 11000 10999 10996 ] final -130.39 input  -57.11 | X-H torsion

> <Gold.Protein.ActiveResidues>
 VAL166  LYS551  ARG553  GLY616  TRP617  ASP618  TYR619  PRO620  LYS621  CYS622 
 ASP623  PHE694  ASN695  SER759  ASP760  ASP761  ALA762  ILE779  LEU786  VAL792 
 PHE793  MET794  SER795  GLU796  ALA797  LYS798  CYS799  TRP800  GLU811  SER814 

> <Gold.Protein.RotatedAtoms>
  151.6365  135.1017  160.0132 H   0  0  0  0  0  0  0  0  0  0  0  0  # atno 6907 bound_to 6896
  152.4078  133.6911  159.6380 H   0  0  0  0  0  0  0  0  0  0  0  0  # atno 6908 bound_to 6896
  150.7971  133.8595  159.3269 H   0  0  0  0  0  0  0  0  0  0  0  0  # atno 6909 bound_to 6896
  145.9478  139.3945  143.0324 H   0  0  0  0  0  0  0  0  0  0  0  0  # atno 7974 bound_to 7965
  155.0655  140.3194  155.4647 H   0  0  0  0  0  0  0  0  0  0  0  0  # atno 8008 bound_to 7997
  156.2803  140.2121  156.5727 H   0  0  0  0  0  0  0  0  0  0  0  0  # atno 8009 bound_to 7997
  154.7097  140.0499  157.0526 H   0  0  0  0  0  0  0  0  0  0  0  0  # atno 8010 bound_to 7997
  140.5408  143.9680  150.6518 H   0  0  0  0  0  0  0  0  0  0  0  0  # atno 10167 bound_to 10162
  157.6950  131.0303  150.3309 H   0  0  0  0  0  0  0  0  0  0  0  0  # atno 10718 bound_to 10713
  154.7898  135.4775  154.0027 H   0  0  0  0  0  0  0  0  0  0  0  0  # atno 10763 bound_to 10752
  153.1614  135.6809  153.8744 H   0  0  0  0  0  0  0  0  0  0  0  0  # atno 10764 bound_to 10752
  153.8357  135.3186  155.3400 H   0  0  0  0  0  0  0  0  0  0  0  0  # atno 10765 bound_to 10752
  140.9350  134.1269  157.4201 H   0  0  0  0  0  0  0  0  0  0  0  0  # atno 11005 bound_to 11000
  145.8213  140.9678  143.0897 LP  0  0  0  0  0  0  0  0  0  0  0  0  # atno 17320 bound_to 7965
  144.6790  140.0045  143.7484 LP  0  0  0  0  0  0  0  0  0  0  0  0  # atno 17321 bound_to 7965
  140.3080  143.3217  152.0907 LP  0  0  0  0  0  0  0  0  0  0  0  0  # atno 17342 bound_to 10162
  139.4988  144.6654  151.6367 LP  0  0  0  0  0  0  0  0  0  0  0  0  # atno 17343 bound_to 10162
  156.3783  130.3876  149.7121 LP  0  0  0  0  0  0  0  0  0  0  0  0  # atno 17370 bound_to 10713
  156.4512  130.7907  151.2929 LP  0  0  0  0  0  0  0  0  0  0  0  0  # atno 17371 bound_to 10713
  139.8805  135.0018  156.6087 LP  0  0  0  0  0  0  0  0  0  0  0  0  # atno 17394 bound_to 11000
  140.7812  133.8659  155.8569 LP  0  0  0  0  0  0  0  0  0  0  0  0  # atno 17395 bound_to 11000

$$$$
