AV-unprocessed.smi:2980|AV-procd|sdf|11372|dock2
  -GOLD-   2272016293D 1   1.00000     0.00000
 Structure written by MMmdl.
 38 39  0  0  0  0  0  0  0  0  1 V2000
  146.3908  141.9271  154.5578 C   0  0  0  0  0  0  0  0  0  0  0  0
  147.3883  140.8650  154.0903 C   0  0  0  0  0  0  0  0  0  0  0  0
  148.7041  141.3644  154.2596 O   0  0  0  0  0  0  0  0  0  0  0  0
  149.3101  140.9116  155.4578 C   0  0  0  0  0  0  0  0  0  0  0  0
  150.3796  141.9232  155.8835 C   0  0  0  0  0  0  0  0  0  0  0  0
  151.3519  141.3349  156.7926 N   0  0  0  0  0  0  0  0  0  0  0  0
  152.0160  140.1525  156.6917 C   0  0  0  0  0  0  0  0  0  0  0  0
  151.8428  139.2004  155.5401 C   0  0  0  0  0  0  0  0  0  0  0  0
  151.3103  137.8164  155.9548 C   0  0  0  0  0  0  0  0  0  0  0  0
  150.9404  136.9114  154.7703 C   0  0  0  0  0  0  0  0  0  0  0  0
  151.9445  136.9836  153.7820 O   0  0  0  0  0  0  0  0  0  0  0  0
  152.8188  139.8559  157.7152 N   0  0  0  0  0  0  0  0  0  0  0  0
  152.6994  140.9614  158.5327 C   0  0  0  0  0  0  0  0  0  0  0  0
  153.3180  141.2620  159.7673 C   0  0  0  0  0  0  0  0  0  0  0  0
  153.0385  142.4759  160.4287 C   0  0  0  0  0  0  0  0  0  0  0  0
  152.1372  143.4031  159.8669 C   0  0  0  0  0  0  0  0  0  0  0  0
  151.5079  143.1212  158.6392 C   0  0  0  0  0  0  0  0  0  0  0  0
  151.7914  141.9083  157.9822 C   0  0  0  0  0  0  0  0  0  0  0  0
  145.3653  141.5756  154.4434 H   0  0  0  0  0  0  0  0  0  0  0  0
  146.4967  142.8447  153.9784 H   0  0  0  0  0  0  0  0  0  0  0  0
  146.5452  142.1738  155.6084 H   0  0  0  0  0  0  0  0  0  0  0  0
  147.2565  139.9496  154.6692 H   0  0  0  0  0  0  0  0  0  0  0  0
  147.2088  140.6229  153.0417 H   0  0  0  0  0  0  0  0  0  0  0  0
  148.5571  140.8063  156.2378 H   0  0  0  0  0  0  0  0  0  0  0  0
  149.7628  139.9314  155.2995 H   0  0  0  0  0  0  0  0  0  0  0  0
  150.9091  142.2869  155.0024 H   0  0  0  0  0  0  0  0  0  0  0  0
  149.9306  142.8043  156.3407 H   0  0  0  0  0  0  0  0  0  0  0  0
  151.1514  139.6556  154.8303 H   0  0  0  0  0  0  0  0  0  0  0  0
  152.7786  139.0652  155.0019 H   0  0  0  0  0  0  0  0  0  0  0  0
  152.0511  137.3158  156.5800 H   0  0  0  0  0  0  0  0  0  0  0  0
  150.4300  137.9545  156.5839 H   0  0  0  0  0  0  0  0  0  0  0  0
  150.8449  135.8755  155.0946 H   0  0  0  0  0  0  0  0  0  0  0  0
  149.9896  137.2103  154.3284 H   0  0  0  0  0  0  0  0  0  0  0  0
  151.5352  136.9240  152.9324 H   0  0  0  0  0  0  0  0  0  0  0  0
  154.0099  140.5577  160.2049 H   0  0  0  0  0  0  0  0  0  0  0  0
  153.5180  142.6967  161.3710 H   0  0  0  0  0  0  0  0  0  0  0  0
  151.9287  144.3308  160.3796 H   0  0  0  0  0  0  0  0  0  0  0  0
  150.8170  143.8300  158.2077 H   0  0  0  0  0  0  0  0  0  0  0  0
  1  2  1  0  0  0  0
  1 19  1  0  0  0  0
  1 20  1  0  0  0  0
  1 21  1  0  0  0  0
  2  3  1  0  0  0  0
  2 22  1  0  0  0  0
  2 23  1  0  0  0  0
  3  4  1  0  0  0  0
  4  5  1  0  0  0  0
  4 24  1  0  0  0  0
  4 25  1  0  0  0  0
  5  6  1  0  0  0  0
  5 26  1  0  0  0  0
  5 27  1  0  0  0  0
  6 18  1  0  0  0  0
  6  7  1  0  0  0  0
  7  8  1  0  0  0  0
  7 12  2  0  0  0  0
  8  9  1  0  0  0  0
  8 28  1  0  0  0  0
  8 29  1  0  0  0  0
  9 10  1  0  0  0  0
  9 30  1  0  0  0  0
  9 31  1  0  0  0  0
 10 11  1  0  0  0  0
 10 32  1  0  0  0  0
 10 33  1  0  0  0  0
 11 34  1  0  0  0  0
 12 13  1  0  0  0  0
 13 18  2  0  0  0  0
 13 14  1  0  0  0  0
 14 15  2  0  0  0  0
 14 35  1  0  0  0  0
 15 16  1  0  0  0  0
 15 36  1  0  0  0  0
 16 17  2  0  0  0  0
 16 37  1  0  0  0  0
 17 18  1  0  0  0  0
 17 38  1  0  0  0  0
M  END
> <s_m_source_file>
AV-unprocessed.smi

> <i_m_source_file_index>
2980

> <i_lp_mmshare_version>
43012

> <i_f3d_flags>
0

> <s_epik_input>
W0NIM11bQ0gyXU9bQ0gyXVtDSDJdbihjKG4xKVtDSDJdW0NIMl1bQ0gyXVtPSF0pYyhjMTIpW2NIXVtjSF1bY0hdW2NIXTI=

> <s_epik_cmdline>
J2VwaWtfcHl0aG9uJywgJy1waCcsICc3LjAnLCAnLXRuJywgJzgnLCAnLW1hJywgJzIwMCcsICctbWV0YWxfYmluZGluZycsICctaW1hZScsICc8aW5maWxlLm1hZT4nLCAnLW9tYWUnLCAnPG91dGZpbGUubWFlPic=

> <r_epik_Ionization_Penalty>
0.173195

> <r_epik_Ionization_Penalty_Charging>
0

> <r_epik_Ionization_Penalty_Neutral>
0.173195

> <r_epik_State_Penalty>
0.162604

> <r_epik_Charging_Adjusted_Penalty>
0.162604

> <i_epik_Tot_Q>
0

> <i_epik_Tot_abs_Q>
0

> <r_epik_Metal_State_Penalty>
0.000187077

> <b_epik_Metal_Only>
0

> <s_lp_Force_Field>
OPLS_2005

> <r_lp_Energy>
8.24734

> <b_lp_Chiralities_Consistent>
1

> <s_lp_Variant>
AV-unprocessed.smi:2980-1

> <Gold.Version>
5.8.1

> <Gold.Id.Protein>
6NUR|6NUR_protein|mol2

> <Gold.PLP.Fitness>
50.6091

> <Gold.PLP.PLP>
-41.0677

> <Gold.PLP.part.hbond>
-4.4795

> <Gold.PLP.part.metal>
0.0000

> <Gold.PLP.part.buried>
-5.2260

> <Gold.PLP.part.nonpolar>
-31.2352

> <Gold.PLP.part.repulsive>
0.1895

> <Gold.PLP.ligand.clash>
0.0000

> <Gold.PLP.ligand.torsion>
0.7271

> <Gold.PLP.Chemscore.Hbond>
3.6480

> <Gold.PLP.Chemscore.CHOScore>
0.0000

> <Gold.PLP.Chemscore.Metal>
0.0000

> <Gold.Chemscore.Hbonds>
donor molecule, donor type, donor heavy atom, donor atom, acceptor molecule, acceptor atom, score
      L1  H    11    34       P1  7949  0.99
      P1  H  7997  8008       L1    12  0.96
      P1  H 10752 10764       L1    11  1.00

> <Gold.PLP.Chemscore.Internal.Correction>
0.0515

> <Gold.Rescore>
     Score         DG    S(hbond)    S(metal)    S(lipo)     H(rot)  DE(clash)    DE(int)     intcor
     18.09     -19.94       2.45        0.00     107.93       2.48       1.47       0.38       ----

> <Gold.Chemscore.Fitness>
18.0855

> <Gold.Chemscore.DG>
-19.9402

> <Gold.Chemscore.ZeroCoef>
-5.4800

> <Gold.Chemscore.Hbond>
2.4508

> <Gold.Chemscore.Metal>
0.0000

> <Gold.Chemscore.Lipo>
107.9267

> <Gold.Chemscore.Internal_Hbond>
0.0000

> <Gold.Chemscore.DEClash>
1.4738

> <Gold.Chemscore.DEInternal>
0.3808

> <Gold.Chemscore.Rot>
2.4817

> <Gold.Chemscore.Internal.Correction>
   9.000000E+99

> <Gold.Chemscore.Hbonds>
donor molecule, donor type, donor heavy atom, donor atom, acceptor molecule, acceptor atom, score
      L1  H    11    34       P1  7949  0.88
      P1  H  7997  8008       L1    12  0.18
      P1  H  8011  8017       L1     3  0.03
      P1  H 10752 10764       L1    11  0.42

> <Gold.Chemscore.Hbond.Weighted>
-8.1858

> <Gold.Chemscore.Metal.Weighted>
-0.0000

> <Gold.Chemscore.Lipo.Weighted>
-12.6274

> <Gold.Chemscore.Internal_Hbond.Weighted>
0.0000

> <Gold.Chemscore.DEClash.Weighted>
1.4738

> <Gold.Chemscore.DEInternal.Weighted>
0.3808

> <Gold.Chemscore.Rot.Weighted>
6.3531

> <Gold.Chemscore.Internal.Correction.Weighted>
   9.000000E+99

> <Gold.Protein.RotatedTorsions>
[ 6907 6896 6895 6894 ] final -152.20 input  -60.11 | X-H torsion
[ 7974 7965 7964 7962 ] final -124.26 input  175.53 | X-H torsion
[ 8008 7997 7996 7995 ] final  -89.76 input   59.86 | X-H torsion
[ 10167 10162 10161 10158 ] final   46.37 input  -65.29 | X-H torsion
[ 10718 10713 10712 10709 ] final  139.22 input   66.30 | X-H torsion
[ 10763 10752 10751 10750 ] final  -87.17 input  -60.55 | X-H torsion
[ 11005 11000 10999 10996 ] final -141.67 input  -57.11 | X-H torsion

> <Gold.Protein.ActiveResidues>
 VAL166  LYS551  ARG553  GLY616  TRP617  ASP618  TYR619  PRO620  LYS621  CYS622 
 ASP623  PHE694  ASN695  SER759  ASP760  ASP761  ALA762  ILE779  LEU786  VAL792 
 PHE793  MET794  SER795  GLU796  ALA797  LYS798  CYS799  TRP800  GLU811  SER814 

> <Gold.Protein.RotatedAtoms>
  151.2242  133.4485  159.2601 H   0  0  0  0  0  0  0  0  0  0  0  0  # atno 6907 bound_to 6896
  151.0856  134.9885  159.8387 H   0  0  0  0  0  0  0  0  0  0  0  0  # atno 6908 bound_to 6896
  152.5429  134.2179  159.8829 H   0  0  0  0  0  0  0  0  0  0  0  0  # atno 6909 bound_to 6896
  145.0099  140.7897  143.4445 H   0  0  0  0  0  0  0  0  0  0  0  0  # atno 7974 bound_to 7965
  154.6905  140.0538  157.0358 H   0  0  0  0  0  0  0  0  0  0  0  0  # atno 8008 bound_to 7997
  155.0824  140.3211  155.4579 H   0  0  0  0  0  0  0  0  0  0  0  0  # atno 8009 bound_to 7997
  156.2726  140.2062  156.5951 H   0  0  0  0  0  0  0  0  0  0  0  0  # atno 8010 bound_to 7997
  140.3146  144.2779  150.6193 H   0  0  0  0  0  0  0  0  0  0  0  0  # atno 10167 bound_to 10162
  157.4168  131.1034  151.0396 H   0  0  0  0  0  0  0  0  0  0  0  0  # atno 10718 bound_to 10713
  154.6306  135.5423  153.7676 H   0  0  0  0  0  0  0  0  0  0  0  0  # atno 10763 bound_to 10752
  153.0282  135.6435  154.1307 H   0  0  0  0  0  0  0  0  0  0  0  0  # atno 10764 bound_to 10752
  154.1237  135.2918  155.3182 H   0  0  0  0  0  0  0  0  0  0  0  0  # atno 10765 bound_to 10752
  140.8301  134.2527  157.4861 H   0  0  0  0  0  0  0  0  0  0  0  0  # atno 11005 bound_to 11000
  145.2037  139.2239  143.5179 LP  0  0  0  0  0  0  0  0  0  0  0  0  # atno 17320 bound_to 7965
  146.3468  140.1860  142.8589 LP  0  0  0  0  0  0  0  0  0  0  0  0  # atno 17321 bound_to 7965
  140.5538  143.2202  151.7883 LP  0  0  0  0  0  0  0  0  0  0  0  0  # atno 17342 bound_to 10162
  139.4886  144.4441  151.9730 LP  0  0  0  0  0  0  0  0  0  0  0  0  # atno 17343 bound_to 10162
  157.1340  130.6114  149.5537 LP  0  0  0  0  0  0  0  0  0  0  0  0  # atno 17370 bound_to 10713
  155.9868  130.4904  150.7094 LP  0  0  0  0  0  0  0  0  0  0  0  0  # atno 17371 bound_to 10713
  139.8705  134.9581  156.4291 LP  0  0  0  0  0  0  0  0  0  0  0  0  # atno 17394 bound_to 11000
  140.9007  133.7781  155.9677 LP  0  0  0  0  0  0  0  0  0  0  0  0  # atno 17395 bound_to 11000

$$$$
