AV-unprocessed.smi:2579|AV-procd|sdf|10124|dock1
  -GOLD-   2272014143D 1   1.00000     0.00000
 Structure written by MMmdl.
 39 41  0  0  0  0  0  0  0  0  2 V2000
  147.1806  142.9884  154.0399 O   0  0  0  0  0  0  0  0  0  0  0  0
  147.3429  141.6704  154.5174 C   0  0  0  0  0  0  0  0  0  0  0  0
  148.8350  141.2978  154.5361 C   0  0  0  0  0  0  0  0  0  0  0  0
  149.2469  140.7273  155.8108 N   0  0  0  0  0  0  0  0  0  0  0  0
  150.1202  141.4616  156.6219 C   0  0  0  0  0  0  0  0  0  0  0  0
  150.2639  142.8139  156.6287 N   0  3  0  0  0  0  0  0  0  0  0  0
  151.2521  143.1456  157.5600 C   0  0  0  0  0  0  0  0  0  0  0  0
  151.7694  144.3824  157.9329 C   0  0  0  0  0  0  0  0  0  0  0  0
  152.7848  144.3752  158.9118 C   0  0  0  0  0  0  0  0  0  0  0  0
  153.2497  143.1717  159.4809 C   0  0  0  0  0  0  0  0  0  0  0  0
  152.7189  141.9222  159.0985 C   0  0  0  0  0  0  0  0  0  0  0  0
  151.7136  141.9356  158.1326 C   0  0  0  0  0  0  0  0  0  0  0  0
  150.9748  140.9143  157.5237 N   0  0  0  0  0  0  0  0  0  0  0  0
  151.2283  139.5122  157.8785 C   0  0  0  0  0  0  0  0  0  0  0  0
  151.8813  138.7454  156.7181 C   0  0  1  0  0  0  0  0  0  0  0  0
  150.8886  138.1219  155.7386 C   0  0  0  0  0  0  0  0  0  0  0  0
  151.6588  138.0711  154.4263 C   0  0  0  0  0  0  0  0  0  0  0  0
  152.9086  138.9174  154.6858 C   0  0  0  0  0  0  0  0  0  0  0  0
  152.6329  139.6175  155.8891 O   0  0  0  0  0  0  0  0  0  0  0  0
  147.9130  143.5080  154.3348 H   0  0  0  0  0  0  0  0  0  0  0  0
  146.8791  141.5642  155.4986 H   0  0  0  0  0  0  0  0  0  0  0  0
  146.8082  141.0063  153.8382 H   0  0  0  0  0  0  0  0  0  0  0  0
  149.0454  140.5786  153.7440 H   0  0  0  0  0  0  0  0  0  0  0  0
  149.4484  142.1731  154.3197 H   0  0  0  0  0  0  0  0  0  0  0  0
  149.3011  139.7198  155.8640 H   0  0  0  0  0  0  0  0  0  0  0  0
  151.4186  145.3061  157.4967 H   0  0  0  0  0  0  0  0  0  0  0  0
  153.2180  145.3121  159.2310 H   0  0  0  0  0  0  0  0  0  0  0  0
  154.0312  143.2073  160.2261 H   0  0  0  0  0  0  0  0  0  0  0  0
  153.0845  141.0066  159.5391 H   0  0  0  0  0  0  0  0  0  0  0  0
  151.8441  139.4739  158.7773 H   0  0  0  0  0  0  0  0  0  0  0  0
  150.2698  139.0627  158.1400 H   0  0  0  0  0  0  0  0  0  0  0  0
  152.5511  137.9752  157.1059 H   0  0  0  0  0  0  0  0  0  0  0  0
  150.5410  137.1414  156.0655 H   0  0  0  0  0  0  0  0  0  0  0  0
  150.0151  138.7647  155.6210 H   0  0  0  0  0  0  0  0  0  0  0  0
  151.9309  137.0508  154.1542 H   0  0  0  0  0  0  0  0  0  0  0  0
  151.0597  138.4859  153.6149 H   0  0  0  0  0  0  0  0  0  0  0  0
  153.7799  138.2783  154.8359 H   0  0  0  0  0  0  0  0  0  0  0  0
  153.1283  139.6058  153.8697 H   0  0  0  0  0  0  0  0  0  0  0  0
  149.7364  143.4504  156.0455 H   0  0  0  0  0  0  0  0  0  0  0  0
  1  2  1  0  0  0  0
  1 20  1  0  0  0  0
  2  3  1  0  0  0  0
  2 21  1  0  0  0  0
  2 22  1  0  0  0  0
  3  4  1  0  0  0  0
  3 23  1  0  0  0  0
  3 24  1  0  0  0  0
  4  5  1  0  0  0  0
  4 25  1  0  0  0  0
  5 13  1  0  0  0  0
  5  6  2  0  0  0  0
  6  7  1  0  0  0  0
  6 39  1  0  0  0  0
  7 12  2  0  0  0  0
  7  8  1  0  0  0  0
  8  9  2  0  0  0  0
  8 26  1  0  0  0  0
  9 10  1  0  0  0  0
  9 27  1  0  0  0  0
 10 11  2  0  0  0  0
 10 28  1  0  0  0  0
 11 12  1  0  0  0  0
 11 29  1  0  0  0  0
 12 13  1  0  0  0  0
 13 14  1  0  0  0  0
 14 15  1  0  0  0  0
 14 30  1  0  0  0  0
 14 31  1  0  0  0  0
 15 19  1  0  0  0  0
 15 16  1  0  0  0  0
 15 32  1  0  0  0  0
 16 17  1  0  0  0  0
 16 33  1  0  0  0  0
 16 34  1  0  0  0  0
 17 18  1  0  0  0  0
 17 35  1  0  0  0  0
 17 36  1  0  0  0  0
 18 19  1  0  0  0  0
 18 37  1  0  0  0  0
 18 38  1  0  0  0  0
M  CHG  1   6   1
M  END
> <s_m_source_file>
AV-unprocessed.smi

> <i_m_source_file_index>
2579

> <i_lp_mmshare_version>
43012

> <i_f3d_flags>
0

> <s_epik_input>
W09IXVtDSDJdW0NIMl1bTkhdYyhuMSluKGMoYzEyKVtjSF1bY0hdW2NIXVtjSF0yKVtDSDJdW0NAQEhdM1tDSDJdW0NIMl1bQ0gyXU8z

> <s_epik_cmdline>
J2VwaWtfcHl0aG9uJywgJy1waCcsICc3LjAnLCAnLXRuJywgJzgnLCAnLW1hJywgJzIwMCcsICctbWV0YWxfYmluZGluZycsICctaW1hZScsICc8aW5maWxlLm1hZT4nLCAnLW9tYWUnLCAnPG91dGZpbGUubWFlPic=

> <r_epik_Ionization_Penalty>
0.0735651

> <r_epik_Ionization_Penalty_Charging>
0.0735628

> <r_epik_Ionization_Penalty_Neutral>
2.35277e-06

> <r_epik_State_Penalty>
0.0647164

> <r_epik_Charging_Adjusted_Penalty>
0.138279

> <i_epik_Tot_Q>
1

> <i_epik_Tot_abs_Q>
1

> <r_epik_Metal_State_Penalty>
2.81856

> <b_epik_Metal_Only>
0

> <s_lp_Force_Field>
OPLS_2005

> <r_lp_Energy>
32.0785

> <b_lp_Chiralities_Consistent>
1

> <s_lp_Variant>
AV-unprocessed.smi:2579-2

> <Gold.Version>
5.8.1

> <Gold.Id.Protein>
6NUR|6NUR_protein|mol2

> <Gold.PLP.Fitness>
55.1236

> <Gold.PLP.PLP>
-44.7002

> <Gold.PLP.part.hbond>
-3.9623

> <Gold.PLP.part.metal>
0.0000

> <Gold.PLP.part.buried>
-6.0554

> <Gold.PLP.part.nonpolar>
-35.7280

> <Gold.PLP.part.repulsive>
0.1146

> <Gold.PLP.ligand.clash>
0.0000

> <Gold.PLP.ligand.torsion>
0.8243

> <Gold.PLP.Chemscore.Hbond>
4.0000

> <Gold.PLP.Chemscore.CHOScore>
0.0000

> <Gold.PLP.Chemscore.Metal>
0.0000

> <Gold.Chemscore.Hbonds>
donor molecule, donor type, donor heavy atom, donor atom, acceptor molecule, acceptor atom, score
      L1  H     1    20       P1  8028  1.00
      L1  H     6    39       P1  8028  2.00
      P1  H  7997  8008       L1    19  1.00

> <Gold.PLP.Chemscore.Internal.Correction>
0.0719

> <Gold.Rescore>
     Score         DG    S(hbond)    S(metal)    S(lipo)     H(rot)  DE(clash)    DE(int)     intcor
     20.99     -21.97       2.60        0.00     115.24       2.22       0.10       0.88       ----

> <Gold.Chemscore.Fitness>
20.9888

> <Gold.Chemscore.DG>
-21.9666

> <Gold.Chemscore.ZeroCoef>
-5.4800

> <Gold.Chemscore.Hbond>
2.6009

> <Gold.Chemscore.Metal>
0.0000

> <Gold.Chemscore.Lipo>
115.2410

> <Gold.Chemscore.Internal_Hbond>
0.0000

> <Gold.Chemscore.DEClash>
0.0956

> <Gold.Chemscore.DEInternal>
0.8822

> <Gold.Chemscore.Rot>
2.2202

> <Gold.Chemscore.Internal.Correction>
   9.000000E+99

> <Gold.Chemscore.Hbonds>
donor molecule, donor type, donor heavy atom, donor atom, acceptor molecule, acceptor atom, score
      L1  H     1    20       P1  8028  0.70
      L1  H     6    39       P1  8028  0.97
      P1  H  7997  8008       L1    19  0.25

> <Gold.Chemscore.Hbond.Weighted>
-8.6872

> <Gold.Chemscore.Metal.Weighted>
-0.0000

> <Gold.Chemscore.Lipo.Weighted>
-13.4832

> <Gold.Chemscore.Internal_Hbond.Weighted>
0.0000

> <Gold.Chemscore.DEClash.Weighted>
0.0956

> <Gold.Chemscore.DEInternal.Weighted>
0.8822

> <Gold.Chemscore.Rot.Weighted>
5.6837

> <Gold.Chemscore.Internal.Correction.Weighted>
   9.000000E+99

> <Gold.Protein.RotatedTorsions>
[ 6907 6896 6895 6894 ] final -165.42 input  -60.11 | X-H torsion
[ 7974 7965 7964 7962 ] final -177.15 input  175.53 | X-H torsion
[ 8008 7997 7996 7995 ] final  -45.90 input   59.86 | X-H torsion
[ 10167 10162 10161 10158 ] final  -42.09 input  -65.29 | X-H torsion
[ 10718 10713 10712 10709 ] final  -51.29 input   66.30 | X-H torsion
[ 10763 10752 10751 10750 ] final  -99.09 input  -60.55 | X-H torsion
[ 11005 11000 10999 10996 ] final  -56.69 input  -57.11 | X-H torsion

> <Gold.Protein.ActiveResidues>
 VAL166  LYS551  ARG553  GLY616  TRP617  ASP618  TYR619  PRO620  LYS621  CYS622 
 ASP623  PHE694  ASN695  SER759  ASP760  ASP761  ALA762  ILE779  LEU786  VAL792 
 PHE793  MET794  SER795  GLU796  ALA797  LYS798  CYS799  TRP800  GLU811  SER814 

> <Gold.Protein.RotatedAtoms>
  151.4274  133.3680  159.2763 H   0  0  0  0  0  0  0  0  0  0  0  0  # atno 6907 bound_to 6896
  150.9250  134.8668  159.7524 H   0  0  0  0  0  0  0  0  0  0  0  0  # atno 6908 bound_to 6896
  152.5000  134.4214  159.9534 H   0  0  0  0  0  0  0  0  0  0  0  0  # atno 6909 bound_to 6896
  144.7127  140.1063  143.6413 H   0  0  0  0  0  0  0  0  0  0  0  0  # atno 7974 bound_to 7965
  154.4003  140.1385  156.3923 H   0  0  0  0  0  0  0  0  0  0  0  0  # atno 8008 bound_to 7997
  155.7903  140.3479  155.5325 H   0  0  0  0  0  0  0  0  0  0  0  0  # atno 8009 bound_to 7997
  155.8586  140.0953  157.1618 H   0  0  0  0  0  0  0  0  0  0  0  0  # atno 8010 bound_to 7997
  140.6981  143.3057  151.3160 H   0  0  0  0  0  0  0  0  0  0  0  0  # atno 10167 bound_to 10162
  156.1723  130.4149  149.9628 H   0  0  0  0  0  0  0  0  0  0  0  0  # atno 10718 bound_to 10713
  154.7469  135.4985  153.9220 H   0  0  0  0  0  0  0  0  0  0  0  0  # atno 10763 bound_to 10752
  153.1101  135.6707  153.9523 H   0  0  0  0  0  0  0  0  0  0  0  0  # atno 10764 bound_to 10752
  153.9285  135.3080  155.3425 H   0  0  0  0  0  0  0  0  0  0  0  0  # atno 10765 bound_to 10752
  141.1131  133.6610  156.4656 H   0  0  0  0  0  0  0  0  0  0  0  0  # atno 11005 bound_to 11000
  145.9493  139.2723  143.1221 LP  0  0  0  0  0  0  0  0  0  0  0  0  # atno 17320 bound_to 7965
  145.9340  140.9028  143.0342 LP  0  0  0  0  0  0  0  0  0  0  0  0  # atno 17321 bound_to 7965
  139.6462  144.0447  152.2592 LP  0  0  0  0  0  0  0  0  0  0  0  0  # atno 17342 bound_to 10162
  139.9968  144.6322  150.7765 LP  0  0  0  0  0  0  0  0  0  0  0  0  # atno 17343 bound_to 10162
  156.7424  130.9084  151.3633 LP  0  0  0  0  0  0  0  0  0  0  0  0  # atno 17370 bound_to 10713
  157.6812  130.9141  150.0271 LP  0  0  0  0  0  0  0  0  0  0  0  0  # atno 17371 bound_to 10713
  140.4720  134.6744  157.5133 LP  0  0  0  0  0  0  0  0  0  0  0  0  # atno 17394 bound_to 11000
  140.0037  134.6797  155.9490 LP  0  0  0  0  0  0  0  0  0  0  0  0  # atno 17395 bound_to 11000

$$$$
