AV-unprocessed.smi:3304|AV-procd|sdf|12697|dock5
  -GOLD-   2272019 33D 1   1.00000     0.00000
 Structure written by MMmdl.
 46 47  0  0  0  0  0  0  0  0  2 V2000
  149.0307  136.6471  155.2086 C   0  0  0  0  0  0  0  0  0  0  0  0
  149.3813  138.0109  154.7074 C   0  0  0  0  0  0  0  0  0  0  0  0
  148.5951  139.0000  154.1800 C   0  0  0  0  0  0  0  0  0  0  0  0
  147.1098  139.0059  153.9417 C   0  0  0  0  0  0  0  0  0  0  0  0
  146.7782  138.8382  152.4530 C   0  0  0  0  0  0  0  0  0  0  0  0
  145.3874  138.3820  152.2678 N   0  3  0  0  0  0  0  0  0  0  0  0
  145.0618  137.1364  152.9909 C   0  0  0  0  0  0  0  0  0  0  0  0
  144.5131  136.0556  152.0412 C   0  0  2  0  0  0  0  0  0  0  0  0
  143.7765  134.9534  152.8281 C   0  0  0  0  0  0  0  0  0  0  0  0
  143.2183  133.8648  151.8968 C   0  0  0  0  0  0  0  0  0  0  0  0
  144.3255  133.2401  151.0279 C   0  0  1  0  0  0  0  0  0  0  0  0
  143.7638  132.1606  150.0919 C   0  0  0  0  0  0  0  0  0  0  0  0
  145.0695  134.3361  150.2427 C   0  0  0  0  0  0  0  0  0  0  0  0
  145.6249  135.4240  151.1763 C   0  0  0  0  0  0  0  0  0  0  0  0
  149.5167  140.0474  153.8967 C   0  0  0  0  0  0  0  0  0  0  0  0
  150.7604  139.7370  154.2150 N   0  0  0  0  0  0  0  0  0  0  0  0
  150.6792  138.4862  154.7136 N   0  0  0  0  0  0  0  0  0  0  0  0
  151.8850  137.8223  155.1694 C   0  0  0  0  0  0  0  0  0  0  0  0
  147.9592  136.4612  155.1350 H   0  0  0  0  0  0  0  0  0  0  0  0
  149.3183  136.5327  156.2539 H   0  0  0  0  0  0  0  0  0  0  0  0
  149.5432  135.8783  154.6301 H   0  0  0  0  0  0  0  0  0  0  0  0
  146.6277  138.2119  154.5132 H   0  0  0  0  0  0  0  0  0  0  0  0
  146.6716  139.9367  154.3039 H   0  0  0  0  0  0  0  0  0  0  0  0
  146.9168  139.7861  151.9314 H   0  0  0  0  0  0  0  0  0  0  0  0
  147.4558  138.1156  151.9961 H   0  0  0  0  0  0  0  0  0  0  0  0
  144.7635  139.1104  152.5850 H   0  0  0  0  0  0  0  0  0  0  0  0
  145.9489  136.7693  153.5094 H   0  0  0  0  0  0  0  0  0  0  0  0
  144.3195  137.3691  153.7560 H   0  0  0  0  0  0  0  0  0  0  0  0
  143.7867  136.5269  151.3766 H   0  0  0  0  0  0  0  0  0  0  0  0
  144.4543  134.4988  153.5517 H   0  0  0  0  0  0  0  0  0  0  0  0
  142.9593  135.3884  153.4043 H   0  0  0  0  0  0  0  0  0  0  0  0
  142.7305  133.0917  152.4915 H   0  0  0  0  0  0  0  0  0  0  0  0
  142.4456  134.2946  151.2578 H   0  0  0  0  0  0  0  0  0  0  0  0
  145.0431  132.7568  151.6928 H   0  0  0  0  0  0  0  0  0  0  0  0
  143.0353  132.5779  149.3960 H   0  0  0  0  0  0  0  0  0  0  0  0
  143.2695  131.3698  150.6568 H   0  0  0  0  0  0  0  0  0  0  0  0
  144.5576  131.6983  149.5046 H   0  0  0  0  0  0  0  0  0  0  0  0
  145.8865  133.8945  149.6710 H   0  0  0  0  0  0  0  0  0  0  0  0
  144.3958  134.7911  149.5151 H   0  0  0  0  0  0  0  0  0  0  0  0
  146.1212  136.1882  150.5777 H   0  0  0  0  0  0  0  0  0  0  0  0
  146.3926  134.9914  151.8195 H   0  0  0  0  0  0  0  0  0  0  0  0
  149.3189  141.0190  153.4684 H   0  0  0  0  0  0  0  0  0  0  0  0
  151.7856  137.5654  156.2240 H   0  0  0  0  0  0  0  0  0  0  0  0
  152.7537  138.4702  155.0454 H   0  0  0  0  0  0  0  0  0  0  0  0
  152.0408  136.9102  154.5930 H   0  0  0  0  0  0  0  0  0  0  0  0
  145.2296  138.2285  151.2820 H   0  0  0  0  0  0  0  0  0  0  0  0
  1  2  1  0  0  0  0
  1 19  1  0  0  0  0
  1 20  1  0  0  0  0
  1 21  1  0  0  0  0
  2 17  1  0  0  0  0
  2  3  2  0  0  0  0
  3  4  1  0  0  0  0
  3 15  1  0  0  0  0
  4  5  1  0  0  0  0
  4 22  1  0  0  0  0
  4 23  1  0  0  0  0
  5  6  1  0  0  0  0
  5 24  1  0  0  0  0
  5 25  1  0  0  0  0
  6  7  1  0  0  0  0
  6 26  1  0  0  0  0
  6 46  1  0  0  0  0
  7  8  1  0  0  0  0
  7 27  1  0  0  0  0
  7 28  1  0  0  0  0
  8 14  1  0  0  0  0
  8  9  1  0  0  0  0
  8 29  1  0  0  0  0
  9 10  1  0  0  0  0
  9 30  1  0  0  0  0
  9 31  1  0  0  0  0
 10 11  1  0  0  0  0
 10 32  1  0  0  0  0
 10 33  1  0  0  0  0
 11 12  1  0  0  0  0
 11 13  1  0  0  0  0
 11 34  1  0  0  0  0
 12 35  1  0  0  0  0
 12 36  1  0  0  0  0
 12 37  1  0  0  0  0
 13 14  1  0  0  0  0
 13 38  1  0  0  0  0
 13 39  1  0  0  0  0
 14 40  1  0  0  0  0
 14 41  1  0  0  0  0
 15 16  2  0  0  0  0
 15 42  1  0  0  0  0
 16 17  1  0  0  0  0
 17 18  1  0  0  0  0
 18 43  1  0  0  0  0
 18 44  1  0  0  0  0
 18 45  1  0  0  0  0
M  CHG  1   6   1
M  END
> <s_m_source_file>
AV-unprocessed.smi

> <i_m_source_file_index>
3304

> <i_lp_mmshare_version>
43012

> <i_f3d_flags>
0

> <s_epik_input>
W0NIM11uMW5bY0hdYyhjMVtDSDNdKVtDSDJdW0NIMl1bTkhdW0NIMl1bQ0BASF0yW0NIMl1bQ0gyXVtDQEBIXShbQ0gzXSlbQ0gyXVtDSDJdMg==

> <s_epik_cmdline>
J2VwaWtfcHl0aG9uJywgJy1waCcsICc3LjAnLCAnLXRuJywgJzgnLCAnLW1hJywgJzIwMCcsICctbWV0YWxfYmluZGluZycsICctaW1hZScsICc8aW5maWxlLm1hZT4nLCAnLW9tYWUnLCAnPG91dGZpbGUubWFlPic=

> <r_lp_tautomer_probability>
1

> <r_epik_Ionization_Penalty>
0.000505313

> <r_epik_Ionization_Penalty_Charging>
0.000421171

> <r_epik_Ionization_Penalty_Neutral>
8.41424e-05

> <r_epik_State_Penalty>
-0

> <r_epik_Charging_Adjusted_Penalty>
0.000421171

> <i_epik_Tot_Q>
1

> <i_epik_Tot_abs_Q>
1

> <r_epik_Metal_State_Penalty>
-0

> <b_epik_Metal_Only>
0

> <s_lp_Force_Field>
OPLS_2005

> <r_lp_Energy>
10.3881

> <b_lp_Chiralities_Consistent>
1

> <s_lp_Variant>
AV-unprocessed.smi:3304-1

> <Gold.Version>
5.8.1

> <Gold.Id.Protein>
6NUR|6NUR_protein|mol2

> <Gold.PLP.Fitness>
43.9032

> <Gold.PLP.PLP>
-33.3645

> <Gold.PLP.part.hbond>
-2.9742

> <Gold.PLP.part.metal>
0.0000

> <Gold.PLP.part.buried>
0.7935

> <Gold.PLP.part.nonpolar>
-31.0675

> <Gold.PLP.part.repulsive>
0.1584

> <Gold.PLP.ligand.clash>
0.0000

> <Gold.PLP.ligand.torsion>
0.7790

> <Gold.PLP.Chemscore.Hbond>
3.8640

> <Gold.PLP.Chemscore.CHOScore>
0.1597

> <Gold.PLP.Chemscore.Metal>
0.0000

> <Gold.Chemscore.Hbonds>
donor molecule, donor type, donor heavy atom, donor atom, acceptor molecule, acceptor atom, score
      L1  H     6    26       P1 10175  2.00
      L1  H     6    46       P1 10171  0.83
      P1  H  7989  7998       L1    16  1.00
      L1  C    15    42       P1  7957  0.20

> <Gold.PLP.Chemscore.Internal.Correction>
0.0255

> <Gold.Rescore>
     Score         DG    S(hbond)    S(metal)    S(lipo)     H(rot)  DE(clash)    DE(int)     intcor
     19.14     -21.75       2.72        0.00      92.71       1.43       1.91       0.70       ----

> <Gold.Chemscore.Fitness>
19.1424

> <Gold.Chemscore.DG>
-21.7451

> <Gold.Chemscore.ZeroCoef>
-5.4800

> <Gold.Chemscore.Hbond>
2.7204

> <Gold.Chemscore.Metal>
0.0000

> <Gold.Chemscore.Lipo>
92.7149

> <Gold.Chemscore.Internal_Hbond>
0.0000

> <Gold.Chemscore.DEClash>
1.9059

> <Gold.Chemscore.DEInternal>
0.6968

> <Gold.Chemscore.Rot>
1.4331

> <Gold.Chemscore.Internal.Correction>
   9.000000E+99

> <Gold.Chemscore.Hbonds>
donor molecule, donor type, donor heavy atom, donor atom, acceptor molecule, acceptor atom, score
      L1  H     6    26       P1 10175  0.99
      L1  H     6    46       P1 10171  0.76
      P1  H  7989  7998       L1    16  0.44

> <Gold.Chemscore.Hbond.Weighted>
-9.0862

> <Gold.Chemscore.Metal.Weighted>
-0.0000

> <Gold.Chemscore.Lipo.Weighted>
-10.8476

> <Gold.Chemscore.Internal_Hbond.Weighted>
0.0000

> <Gold.Chemscore.DEClash.Weighted>
1.9059

> <Gold.Chemscore.DEInternal.Weighted>
0.6968

> <Gold.Chemscore.Rot.Weighted>
3.6688

> <Gold.Chemscore.Internal.Correction.Weighted>
   9.000000E+99

> <Gold.Protein.RotatedTorsions>
[ 6907 6896 6895 6894 ] final  -91.99 input  -60.11 | X-H torsion
[ 7974 7965 7964 7962 ] final  -32.94 input  175.53 | X-H torsion
[ 8008 7997 7996 7995 ] final  -15.25 input   59.86 | X-H torsion
[ 10167 10162 10161 10158 ] final  119.32 input  -65.29 | X-H torsion
[ 10718 10713 10712 10709 ] final  148.74 input   66.30 | X-H torsion
[ 10763 10752 10751 10750 ] final  124.69 input  -60.55 | X-H torsion
[ 11005 11000 10999 10996 ] final   58.70 input  -57.11 | X-H torsion

> <Gold.Protein.ActiveResidues>
 VAL166  LYS551  ARG553  GLY616  TRP617  ASP618  TYR619  PRO620  LYS621  CYS622 
 ASP623  PHE694  ASN695  SER759  ASP760  ASP761  ALA762  ILE779  LEU786  VAL792 
 PHE793  MET794  SER795  GLU796  ALA797  LYS798  CYS799  TRP800  GLU811  SER814 

> <Gold.Protein.RotatedAtoms>
  150.6900  134.2192  159.4389 H   0  0  0  0  0  0  0  0  0  0  0  0  # atno 6907 bound_to 6896
  152.0149  134.9853  160.0578 H   0  0  0  0  0  0  0  0  0  0  0  0  # atno 6908 bound_to 6896
  152.1453  133.4454  159.4824 H   0  0  0  0  0  0  0  0  0  0  0  0  # atno 6909 bound_to 6896
  146.0950  140.5855  142.8847 H   0  0  0  0  0  0  0  0  0  0  0  0  # atno 7974 bound_to 7965
  154.5145  140.2201  155.9092 H   0  0  0  0  0  0  0  0  0  0  0  0  # atno 8008 bound_to 7997
  156.1592  140.3146  155.8743 H   0  0  0  0  0  0  0  0  0  0  0  0  # atno 8009 bound_to 7997
  155.3786  140.0471  157.3035 H   0  0  0  0  0  0  0  0  0  0  0  0  # atno 8010 bound_to 7997
  139.6053  144.7068  151.2967 H   0  0  0  0  0  0  0  0  0  0  0  0  # atno 10167 bound_to 10162
  157.3048  131.0877  151.1362 H   0  0  0  0  0  0  0  0  0  0  0  0  # atno 10718 bound_to 10713
  153.6655  135.3339  155.3139 H   0  0  0  0  0  0  0  0  0  0  0  0  # atno 10763 bound_to 10752
  154.8504  135.4374  154.1760 H   0  0  0  0  0  0  0  0  0  0  0  0  # atno 10764 bound_to 10752
  153.2738  135.7003  153.7530 H   0  0  0  0  0  0  0  0  0  0  0  0  # atno 10765 bound_to 10752
  140.0358  134.5946  155.9446 H   0  0  0  0  0  0  0  0  0  0  0  0  # atno 11005 bound_to 11000
  144.7388  140.4885  143.6884 LP  0  0  0  0  0  0  0  0  0  0  0  0  # atno 17320 bound_to 7965
  145.5965  139.1500  143.3153 LP  0  0  0  0  0  0  0  0  0  0  0  0  # atno 17321 bound_to 7965
  140.7280  143.6946  150.7894 LP  0  0  0  0  0  0  0  0  0  0  0  0  # atno 17342 bound_to 10162
  140.0531  143.5230  152.2664 LP  0  0  0  0  0  0  0  0  0  0  0  0  # atno 17343 bound_to 10162
  157.2707  130.6703  149.6018 LP  0  0  0  0  0  0  0  0  0  0  0  0  # atno 17370 bound_to 10713
  155.9674  130.4480  150.5602 LP  0  0  0  0  0  0  0  0  0  0  0  0  # atno 17371 bound_to 10713
  141.1856  133.6555  156.5205 LP  0  0  0  0  0  0  0  0  0  0  0  0  # atno 17394 bound_to 11000
  140.4150  134.7238  157.4858 LP  0  0  0  0  0  0  0  0  0  0  0  0  # atno 17395 bound_to 11000

$$$$
