#       Name:                AV-unprocessed.smi:1231
#       Creating user name   scv26
#       Creation time:       Fri Mar 27 04:23:49 2020


#       File generated by GOLD software.
#

@<TRIPOS>MOLECULE
AV-unprocessed.smi:1231
    48    49     1
SMALL
NO_CHARGES


@<TRIPOS>ATOM
      1 ****        -3.1465  -0.4881   4.0320 C.3            1 S1                 0.0000
      2 ****        -2.4746   0.0598   2.7681 C.3            1 S1                 0.0000
      3 ****        -3.2551  -0.3110   1.4901 C.3            1 S1                 0.0000
      4 ****        -2.6395   0.2988   0.2861 N.4            1 S1                 1.0000
      5 ****        -1.4164  -0.4083  -0.1774 C.3            1 S1                 0.0000
      6 ****        -1.1122  -0.1453  -1.6651 C.3            1 S1                 0.0000
      7 ****         0.0784  -0.8656  -2.1018 N.am           1 S1                 0.0000
      8 ****         1.3374  -0.4988  -1.8203 C.2            1 S1                 0.0000
      9 ****         1.6152   0.4944  -1.1472 O.2            1 S1                 0.0000
     10 ****         2.2283  -1.3478  -2.3623 N.am           1 S1                 0.0000
     11 ****         3.6453  -1.3060  -2.2730 C.ar           1 S1                 0.0000
     12 ****         4.3204  -2.3255  -2.9816 C.ar           1 S1                 0.0000
     13 ****         5.7279  -2.3715  -2.9560 C.ar           1 S1                 0.0000
     14 ****         6.4246  -1.3961  -2.2207 C.ar           1 S1                 0.0000
     15 ****         5.6761  -0.4171  -1.5419 C.ar           1 S1                 0.0000
     16 ****         4.3272  -0.3712  -1.5648 N.ar           1 S1                 0.0000
     17 ****        -2.4779   1.7634   0.4757 C.3            1 S1                 0.0000
     18 ****        -1.7353   2.0910   1.7892 C.3            1 S1                 0.0000
     19 ****        -1.6783   3.5992   2.0538 C.3            1 S1                 0.0000
     20 ****        -2.4176   1.4779   2.8780 O.3            1 S1                 0.0000
     21 ****        -3.2118  -1.5761   4.0020 H              1 S1                 0.0000
     22 ****        -4.1573  -0.0949   4.1448 H              1 S1                 0.0000
     23 ****        -2.5817  -0.2144   4.9236 H              1 S1                 0.0000
     24 ****        -1.4601  -0.3391   2.7186 H              1 S1                 0.0000
     25 ****        -3.3268  -1.3934   1.3765 H              1 S1                 0.0000
     26 ****        -4.2797   0.0549   1.5710 H              1 S1                 0.0000
     27 ****        -0.5649  -0.1411   0.4480 H              1 S1                 0.0000
     28 ****        -1.5576  -1.4826  -0.0518 H              1 S1                 0.0000
     29 ****        -1.9515  -0.4714  -2.2798 H              1 S1                 0.0000
     30 ****        -0.9756   0.9173  -1.8670 H              1 S1                 0.0000
     31 ****        -0.0655  -1.6941  -2.6609 H              1 S1                 0.0000
     32 ****         1.8509  -2.1131  -2.9013 H              1 S1                 0.0000
     33 ****         3.7697  -3.0669  -3.5425 H              1 S1                 0.0000
     34 ****         6.2625  -3.1424  -3.4911 H              1 S1                 0.0000
     35 ****         7.5037  -1.3979  -2.1776 H              1 S1                 0.0000
     36 ****         6.1722   0.3491  -0.9645 H              1 S1                 0.0000
     37 ****        -1.9718   2.2180  -0.3749 H              1 S1                 0.0000
     38 ****        -3.4738   2.2075   0.5054 H              1 S1                 0.0000
     39 ****        -0.7117   1.7159   1.7508 H              1 S1                 0.0000
     40 ****        -1.1560   4.1193   1.2503 H              1 S1                 0.0000
     41 ****        -1.1509   3.8111   2.9842 H              1 S1                 0.0000
     42 ****        -2.6789   4.0253   2.1337 H              1 S1                 0.0000
     43 ****        -3.3114   0.1764  -0.4581 H              1 S1                 0.0000
     44 ****         0.8845   1.0711  -0.7818 LP             1 S1                 0.0000
     45 ****         2.5715   0.7242  -0.9661 LP             1 S1                 0.0000
     46 ****         3.8366   0.3432  -1.0658 LP             1 S1                 0.0000
     47 ****        -1.9422   1.7134   3.7257 LP             1 S1                 0.0000
     48 ****        -3.3518   1.8333   2.9099 LP             1 S1                 0.0000
@<TRIPOS>BOND
    1    1    2 1     
    2    1   21 1     
    3    1   22 1     
    4    1   23 1     
    5    2   20 1     
    6    2    3 1     
    7    2   24 1     
    8    3    4 1     
    9    3   25 1     
   10    3   26 1     
   11    4    5 1     
   12    4   17 1     
   13    4   43 1     
   14    5    6 1     
   15    5   27 1     
   16    5   28 1     
   17    6    7 1     
   18    6   29 1     
   19    6   30 1     
   20    7    8 am    
   21    7   31 1     
   22    8    9 2     
   23    8   10 am    
   24   10   11 1     
   25   10   32 1     
   26   11   16 ar    
   27   11   12 ar    
   28   12   13 ar    
   29   12   33 1     
   30   13   14 ar    
   31   13   34 1     
   32   14   15 ar    
   33   14   35 1     
   34   15   16 ar    
   35   15   36 1     
   36   17   18 1     
   37   17   37 1     
   38   17   38 1     
   39   18   19 1     
   40   18   20 1     
   41   18   39 1     
   42   19   40 1     
   43   19   41 1     
   44   19   42 1     
   45    9   44 1     
   46    9   45 1     
   47   16   46 1     
   48   20   47 1     
   49   20   48 1     
@<TRIPOS>SUBSTRUCTURE
      1 S1             1
@<TRIPOS>SET
LONE_PAIRS      STATIC     ATOMS    <user>   **** ""
5 44 45 46 47 48
DONOR_HYDROGENS      STATIC     ATOMS    <user>   **** ""
3 43 31 32
ATOM$BLUE        STATIC     ATOMS    COLORGROUP SYSTEM
5 44 45 46 47 48
ATOM$RED        STATIC     ATOMS    COLORGROUP SYSTEM
3 43 31 32
