AV-unprocessed.smi:287|AV-procd|sdf|2208|dock3
  -GOLD-   2262022 43D 1   1.00000     0.00000
 Structure written by MMmdl.
 55 58  0  0  0  0  0  0  0  0  1 V2000
  151.9001  144.8912  159.6264 C   0  0  0  0  0  0  0  0  0  0  0  0
  151.8558  143.5797  158.9198 C   0  0  0  0  0  0  0  0  0  0  0  0
  152.2971  142.3255  159.2264 C   0  0  0  0  0  0  0  0  0  0  0  0
  151.9623  141.4755  158.1301 C   0  0  0  0  0  0  0  0  0  0  0  0
  152.2482  139.9827  158.0229 C   0  0  2  0  0  0  0  0  0  0  0  0
  151.4238  139.1935  159.0566 C   0  0  0  0  0  0  0  0  0  0  0  0
  153.5937  139.6653  158.3234 O   0  0  0  0  0  0  0  0  0  0  0  0
  151.9745  139.4365  156.6037 C   0  0  0  0  0  0  0  0  0  0  0  0
  151.7291  138.0005  156.5816 N   0  0  0  0  0  0  0  0  0  0  0  0
  150.4973  137.5087  156.3324 C   0  0  0  0  0  0  0  0  0  0  0  0
  149.4715  138.2126  156.8675 N   0  0  0  0  0  0  0  0  0  0  0  0
  148.2114  137.8141  156.6760 C   0  0  0  0  0  0  0  0  0  0  0  0
  147.7660  136.7590  155.9927 N   0  0  0  0  0  0  0  0  0  0  0  0
  148.7918  136.0395  155.4522 C   0  0  0  0  0  0  0  0  0  0  0  0
  150.1794  136.3419  155.5745 C   0  0  0  0  0  0  0  0  0  0  0  0
  150.9184  135.3792  154.8944 N   0  0  0  0  0  0  0  0  0  0  0  0
  150.0224  134.5677  154.4031 C   0  0  0  0  0  0  0  0  0  0  0  0
  148.7161  134.8932  154.6863 N   0  0  0  0  0  0  0  0  0  0  0  0
  147.4849  134.1615  154.2580 C   0  0  1  0  0  0  0  0  0  0  0  0
  146.7309  135.0127  153.4503 O   0  0  0  0  0  0  0  0  0  0  0  0
  146.2200  134.2889  152.3367 C   0  0  1  0  0  0  0  0  0  0  0  0
  145.9269  135.2580  151.1807 C   0  0  0  0  0  0  0  0  0  0  0  0
  145.4961  134.5417  150.0432 O   0  0  0  0  0  0  0  0  0  0  0  0
  147.3514  133.3035  152.0380 C   0  0  2  0  0  0  0  0  0  0  0  0
  146.9339  132.1933  151.2638 O   0  0  0  0  0  0  0  0  0  0  0  0
  147.8464  132.9178  153.4298 C   0  0  2  0  0  0  0  0  0  0  0  0
  147.1856  131.7711  153.9337 O   0  0  0  0  0  0  0  0  0  0  0  0
  151.3196  142.2973  157.2353 C   0  0  0  0  0  0  0  0  0  0  0  0
  150.6876  142.0808  155.9000 C   0  0  0  0  0  0  0  0  0  0  0  0
  151.2555  143.5744  157.7038 O   0  0  0  0  0  0  0  0  0  0  0  0
  146.9566  133.9350  155.1856 H   0  0  0  0  0  0  0  0  0  0  0  0
  145.3244  133.7417  152.6387 H   0  0  0  0  0  0  0  0  0  0  0  0
  148.1508  133.8151  151.5019 H   0  0  0  0  0  0  0  0  0  0  0  0
  148.9219  132.7336  153.4373 H   0  0  0  0  0  0  0  0  0  0  0  0
  152.3537  144.7873  160.6122 H   0  0  0  0  0  0  0  0  0  0  0  0
  150.8957  145.2945  159.7571 H   0  0  0  0  0  0  0  0  0  0  0  0
  152.4853  145.6155  159.0596 H   0  0  0  0  0  0  0  0  0  0  0  0
  152.8059  142.0493  160.1380 H   0  0  0  0  0  0  0  0  0  0  0  0
  150.3526  139.3126  158.8918 H   0  0  0  0  0  0  0  0  0  0  0  0
  151.6389  139.5253  160.0733 H   0  0  0  0  0  0  0  0  0  0  0  0
  151.6387  138.1252  159.0065 H   0  0  0  0  0  0  0  0  0  0  0  0
  153.6854  138.7250  158.3313 H   0  0  0  0  0  0  0  0  0  0  0  0
  151.1488  139.9759  156.1376 H   0  0  0  0  0  0  0  0  0  0  0  0
  152.8580  139.6124  155.9886 H   0  0  0  0  0  0  0  0  0  0  0  0
  152.5204  137.4192  156.8182 H   0  0  0  0  0  0  0  0  0  0  0  0
  147.4516  138.4294  157.1344 H   0  0  0  0  0  0  0  0  0  0  0  0
  150.2924  133.7048  153.8116 H   0  0  0  0  0  0  0  0  0  0  0  0
  145.1830  136.0024  151.4670 H   0  0  0  0  0  0  0  0  0  0  0  0
  146.8329  135.7968  150.9021 H   0  0  0  0  0  0  0  0  0  0  0  0
  145.9546  134.8745  149.2867 H   0  0  0  0  0  0  0  0  0  0  0  0
  147.6969  131.7968  150.8718 H   0  0  0  0  0  0  0  0  0  0  0  0
  147.2936  131.0699  153.3089 H   0  0  0  0  0  0  0  0  0  0  0  0
  151.4408  141.8307  155.1530 H   0  0  0  0  0  0  0  0  0  0  0  0
  150.1633  142.9750  155.5614 H   0  0  0  0  0  0  0  0  0  0  0  0
  149.9660  141.2647  155.9416 H   0  0  0  0  0  0  0  0  0  0  0  0
  1  2  1  0  0  0  0
  1 35  1  0  0  0  0
  1 36  1  0  0  0  0
  1 37  1  0  0  0  0
  2 30  1  0  0  0  0
  2  3  2  0  0  0  0
  3  4  1  0  0  0  0
  3 38  1  0  0  0  0
  4  5  1  0  0  0  0
  4 28  2  0  0  0  0
  5  6  1  0  0  0  0
  5  7  1  0  0  0  0
  5  8  1  0  0  0  0
  6 39  1  0  0  0  0
  6 40  1  0  0  0  0
  6 41  1  0  0  0  0
  7 42  1  0  0  0  0
  8  9  1  0  0  0  0
  8 43  1  0  0  0  0
  8 44  1  0  0  0  0
  9 10  1  0  0  0  0
  9 45  1  0  0  0  0
 10 15  1  0  0  0  0
 10 11  2  0  0  0  0
 11 12  1  0  0  0  0
 12 13  2  0  0  0  0
 12 46  1  0  0  0  0
 13 14  1  0  0  0  0
 14 18  1  0  0  0  0
 14 15  2  0  0  0  0
 15 16  1  0  0  0  0
 16 17  2  0  0  0  0
 17 18  1  0  0  0  0
 17 47  1  0  0  0  0
 18 19  1  0  0  0  0
 19 31  1  0  0  0  0
 19 26  1  0  0  0  0
 19 20  1  0  0  0  0
 20 21  1  0  0  0  0
 21 32  1  0  0  0  0
 21 22  1  0  0  0  0
 21 24  1  0  0  0  0
 22 23  1  0  0  0  0
 22 48  1  0  0  0  0
 22 49  1  0  0  0  0
 23 50  1  0  0  0  0
 24 33  1  0  0  0  0
 24 25  1  0  0  0  0
 24 26  1  0  0  0  0
 25 51  1  0  0  0  0
 26 34  1  0  0  0  0
 26 27  1  0  0  0  0
 27 52  1  0  0  0  0
 28 29  1  0  0  0  0
 28 30  1  0  0  0  0
 29 53  1  0  0  0  0
 29 54  1  0  0  0  0
 29 55  1  0  0  0  0
M  END
> <s_m_source_file>
AV-unprocessed.smi

> <i_m_source_file_index>
287

> <i_lp_mmshare_version>
43012

> <i_f3d_flags>
0

> <s_epik_input>
W0NIM11jMVtjSF1jKGMobzEpW0NIM10pW0NAQF0oW0NIM10pKFtPSF0pW0NIMl1bTkhdYyhuW2NIXW4yKWMoYzIzKW5bY0hdbjNbQ0BASF00T1tDQEhdKFtDSDJdW09IXSlbQ0BASF0oW09IXSlbQ0BIXTRbT0hd

> <s_epik_cmdline>
J2VwaWtfcHl0aG9uJywgJy1waCcsICc3LjAnLCAnLXRuJywgJzgnLCAnLW1hJywgJzIwMCcsICctbWV0YWxfYmluZGluZycsICctaW1hZScsICc8aW5maWxlLm1hZT4nLCAnLW9tYWUnLCAnPG91dGZpbGUubWFlPic=

> <r_lp_tautomer_probability>
1

> <r_epik_Ionization_Penalty>
0.000992612

> <r_epik_Ionization_Penalty_Charging>
0

> <r_epik_Ionization_Penalty_Neutral>
0.000992612

> <r_epik_State_Penalty>
-0

> <r_epik_Charging_Adjusted_Penalty>
0

> <i_epik_Tot_Q>
0

> <i_epik_Tot_abs_Q>
0

> <r_epik_Metal_State_Penalty>
-0

> <b_epik_Metal_Only>
0

> <s_epik_Chemistry_Notes>
This compound contains an acetal/aminal-like group ( X-CH(R)-Y where X, Y are N, S, or O) that may be acid/base labile, releasing an aldehyde.

> <s_lp_Force_Field>
OPLS_2005

> <r_lp_Energy>
44.724

> <b_lp_Chiralities_Consistent>
1

> <s_lp_Variant>
AV-unprocessed.smi:287-32

> <Gold.Version>
5.8.1

> <Gold.Id.Protein>
6NUR|6NUR_protein|mol2

> <Gold.PLP.Fitness>
51.6752

> <Gold.PLP.PLP>
-41.4241

> <Gold.PLP.part.hbond>
-4.0000

> <Gold.PLP.part.metal>
0.0000

> <Gold.PLP.part.buried>
-5.4316

> <Gold.PLP.part.nonpolar>
-31.5109

> <Gold.PLP.part.repulsive>
0.5074

> <Gold.PLP.ligand.clash>
0.0000

> <Gold.PLP.ligand.torsion>
0.9722

> <Gold.PLP.Chemscore.Hbond>
4.0000

> <Gold.PLP.Chemscore.CHOScore>
0.0000

> <Gold.PLP.Chemscore.Metal>
0.0000

> <Gold.Chemscore.Hbonds>
donor molecule, donor type, donor heavy atom, donor atom, acceptor molecule, acceptor atom, score
      L1  H    23    50       P1  7921  0.94
      L1  H    25    51       P1 10747  1.00
      P1  H  7997  8009       L1     7  0.90
      P1  H 10752 10763       L1    16  0.99

> <Gold.PLP.Chemscore.Internal.Correction>
0.1955

> <Gold.Rescore>
     Score         DG    S(hbond)    S(metal)    S(lipo)     H(rot)  DE(clash)    DE(int)     intcor
     11.45     -14.00       3.15        0.00      98.04       5.27       0.32       2.22       ----

> <Gold.Chemscore.Fitness>
11.4536

> <Gold.Chemscore.DG>
-13.9954

> <Gold.Chemscore.ZeroCoef>
-5.4800

> <Gold.Chemscore.Hbond>
3.1522

> <Gold.Chemscore.Metal>
0.0000

> <Gold.Chemscore.Lipo>
98.0435

> <Gold.Chemscore.Internal_Hbond>
0.0000

> <Gold.Chemscore.DEClash>
0.3218

> <Gold.Chemscore.DEInternal>
2.2200

> <Gold.Chemscore.Rot>
5.2672

> <Gold.Chemscore.Internal.Correction>
   9.000000E+99

> <Gold.Chemscore.Hbonds>
donor molecule, donor type, donor heavy atom, donor atom, acceptor molecule, acceptor atom, score
      L1  H    23    50       P1  7921  0.76
      L1  H    25    51       P1 10747  1.00
      P1  H  7997  8009       L1     7  0.17
      P1  H 10752 10763       L1    16  0.88

> <Gold.Chemscore.Hbond.Weighted>
-10.5282

> <Gold.Chemscore.Metal.Weighted>
-0.0000

> <Gold.Chemscore.Lipo.Weighted>
-11.4711

> <Gold.Chemscore.Internal_Hbond.Weighted>
0.0000

> <Gold.Chemscore.DEClash.Weighted>
0.3218

> <Gold.Chemscore.DEInternal.Weighted>
2.2200

> <Gold.Chemscore.Rot.Weighted>
13.4839

> <Gold.Chemscore.Internal.Correction.Weighted>
   9.000000E+99

> <Gold.Protein.RotatedTorsions>
[ 6907 6896 6895 6894 ] final  100.53 input  -60.11 | X-H torsion
[ 7974 7965 7964 7962 ] final   46.71 input  175.53 | X-H torsion
[ 8008 7997 7996 7995 ] final  132.65 input   59.86 | X-H torsion
[ 10167 10162 10161 10158 ] final -149.17 input  -65.29 | X-H torsion
[ 10718 10713 10712 10709 ] final  -11.43 input   66.30 | X-H torsion
[ 10763 10752 10751 10750 ] final   60.96 input  -60.55 | X-H torsion
[ 11005 11000 10999 10996 ] final  140.91 input  -57.11 | X-H torsion

> <Gold.Protein.ActiveResidues>
 VAL166  LYS551  ARG553  GLY616  TRP617  ASP618  TYR619  PRO620  LYS621  CYS622 
 ASP623  PHE694  ASN695  SER759  ASP760  ASP761  ALA762  ILE779  LEU786  VAL792 
 PHE793  MET794  SER795  GLU796  ALA797  LYS798  CYS799  TRP800  GLU811  SER814 

> <Gold.Protein.RotatedAtoms>
  152.5370  134.0262  159.8004 H   0  0  0  0  0  0  0  0  0  0  0  0  # atno 6907 bound_to 6896
  151.0441  133.5673  159.2655 H   0  0  0  0  0  0  0  0  0  0  0  0  # atno 6908 bound_to 6896
  151.2632  135.0668  159.9160 H   0  0  0  0  0  0  0  0  0  0  0  0  # atno 6909 bound_to 6896
  146.0365  139.4827  142.9805 H   0  0  0  0  0  0  0  0  0  0  0  0  # atno 7974 bound_to 7965
  156.2985  140.2541  156.3125 H   0  0  0  0  0  0  0  0  0  0  0  0  # atno 8008 bound_to 7997
  154.9313  140.0398  157.2068 H   0  0  0  0  0  0  0  0  0  0  0  0  # atno 8009 bound_to 7997
  154.8216  140.2861  155.5787 H   0  0  0  0  0  0  0  0  0  0  0  0  # atno 8010 bound_to 7997
  139.7466  143.8581  152.2576 H   0  0  0  0  0  0  0  0  0  0  0  0  # atno 10167 bound_to 10162
  156.6591  130.4977  149.6036 H   0  0  0  0  0  0  0  0  0  0  0  0  # atno 10718 bound_to 10713
  152.9936  135.5518  154.5957 H   0  0  0  0  0  0  0  0  0  0  0  0  # atno 10763 bound_to 10752
  154.5309  135.2813  155.1183 H   0  0  0  0  0  0  0  0  0  0  0  0  # atno 10764 bound_to 10752
  154.2498  135.6401  153.5289 H   0  0  0  0  0  0  0  0  0  0  0  0  # atno 10765 bound_to 10752
  140.0362  134.9327  157.0757 H   0  0  0  0  0  0  0  0  0  0  0  0  # atno 11005 bound_to 11000
  145.6955  141.0151  143.1532 LP  0  0  0  0  0  0  0  0  0  0  0  0  # atno 17320 bound_to 7965
  144.7054  139.8583  143.7431 LP  0  0  0  0  0  0  0  0  0  0  0  0  # atno 17321 bound_to 7965
  139.8547  144.7147  150.9171 LP  0  0  0  0  0  0  0  0  0  0  0  0  # atno 17342 bound_to 10162
  140.7793  143.3868  151.1379 LP  0  0  0  0  0  0  0  0  0  0  0  0  # atno 17343 bound_to 10162
  156.2025  130.6628  151.1182 LP  0  0  0  0  0  0  0  0  0  0  0  0  # atno 17370 bound_to 10713
  157.7115  131.0731  150.6482 LP  0  0  0  0  0  0  0  0  0  0  0  0  # atno 17371 bound_to 10713
  140.4144  134.1947  155.7163 LP  0  0  0  0  0  0  0  0  0  0  0  0  # atno 17394 bound_to 11000
  141.1858  133.8315  157.1090 LP  0  0  0  0  0  0  0  0  0  0  0  0  # atno 17395 bound_to 11000

$$$$
