AV-unprocessed.smi:46|AV-procd|sdf|421|dock7
  -GOLD-   2262016303D 1   1.00000     0.00000
 Structure written by MMmdl.
 35 36  0  0  0  0  0  0  0  0  2 V2000
  147.6062  132.9230  156.4439 C   0  0  0  0  0  0  0  0  0  0  0  0
  146.5692  132.1261  155.6371 C   0  0  0  0  0  0  0  0  0  0  0  0
  146.8031  130.6117  155.7343 C   0  0  0  0  0  0  0  0  0  0  0  0
  146.5472  132.5542  154.2465 N   0  0  0  0  0  0  0  0  0  0  0  0
  145.5162  133.1332  153.5361 C   0  0  0  0  0  0  0  0  0  0  0  0
  145.9660  133.3725  152.2662 C   0  0  0  0  0  0  0  0  0  0  0  0
  145.2487  133.9731  151.0750 C   0  0  2  0  0  0  0  0  0  0  0  0
  143.8739  134.5525  151.4285 C   0  0  0  0  0  0  0  0  0  0  0  0
  142.9149  133.4381  151.3186 N   0  3  0  0  0  0  0  0  0  0  0  0
  143.5230  132.3888  150.4760 C   0  0  0  0  0  0  0  0  0  0  0  0
  144.8798  132.9324  150.0000 C   0  0  2  0  0  0  0  0  0  0  0  0
  145.9127  131.8248  149.7103 C   0  0  0  0  0  0  0  0  0  0  0  0
  147.1450  132.3994  149.3310 O   0  0  0  0  0  0  0  0  0  0  0  0
  147.3128  132.9112  152.3089 C   0  0  0  0  0  0  0  0  0  0  0  0
  147.6569  132.4271  153.4897 N   0  0  0  0  0  0  0  0  0  0  0  0
  145.8699  134.7535  150.6332 H   0  0  0  0  0  0  0  0  0  0  0  0
  144.6923  133.4764  149.0721 H   0  0  0  0  0  0  0  0  0  0  0  0
  147.5738  132.6482  157.4984 H   0  0  0  0  0  0  0  0  0  0  0  0
  147.4150  133.9945  156.3775 H   0  0  0  0  0  0  0  0  0  0  0  0
  148.6203  132.7410  156.0871 H   0  0  0  0  0  0  0  0  0  0  0  0
  145.5884  132.3380  156.0670 H   0  0  0  0  0  0  0  0  0  0  0  0
  146.7643  130.2761  156.7710 H   0  0  0  0  0  0  0  0  0  0  0  0
  147.7761  130.3307  155.3302 H   0  0  0  0  0  0  0  0  0  0  0  0
  146.0405  130.0616  155.1820 H   0  0  0  0  0  0  0  0  0  0  0  0
  144.5542  133.3198  153.9898 H   0  0  0  0  0  0  0  0  0  0  0  0
  143.8416  135.0357  152.4057 H   0  0  0  0  0  0  0  0  0  0  0  0
  143.5924  135.2978  150.6834 H   0  0  0  0  0  0  0  0  0  0  0  0
  142.7420  133.0547  152.2368 H   0  0  0  0  0  0  0  0  0  0  0  0
  143.6525  131.4948  151.0874 H   0  0  0  0  0  0  0  0  0  0  0  0
  142.8728  132.1302  149.6398 H   0  0  0  0  0  0  0  0  0  0  0  0
  146.0632  131.1722  150.5709 H   0  0  0  0  0  0  0  0  0  0  0  0
  145.5636  131.1930  148.8930 H   0  0  0  0  0  0  0  0  0  0  0  0
  147.8282  132.0369  149.8748 H   0  0  0  0  0  0  0  0  0  0  0  0
  148.0458  132.9099  151.5157 H   0  0  0  0  0  0  0  0  0  0  0  0
  142.0471  133.7636  150.9172 H   0  0  0  0  0  0  0  0  0  0  0  0
  1  2  1  0  0  0  0
  1 18  1  0  0  0  0
  1 19  1  0  0  0  0
  1 20  1  0  0  0  0
  2  3  1  0  0  0  0
  2  4  1  0  0  0  0
  2 21  1  0  0  0  0
  3 22  1  0  0  0  0
  3 23  1  0  0  0  0
  3 24  1  0  0  0  0
  4 15  1  0  0  0  0
  4  5  1  0  0  0  0
  5  6  2  0  0  0  0
  5 25  1  0  0  0  0
  6  7  1  0  0  0  0
  6 14  1  0  0  0  0
  7 16  1  0  0  0  0
  7 11  1  0  0  0  0
  7  8  1  0  0  0  0
  8  9  1  0  0  0  0
  8 26  1  0  0  0  0
  8 27  1  0  0  0  0
  9 10  1  0  0  0  0
  9 28  1  0  0  0  0
  9 35  1  0  0  0  0
 10 11  1  0  0  0  0
 10 29  1  0  0  0  0
 10 30  1  0  0  0  0
 11 17  1  0  0  0  0
 11 12  1  0  0  0  0
 12 13  1  0  0  0  0
 12 31  1  0  0  0  0
 12 32  1  0  0  0  0
 13 33  1  0  0  0  0
 14 15  2  0  0  0  0
 14 34  1  0  0  0  0
M  CHG  1   9   1
M  END
> <s_m_source_file>
AV-unprocessed.smi

> <i_m_source_file_index>
46

> <i_lp_mmshare_version>
43012

> <i_f3d_flags>
0

> <s_epik_input>
W0NIM11bQ0hdKFtDSDNdKW4xW2NIXWMoW2NIXW4xKVtDQEBIXTJbQ0gyXVtOSF1bQ0gyXVtDQEhdMltDSDJdW09IXQ==

> <s_epik_cmdline>
J2VwaWtfcHl0aG9uJywgJy1waCcsICc3LjAnLCAnLXRuJywgJzgnLCAnLW1hJywgJzIwMCcsICctbWV0YWxfYmluZGluZycsICctaW1hZScsICc8aW5maWxlLm1hZT4nLCAnLW9tYWUnLCAnPG91dGZpbGUubWFlPic=

> <r_lp_tautomer_probability>
1

> <r_epik_Ionization_Penalty>
0.000236226

> <r_epik_Ionization_Penalty_Charging>
0.00021985

> <r_epik_Ionization_Penalty_Neutral>
1.63752e-05

> <r_epik_State_Penalty>
-0

> <r_epik_Charging_Adjusted_Penalty>
0.00021985

> <i_epik_Tot_Q>
1

> <i_epik_Tot_abs_Q>
1

> <r_epik_Metal_State_Penalty>
-0

> <b_epik_Metal_Only>
0

> <s_lp_Force_Field>
OPLS_2005

> <r_lp_Energy>
33.6612

> <b_lp_Chiralities_Consistent>
1

> <s_lp_Variant>
AV-unprocessed.smi:46-3

> <Gold.Version>
5.8.1

> <Gold.Id.Protein>
6NUR|6NUR_protein|mol2

> <Gold.PLP.Fitness>
37.3692

> <Gold.PLP.PLP>
-22.9603

> <Gold.PLP.part.hbond>
-3.8433

> <Gold.PLP.part.metal>
0.0000

> <Gold.PLP.part.buried>
-2.0915

> <Gold.PLP.part.nonpolar>
-17.6912

> <Gold.PLP.part.repulsive>
0.0971

> <Gold.PLP.ligand.clash>
0.0000

> <Gold.PLP.ligand.torsion>
0.2516

> <Gold.PLP.Chemscore.Hbond>
3.0000

> <Gold.PLP.Chemscore.CHOScore>
1.9517

> <Gold.PLP.Chemscore.Metal>
0.0000

> <Gold.Chemscore.Hbonds>
donor molecule, donor type, donor heavy atom, donor atom, acceptor molecule, acceptor atom, score
      L1  H     9    35       P1 10186  2.00
      L1  H    13    33       P1 10747  1.00
      L1  C     5    25       P1 10957  0.91
      L1  C    14    34       P1 10747  0.88

> <Gold.PLP.Chemscore.Internal.Correction>
0.0571

> <Gold.Rescore>
     Score         DG    S(hbond)    S(metal)    S(lipo)     H(rot)  DE(clash)    DE(int)     intcor
     13.22     -13.73       1.73        0.00      62.73       1.90       0.26       0.26       ----

> <Gold.Chemscore.Fitness>
13.2153

> <Gold.Chemscore.DG>
-13.7292

> <Gold.Chemscore.ZeroCoef>
-5.4800

> <Gold.Chemscore.Hbond>
1.7268

> <Gold.Chemscore.Metal>
0.0000

> <Gold.Chemscore.Lipo>
62.7313

> <Gold.Chemscore.Internal_Hbond>
0.0000

> <Gold.Chemscore.DEClash>
0.2566

> <Gold.Chemscore.DEInternal>
0.2573

> <Gold.Chemscore.Rot>
1.8976

> <Gold.Chemscore.Internal.Correction>
   9.000000E+99

> <Gold.Chemscore.Hbonds>
donor molecule, donor type, donor heavy atom, donor atom, acceptor molecule, acceptor atom, score
      L1  H     9    35       P1 10186  0.49
      L1  H    13    33       P1 10747  0.96

> <Gold.Chemscore.Hbond.Weighted>
-5.7675

> <Gold.Chemscore.Metal.Weighted>
-0.0000

> <Gold.Chemscore.Lipo.Weighted>
-7.3396

> <Gold.Chemscore.Internal_Hbond.Weighted>
0.0000

> <Gold.Chemscore.DEClash.Weighted>
0.2566

> <Gold.Chemscore.DEInternal.Weighted>
0.2573

> <Gold.Chemscore.Rot.Weighted>
4.8579

> <Gold.Chemscore.Internal.Correction.Weighted>
   9.000000E+99

> <Gold.Protein.RotatedTorsions>
[ 6907 6896 6895 6894 ] final -164.38 input  -60.11 | X-H torsion
[ 7974 7965 7964 7962 ] final   49.26 input  175.53 | X-H torsion
[ 8008 7997 7996 7995 ] final   84.46 input   59.86 | X-H torsion
[ 10167 10162 10161 10158 ] final -142.50 input  -65.29 | X-H torsion
[ 10718 10713 10712 10709 ] final  -63.44 input   66.30 | X-H torsion
[ 10763 10752 10751 10750 ] final   79.51 input  -60.55 | X-H torsion
[ 11005 11000 10999 10996 ] final  -33.58 input  -57.11 | X-H torsion

> <Gold.Protein.ActiveResidues>
 VAL166  LYS551  ARG553  GLY616  TRP617  ASP618  TYR619  PRO620  LYS621  CYS622 
 ASP623  PHE694  ASN695  SER759  ASP760  ASP761  ALA762  ILE779  LEU786  VAL792 
 PHE793  MET794  SER795  GLU796  ALA797  LYS798  CYS799  TRP800  GLU811  SER814 

> <Gold.Protein.RotatedAtoms>
  151.4109  133.3727  159.2743 H   0  0  0  0  0  0  0  0  0  0  0  0  # atno 6907 bound_to 6896
  150.9363  134.8777  159.7594 H   0  0  0  0  0  0  0  0  0  0  0  0  # atno 6908 bound_to 6896
  152.5051  134.4057  159.9484 H   0  0  0  0  0  0  0  0  0  0  0  0  # atno 6909 bound_to 6896
  146.0125  139.4560  142.9947 H   0  0  0  0  0  0  0  0  0  0  0  0  # atno 7974 bound_to 7965
  155.9374  140.3410  155.6299 H   0  0  0  0  0  0  0  0  0  0  0  0  # atno 8008 bound_to 7997
  155.7082  140.0768  157.2400 H   0  0  0  0  0  0  0  0  0  0  0  0  # atno 8009 bound_to 7997
  154.4096  140.1627  156.2254 H   0  0  0  0  0  0  0  0  0  0  0  0  # atno 8010 bound_to 7997
  139.8082  143.7739  152.2662 H   0  0  0  0  0  0  0  0  0  0  0  0  # atno 10167 bound_to 10162
  156.0791  130.4221  150.1277 H   0  0  0  0  0  0  0  0  0  0  0  0  # atno 10718 bound_to 10713
  153.0959  135.4837  154.8777 H   0  0  0  0  0  0  0  0  0  0  0  0  # atno 10763 bound_to 10752
  154.7323  135.3063  154.8872 H   0  0  0  0  0  0  0  0  0  0  0  0  # atno 10764 bound_to 10752
  153.9504  135.6824  153.4797 H   0  0  0  0  0  0  0  0  0  0  0  0  # atno 10765 bound_to 10752
  140.9646  133.7144  156.1425 H   0  0  0  0  0  0  0  0  0  0  0  0  # atno 11005 bound_to 11000
  145.7319  141.0039  143.1347 LP  0  0  0  0  0  0  0  0  0  0  0  0  # atno 17320 bound_to 7965
  144.6958  139.8995  143.7457 LP  0  0  0  0  0  0  0  0  0  0  0  0  # atno 17321 bound_to 7965
  139.7880  144.7421  150.9995 LP  0  0  0  0  0  0  0  0  0  0  0  0  # atno 17342 bound_to 10162
  140.7818  143.4472  151.0465 LP  0  0  0  0  0  0  0  0  0  0  0  0  # atno 17343 bound_to 10162
  156.9312  130.9714  151.3532 LP  0  0  0  0  0  0  0  0  0  0  0  0  # atno 17370 bound_to 10713
  157.5900  130.8437  149.8645 LP  0  0  0  0  0  0  0  0  0  0  0  0  # atno 17371 bound_to 10713
  140.7417  134.4142  157.5554 LP  0  0  0  0  0  0  0  0  0  0  0  0  # atno 17394 bound_to 11000
  139.8890  134.8841  156.2444 LP  0  0  0  0  0  0  0  0  0  0  0  0  # atno 17395 bound_to 11000

$$$$
