#       Name:                AV-unprocessed.smi:2356
#       Creating user name   scv26
#       Creation time:       Fri Mar 27 13:02:57 2020


#       File generated by GOLD software.
#

@<TRIPOS>MOLECULE
AV-unprocessed.smi:2356
    58    61     1
SMALL
NO_CHARGES


@<TRIPOS>ATOM
      1 ****        -0.4992  -1.3206  -0.1682 C.3            1 S1                 0.0000
      2 ****        -1.2729  -0.0328  -0.3938 C.ar           1 S1                 0.0000
      3 ****        -2.6170  -0.1628  -0.4196 N.ar           1 S1                 0.0000
      4 ****        -3.3838   0.9360  -0.6098 C.ar           1 S1                 0.0000
      5 ****        -4.7809   0.7556  -0.6264 N.pl3          1 S1                 0.0000
      6 ****        -5.3814  -0.5694  -0.6305 C.3            1 S1                 0.0000
      7 ****        -6.8787  -0.3144  -0.7941 C.3            1 S1                 0.0000
      8 ****        -6.9224   0.9492  -1.6533 C.3            1 S1                 0.0000
      9 ****        -5.6748   1.7339  -1.2311 C.3            1 S1                 0.0000
     10 ****        -2.8130   2.2197  -0.7675 C.ar           1 S1                 0.0000
     11 ****        -1.4125   2.3567  -0.7410 C.ar           1 S1                 0.0000
     12 ****        -0.6095   1.2058  -0.5598 C.ar           1 S1                 0.0000
     13 ****         0.8126   1.2233  -0.5055 N.am           1 S1                 0.0000
     14 ****         1.6821   2.2021  -0.8237 C.2            1 S1                 0.0000
     15 ****         1.3720   3.3121  -1.2491 O.2            1 S1                 0.0000
     16 ****         2.9718   1.8645  -0.6386 N.am           1 S1                 0.0000
     17 ****         4.1647   2.6798  -0.8814 C.3            1 S1                 0.0000
     18 ****         5.3509   2.1157  -0.0879 C.3            1 S1                 0.0000
     19 ****         6.6363   2.8946  -0.4079 C.3            1 S1                 0.0000
     20 ****         6.8977   2.8716  -1.8096 O.3            1 S1                 0.0000
     21 ****         5.8676   3.4219  -2.6326 C.3            1 S1                 0.0000
     22 ****         5.7734   4.9355  -2.4905 C.3            1 S1                 0.0000
     23 ****         5.3376   5.7956  -3.6537 C.3            1 S1                 0.0000
     24 ****         6.7718   5.8333  -3.1820 C.3            1 S1                 0.0000
     25 ****         4.5299   2.7006  -2.3775 C.3            1 S1                 0.0000
     26 ****         0.0951  -1.2482   0.7429 H              1 S1                 0.0000
     27 ****         0.1738  -1.5124  -1.0040 H              1 S1                 0.0000
     28 ****        -1.1657  -2.1783  -0.0681 H              1 S1                 0.0000
     29 ****        -4.9940  -1.1421  -1.4743 H              1 S1                 0.0000
     30 ****        -5.1628  -1.1148   0.2881 H              1 S1                 0.0000
     31 ****        -7.4063  -1.1563  -1.2431 H              1 S1                 0.0000
     32 ****        -7.3279  -0.1140   0.1797 H              1 S1                 0.0000
     33 ****        -6.8413   0.6750  -2.7059 H              1 S1                 0.0000
     34 ****        -7.8433   1.5190  -1.5263 H              1 S1                 0.0000
     35 ****        -5.9267   2.4888  -0.4856 H              1 S1                 0.0000
     36 ****        -5.2220   2.2342  -2.0880 H              1 S1                 0.0000
     37 ****        -3.4259   3.0991  -0.8977 H              1 S1                 0.0000
     38 ****        -0.9938   3.3443  -0.8477 H              1 S1                 0.0000
     39 ****         1.2344   0.3549  -0.2105 H              1 S1                 0.0000
     40 ****         3.1426   0.9419  -0.2652 H              1 S1                 0.0000
     41 ****         3.9819   3.6971  -0.5317 H              1 S1                 0.0000
     42 ****         5.1466   2.1591   0.9826 H              1 S1                 0.0000
     43 ****         5.4979   1.0633  -0.3357 H              1 S1                 0.0000
     44 ****         6.5706   3.9206  -0.0454 H              1 S1                 0.0000
     45 ****         7.4825   2.4399   0.1074 H              1 S1                 0.0000
     46 ****         6.1619   3.2147  -3.6621 H              1 S1                 0.0000
     47 ****         5.4375   5.2764  -1.5138 H              1 S1                 0.0000
     48 ****         5.1312   5.3011  -4.6008 H              1 S1                 0.0000
     49 ****         4.7144   6.6601  -3.4341 H              1 S1                 0.0000
     50 ****         7.1033   6.7202  -2.6459 H              1 S1                 0.0000
     51 ****         7.5215   5.3640  -3.8161 H              1 S1                 0.0000
     52 ****         4.6123   1.6744  -2.7387 H              1 S1                 0.0000
     53 ****         3.7397   3.1670  -2.9668 H              1 S1                 0.0000
     54 ****        -3.0407  -1.0606  -0.2995 LP             1 S1                 0.0000
     55 ****         0.4088   3.5451  -1.3831 LP             1 S1                 0.0000
     56 ****         2.0828   3.9827  -1.4614 LP             1 S1                 0.0000
     57 ****         7.0354   1.9195  -2.0825 LP             1 S1                 0.0000
     58 ****         7.7361   3.3906  -1.9759 LP             1 S1                 0.0000
@<TRIPOS>BOND
    1    1    2 1     
    2    1   26 1     
    3    1   27 1     
    4    1   28 1     
    5    2   12 ar    
    6    2    3 ar    
    7    3    4 ar    
    8    4    5 1     
    9    4   10 ar    
   10    5    9 1     
   11    5    6 1     
   12    6    7 1     
   13    6   29 1     
   14    6   30 1     
   15    7    8 1     
   16    7   31 1     
   17    7   32 1     
   18    8    9 1     
   19    8   33 1     
   20    8   34 1     
   21    9   35 1     
   22    9   36 1     
   23   10   11 ar    
   24   10   37 1     
   25   11   12 ar    
   26   11   38 1     
   27   12   13 1     
   28   13   14 am    
   29   13   39 1     
   30   14   15 2     
   31   14   16 am    
   32   16   17 1     
   33   16   40 1     
   34   17   25 1     
   35   17   18 1     
   36   17   41 1     
   37   18   19 1     
   38   18   42 1     
   39   18   43 1     
   40   19   20 1     
   41   19   44 1     
   42   19   45 1     
   43   20   21 1     
   44   21   22 1     
   45   21   25 1     
   46   21   46 1     
   47   22   24 1     
   48   22   23 1     
   49   22   47 1     
   50   23   24 1     
   51   23   48 1     
   52   23   49 1     
   53   24   50 1     
   54   24   51 1     
   55   25   52 1     
   56   25   53 1     
   57    3   54 1     
   58   15   55 1     
   59   15   56 1     
   60   20   57 1     
   61   20   58 1     
@<TRIPOS>SUBSTRUCTURE
      1 S1             1
@<TRIPOS>SET
LONE_PAIRS      STATIC     ATOMS    <user>   **** ""
5 54 55 56 57 58
DONOR_HYDROGENS      STATIC     ATOMS    <user>   **** ""
2 39 40
ATOM$BLUE        STATIC     ATOMS    COLORGROUP SYSTEM
5 54 55 56 57 58
ATOM$RED        STATIC     ATOMS    COLORGROUP SYSTEM
2 39 40
