AV-unprocessed.smi:3270|AV-procd|sdf|12512|dock2
  -GOLD-   2272018423D 1   1.00000     0.00000
 Structure written by MMmdl.
 38 39  0  0  0  0  0  0  0  0  1 V2000
  146.3777  131.6390  152.1158 C   0  0  0  0  0  0  0  0  0  0  0  0
  147.1835  132.9523  152.1955 C   0  0  2  0  0  0  0  0  0  0  0  0
  147.9691  133.0887  153.5096 C   0  0  0  0  0  0  0  0  0  0  0  0
  147.9059  132.2138  154.3743 O   0  0  0  0  0  0  0  0  0  0  0  0
  148.7099  134.2001  153.6459 N   0  0  0  0  0  0  0  0  0  0  0  0
  149.5113  134.5360  154.8161 C   0  0  0  0  0  0  0  0  0  0  0  0
  149.1256  135.9138  155.3868 C   0  0  0  0  0  0  0  0  0  0  0  0
  149.7493  137.0546  154.7180 N   0  0  0  0  0  0  0  0  0  0  0  0
  149.0953  138.3029  155.0970 C   0  0  0  0  0  0  0  0  0  0  0  0
  149.7337  139.5211  154.4076 C   0  0  0  0  0  0  0  0  0  0  0  0
  151.1232  139.5673  154.7139 O   0  0  0  0  0  0  0  0  0  0  0  0
  151.8110  138.3857  154.3168 C   0  0  0  0  0  0  0  0  0  0  0  0
  151.1786  137.1621  155.0034 C   0  0  0  0  0  0  0  0  0  0  0  0
  146.3490  134.1292  151.9814 N   0  0  0  0  0  0  0  0  0  0  0  0
  145.6741  134.4921  150.8332 C   0  0  0  0  0  0  0  0  0  0  0  0
  145.0589  135.6863  151.0770 C   0  0  0  0  0  0  0  0  0  0  0  0
  145.4299  135.9896  152.4160 C   0  0  0  0  0  0  0  0  0  0  0  0
  146.2074  135.0630  152.9511 N   0  0  0  0  0  0  0  0  0  0  0  0
  147.0294  130.7714  152.2237 H   0  0  0  0  0  0  0  0  0  0  0  0
  145.8748  131.5505  151.1524 H   0  0  0  0  0  0  0  0  0  0  0  0
  145.6145  131.5760  152.8930 H   0  0  0  0  0  0  0  0  0  0  0  0
  147.9132  132.9270  151.3842 H   0  0  0  0  0  0  0  0  0  0  0  0
  148.7079  134.8677  152.8885 H   0  0  0  0  0  0  0  0  0  0  0  0
  149.3469  133.7509  155.5532 H   0  0  0  0  0  0  0  0  0  0  0  0
  150.5725  134.5103  154.5629 H   0  0  0  0  0  0  0  0  0  0  0  0
  148.0425  136.0168  155.3079 H   0  0  0  0  0  0  0  0  0  0  0  0
  149.3511  135.9440  156.4539 H   0  0  0  0  0  0  0  0  0  0  0  0
  148.0367  138.2590  154.8387 H   0  0  0  0  0  0  0  0  0  0  0  0
  149.1470  138.4344  156.1790 H   0  0  0  0  0  0  0  0  0  0  0  0
  149.5927  139.4717  153.3269 H   0  0  0  0  0  0  0  0  0  0  0  0
  149.2619  140.4419  154.7508 H   0  0  0  0  0  0  0  0  0  0  0  0
  151.7721  138.2819  153.2313 H   0  0  0  0  0  0  0  0  0  0  0  0
  152.8617  138.4746  154.5928 H   0  0  0  0  0  0  0  0  0  0  0  0
  151.3372  137.2307  156.0807 H   0  0  0  0  0  0  0  0  0  0  0  0
  151.7013  136.2679  154.6660 H   0  0  0  0  0  0  0  0  0  0  0  0
  145.6880  133.8764  149.9461 H   0  0  0  0  0  0  0  0  0  0  0  0
  144.4418  136.2588  150.4004 H   0  0  0  0  0  0  0  0  0  0  0  0
  145.1630  136.8515  153.0094 H   0  0  0  0  0  0  0  0  0  0  0  0
  1  2  1  0  0  0  0
  1 19  1  0  0  0  0
  1 20  1  0  0  0  0
  1 21  1  0  0  0  0
  2  3  1  0  0  0  0
  2 14  1  0  0  0  0
  2 22  1  0  0  0  0
  3  4  2  0  0  0  0
  3  5  1  0  0  0  0
  5  6  1  0  0  0  0
  5 23  1  0  0  0  0
  6  7  1  0  0  0  0
  6 24  1  0  0  0  0
  6 25  1  0  0  0  0
  7  8  1  0  0  0  0
  7 26  1  0  0  0  0
  7 27  1  0  0  0  0
  8 13  1  0  0  0  0
  8  9  1  0  0  0  0
  9 10  1  0  0  0  0
  9 28  1  0  0  0  0
  9 29  1  0  0  0  0
 10 11  1  0  0  0  0
 10 30  1  0  0  0  0
 10 31  1  0  0  0  0
 11 12  1  0  0  0  0
 12 13  1  0  0  0  0
 12 32  1  0  0  0  0
 12 33  1  0  0  0  0
 13 34  1  0  0  0  0
 13 35  1  0  0  0  0
 14 18  1  0  0  0  0
 14 15  1  0  0  0  0
 15 16  2  0  0  0  0
 15 36  1  0  0  0  0
 16 17  1  0  0  0  0
 16 37  1  0  0  0  0
 17 18  2  0  0  0  0
 17 38  1  0  0  0  0
M  END
> <s_m_source_file>
AV-unprocessed.smi

> <i_m_source_file_index>
3270

> <i_lp_mmshare_version>
43012

> <i_f3d_flags>
0

> <s_epik_input>
bjFbY0hdW2NIXVtjSF1uMVtDQEhdKFtDSDNdKUMoPU8pW05IXVtDSDJdW0NIMl1OMltDSDJdW0NIMl1PW0NIMl1bQ0gyXTI=

> <s_epik_cmdline>
J2VwaWtfcHl0aG9uJywgJy1waCcsICc3LjAnLCAnLXRuJywgJzgnLCAnLW1hJywgJzIwMCcsICctbWV0YWxfYmluZGluZycsICctaW1hZScsICc8aW5maWxlLm1hZT4nLCAnLW9tYWUnLCAnPG91dGZpbGUubWFlPic=

> <r_lp_tautomer_probability>
1

> <r_epik_Ionization_Penalty>
0.203323

> <r_epik_Ionization_Penalty_Charging>
0

> <r_epik_Ionization_Penalty_Neutral>
0.203323

> <r_epik_State_Penalty>
0.193192

> <r_epik_Charging_Adjusted_Penalty>
0.193192

> <i_epik_Tot_Q>
0

> <i_epik_Tot_abs_Q>
0

> <r_epik_Metal_State_Penalty>
0.193187

> <b_epik_Metal_Only>
0

> <s_lp_Force_Field>
OPLS_2005

> <r_lp_Energy>
25.3297

> <b_lp_Chiralities_Consistent>
1

> <s_lp_Variant>
AV-unprocessed.smi:3270-1

> <Gold.Version>
5.8.1

> <Gold.Id.Protein>
6NUR|6NUR_protein|mol2

> <Gold.PLP.Fitness>
37.4544

> <Gold.PLP.PLP>
-29.4868

> <Gold.PLP.part.hbond>
-2.0000

> <Gold.PLP.part.metal>
0.0000

> <Gold.PLP.part.buried>
-4.0972

> <Gold.PLP.part.nonpolar>
-23.7413

> <Gold.PLP.part.repulsive>
0.7677

> <Gold.PLP.ligand.clash>
0.0000

> <Gold.PLP.ligand.torsion>
0.3530

> <Gold.PLP.Chemscore.Hbond>
2.0000

> <Gold.PLP.Chemscore.CHOScore>
0.8453

> <Gold.PLP.Chemscore.Metal>
0.0000

> <Gold.Chemscore.Hbonds>
donor molecule, donor type, donor heavy atom, donor atom, acceptor molecule, acceptor atom, score
      L1  H     5    23       P1  7948  1.00
      P1  H  7989  7998       L1    11  0.95
      L1  C    15    36       P1  7921  0.86

> <Gold.PLP.Chemscore.Internal.Correction>
0.1376

> <Gold.Rescore>
     Score         DG    S(hbond)    S(metal)    S(lipo)     H(rot)  DE(clash)    DE(int)     intcor
      9.55     -11.28       1.16        0.00      56.42       1.83       0.02       1.72       ----

> <Gold.Chemscore.Fitness>
9.5479

> <Gold.Chemscore.DG>
-11.2841

> <Gold.Chemscore.ZeroCoef>
-5.4800

> <Gold.Chemscore.Hbond>
1.1631

> <Gold.Chemscore.Metal>
0.0000

> <Gold.Chemscore.Lipo>
56.4244

> <Gold.Chemscore.Internal_Hbond>
0.0000

> <Gold.Chemscore.DEClash>
0.0174

> <Gold.Chemscore.DEInternal>
1.7188

> <Gold.Chemscore.Rot>
1.8290

> <Gold.Chemscore.Internal.Correction>
   9.000000E+99

> <Gold.Chemscore.Hbonds>
donor molecule, donor type, donor heavy atom, donor atom, acceptor molecule, acceptor atom, score
      L1  H     5    23       P1  7948  0.26
      P1  H  7989  7998       L1    11  0.11

> <Gold.Chemscore.Hbond.Weighted>
-3.8846

> <Gold.Chemscore.Metal.Weighted>
-0.0000

> <Gold.Chemscore.Lipo.Weighted>
-6.6017

> <Gold.Chemscore.Internal_Hbond.Weighted>
0.0000

> <Gold.Chemscore.DEClash.Weighted>
0.0174

> <Gold.Chemscore.DEInternal.Weighted>
1.7188

> <Gold.Chemscore.Rot.Weighted>
4.6821

> <Gold.Chemscore.Internal.Correction.Weighted>
   9.000000E+99

> <Gold.Protein.RotatedTorsions>
[ 6907 6896 6895 6894 ] final -108.11 input  -60.11 | X-H torsion
[ 7974 7965 7964 7962 ] final -102.43 input  175.53 | X-H torsion
[ 8008 7997 7996 7995 ] final -160.44 input   59.86 | X-H torsion
[ 10167 10162 10161 10158 ] final -130.28 input  -65.29 | X-H torsion
[ 10718 10713 10712 10709 ] final  118.16 input   66.30 | X-H torsion
[ 10763 10752 10751 10750 ] final   49.16 input  -60.55 | X-H torsion
[ 11005 11000 10999 10996 ] final  -13.60 input  -57.11 | X-H torsion

> <Gold.Protein.ActiveResidues>
 VAL166  LYS551  ARG553  GLY616  TRP617  ASP618  TYR619  PRO620  LYS621  CYS622 
 ASP623  PHE694  ASN695  SER759  ASP760  ASP761  ALA762  ILE779  LEU786  VAL792 
 PHE793  MET794  SER795  GLU796  ALA797  LYS798  CYS799  TRP800  GLU811  SER814 

> <Gold.Protein.RotatedAtoms>
  150.7483  133.9726  159.3550 H   0  0  0  0  0  0  0  0  0  0  0  0  # atno 6907 bound_to 6896
  151.7660  135.0796  160.0362 H   0  0  0  0  0  0  0  0  0  0  0  0  # atno 6908 bound_to 6896
  152.3371  133.5987  159.5886 H   0  0  0  0  0  0  0  0  0  0  0  0  # atno 6909 bound_to 6896
  145.2689  140.9292  143.2998 H   0  0  0  0  0  0  0  0  0  0  0  0  # atno 7974 bound_to 7965
  155.7775  140.0860  157.2076 H   0  0  0  0  0  0  0  0  0  0  0  0  # atno 8008 bound_to 7997
  154.3992  140.1514  156.3071 H   0  0  0  0  0  0  0  0  0  0  0  0  # atno 8009 bound_to 7997
  155.8686  140.3426  155.5808 H   0  0  0  0  0  0  0  0  0  0  0  0  # atno 8010 bound_to 7997
  139.9310  143.6272  152.2529 H   0  0  0  0  0  0  0  0  0  0  0  0  # atno 10167 bound_to 10162
  157.6049  131.1045  150.7717 H   0  0  0  0  0  0  0  0  0  0  0  0  # atno 10718 bound_to 10713
  152.9788  135.5921  154.4043 H   0  0  0  0  0  0  0  0  0  0  0  0  # atno 10763 bound_to 10752
  154.3686  135.2767  155.2281 H   0  0  0  0  0  0  0  0  0  0  0  0  # atno 10764 bound_to 10752
  154.4247  135.6050  153.6086 H   0  0  0  0  0  0  0  0  0  0  0  0  # atno 10765 bound_to 10752
  140.7778  133.8387  155.9264 H   0  0  0  0  0  0  0  0  0  0  0  0  # atno 11005 bound_to 11000
  144.9353  139.4251  143.6475 LP  0  0  0  0  0  0  0  0  0  0  0  0  # atno 17320 bound_to 7965
  146.3252  139.8285  142.8913 LP  0  0  0  0  0  0  0  0  0  0  0  0  # atno 17321 bound_to 7965
  139.6782  144.7657  151.1656 LP  0  0  0  0  0  0  0  0  0  0  0  0  # atno 17342 bound_to 10162
  140.7637  143.5763  150.8942 LP  0  0  0  0  0  0  0  0  0  0  0  0  # atno 17343 bound_to 10162
  156.8107  130.4951  149.5356 LP  0  0  0  0  0  0  0  0  0  0  0  0  # atno 17370 bound_to 10713
  156.1132  130.6056  151.0080 LP  0  0  0  0  0  0  0  0  0  0  0  0  # atno 17371 bound_to 10713
  140.9512  134.1776  157.4726 LP  0  0  0  0  0  0  0  0  0  0  0  0  # atno 17394 bound_to 11000
  139.8746  134.9910  156.5527 LP  0  0  0  0  0  0  0  0  0  0  0  0  # atno 17395 bound_to 11000

$$$$
