AV-unprocessed.smi:2771|AV-procd|sdf|10663|dock8
  -GOLD-   2272015113D 1   1.00000     0.00000
 Structure written by MMmdl.
 43 44  0  0  0  0  0  0  0  0  1 V2000
  141.9493  134.8243  153.1252 C   0  0  0  0  0  0  0  0  0  0  0  0
  143.2726  134.7747  152.3911 C   0  0  0  0  0  0  0  0  0  0  0  0
  143.5009  133.8322  151.3693 C   0  0  0  0  0  0  0  0  0  0  0  0
  144.7525  133.8399  150.7283 C   0  0  0  0  0  0  0  0  0  0  0  0
  145.7171  134.7834  151.1313 C   0  0  0  0  0  0  0  0  0  0  0  0
  145.4068  135.6967  152.1639 C   0  0  0  0  0  0  0  0  0  0  0  0
  146.4432  136.6113  152.4902 N   0  0  0  0  0  0  0  0  0  0  0  0
  146.3456  137.7760  153.1555 C   0  0  0  0  0  0  0  0  0  0  0  0
  145.3126  138.2354  153.6433 O   0  0  0  0  0  0  0  0  0  0  0  0
  147.5326  138.3934  153.2250 N   0  0  0  0  0  0  0  0  0  0  0  0
  147.7580  139.6937  153.8468 C   0  0  0  0  0  0  0  0  0  0  0  0
  149.0587  139.6825  154.6774 C   0  0  1  0  0  0  0  0  0  0  0  0
  150.1245  139.6389  153.7461 O   0  0  0  0  0  0  0  0  0  0  0  0
  149.2584  140.9301  155.5812 C   0  0  0  0  0  0  0  0  0  0  0  0
  150.7316  141.0627  156.0442 C   0  0  0  0  0  0  0  0  0  0  0  0
  150.9554  142.2920  156.9384 C   0  0  0  0  0  0  0  0  0  0  0  0
  150.0301  142.2628  158.1608 C   0  0  0  0  0  0  0  0  0  0  0  0
  148.5633  142.1498  157.7258 C   0  0  0  0  0  0  0  0  0  0  0  0
  148.3360  140.9240  156.8250 C   0  0  0  0  0  0  0  0  0  0  0  0
  144.1971  135.6801  152.7773 N   0  0  0  0  0  0  0  0  0  0  0  0
  141.2608  134.0658  152.7517 H   0  0  0  0  0  0  0  0  0  0  0  0
  141.4812  135.8010  152.9975 H   0  0  0  0  0  0  0  0  0  0  0  0
  142.1002  134.6523  154.1913 H   0  0  0  0  0  0  0  0  0  0  0  0
  142.7397  133.1217  151.0821 H   0  0  0  0  0  0  0  0  0  0  0  0
  144.9704  133.1352  149.9395 H   0  0  0  0  0  0  0  0  0  0  0  0
  146.6829  134.8029  150.6476 H   0  0  0  0  0  0  0  0  0  0  0  0
  147.3622  136.3612  152.1570 H   0  0  0  0  0  0  0  0  0  0  0  0
  148.3330  137.9430  152.8057 H   0  0  0  0  0  0  0  0  0  0  0  0
  147.7900  140.4885  153.0991 H   0  0  0  0  0  0  0  0  0  0  0  0
  146.8905  139.8855  154.4763 H   0  0  0  0  0  0  0  0  0  0  0  0
  149.0948  138.7823  155.2928 H   0  0  0  0  0  0  0  0  0  0  0  0
  149.7602  139.5836  152.8761 H   0  0  0  0  0  0  0  0  0  0  0  0
  149.0114  141.8144  154.9911 H   0  0  0  0  0  0  0  0  0  0  0  0
  151.0281  140.1632  156.5855 H   0  0  0  0  0  0  0  0  0  0  0  0
  151.4003  141.1366  155.1865 H   0  0  0  0  0  0  0  0  0  0  0  0
  151.9961  142.3317  157.2613 H   0  0  0  0  0  0  0  0  0  0  0  0
  150.7756  143.2011  156.3629 H   0  0  0  0  0  0  0  0  0  0  0  0
  150.2911  141.4180  158.7992 H   0  0  0  0  0  0  0  0  0  0  0  0
  150.1746  143.1621  158.7601 H   0  0  0  0  0  0  0  0  0  0  0  0
  147.9203  142.0894  158.6042 H   0  0  0  0  0  0  0  0  0  0  0  0
  148.2705  143.0545  157.1913 H   0  0  0  0  0  0  0  0  0  0  0  0
  147.2878  140.9190  156.5307 H   0  0  0  0  0  0  0  0  0  0  0  0
  148.5008  140.0127  157.4014 H   0  0  0  0  0  0  0  0  0  0  0  0
  1  2  1  0  0  0  0
  1 21  1  0  0  0  0
  1 22  1  0  0  0  0
  1 23  1  0  0  0  0
  2 20  1  0  0  0  0
  2  3  2  0  0  0  0
  3  4  1  0  0  0  0
  3 24  1  0  0  0  0
  4  5  2  0  0  0  0
  4 25  1  0  0  0  0
  5  6  1  0  0  0  0
  5 26  1  0  0  0  0
  6  7  1  0  0  0  0
  6 20  2  0  0  0  0
  7  8  1  0  0  0  0
  7 27  1  0  0  0  0
  8  9  2  0  0  0  0
  8 10  1  0  0  0  0
 10 11  1  0  0  0  0
 10 28  1  0  0  0  0
 11 12  1  0  0  0  0
 11 29  1  0  0  0  0
 11 30  1  0  0  0  0
 12 13  1  0  0  0  0
 12 14  1  0  0  0  0
 12 31  1  0  0  0  0
 13 32  1  0  0  0  0
 14 19  1  0  0  0  0
 14 15  1  0  0  0  0
 14 33  1  0  0  0  0
 15 16  1  0  0  0  0
 15 34  1  0  0  0  0
 15 35  1  0  0  0  0
 16 17  1  0  0  0  0
 16 36  1  0  0  0  0
 16 37  1  0  0  0  0
 17 18  1  0  0  0  0
 17 38  1  0  0  0  0
 17 39  1  0  0  0  0
 18 19  1  0  0  0  0
 18 40  1  0  0  0  0
 18 41  1  0  0  0  0
 19 42  1  0  0  0  0
 19 43  1  0  0  0  0
M  END
> <s_m_source_file>
AV-unprocessed.smi

> <i_m_source_file_index>
2771

> <i_lp_mmshare_version>
43012

> <i_f3d_flags>
0

> <s_epik_input>
W0NIM11jMVtjSF1bY0hdW2NIXWMobjEpW05IXUMoPU8pW05IXVtDSDJdW0NASF0oW09IXSlbQ0hdMltDSDJdW0NIMl1bQ0gyXVtDSDJdW0NIMl0y

> <s_epik_cmdline>
J2VwaWtfcHl0aG9uJywgJy1waCcsICc3LjAnLCAnLXRuJywgJzgnLCAnLW1hJywgJzIwMCcsICctbWV0YWxfYmluZGluZycsICctaW1hZScsICc8aW5maWxlLm1hZT4nLCAnLW9tYWUnLCAnPG91dGZpbGUubWFlPic=

> <r_lp_tautomer_probability>
1

> <r_epik_Ionization_Penalty>
8.92802e-05

> <r_epik_Ionization_Penalty_Charging>
0

> <r_epik_Ionization_Penalty_Neutral>
8.92802e-05

> <r_epik_State_Penalty>
-0

> <r_epik_Charging_Adjusted_Penalty>
0

> <i_epik_Tot_Q>
0

> <i_epik_Tot_abs_Q>
0

> <r_epik_Metal_State_Penalty>
-0

> <b_epik_Metal_Only>
0

> <s_lp_Force_Field>
OPLS_2005

> <r_lp_Energy>
17.4783

> <b_lp_Chiralities_Consistent>
1

> <s_lp_Variant>
AV-unprocessed.smi:2771-2

> <Gold.Version>
5.8.1

> <Gold.Id.Protein>
6NUR|6NUR_protein|mol2

> <Gold.PLP.Fitness>
42.9740

> <Gold.PLP.PLP>
-32.5610

> <Gold.PLP.part.hbond>
-4.0000

> <Gold.PLP.part.metal>
0.0000

> <Gold.PLP.part.buried>
-5.0076

> <Gold.PLP.part.nonpolar>
-24.9421

> <Gold.PLP.part.repulsive>
1.0062

> <Gold.PLP.ligand.clash>
0.0000

> <Gold.PLP.ligand.torsion>
0.4652

> <Gold.PLP.Chemscore.Hbond>
3.7760

> <Gold.PLP.Chemscore.CHOScore>
0.0000

> <Gold.PLP.Chemscore.Metal>
0.0000

> <Gold.Chemscore.Hbonds>
donor molecule, donor type, donor heavy atom, donor atom, acceptor molecule, acceptor atom, score
      L1  H     7    27       P1  7948  1.00
      L1  H    10    28       P1  7948  0.89
      L1  H    13    32       P1  7957  1.00
      P1  H  7989  7998       L1    13  0.90

> <Gold.PLP.Chemscore.Internal.Correction>
0.0153

> <Gold.Rescore>
     Score         DG    S(hbond)    S(metal)    S(lipo)     H(rot)  DE(clash)    DE(int)     intcor
     18.58     -20.36       3.40        0.00      72.85       1.95       0.13       1.66       ----

> <Gold.Chemscore.Fitness>
18.5789

> <Gold.Chemscore.DG>
-20.3632

> <Gold.Chemscore.ZeroCoef>
-5.4800

> <Gold.Chemscore.Hbond>
3.4016

> <Gold.Chemscore.Metal>
0.0000

> <Gold.Chemscore.Lipo>
72.8471

> <Gold.Chemscore.Internal_Hbond>
0.0000

> <Gold.Chemscore.DEClash>
0.1258

> <Gold.Chemscore.DEInternal>
1.6585

> <Gold.Chemscore.Rot>
1.9536

> <Gold.Chemscore.Internal.Correction>
   9.000000E+99

> <Gold.Chemscore.Hbonds>
donor molecule, donor type, donor heavy atom, donor atom, acceptor molecule, acceptor atom, score
      L1  H     7    27       P1  7948  0.99
      L1  H    10    28       P1  7948  0.80
      L1  H    13    32       P1  7957  0.98
      P1  H  7989  7998       L1    13  0.26

> <Gold.Chemscore.Hbond.Weighted>
-11.3613

> <Gold.Chemscore.Metal.Weighted>
-0.0000

> <Gold.Chemscore.Lipo.Weighted>
-8.5231

> <Gold.Chemscore.Internal_Hbond.Weighted>
0.0000

> <Gold.Chemscore.DEClash.Weighted>
0.1258

> <Gold.Chemscore.DEInternal.Weighted>
1.6585

> <Gold.Chemscore.Rot.Weighted>
5.0013

> <Gold.Chemscore.Internal.Correction.Weighted>
   9.000000E+99

> <Gold.Protein.RotatedTorsions>
[ 6907 6896 6895 6894 ] final   17.10 input  -60.11 | X-H torsion
[ 7974 7965 7964 7962 ] final  142.97 input  175.53 | X-H torsion
[ 8008 7997 7996 7995 ] final  -66.47 input   59.86 | X-H torsion
[ 10167 10162 10161 10158 ] final -109.99 input  -65.29 | X-H torsion
[ 10718 10713 10712 10709 ] final   77.47 input   66.30 | X-H torsion
[ 10763 10752 10751 10750 ] final  118.97 input  -60.55 | X-H torsion
[ 11005 11000 10999 10996 ] final -133.26 input  -57.11 | X-H torsion

> <Gold.Protein.ActiveResidues>
 VAL166  LYS551  ARG553  GLY616  TRP617  ASP618  TYR619  PRO620  LYS621  CYS622 
 ASP623  PHE694  ASN695  SER759  ASP760  ASP761  ALA762  ILE779  LEU786  VAL792 
 PHE793  MET794  SER795  GLU796  ALA797  LYS798  CYS799  TRP800  GLU811  SER814 

> <Gold.Protein.RotatedAtoms>
  151.8444  135.0579  160.0451 H   0  0  0  0  0  0  0  0  0  0  0  0  # atno 6907 bound_to 6896
  152.2784  133.5443  159.5491 H   0  0  0  0  0  0  0  0  0  0  0  0  # atno 6908 bound_to 6896
  150.7179  134.0514  159.3842 H   0  0  0  0  0  0  0  0  0  0  0  0  # atno 6909 bound_to 6896
  144.8961  139.5488  143.5775 H   0  0  0  0  0  0  0  0  0  0  0  0  # atno 7974 bound_to 7965
  154.4736  140.0912  156.7208 H   0  0  0  0  0  0  0  0  0  0  0  0  # atno 8008 bound_to 7997
  155.4655  140.3462  155.4300 H   0  0  0  0  0  0  0  0  0  0  0  0  # atno 8009 bound_to 7997
  156.1081  140.1440  156.9365 H   0  0  0  0  0  0  0  0  0  0  0  0  # atno 8010 bound_to 7997
  140.1493  143.4212  152.1506 H   0  0  0  0  0  0  0  0  0  0  0  0  # atno 10167 bound_to 10162
  157.6711  130.9823  150.1646 H   0  0  0  0  0  0  0  0  0  0  0  0  # atno 10718 bound_to 10713
  153.5758  135.3493  155.2856 H   0  0  0  0  0  0  0  0  0  0  0  0  # atno 10763 bound_to 10752
  154.8675  135.4170  154.2675 H   0  0  0  0  0  0  0  0  0  0  0  0  # atno 10764 bound_to 10752
  153.3450  135.7052  153.6905 H   0  0  0  0  0  0  0  0  0  0  0  0  # atno 10765 bound_to 10752
  140.9097  134.1584  157.4399 H   0  0  0  0  0  0  0  0  0  0  0  0  # atno 11005 bound_to 11000
  146.3082  139.7653  142.9040 LP  0  0  0  0  0  0  0  0  0  0  0  0  # atno 17320 bound_to 7965
  145.3697  141.0340  143.3238 LP  0  0  0  0  0  0  0  0  0  0  0  0  # atno 17321 bound_to 7965
  139.5433  144.7276  151.4662 LP  0  0  0  0  0  0  0  0  0  0  0  0  # atno 17342 bound_to 10162
  140.6712  143.8289  150.7002 LP  0  0  0  0  0  0  0  0  0  0  0  0  # atno 17343 bound_to 10162
  156.2414  130.3691  149.8333 LP  0  0  0  0  0  0  0  0  0  0  0  0  # atno 17370 bound_to 10713
  156.6132  130.8595  151.3459 LP  0  0  0  0  0  0  0  0  0  0  0  0  # atno 17371 bound_to 10713
  139.8755  134.9931  156.5627 LP  0  0  0  0  0  0  0  0  0  0  0  0  # atno 17394 bound_to 11000
  140.8126  133.8417  155.8823 LP  0  0  0  0  0  0  0  0  0  0  0  0  # atno 17395 bound_to 11000

$$$$
