#       Name:                AV-unprocessed.smi:1164
#       Creating user name   scv26
#       Creation time:       Fri Mar 27 03:50:51 2020


#       File generated by GOLD software.
#

@<TRIPOS>MOLECULE
AV-unprocessed.smi:1164
    37    37     1
SMALL
NO_CHARGES


@<TRIPOS>ATOM
      1 ****        -1.9572  -3.2884  -0.0659 C.3            1 S1                 0.0000
      2 ****        -1.9233  -1.7498  -0.0551 C.3            1 S1                 0.0000
      3 ****        -2.6827  -1.2242  -1.2918 C.3            1 S1                 0.0000
      4 ****        -2.5831  -1.2426   1.2447 C.3            1 S1                 0.0000
      5 ****        -0.5108  -1.3545  -0.1059 N.am           1 S1                 0.0000
      6 ****         0.0128  -0.1157  -0.1252 C.2            1 S1                 0.0000
      7 ****        -0.6655   0.9125  -0.1085 O.2            1 S1                 0.0000
      8 ****         1.5478  -0.0543  -0.1795 C.3            1 S1                 0.0000
      9 ****         2.1038   1.2996  -0.0368 N.am           1 S1                 0.0000
     10 ****         2.5469   1.8911  -1.2962 N.pl3          1 S1                -1.0000
     11 ****         3.0601   3.1500  -1.2924 C.2            1 S1                 0.0000
     12 ****         3.4354   3.7199  -2.3145 O.2            1 S1                 0.0000
     13 ****         3.1688   3.8410  -0.0182 C.2            1 S1                 0.0000
     14 ****         2.7729   3.2615   1.1323 C.2            1 S1                 0.0000
     15 ****         2.2099   1.9174   1.1745 C.2            1 S1                 0.0000
     16 ****         1.8532   1.3790   2.2228 O.2            1 S1                 0.0000
     17 ****        -2.9802  -3.6636  -0.0237 H              1 S1                 0.0000
     18 ****        -1.4207  -3.7051   0.7876 H              1 S1                 0.0000
     19 ****        -1.4986  -3.6903  -0.9704 H              1 S1                 0.0000
     20 ****        -2.1971  -1.5357  -2.2174 H              1 S1                 0.0000
     21 ****        -2.7461  -0.1362  -1.3031 H              1 S1                 0.0000
     22 ****        -3.7049  -1.6029  -1.3147 H              1 S1                 0.0000
     23 ****        -3.6060  -1.6094   1.3348 H              1 S1                 0.0000
     24 ****        -2.6300  -0.1542   1.2831 H              1 S1                 0.0000
     25 ****        -2.0354  -1.5798   2.1256 H              1 S1                 0.0000
     26 ****         0.1509  -2.1168  -0.1283 H              1 S1                 0.0000
     27 ****         1.9549  -0.6995   0.6011 H              1 S1                 0.0000
     28 ****         1.8717  -0.4987  -1.1224 H              1 S1                 0.0000
     29 ****         3.5785   4.8400   0.0063 H              1 S1                 0.0000
     30 ****         2.8734   3.8111   2.0562 H              1 S1                 0.0000
     31 ****        -1.6633   0.8528  -0.0789 LP             1 S1                 0.0000
     32 ****        -0.2183   1.8068  -0.1244 LP             1 S1                 0.0000
     33 ****         2.4738   1.3766  -2.1506 LP             1 S1                 0.0000
     34 ****         3.3697   3.2564  -3.1982 LP             1 S1                 0.0000
     35 ****         3.8065   4.6470  -2.2624 LP             1 S1                 0.0000
     36 ****         1.4695   0.4557   2.2053 LP             1 S1                 0.0000
     37 ****         1.9472   1.8650   3.0917 LP             1 S1                 0.0000
@<TRIPOS>BOND
    1    1    2 1     
    2    1   17 1     
    3    1   18 1     
    4    1   19 1     
    5    2    3 1     
    6    2    4 1     
    7    2    5 1     
    8    3   20 1     
    9    3   21 1     
   10    3   22 1     
   11    4   23 1     
   12    4   24 1     
   13    4   25 1     
   14    5    6 am    
   15    5   26 1     
   16    6    7 2     
   17    6    8 1     
   18    8   27 1     
   19    8   28 1     
   20    8    9 1     
   21    9   10 1     
   22    9   15 am    
   23   10   11 1     
   24   11   12 2     
   25   11   13 1     
   26   13   29 1     
   27   13   14 2     
   28   14   30 1     
   29   14   15 1     
   30   15   16 2     
   31    7   31 1     
   32    7   32 1     
   33   10   33 1     
   34   12   34 1     
   35   12   35 1     
   36   16   36 1     
   37   16   37 1     
@<TRIPOS>SUBSTRUCTURE
      1 S1             1
@<TRIPOS>SET
LONE_PAIRS      STATIC     ATOMS    <user>   **** ""
7 31 32 33 34 35 36 37
DONOR_HYDROGENS      STATIC     ATOMS    <user>   **** ""
1 26
ATOM$BLUE        STATIC     ATOMS    COLORGROUP SYSTEM
7 31 32 33 34 35 36 37
ATOM$RED        STATIC     ATOMS    COLORGROUP SYSTEM
1 26
