AV-unprocessed.smi:3116|AV-procd|sdf|11871|dock1
  -GOLD-   2272017253D 1   1.00000     0.00000
 Structure written by MMmdl.
 33 33  0  0  0  0  0  0  0  0  1 V2000
  147.3482  142.1092  154.5887 C   0  0  0  0  0  0  0  0  0  0  0  0
  148.5441  141.1333  154.5544 C   0  0  1  0  0  0  0  0  0  0  0  0
  149.0963  140.9182  155.9020 N   0  0  0  0  0  0  0  0  0  0  0  0
  150.2524  141.7550  156.2188 C   0  0  2  0  0  0  0  0  0  0  0  0
  151.4857  141.1659  155.5020 C   0  0  0  0  0  0  0  0  0  0  0  0
  150.4040  141.8091  157.7630 C   0  0  2  0  0  0  0  0  0  0  0  0
  149.0684  142.1059  158.4737 C   0  0  0  0  0  0  0  0  0  0  0  0
  151.4177  142.7686  158.1846 N   0  0  0  0  0  0  0  0  0  0  0  0
  151.4089  144.1400  158.0328 C   0  0  0  0  0  0  0  0  0  0  0  0
  152.5641  144.6199  158.5803 C   0  0  0  0  0  0  0  0  0  0  0  0
  153.2267  143.4516  159.0486 C   0  0  0  0  0  0  0  0  0  0  0  0
  152.5400  142.3463  158.8108 N   0  0  0  0  0  0  0  0  0  0  0  0
  148.1506  139.7816  153.9415 C   0  0  0  0  0  0  0  0  0  0  0  0
  148.7446  139.4499  152.7921 N   0  0  0  0  0  0  0  0  0  0  0  0
  147.3392  139.0378  154.4905 O   0  0  0  0  0  0  0  0  0  0  0  0
  146.8824  142.1981  153.6065 H   0  0  0  0  0  0  0  0  0  0  0  0
  147.6491  143.1137  154.8839 H   0  0  0  0  0  0  0  0  0  0  0  0
  146.5822  141.7782  155.2912 H   0  0  0  0  0  0  0  0  0  0  0  0
  149.3143  141.5551  153.9071 H   0  0  0  0  0  0  0  0  0  0  0  0
  149.3482  139.9515  156.0501 H   0  0  0  0  0  0  0  0  0  0  0  0
  150.1015  142.7729  155.8594 H   0  0  0  0  0  0  0  0  0  0  0  0
  152.3687  141.7887  155.6460 H   0  0  0  0  0  0  0  0  0  0  0  0
  151.3315  141.0894  154.4258 H   0  0  0  0  0  0  0  0  0  0  0  0
  151.7210  140.1682  155.8739 H   0  0  0  0  0  0  0  0  0  0  0  0
  150.7479  140.8311  158.1047 H   0  0  0  0  0  0  0  0  0  0  0  0
  148.3286  141.3309  158.2726 H   0  0  0  0  0  0  0  0  0  0  0  0
  148.6442  143.0563  158.1485 H   0  0  0  0  0  0  0  0  0  0  0  0
  149.2015  142.1537  159.5548 H   0  0  0  0  0  0  0  0  0  0  0  0
  150.5898  144.6555  157.5536 H   0  0  0  0  0  0  0  0  0  0  0  0
  152.8865  145.6489  158.6376 H   0  0  0  0  0  0  0  0  0  0  0  0
  154.1797  143.3739  159.5506 H   0  0  0  0  0  0  0  0  0  0  0  0
  148.5274  138.5699  152.3474 H   0  0  0  0  0  0  0  0  0  0  0  0
  149.4141  140.0804  152.3751 H   0  0  0  0  0  0  0  0  0  0  0  0
  1  2  1  0  0  0  0
  1 16  1  0  0  0  0
  1 17  1  0  0  0  0
  1 18  1  0  0  0  0
  2  3  1  0  0  0  0
  2 13  1  0  0  0  0
  2 19  1  0  0  0  0
  3  4  1  0  0  0  0
  3 20  1  0  0  0  0
  4  5  1  0  0  0  0
  4  6  1  0  0  0  0
  4 21  1  0  0  0  0
  5 22  1  0  0  0  0
  5 23  1  0  0  0  0
  5 24  1  0  0  0  0
  6  7  1  0  0  0  0
  6  8  1  0  0  0  0
  6 25  1  0  0  0  0
  7 26  1  0  0  0  0
  7 27  1  0  0  0  0
  7 28  1  0  0  0  0
  8 12  1  0  0  0  0
  8  9  1  0  0  0  0
  9 10  2  0  0  0  0
  9 29  1  0  0  0  0
 10 11  1  0  0  0  0
 10 30  1  0  0  0  0
 11 12  2  0  0  0  0
 11 31  1  0  0  0  0
 13 14  1  0  0  0  0
 13 15  2  0  0  0  0
 14 32  1  0  0  0  0
 14 33  1  0  0  0  0
M  END
> <s_m_source_file>
AV-unprocessed.smi

> <i_m_source_file_index>
3116

> <i_lp_mmshare_version>
43012

> <i_f3d_flags>
0

> <s_epik_input>
W05IMl1DKD1PKVtDQEhdKFtDSDNdKVtOSF1bQ0BIXShbQ0gzXSlbQ0BIXShbQ0gzXSluMVtjSF1bY0hdW2NIXW4x

> <s_epik_cmdline>
J2VwaWtfcHl0aG9uJywgJy1waCcsICc3LjAnLCAnLXRuJywgJzgnLCAnLW1hJywgJzIwMCcsICctbWV0YWxfYmluZGluZycsICctaW1hZScsICc8aW5maWxlLm1hZT4nLCAnLW9tYWUnLCAnPG91dGZpbGUubWFlPic=

> <r_lp_tautomer_probability>
1

> <r_epik_Ionization_Penalty>
0.865977

> <r_epik_Ionization_Penalty_Charging>
0

> <r_epik_Ionization_Penalty_Neutral>
0.865977

> <r_epik_State_Penalty>
0.901888

> <r_epik_Charging_Adjusted_Penalty>
0.901888

> <i_epik_Tot_Q>
0

> <i_epik_Tot_abs_Q>
0

> <r_epik_Metal_State_Penalty>
0.901181

> <b_epik_Metal_Only>
0

> <s_lp_Force_Field>
OPLS_2005

> <r_lp_Energy>
9.31489

> <b_lp_Chiralities_Consistent>
1

> <s_lp_Variant>
AV-unprocessed.smi:3116-10

> <Gold.Version>
5.8.1

> <Gold.Id.Protein>
6NUR|6NUR_protein|mol2

> <Gold.PLP.Fitness>
40.1060

> <Gold.PLP.PLP>
-34.6254

> <Gold.PLP.part.hbond>
-1.9793

> <Gold.PLP.part.metal>
0.0000

> <Gold.PLP.part.buried>
-4.2496

> <Gold.PLP.part.nonpolar>
-29.0165

> <Gold.PLP.part.repulsive>
0.1824

> <Gold.PLP.ligand.clash>
0.0000

> <Gold.PLP.ligand.torsion>
0.8555

> <Gold.PLP.Chemscore.Hbond>
1.3520

> <Gold.PLP.Chemscore.CHOScore>
1.0000

> <Gold.PLP.Chemscore.Metal>
0.0000

> <Gold.Chemscore.Hbonds>
donor molecule, donor type, donor heavy atom, donor atom, acceptor molecule, acceptor atom, score
      L1  H    14    32       P1  7948  0.10
      L1  H    14    33       P1  7957  0.10
      L1  C     9    29       P1  8028  1.00

> <Gold.PLP.Chemscore.Internal.Correction>
0.1356

> <Gold.Rescore>
     Score         DG    S(hbond)    S(metal)    S(lipo)     H(rot)  DE(clash)    DE(int)     intcor
     13.39     -14.52       1.85        0.00      76.51       2.38       0.05       1.08       ----

> <Gold.Chemscore.Fitness>
13.3919

> <Gold.Chemscore.DG>
-14.5181

> <Gold.Chemscore.ZeroCoef>
-5.4800

> <Gold.Chemscore.Hbond>
1.8529

> <Gold.Chemscore.Metal>
0.0000

> <Gold.Chemscore.Lipo>
76.5068

> <Gold.Chemscore.Internal_Hbond>
0.0000

> <Gold.Chemscore.DEClash>
0.0460

> <Gold.Chemscore.DEInternal>
1.0802

> <Gold.Chemscore.Rot>
2.3836

> <Gold.Chemscore.Internal.Correction>
   9.000000E+99

> <Gold.Chemscore.Hbonds>
donor molecule, donor type, donor heavy atom, donor atom, acceptor molecule, acceptor atom, score
      L1  H    14    32       P1  7948  0.12
      L1  H    14    33       P1  7957  0.10

> <Gold.Chemscore.Hbond.Weighted>
-6.1888

> <Gold.Chemscore.Metal.Weighted>
-0.0000

> <Gold.Chemscore.Lipo.Weighted>
-8.9513

> <Gold.Chemscore.Internal_Hbond.Weighted>
0.0000

> <Gold.Chemscore.DEClash.Weighted>
0.0460

> <Gold.Chemscore.DEInternal.Weighted>
1.0802

> <Gold.Chemscore.Rot.Weighted>
6.1020

> <Gold.Chemscore.Internal.Correction.Weighted>
   9.000000E+99

> <Gold.Protein.RotatedTorsions>
[ 6907 6896 6895 6894 ] final   52.93 input  -60.11 | X-H torsion
[ 7974 7965 7964 7962 ] final  -10.32 input  175.53 | X-H torsion
[ 8008 7997 7996 7995 ] final -152.41 input   59.86 | X-H torsion
[ 10167 10162 10161 10158 ] final -109.71 input  -65.29 | X-H torsion
[ 10718 10713 10712 10709 ] final  -24.45 input   66.30 | X-H torsion
[ 10763 10752 10751 10750 ] final   72.48 input  -60.55 | X-H torsion
[ 11005 11000 10999 10996 ] final   56.50 input  -57.11 | X-H torsion

> <Gold.Protein.ActiveResidues>
 VAL166  LYS551  ARG553  GLY616  TRP617  ASP618  TYR619  PRO620  LYS621  CYS622 
 ASP623  PHE694  ASN695  SER759  ASP760  ASP761  ALA762  ILE779  LEU786  VAL792 
 PHE793  MET794  SER795  GLU796  ALA797  LYS798  CYS799  TRP800  GLU811  SER814 

> <Gold.Protein.RotatedAtoms>
  152.3284  134.7291  160.0295 H   0  0  0  0  0  0  0  0  0  0  0  0  # atno 6907 bound_to 6896
  151.7716  133.3336  159.3454 H   0  0  0  0  0  0  0  0  0  0  0  0  # atno 6908 bound_to 6896
  150.7409  134.5945  159.6049 H   0  0  0  0  0  0  0  0  0  0  0  0  # atno 6909 bound_to 6896
  146.2224  140.2747  142.8359 H   0  0  0  0  0  0  0  0  0  0  0  0  # atno 7974 bound_to 7965
  155.6547  140.0716  157.2575 H   0  0  0  0  0  0  0  0  0  0  0  0  # atno 8008 bound_to 7997
  154.4155  140.1727  156.1763 H   0  0  0  0  0  0  0  0  0  0  0  0  # atno 8009 bound_to 7997
  155.9747  140.3359  155.6611 H   0  0  0  0  0  0  0  0  0  0  0  0  # atno 8010 bound_to 7997
  140.1523  143.4188  152.1485 H   0  0  0  0  0  0  0  0  0  0  0  0  # atno 10167 bound_to 10162
  156.4775  130.4538  149.6832 H   0  0  0  0  0  0  0  0  0  0  0  0  # atno 10718 bound_to 10713
  153.0461  135.5098  154.7750 H   0  0  0  0  0  0  0  0  0  0  0  0  # atno 10763 bound_to 10752
  154.6649  135.2944  154.9821 H   0  0  0  0  0  0  0  0  0  0  0  0  # atno 10764 bound_to 10752
  154.0659  135.6684  153.4870 H   0  0  0  0  0  0  0  0  0  0  0  0  # atno 10765 bound_to 10752
  140.0524  134.5718  155.9247 H   0  0  0  0  0  0  0  0  0  0  0  0  # atno 11005 bound_to 11000
  144.9242  140.7902  143.5729 LP  0  0  0  0  0  0  0  0  0  0  0  0  # atno 17320 bound_to 7965
  145.2686  139.1964  143.4854 LP  0  0  0  0  0  0  0  0  0  0  0  0  # atno 17321 bound_to 7965
  139.5420  144.7265  151.4704 LP  0  0  0  0  0  0  0  0  0  0  0  0  # atno 17342 bound_to 10162
  140.6694  143.8326  150.6981 LP  0  0  0  0  0  0  0  0  0  0  0  0  # atno 17343 bound_to 10162
  156.3555  130.7454  151.2420 LP  0  0  0  0  0  0  0  0  0  0  0  0  # atno 17370 bound_to 10713
  157.7486  131.0365  150.4412 LP  0  0  0  0  0  0  0  0  0  0  0  0  # atno 17371 bound_to 10713
  141.1936  133.6580  156.5558 LP  0  0  0  0  0  0  0  0  0  0  0  0  # atno 17394 bound_to 11000
  140.3896  134.7452  157.4713 LP  0  0  0  0  0  0  0  0  0  0  0  0  # atno 17395 bound_to 11000

$$$$
