AV-unprocessed.smi:3157|AV-procd|sdf|12037|dock1
  -GOLD-   2272017453D 1   1.00000     0.00000
 Structure written by MMmdl.
 40 41  0  0  0  0  0  0  0  0  2 V2000
  147.2910  142.0121  155.7215 C   0  0  0  0  0  0  0  0  0  0  0  0
  148.6418  141.2719  155.6791 C   0  0  2  0  0  0  0  0  0  0  0  0
  149.7445  142.2263  155.9435 N   0  3  0  0  0  0  0  0  0  0  0  0
  150.6823  141.8313  157.0148 C   0  0  0  0  0  0  0  0  0  0  0  0
  150.9592  143.0059  157.9665 C   0  0  0  0  0  0  0  0  0  0  0  0
  151.6999  144.1678  157.3008 C   0  0  0  0  0  0  0  0  0  0  0  0
  152.3010  144.9714  158.4590 C   0  0  0  0  0  0  0  0  0  0  0  0
  152.4215  143.9971  159.6407 C   0  0  0  0  0  0  0  0  0  0  0  0
  151.8669  142.6549  159.1499 C   0  0  0  0  0  0  0  0  0  0  0  0
  148.8852  140.5512  154.3273 C   0  0  2  0  0  0  0  0  0  0  0  0
  147.6578  139.7774  153.8103 C   0  0  0  0  0  0  0  0  0  0  0  0
  150.0308  139.6523  154.4218 N   0  0  0  0  0  0  0  0  0  0  0  0
  150.0831  138.2887  154.2083 C   0  0  0  0  0  0  0  0  0  0  0  0
  151.3644  137.8854  154.4522 C   0  0  0  0  0  0  0  0  0  0  0  0
  152.0316  139.0855  154.8236 C   0  0  0  0  0  0  0  0  0  0  0  0
  151.2292  140.1376  154.8148 N   0  0  0  0  0  0  0  0  0  0  0  0
  146.4518  141.3241  155.6228 H   0  0  0  0  0  0  0  0  0  0  0  0
  147.2166  142.7468  154.9191 H   0  0  0  0  0  0  0  0  0  0  0  0
  147.1486  142.5386  156.6648 H   0  0  0  0  0  0  0  0  0  0  0  0
  148.6477  140.5167  156.4669 H   0  0  0  0  0  0  0  0  0  0  0  0
  150.2831  142.3090  155.0924 H   0  0  0  0  0  0  0  0  0  0  0  0
  150.2870  140.9811  157.5707 H   0  0  0  0  0  0  0  0  0  0  0  0
  151.6179  141.5066  156.5573 H   0  0  0  0  0  0  0  0  0  0  0  0
  150.0126  143.3878  158.3535 H   0  0  0  0  0  0  0  0  0  0  0  0
  152.5047  143.7845  156.6714 H   0  0  0  0  0  0  0  0  0  0  0  0
  151.0483  144.7726  156.6695 H   0  0  0  0  0  0  0  0  0  0  0  0
  153.2636  145.4050  158.1859 H   0  0  0  0  0  0  0  0  0  0  0  0
  151.6380  145.7945  158.7283 H   0  0  0  0  0  0  0  0  0  0  0  0
  153.4520  143.8983  159.9837 H   0  0  0  0  0  0  0  0  0  0  0  0
  151.8320  144.3636  160.4820 H   0  0  0  0  0  0  0  0  0  0  0  0
  151.3403  142.1129  159.9361 H   0  0  0  0  0  0  0  0  0  0  0  0
  152.6921  142.0258  158.8130 H   0  0  0  0  0  0  0  0  0  0  0  0
  149.1234  141.3078  153.5767 H   0  0  0  0  0  0  0  0  0  0  0  0
  146.8390  140.4479  153.5509 H   0  0  0  0  0  0  0  0  0  0  0  0
  147.2872  139.0690  154.5517 H   0  0  0  0  0  0  0  0  0  0  0  0
  147.9026  139.2159  152.9078 H   0  0  0  0  0  0  0  0  0  0  0  0
  149.2145  137.7231  153.9041 H   0  0  0  0  0  0  0  0  0  0  0  0
  151.7642  136.8849  154.3784 H   0  0  0  0  0  0  0  0  0  0  0  0
  153.0661  139.2218  155.1024 H   0  0  0  0  0  0  0  0  0  0  0  0
  149.3505  143.1313  156.1573 H   0  0  0  0  0  0  0  0  0  0  0  0
  1  2  1  0  0  0  0
  1 17  1  0  0  0  0
  1 18  1  0  0  0  0
  1 19  1  0  0  0  0
  2  3  1  0  0  0  0
  2 10  1  0  0  0  0
  2 20  1  0  0  0  0
  3  4  1  0  0  0  0
  3 21  1  0  0  0  0
  3 40  1  0  0  0  0
  4  5  1  0  0  0  0
  4 22  1  0  0  0  0
  4 23  1  0  0  0  0
  5  9  1  0  0  0  0
  5  6  1  0  0  0  0
  5 24  1  0  0  0  0
  6  7  1  0  0  0  0
  6 25  1  0  0  0  0
  6 26  1  0  0  0  0
  7  8  1  0  0  0  0
  7 27  1  0  0  0  0
  7 28  1  0  0  0  0
  8  9  1  0  0  0  0
  8 29  1  0  0  0  0
  8 30  1  0  0  0  0
  9 31  1  0  0  0  0
  9 32  1  0  0  0  0
 10 11  1  0  0  0  0
 10 12  1  0  0  0  0
 10 33  1  0  0  0  0
 11 34  1  0  0  0  0
 11 35  1  0  0  0  0
 11 36  1  0  0  0  0
 12 16  1  0  0  0  0
 12 13  1  0  0  0  0
 13 14  2  0  0  0  0
 13 37  1  0  0  0  0
 14 15  1  0  0  0  0
 14 38  1  0  0  0  0
 15 16  2  0  0  0  0
 15 39  1  0  0  0  0
M  CHG  1   3   1
M  END
> <s_m_source_file>
AV-unprocessed.smi

> <i_m_source_file_index>
3157

> <i_lp_mmshare_version>
43012

> <i_f3d_flags>
0

> <s_epik_input>
bjFbY0hdW2NIXVtjSF1uMVtDQEBIXShbQ0gzXSlbQ0BIXShbQ0gzXSlbTkhdW0NIMl1bQ0hdMltDSDJdW0NIMl1bQ0gyXVtDSDJdMg==

> <s_epik_cmdline>
J2VwaWtfcHl0aG9uJywgJy1waCcsICc3LjAnLCAnLXRuJywgJzgnLCAnLW1hJywgJzIwMCcsICctbWV0YWxfYmluZGluZycsICctaW1hZScsICc8aW5maWxlLm1hZT4nLCAnLW9tYWUnLCAnPG91dGZpbGUubWFlPic=

> <r_lp_tautomer_probability>
1

> <r_epik_Ionization_Penalty>
0.00132192

> <r_epik_Ionization_Penalty_Charging>
0.0013111

> <r_epik_Ionization_Penalty_Neutral>
1.08112e-05

> <r_epik_State_Penalty>
-0

> <r_epik_Charging_Adjusted_Penalty>
0.0013111

> <i_epik_Tot_Q>
1

> <i_epik_Tot_abs_Q>
1

> <r_epik_Metal_State_Penalty>
-0

> <b_epik_Metal_Only>
0

> <s_lp_Force_Field>
OPLS_2005

> <r_lp_Energy>
31.0944

> <b_lp_Chiralities_Consistent>
1

> <s_lp_Variant>
AV-unprocessed.smi:3157-1

> <Gold.Version>
5.8.1

> <Gold.Id.Protein>
6NUR|6NUR_protein|mol2

> <Gold.PLP.Fitness>
49.6768

> <Gold.PLP.PLP>
-40.4519

> <Gold.PLP.part.hbond>
-2.0000

> <Gold.PLP.part.metal>
0.0000

> <Gold.PLP.part.buried>
-1.9817

> <Gold.PLP.part.nonpolar>
-37.2118

> <Gold.PLP.part.repulsive>
0.1821

> <Gold.PLP.ligand.clash>
0.0000

> <Gold.PLP.ligand.torsion>
1.2112

> <Gold.PLP.Chemscore.Hbond>
2.8340

> <Gold.PLP.Chemscore.CHOScore>
0.9910

> <Gold.PLP.Chemscore.Metal>
0.0000

> <Gold.Chemscore.Hbonds>
donor molecule, donor type, donor heavy atom, donor atom, acceptor molecule, acceptor atom, score
      L1  H     3    40       P1  8028  2.00
      P1  H  7989  7998       L1    16  0.95
      L1  C    13    37       P1  7948  0.94

> <Gold.PLP.Chemscore.Internal.Correction>
0.1723

> <Gold.Rescore>
     Score         DG    S(hbond)    S(metal)    S(lipo)     H(rot)  DE(clash)    DE(int)     intcor
     14.98     -19.09       1.28        0.00     112.76       1.50       0.27       3.84       ----

> <Gold.Chemscore.Fitness>
14.9774

> <Gold.Chemscore.DG>
-19.0861

> <Gold.Chemscore.ZeroCoef>
-5.4800

> <Gold.Chemscore.Hbond>
1.2768

> <Gold.Chemscore.Metal>
0.0000

> <Gold.Chemscore.Lipo>
112.7644

> <Gold.Chemscore.Internal_Hbond>
0.0000

> <Gold.Chemscore.DEClash>
0.2714

> <Gold.Chemscore.DEInternal>
3.8373

> <Gold.Chemscore.Rot>
1.5047

> <Gold.Chemscore.Internal.Correction>
   9.000000E+99

> <Gold.Chemscore.Hbonds>
donor molecule, donor type, donor heavy atom, donor atom, acceptor molecule, acceptor atom, score
      L1  H     3    40       P1  8028  0.94
      P1  H  7989  7998       L1    16  0.08

> <Gold.Chemscore.Hbond.Weighted>
-4.2646

> <Gold.Chemscore.Metal.Weighted>
-0.0000

> <Gold.Chemscore.Lipo.Weighted>
-13.1934

> <Gold.Chemscore.Internal_Hbond.Weighted>
0.0000

> <Gold.Chemscore.DEClash.Weighted>
0.2714

> <Gold.Chemscore.DEInternal.Weighted>
3.8373

> <Gold.Chemscore.Rot.Weighted>
3.8520

> <Gold.Chemscore.Internal.Correction.Weighted>
   9.000000E+99

> <Gold.Protein.RotatedTorsions>
[ 6907 6896 6895 6894 ] final  -90.52 input  -60.11 | X-H torsion
[ 7974 7965 7964 7962 ] final   93.89 input  175.53 | X-H torsion
[ 8008 7997 7996 7995 ] final   -7.46 input   59.86 | X-H torsion
[ 10167 10162 10161 10158 ] final   99.00 input  -65.29 | X-H torsion
[ 10718 10713 10712 10709 ] final   -1.06 input   66.30 | X-H torsion
[ 10763 10752 10751 10750 ] final  159.47 input  -60.55 | X-H torsion
[ 11005 11000 10999 10996 ] final  117.84 input  -57.11 | X-H torsion

> <Gold.Protein.ActiveResidues>
 VAL166  LYS551  ARG553  GLY616  TRP617  ASP618  TYR619  PRO620  LYS621  CYS622 
 ASP623  PHE694  ASN695  SER759  ASP760  ASP761  ALA762  ILE779  LEU786  VAL792 
 PHE793  MET794  SER795  GLU796  ALA797  LYS798  CYS799  TRP800  GLU811  SER814 

> <Gold.Protein.RotatedAtoms>
  150.6883  134.2418  159.4475 H   0  0  0  0  0  0  0  0  0  0  0  0  # atno 6907 bound_to 6896
  152.0362  134.9736  160.0582 H   0  0  0  0  0  0  0  0  0  0  0  0  # atno 6908 bound_to 6896
  152.1256  133.4343  159.4733 H   0  0  0  0  0  0  0  0  0  0  0  0  # atno 6909 bound_to 6896
  145.4729  139.2281  143.2925 H   0  0  0  0  0  0  0  0  0  0  0  0  # atno 7974 bound_to 7965
  154.5836  140.2406  155.8019 H   0  0  0  0  0  0  0  0  0  0  0  0  # atno 8008 bound_to 7997
  156.2197  140.3001  155.9879 H   0  0  0  0  0  0  0  0  0  0  0  0  # atno 8009 bound_to 7997
  155.2497  140.0410  157.2975 H   0  0  0  0  0  0  0  0  0  0  0  0  # atno 8010 bound_to 7997
  139.7657  144.6939  151.0228 H   0  0  0  0  0  0  0  0  0  0  0  0  # atno 10167 bound_to 10162
  156.8111  130.5425  149.5708 H   0  0  0  0  0  0  0  0  0  0  0  0  # atno 10718 bound_to 10713
  154.2323  135.2778  155.2885 H   0  0  0  0  0  0  0  0  0  0  0  0  # atno 10763 bound_to 10752
  154.5614  135.5646  153.7014 H   0  0  0  0  0  0  0  0  0  0  0  0  # atno 10764 bound_to 10752
  153.0017  135.6299  154.2465 H   0  0  0  0  0  0  0  0  0  0  0  0  # atno 10765 bound_to 10752
  139.9088  134.9614  156.7412 H   0  0  0  0  0  0  0  0  0  0  0  0  # atno 11005 bound_to 11000
  146.2386  140.5509  142.8944 LP  0  0  0  0  0  0  0  0  0  0  0  0  # atno 17320 bound_to 7965
  144.7934  140.6076  143.6526 LP  0  0  0  0  0  0  0  0  0  0  0  0  # atno 17321 bound_to 7965
  140.7810  143.4645  151.0231 LP  0  0  0  0  0  0  0  0  0  0  0  0  # atno 17342 bound_to 10162
  139.8330  143.7665  152.3180 LP  0  0  0  0  0  0  0  0  0  0  0  0  # atno 17343 bound_to 10162
  156.1044  130.5993  150.9946 LP  0  0  0  0  0  0  0  0  0  0  0  0  # atno 17370 bound_to 10713
  157.6505  131.0897  150.8061 LP  0  0  0  0  0  0  0  0  0  0  0  0  # atno 17371 bound_to 10713
  140.6848  133.9443  155.7931 LP  0  0  0  0  0  0  0  0  0  0  0  0  # atno 17394 bound_to 11000
  141.0484  134.0520  157.3814 LP  0  0  0  0  0  0  0  0  0  0  0  0  # atno 17395 bound_to 11000

$$$$
