AV-unprocessed.smi:2021|AV-procd|sdf|8175|dock3
  -GOLD-   2272010423D 1   1.00000     0.00000
 Structure written by MMmdl.
 42 43  0  0  0  0  0  0  0  0  2 V2000
  142.1717  138.3374  153.0928 C   0  0  0  0  0  0  0  0  0  0  0  0
  143.4336  137.7160  152.4758 C   0  0  0  0  0  0  0  0  0  0  0  0
  143.1601  136.2665  152.0408 C   0  0  0  0  0  0  0  0  0  0  0  0
  144.6200  137.8055  153.4601 C   0  0  0  0  0  0  0  0  0  0  0  0
  145.0846  139.1985  153.6858 N   0  3  1  0  0  0  0  0  0  0  0  0
  144.5581  139.8045  154.9338 C   0  0  0  0  0  0  0  0  0  0  0  0
  145.0520  141.2528  155.0767 C   0  0  0  0  0  0  0  0  0  0  0  0
  146.4731  141.2747  155.0464 O   0  0  0  0  0  0  0  0  0  0  0  0
  146.9961  140.7893  153.8150 C   0  0  1  0  0  0  0  0  0  0  0  0
  148.5259  140.9700  153.8603 C   0  0  0  0  0  0  0  0  0  0  0  0
  148.9623  141.8705  154.9231 N   0  0  0  0  0  0  0  0  0  0  0  0
  149.8439  141.5557  155.8829 C   0  0  0  0  0  0  0  0  0  0  0  0
  150.3635  140.4444  155.9849 O   0  0  0  0  0  0  0  0  0  0  0  0
  150.0728  142.6009  156.6973 N   0  0  0  0  0  0  0  0  0  0  0  0
  150.9364  142.6670  157.8229 C   0  0  0  0  0  0  0  0  0  0  0  0
  151.1751  141.6292  158.6397 N   0  0  0  0  0  0  0  0  0  0  0  0
  152.0547  141.9641  159.6612 N   0  0  0  0  0  0  0  0  0  0  0  0
  152.4435  143.2395  159.5750 C   0  0  0  0  0  0  0  0  0  0  0  0
  151.7723  144.1568  158.2377 S   0  0  0  0  0  0  0  0  0  0  0  0
  146.5615  139.3186  153.6354 C   0  0  0  0  0  0  0  0  0  0  0  0
  141.8673  137.8067  153.9955 H   0  0  0  0  0  0  0  0  0  0  0  0
  141.3358  138.3092  152.3928 H   0  0  0  0  0  0  0  0  0  0  0  0
  142.3377  139.3814  153.3607 H   0  0  0  0  0  0  0  0  0  0  0  0
  143.6627  138.2971  151.5829 H   0  0  0  0  0  0  0  0  0  0  0  0
  142.9097  135.6368  152.8956 H   0  0  0  0  0  0  0  0  0  0  0  0
  144.0259  135.8264  151.5459 H   0  0  0  0  0  0  0  0  0  0  0  0
  142.3266  136.2187  151.3392 H   0  0  0  0  0  0  0  0  0  0  0  0
  144.3600  137.3556  154.4197 H   0  0  0  0  0  0  0  0  0  0  0  0
  145.4409  137.2081  153.0599 H   0  0  0  0  0  0  0  0  0  0  0  0
  143.4688  139.7962  154.9360 H   0  0  0  0  0  0  0  0  0  0  0  0
  144.8841  139.2161  155.7929 H   0  0  0  0  0  0  0  0  0  0  0  0
  144.6470  141.8846  154.2846 H   0  0  0  0  0  0  0  0  0  0  0  0
  144.7137  141.6738  156.0236 H   0  0  0  0  0  0  0  0  0  0  0  0
  146.5890  141.3924  153.0014 H   0  0  0  0  0  0  0  0  0  0  0  0
  149.0143  140.0019  153.9827 H   0  0  0  0  0  0  0  0  0  0  0  0
  148.8793  141.3724  152.9107 H   0  0  0  0  0  0  0  0  0  0  0  0
  148.5843  142.8067  154.9104 H   0  0  0  0  0  0  0  0  0  0  0  0
  149.5778  143.4539  156.4828 H   0  0  0  0  0  0  0  0  0  0  0  0
  153.1300  143.6433  160.3043 H   0  0  0  0  0  0  0  0  0  0  0  0
  147.0053  138.6950  154.4132 H   0  0  0  0  0  0  0  0  0  0  0  0
  146.9199  138.9414  152.6767 H   0  0  0  0  0  0  0  0  0  0  0  0
  144.7318  139.7485  152.9155 H   0  0  0  0  0  0  0  0  0  0  0  0
  1  2  1  0  0  0  0
  1 21  1  0  0  0  0
  1 22  1  0  0  0  0
  1 23  1  0  0  0  0
  2  3  1  0  0  0  0
  2  4  1  0  0  0  0
  2 24  1  0  0  0  0
  3 25  1  0  0  0  0
  3 26  1  0  0  0  0
  3 27  1  0  0  0  0
  4  5  1  0  0  0  0
  4 28  1  0  0  0  0
  4 29  1  0  0  0  0
  5 20  1  0  0  0  0
  5  6  1  0  0  0  0
  5 42  1  0  0  0  0
  6  7  1  0  0  0  0
  6 30  1  0  0  0  0
  6 31  1  0  0  0  0
  7  8  1  0  0  0  0
  7 32  1  0  0  0  0
  7 33  1  0  0  0  0
  8  9  1  0  0  0  0
  9 10  1  0  0  0  0
  9 20  1  0  0  0  0
  9 34  1  0  0  0  0
 10 11  1  0  0  0  0
 10 35  1  0  0  0  0
 10 36  1  0  0  0  0
 11 12  1  0  0  0  0
 11 37  1  0  0  0  0
 12 13  2  0  0  0  0
 12 14  1  0  0  0  0
 14 15  1  0  0  0  0
 14 38  1  0  0  0  0
 15 19  1  0  0  0  0
 15 16  2  0  0  0  0
 16 17  1  0  0  0  0
 17 18  2  0  0  0  0
 18 19  1  0  0  0  0
 18 39  1  0  0  0  0
 20 40  1  0  0  0  0
 20 41  1  0  0  0  0
M  CHG  1   5   1
M  END
> <s_m_source_file>
AV-unprocessed.smi

> <i_m_source_file_index>
2021

> <i_lp_mmshare_version>
43012

> <i_f3d_flags>
0

> <s_epik_input>
W0NIM11bQ0hdKFtDSDNdKVtDSDJdTjFbQ0gyXVtDSDJdT1tDQEhdKFtDSDJdMSlbQ0gyXVtOSF1DKD1PKVtOSF1jMm5uW2NIXXMy

> <s_epik_cmdline>
J2VwaWtfcHl0aG9uJywgJy1waCcsICc3LjAnLCAnLXRuJywgJzgnLCAnLW1hJywgJzIwMCcsICctbWV0YWxfYmluZGluZycsICctaW1hZScsICc8aW5maWxlLm1hZT4nLCAnLW9tYWUnLCAnPG91dGZpbGUubWFlPic=

> <r_lp_tautomer_probability>
1

> <r_epik_Ionization_Penalty>
0.102019

> <r_epik_Ionization_Penalty_Charging>
0.098413

> <r_epik_Ionization_Penalty_Neutral>
0.00360555

> <r_epik_State_Penalty>
0.0884988

> <r_epik_Charging_Adjusted_Penalty>
0.186912

> <i_epik_Tot_Q>
1

> <i_epik_Tot_abs_Q>
1

> <r_epik_Metal_State_Penalty>
0.454709

> <b_epik_Metal_Only>
0

> <s_lp_Force_Field>
OPLS_2005

> <r_lp_Energy>
17.0767

> <b_lp_Chiralities_Consistent>
1

> <s_lp_Variant>
AV-unprocessed.smi:2021-1

> <Gold.Version>
5.8.1

> <Gold.Id.Protein>
6NUR|6NUR_protein|mol2

> <Gold.PLP.Fitness>
43.2952

> <Gold.PLP.PLP>
-32.7559

> <Gold.PLP.part.hbond>
-4.0000

> <Gold.PLP.part.metal>
0.0000

> <Gold.PLP.part.buried>
-0.6249

> <Gold.PLP.part.nonpolar>
-26.1643

> <Gold.PLP.part.repulsive>
0.4330

> <Gold.PLP.ligand.clash>
0.0000

> <Gold.PLP.ligand.torsion>
1.5138

> <Gold.PLP.Chemscore.Hbond>
4.5090

> <Gold.PLP.Chemscore.CHOScore>
0.0000

> <Gold.PLP.Chemscore.Metal>
0.0000

> <Gold.Chemscore.Hbonds>
donor molecule, donor type, donor heavy atom, donor atom, acceptor molecule, acceptor atom, score
      L1  H     5    42       P1 10175  0.99
      L1  H    11    37       P1  8028  0.82
      L1  H    14    38       P1  8028  1.00

> <Gold.PLP.Chemscore.Internal.Correction>
0.0398

> <Gold.Rescore>
     Score         DG    S(hbond)    S(metal)    S(lipo)     H(rot)  DE(clash)    DE(int)     intcor
     14.58     -17.37       2.94        0.00      58.85       1.88       0.00       2.79       ----

> <Gold.Chemscore.Fitness>
14.5810

> <Gold.Chemscore.DG>
-17.3720

> <Gold.Chemscore.ZeroCoef>
-5.4800

> <Gold.Chemscore.Hbond>
2.9407

> <Gold.Chemscore.Metal>
0.0000

> <Gold.Chemscore.Lipo>
58.8549

> <Gold.Chemscore.Internal_Hbond>
0.0000

> <Gold.Chemscore.DEClash>
0.0030

> <Gold.Chemscore.DEInternal>
2.7879

> <Gold.Chemscore.Rot>
1.8812

> <Gold.Chemscore.Internal.Correction>
   9.000000E+99

> <Gold.Chemscore.Hbonds>
donor molecule, donor type, donor heavy atom, donor atom, acceptor molecule, acceptor atom, score
      L1  H     5    42       P1 10175  0.48
      L1  H    11    37       P1  8028  0.77
      L1  H    14    38       P1  8028  1.00

> <Gold.Chemscore.Hbond.Weighted>
-9.8219

> <Gold.Chemscore.Metal.Weighted>
-0.0000

> <Gold.Chemscore.Lipo.Weighted>
-6.8860

> <Gold.Chemscore.Internal_Hbond.Weighted>
0.0000

> <Gold.Chemscore.DEClash.Weighted>
0.0030

> <Gold.Chemscore.DEInternal.Weighted>
2.7879

> <Gold.Chemscore.Rot.Weighted>
4.8159

> <Gold.Chemscore.Internal.Correction.Weighted>
   9.000000E+99

> <Gold.Protein.RotatedTorsions>
[ 6907 6896 6895 6894 ] final -158.31 input  -60.11 | X-H torsion
[ 7974 7965 7964 7962 ] final -117.85 input  175.53 | X-H torsion
[ 8008 7997 7996 7995 ] final   24.34 input   59.86 | X-H torsion
[ 10167 10162 10161 10158 ] final  154.27 input  -65.29 | X-H torsion
[ 10718 10713 10712 10709 ] final  131.11 input   66.30 | X-H torsion
[ 10763 10752 10751 10750 ] final  -34.01 input  -60.55 | X-H torsion
[ 11005 11000 10999 10996 ] final   87.50 input  -57.11 | X-H torsion

> <Gold.Protein.ActiveResidues>
 VAL166  LYS551  ARG553  GLY616  TRP617  ASP618  TYR619  PRO620  LYS621  CYS622 
 ASP623  PHE694  ASN695  SER759  ASP760  ASP761  ALA762  ILE779  LEU786  VAL792 
 PHE793  MET794  SER795  GLU796  ALA797  LYS798  CYS799  TRP800  GLU811  SER814 

> <Gold.Protein.RotatedAtoms>
  151.3162  133.4059  159.2650 H   0  0  0  0  0  0  0  0  0  0  0  0  # atno 6907 bound_to 6896
  151.0072  134.9369  159.7997 H   0  0  0  0  0  0  0  0  0  0  0  0  # atno 6908 bound_to 6896
  152.5291  134.3127  159.9172 H   0  0  0  0  0  0  0  0  0  0  0  0  # atno 6909 bound_to 6896
  145.0805  140.8422  143.4042 H   0  0  0  0  0  0  0  0  0  0  0  0  # atno 7974 bound_to 7965
  154.9948  140.3118  155.4891 H   0  0  0  0  0  0  0  0  0  0  0  0  # atno 8008 bound_to 7997
  156.2934  140.2242  156.4996 H   0  0  0  0  0  0  0  0  0  0  0  0  # atno 8009 bound_to 7997
  154.7671  140.0455  157.1009 H   0  0  0  0  0  0  0  0  0  0  0  0  # atno 8010 bound_to 7997
  139.4824  144.5201  151.7889 H   0  0  0  0  0  0  0  0  0  0  0  0  # atno 10167 bound_to 10162
  157.4999  131.1094  150.9441 H   0  0  0  0  0  0  0  0  0  0  0  0  # atno 10718 bound_to 10713
  153.8397  135.6858  153.4804 H   0  0  0  0  0  0  0  0  0  0  0  0  # atno 10763 bound_to 10752
  153.1461  135.4637  154.9566 H   0  0  0  0  0  0  0  0  0  0  0  0  # atno 10764 bound_to 10752
  154.7850  135.3282  154.7852 H   0  0  0  0  0  0  0  0  0  0  0  0  # atno 10765 bound_to 10752
  139.8918  134.8426  156.2868 H   0  0  0  0  0  0  0  0  0  0  0  0  # atno 11005 bound_to 11000
  145.1184  139.2710  143.5601 LP  0  0  0  0  0  0  0  0  0  0  0  0  # atno 17320 bound_to 7965
  146.3531  140.0800  142.8618 LP  0  0  0  0  0  0  0  0  0  0  0  0  # atno 17321 bound_to 7965
  140.4714  144.1581  150.5918 LP  0  0  0  0  0  0  0  0  0  0  0  0  # atno 17342 bound_to 10162
  140.4378  143.2540  151.9513 LP  0  0  0  0  0  0  0  0  0  0  0  0  # atno 17343 bound_to 10162
  157.0116  130.5639  149.5321 LP  0  0  0  0  0  0  0  0  0  0  0  0  # atno 17370 bound_to 10713
  156.0223  130.5317  150.8309 LP  0  0  0  0  0  0  0  0  0  0  0  0  # atno 17371 bound_to 10713
  141.0002  133.7156  156.0949 LP  0  0  0  0  0  0  0  0  0  0  0  0  # atno 17394 bound_to 11000
  140.7508  134.4047  157.5541 LP  0  0  0  0  0  0  0  0  0  0  0  0  # atno 17395 bound_to 11000

$$$$
