AV-unprocessed.smi:290|AV-procd|sdf|2221|dock5
  -GOLD-   2262022 63D 1   1.00000     0.00000
 Structure written by MMmdl.
 59 62  0  0  0  0  0  0  0  0  2 V2000
  150.1100  138.2634  155.0248 C   0  0  0  0  0  0  0  0  0  0  0  0
  150.0754  139.7082  154.4984 C   0  0  2  0  0  0  0  0  0  0  0  0
  151.2793  140.3898  154.8497 O   0  0  0  0  0  0  0  0  0  0  0  0
  150.9797  141.5324  155.6370 C   0  0  0  0  0  0  0  0  0  0  0  0
  149.5862  141.9413  155.1794 C   0  0  0  0  0  0  0  0  0  0  0  0
  148.8996  140.5993  154.9733 C   0  0  2  0  0  0  0  0  0  0  0  0
  148.4027  140.1632  156.2293 O   0  0  0  0  0  0  0  0  0  0  0  0
  147.7159  140.6878  153.9804 C   0  0  0  0  0  0  0  0  0  0  0  0
  147.0424  139.4170  153.7629 N   0  0  0  0  0  0  0  0  0  0  0  0
  147.1180  138.6252  152.6381 C   0  0  0  0  0  0  0  0  0  0  0  0
  146.4210  137.5221  152.6835 N   0  0  0  0  0  0  0  0  0  0  0  0
  145.8235  137.5560  153.9361 C   0  0  0  0  0  0  0  0  0  0  0  0
  144.9535  136.6807  154.6357 C   0  0  0  0  0  0  0  0  0  0  0  0
  144.5302  135.5169  154.0924 N   0  0  0  0  0  0  0  0  0  0  0  0
  145.5744  134.5236  153.9302 C   0  0  0  0  0  0  0  0  0  0  0  0
  145.0279  133.5082  152.9253 C   0  0  0  0  0  0  0  0  0  0  0  0
  143.7688  134.1496  152.3040 C   0  0  2  0  0  0  0  0  0  0  0  0
  143.7453  133.9667  150.8176 N   0  3  1  0  0  0  0  0  0  0  0  0
  144.7393  134.8520  150.1565 C   0  0  0  0  0  0  0  0  0  0  0  0
  143.8399  132.5556  150.3454 C   0  0  0  0  0  0  0  0  0  0  0  0
  145.2266  132.1662  149.7983 C   0  0  0  0  0  0  0  0  0  0  0  0
  145.1688  131.9836  148.3991 O   0  0  0  0  0  0  0  0  0  0  0  0
  143.8147  135.6064  152.8250 C   0  0  1  0  0  0  0  0  0  0  0  0
  142.4273  136.2475  153.0527 C   0  0  0  0  0  0  0  0  0  0  0  0
  144.5578  137.0393  155.8858 N   0  0  0  0  0  0  0  0  0  0  0  0
  144.9921  138.1860  156.4182 C   0  0  0  0  0  0  0  0  0  0  0  0
  145.8108  139.0964  155.8859 N   0  0  0  0  0  0  0  0  0  0  0  0
  146.2050  138.7373  154.6304 C   0  0  0  0  0  0  0  0  0  0  0  0
  142.8879  133.6659  152.7312 H   0  0  0  0  0  0  0  0  0  0  0  0
  144.4001  136.2171  152.1360 H   0  0  0  0  0  0  0  0  0  0  0  0
  149.1926  137.7285  154.7800 H   0  0  0  0  0  0  0  0  0  0  0  0
  150.2399  138.2336  156.1067 H   0  0  0  0  0  0  0  0  0  0  0  0
  150.9401  137.7137  154.5811 H   0  0  0  0  0  0  0  0  0  0  0  0
  150.0754  139.6756  153.4090 H   0  0  0  0  0  0  0  0  0  0  0  0
  150.9733  141.2504  156.6908 H   0  0  0  0  0  0  0  0  0  0  0  0
  151.7191  142.3213  155.4978 H   0  0  0  0  0  0  0  0  0  0  0  0
  149.0754  142.5936  155.8890 H   0  0  0  0  0  0  0  0  0  0  0  0
  149.6655  142.4767  154.2320 H   0  0  0  0  0  0  0  0  0  0  0  0
  147.8751  139.3917  156.0920 H   0  0  0  0  0  0  0  0  0  0  0  0
  146.9780  141.4095  154.3337 H   0  0  0  0  0  0  0  0  0  0  0  0
  148.0620  141.0581  153.0146 H   0  0  0  0  0  0  0  0  0  0  0  0
  147.7086  138.8958  151.7750 H   0  0  0  0  0  0  0  0  0  0  0  0
  146.4899  134.9791  153.5488 H   0  0  0  0  0  0  0  0  0  0  0  0
  145.8071  134.0518  154.8855 H   0  0  0  0  0  0  0  0  0  0  0  0
  145.7937  133.2847  152.1811 H   0  0  0  0  0  0  0  0  0  0  0  0
  144.7713  132.5705  153.4197 H   0  0  0  0  0  0  0  0  0  0  0  0
  145.7528  134.4771  150.3045 H   0  0  0  0  0  0  0  0  0  0  0  0
  144.7014  135.8685  150.5475 H   0  0  0  0  0  0  0  0  0  0  0  0
  144.5542  134.9344  149.0865 H   0  0  0  0  0  0  0  0  0  0  0  0
  143.5651  131.8862  151.1616 H   0  0  0  0  0  0  0  0  0  0  0  0
  143.1329  132.3825  149.5360 H   0  0  0  0  0  0  0  0  0  0  0  0
  145.9959  132.8948  150.0505 H   0  0  0  0  0  0  0  0  0  0  0  0
  145.5445  131.2249  150.2474 H   0  0  0  0  0  0  0  0  0  0  0  0
  145.4384  132.7855  147.9765 H   0  0  0  0  0  0  0  0  0  0  0  0
  141.8227  136.2918  152.1500 H   0  0  0  0  0  0  0  0  0  0  0  0
  142.5227  137.2704  153.4181 H   0  0  0  0  0  0  0  0  0  0  0  0
  141.8559  135.6889  153.7951 H   0  0  0  0  0  0  0  0  0  0  0  0
  144.6334  138.4055  157.4131 H   0  0  0  0  0  0  0  0  0  0  0  0
  142.8344  134.2866  150.5200 H   0  0  0  0  0  0  0  0  0  0  0  0
  1  2  1  0  0  0  0
  1 31  1  0  0  0  0
  1 32  1  0  0  0  0
  1 33  1  0  0  0  0
  2  6  1  0  0  0  0
  2  3  1  0  0  0  0
  2 34  1  0  0  0  0
  3  4  1  0  0  0  0
  4  5  1  0  0  0  0
  4 35  1  0  0  0  0
  4 36  1  0  0  0  0
  5  6  1  0  0  0  0
  5 37  1  0  0  0  0
  5 38  1  0  0  0  0
  6  7  1  0  0  0  0
  6  8  1  0  0  0  0
  7 39  1  0  0  0  0
  8  9  1  0  0  0  0
  8 40  1  0  0  0  0
  8 41  1  0  0  0  0
  9 28  1  0  0  0  0
  9 10  1  0  0  0  0
 10 11  2  0  0  0  0
 10 42  1  0  0  0  0
 11 12  1  0  0  0  0
 12 28  2  0  0  0  0
 12 13  1  0  0  0  0
 13 14  1  0  0  0  0
 13 25  2  0  0  0  0
 14 23  1  0  0  0  0
 14 15  1  0  0  0  0
 15 16  1  0  0  0  0
 15 43  1  0  0  0  0
 15 44  1  0  0  0  0
 16 17  1  0  0  0  0
 16 45  1  0  0  0  0
 16 46  1  0  0  0  0
 17 29  1  0  0  0  0
 17 18  1  0  0  0  0
 17 23  1  0  0  0  0
 18 19  1  0  0  0  0
 18 20  1  0  0  0  0
 18 59  1  0  0  0  0
 19 47  1  0  0  0  0
 19 48  1  0  0  0  0
 19 49  1  0  0  0  0
 20 21  1  0  0  0  0
 20 50  1  0  0  0  0
 20 51  1  0  0  0  0
 21 22  1  0  0  0  0
 21 52  1  0  0  0  0
 21 53  1  0  0  0  0
 22 54  1  0  0  0  0
 23 30  1  0  0  0  0
 23 24  1  0  0  0  0
 24 55  1  0  0  0  0
 24 56  1  0  0  0  0
 24 57  1  0  0  0  0
 25 26  1  0  0  0  0
 26 27  2  0  0  0  0
 26 58  1  0  0  0  0
 27 28  1  0  0  0  0
M  CHG  1  18   1
M  END
> <s_m_source_file>
AV-unprocessed.smi

> <i_m_source_file_index>
290

> <i_lp_mmshare_version>
43012

> <i_f3d_flags>
0

> <s_epik_input>
W0NIMl0xW0NIMl1PW0NAQEhdKFtDSDNdKVtDQEBdMShbT0hdKVtDSDJdbihbY0hdbjIpYyhjMjMpbltjSF1uYzNONFtDSDJdW0NIMl1bQ0BIXShbQ0BIXTRbQ0gzXSlOKFtDSDNdKVtDSDJdW0NIMl1bT0hd

> <s_epik_cmdline>
J2VwaWtfcHl0aG9uJywgJy1waCcsICc3LjAnLCAnLXRuJywgJzgnLCAnLW1hJywgJzIwMCcsICctbWV0YWxfYmluZGluZycsICctaW1hZScsICc8aW5maWxlLm1hZT4nLCAnLW9tYWUnLCAnPG91dGZpbGUubWFlPic=

> <r_lp_tautomer_probability>
1

> <r_epik_Ionization_Penalty>
0.0036983

> <r_epik_Ionization_Penalty_Charging>
0.0032725

> <r_epik_Ionization_Penalty_Neutral>
0.000425798

> <r_epik_State_Penalty>
-0

> <r_epik_Charging_Adjusted_Penalty>
0.0032725

> <i_epik_Tot_Q>
1

> <i_epik_Tot_abs_Q>
1

> <r_epik_Metal_State_Penalty>
-0

> <b_epik_Metal_Only>
0

> <s_lp_Force_Field>
OPLS_2005

> <r_lp_Energy>
65.2566

> <b_lp_Chiralities_Consistent>
1

> <s_lp_Variant>
AV-unprocessed.smi:290-7

> <Gold.Version>
5.8.1

> <Gold.Id.Protein>
6NUR|6NUR_protein|mol2

> <Gold.PLP.Fitness>
47.5639

> <Gold.PLP.PLP>
-34.7724

> <Gold.PLP.part.hbond>
-4.1343

> <Gold.PLP.part.metal>
0.0000

> <Gold.PLP.part.buried>
-0.3217

> <Gold.PLP.part.nonpolar>
-28.3186

> <Gold.PLP.part.repulsive>
0.4166

> <Gold.PLP.ligand.clash>
0.0000

> <Gold.PLP.ligand.torsion>
1.2391

> <Gold.PLP.Chemscore.Hbond>
4.0000

> <Gold.PLP.Chemscore.CHOScore>
1.0000

> <Gold.PLP.Chemscore.Metal>
0.0000

> <Gold.Chemscore.Hbonds>
donor molecule, donor type, donor heavy atom, donor atom, acceptor molecule, acceptor atom, score
      L1  H    18    59       P1 10186  1.82
      L1  H    22    54       P1  7921  0.26
      P1  H  7989  7998       L1     3  0.78
      L1  C    10    42       P1  7948  0.01
      L1  C    10    42       P1  7957  1.00

> <Gold.PLP.Chemscore.Internal.Correction>
0.2698

> <Gold.Rescore>
     Score         DG    S(hbond)    S(metal)    S(lipo)     H(rot)  DE(clash)    DE(int)     intcor
      6.35      -8.65       0.88        0.00      82.30       3.67       0.08       2.22       ----

> <Gold.Chemscore.Fitness>
6.3507

> <Gold.Chemscore.DG>
-8.6491

> <Gold.Chemscore.ZeroCoef>
-5.4800

> <Gold.Chemscore.Hbond>
0.8754

> <Gold.Chemscore.Metal>
0.0000

> <Gold.Chemscore.Lipo>
82.3036

> <Gold.Chemscore.Internal_Hbond>
0.0000

> <Gold.Chemscore.DEClash>
0.0778

> <Gold.Chemscore.DEInternal>
2.2206

> <Gold.Chemscore.Rot>
3.6658

> <Gold.Chemscore.Internal.Correction>
   9.000000E+99

> <Gold.Chemscore.Hbonds>
donor molecule, donor type, donor heavy atom, donor atom, acceptor molecule, acceptor atom, score
      L1  H    18    59       P1 10186  0.61
      L1  H    22    54       P1  7921  0.01
      P1  H  7989  7998       L1     3  0.09

> <Gold.Chemscore.Hbond.Weighted>
-2.9240

> <Gold.Chemscore.Metal.Weighted>
-0.0000

> <Gold.Chemscore.Lipo.Weighted>
-9.6295

> <Gold.Chemscore.Internal_Hbond.Weighted>
0.0000

> <Gold.Chemscore.DEClash.Weighted>
0.0778

> <Gold.Chemscore.DEInternal.Weighted>
2.2206

> <Gold.Chemscore.Rot.Weighted>
9.3844

> <Gold.Chemscore.Internal.Correction.Weighted>
   9.000000E+99

> <Gold.Protein.RotatedTorsions>
[ 6907 6896 6895 6894 ] final   75.16 input  -60.11 | X-H torsion
[ 7974 7965 7964 7962 ] final  -45.95 input  175.53 | X-H torsion
[ 8008 7997 7996 7995 ] final  -15.39 input   59.86 | X-H torsion
[ 10167 10162 10161 10158 ] final   54.40 input  -65.29 | X-H torsion
[ 10718 10713 10712 10709 ] final   48.62 input   66.30 | X-H torsion
[ 10763 10752 10751 10750 ] final  175.54 input  -60.55 | X-H torsion
[ 11005 11000 10999 10996 ] final  165.12 input  -57.11 | X-H torsion

> <Gold.Protein.ActiveResidues>
 VAL166  LYS551  ARG553  GLY616  TRP617  ASP618  TYR619  PRO620  LYS621  CYS622 
 ASP623  PHE694  ASN695  SER759  ASP760  ASP761  ALA762  ILE779  LEU786  VAL792 
 PHE793  MET794  SER795  GLU796  ALA797  LYS798  CYS799  TRP800  GLU811  SER814 

> <Gold.Protein.RotatedAtoms>
  152.5012  134.4163  159.9465 H   0  0  0  0  0  0  0  0  0  0  0  0  # atno 6907 bound_to 6896
  151.4133  133.3714  159.2754 H   0  0  0  0  0  0  0  0  0  0  0  0  # atno 6908 bound_to 6896
  150.9275  134.8714  159.7589 H   0  0  0  0  0  0  0  0  0  0  0  0  # atno 6909 bound_to 6896
  145.9769  140.7325  142.9383 H   0  0  0  0  0  0  0  0  0  0  0  0  # atno 7974 bound_to 7965
  154.5134  140.2197  155.9112 H   0  0  0  0  0  0  0  0  0  0  0  0  # atno 8008 bound_to 7997
  156.1579  140.3148  155.8724 H   0  0  0  0  0  0  0  0  0  0  0  0  # atno 8009 bound_to 7997
  155.3809  140.0472  157.3034 H   0  0  0  0  0  0  0  0  0  0  0  0  # atno 8010 bound_to 7997
  140.2305  144.3691  150.6416 H   0  0  0  0  0  0  0  0  0  0  0  0  # atno 10167 bound_to 10162
  157.4705  130.8252  149.7983 H   0  0  0  0  0  0  0  0  0  0  0  0  # atno 10718 bound_to 10713
  154.4690  135.2770  155.1656 H   0  0  0  0  0  0  0  0  0  0  0  0  # atno 10763 bound_to 10752
  154.3413  135.6169  153.5601 H   0  0  0  0  0  0  0  0  0  0  0  0  # atno 10764 bound_to 10752
  152.9862  135.5789  154.5068 H   0  0  0  0  0  0  0  0  0  0  0  0  # atno 10765 bound_to 10752
  140.2528  134.7963  157.3518 H   0  0  0  0  0  0  0  0  0  0  0  0  # atno 11005 bound_to 11000
  144.6851  140.2842  143.7287 LP  0  0  0  0  0  0  0  0  0  0  0  0  # atno 17320 bound_to 7965
  145.7826  139.1897  143.2149 LP  0  0  0  0  0  0  0  0  0  0  0  0  # atno 17321 bound_to 7965
  140.6188  143.2174  151.6736 LP  0  0  0  0  0  0  0  0  0  0  0  0  # atno 17342 bound_to 10162
  139.5111  144.3519  152.0644 LP  0  0  0  0  0  0  0  0  0  0  0  0  # atno 17343 bound_to 10162
  156.0071  130.3850  150.2393 LP  0  0  0  0  0  0  0  0  0  0  0  0  # atno 17370 bound_to 10713
  157.0575  131.0080  151.3233 LP  0  0  0  0  0  0  0  0  0  0  0  0  # atno 17371 bound_to 10713
  140.1541  134.4812  155.7940 LP  0  0  0  0  0  0  0  0  0  0  0  0  # atno 17394 bound_to 11000
  141.2199  133.6874  156.7429 LP  0  0  0  0  0  0  0  0  0  0  0  0  # atno 17395 bound_to 11000

$$$$
