#       Name:                AV-unprocessed.smi:137
#       Creating user name   scv26
#       Creation time:       Thu Mar 26 18:32:46 2020


#       File generated by GOLD software.
#

@<TRIPOS>MOLECULE
AV-unprocessed.smi:137
    58    61     1
SMALL
NO_CHARGES


@<TRIPOS>ATOM
      1 ****        -5.5028  -0.1360   3.0828 C.3            1 S1                 0.0000
      2 ****        -5.0261   0.0111   1.6280 C.3            1 S1                 0.0000
      3 ****        -3.7003   0.8028   1.5994 C.3            1 S1                 0.0000
      4 ****        -2.7788   0.4191   0.5267 N.pl3          1 S1                 0.0000
      5 ****        -1.4489   0.6086   0.7334 C.ar           1 S1                 0.0000
      6 ****        -1.0412   1.6400   1.5202 N.ar           1 S1                 0.0000
      7 ****         0.2599   1.8526   1.7369 C.ar           1 S1                 0.0000
      8 ****         1.3059   1.1676   1.2720 N.ar           1 S1                 0.0000
      9 ****         0.9066   0.1284   0.4842 C.ar           1 S1                 0.0000
     10 ****        -0.4375  -0.2229   0.1705 C.ar           1 S1                 0.0000
     11 ****        -0.4516  -1.3580  -0.6323 N.2            1 S1                 0.0000
     12 ****         0.8092  -1.6570  -0.7867 C.2            1 S1                 0.0000
     13 ****         1.6953  -0.7988  -0.1756 N.pl3          1 S1                 0.0000
     14 ****         3.1244  -0.9180  -0.1500 C.3            1 S1                 0.0000
     15 ****         4.0244   0.3118  -0.3046 C.3            1 S1                 0.0000
     16 ****         5.0406  -0.5172  -1.1219 C.3            1 S1                 0.0000
     17 ****         5.5416   0.1765  -2.3981 C.3            1 S1                 0.0000
     18 ****         6.1287  -0.7464  -3.2932 O.3            1 S1                 0.0000
     19 ****         6.2862  -1.0200  -0.3589 C.3            1 S1                 0.0000
     20 ****         5.9764  -1.6336   0.8761 O.3            1 S1                 0.0000
     21 ****         3.8885  -1.5246  -1.3311 C.3            1 S1                 0.0000
     22 ****        -3.2082   0.1825  -0.8522 C.3            1 S1                 0.0000
     23 ****        -4.3203   1.1241  -1.3327 C.3            1 S1                 0.0000
     24 ****        -5.9533   0.3100  -1.0042 S.o            1 S1                 0.0000
     25 ****        -7.0132   1.1284  -1.7435 O.2            1 S1                 0.0000
     26 ****        -6.1338   0.6977   0.8013 C.3            1 S1                 0.0000
     27 ****        -5.6929   0.8367   3.5382 H              1 S1                 0.0000
     28 ****        -4.7590  -0.6499   3.6924 H              1 S1                 0.0000
     29 ****        -6.4239  -0.7168   3.1411 H              1 S1                 0.0000
     30 ****        -4.8601  -1.0001   1.2534 H              1 S1                 0.0000
     31 ****        -3.8894   1.8761   1.5578 H              1 S1                 0.0000
     32 ****        -3.1857   0.6288   2.5458 H              1 S1                 0.0000
     33 ****         0.4965   2.6933   2.3723 H              1 S1                 0.0000
     34 ****         1.1280  -2.5166  -1.3584 H              1 S1                 0.0000
     35 ****         3.3590  -1.4508   0.7722 H              1 S1                 0.0000
     36 ****         3.5473   1.0997  -0.8899 H              1 S1                 0.0000
     37 ****         4.4059   0.7083   0.6369 H              1 S1                 0.0000
     38 ****         4.7209   0.6682  -2.9214 H              1 S1                 0.0000
     39 ****         6.2684   0.9555  -2.1652 H              1 S1                 0.0000
     40 ****         6.4062  -0.2796  -4.0668 H              1 S1                 0.0000
     41 ****         6.8398  -1.7483  -0.9521 H              1 S1                 0.0000
     42 ****         6.9723  -0.1971  -0.1562 H              1 S1                 0.0000
     43 ****         6.7817  -1.9206   1.2792 H              1 S1                 0.0000
     44 ****         4.1662  -2.5704  -1.1966 H              1 S1                 0.0000
     45 ****         3.3715  -1.3786  -2.2810 H              1 S1                 0.0000
     46 ****        -2.3620   0.3321  -1.5235 H              1 S1                 0.0000
     47 ****        -3.4998  -0.8616  -0.9700 H              1 S1                 0.0000
     48 ****        -4.2640   2.1223  -0.8973 H              1 S1                 0.0000
     49 ****        -4.2387   1.2405  -2.4135 H              1 S1                 0.0000
     50 ****        -7.1138   0.3250   1.1006 H              1 S1                 0.0000
     51 ****        -6.1462   1.7768   0.9571 H              1 S1                 0.0000
     52 ****        -1.7197   2.2433   1.9393 LP             1 S1                 0.0000
     53 ****         2.2600   1.3877   1.4750 LP             1 S1                 0.0000
     54 ****        -1.2464  -1.8361  -1.0061 LP             1 S1                 0.0000
     55 ****         5.4593  -1.4460  -3.5435 LP             1 S1                 0.0000
     56 ****         6.9185  -1.1806  -2.8600 LP             1 S1                 0.0000
     57 ****         5.3779  -2.4197   0.7213 LP             1 S1                 0.0000
     58 ****         5.5160  -0.9766   1.4730 LP             1 S1                 0.0000
@<TRIPOS>BOND
    1    1    2 1     
    2    1   27 1     
    3    1   28 1     
    4    1   29 1     
    5    2   26 1     
    6    2    3 1     
    7    2   30 1     
    8    3    4 1     
    9    3   31 1     
   10    3   32 1     
   11    4    5 1     
   12    4   22 1     
   13    5   10 ar    
   14    5    6 ar    
   15    6    7 ar    
   16    7    8 ar    
   17    7   33 1     
   18    8    9 ar    
   19    9   13 1     
   20    9   10 ar    
   21   10   11 1     
   22   11   12 2     
   23   12   13 1     
   24   12   34 1     
   25   13   14 1     
   26   14   21 1     
   27   14   15 1     
   28   14   35 1     
   29   15   16 1     
   30   15   36 1     
   31   15   37 1     
   32   16   17 1     
   33   16   19 1     
   34   16   21 1     
   35   17   18 1     
   36   17   38 1     
   37   17   39 1     
   38   18   40 1     
   39   19   20 1     
   40   19   41 1     
   41   19   42 1     
   42   20   43 1     
   43   21   44 1     
   44   21   45 1     
   45   22   23 1     
   46   22   46 1     
   47   22   47 1     
   48   23   24 1     
   49   23   48 1     
   50   23   49 1     
   51   24   25 2     
   52   24   26 1     
   53   26   50 1     
   54   26   51 1     
   55    6   52 1     
   56    8   53 1     
   57   11   54 1     
   58   18   55 1     
   59   18   56 1     
   60   20   57 1     
   61   20   58 1     
@<TRIPOS>SUBSTRUCTURE
      1 S1             1
@<TRIPOS>SET
LONE_PAIRS      STATIC     ATOMS    <user>   **** ""
8 52 53 54 55 56 57 58 25
DONOR_HYDROGENS      STATIC     ATOMS    <user>   **** ""
2 40 43
ATOM$BLUE        STATIC     ATOMS    COLORGROUP SYSTEM
8 52 53 54 55 56 57 58 25
ATOM$RED        STATIC     ATOMS    COLORGROUP SYSTEM
2 40 43
