AV-unprocessed.smi:2668|AV-procd|sdf|10341|dock4
  -GOLD-   2272014363D 1   1.00000     0.00000
 Structure written by MMmdl.
 53 54  0  0  0  0  0  0  0  0  2 V2000
  143.5881  136.4572  152.1711 C   0  0  0  0  0  0  0  0  0  0  0  0
  144.9693  135.9937  152.2882 N   0  0  0  0  0  0  0  0  0  0  0  0
  145.4163  135.6847  150.9313 C   0  0  0  0  0  0  0  0  0  0  0  0
  145.8332  136.9946  152.9424 C   0  0  2  0  0  0  0  0  0  0  0  0
  145.1324  137.6354  154.1635 C   0  0  0  0  0  0  0  0  0  0  0  0
  145.9532  138.7710  154.7989 C   0  0  0  0  0  0  0  0  0  0  0  0
  146.2857  139.8342  153.8062 N   0  3  1  0  0  0  0  0  0  0  0  0
  146.8892  141.1044  154.3608 C   0  0  0  0  0  0  0  0  0  0  0  0
  146.7011  142.2960  153.3837 C   0  0  0  0  0  0  0  0  0  0  0  0
  146.2233  141.4913  155.7047 C   0  0  0  0  0  0  0  0  0  0  0  0
  148.4243  140.8827  154.5395 C   0  0  0  0  0  0  0  0  0  0  0  0
  149.0814  141.8755  155.3905 N   0  0  0  0  0  0  0  0  0  0  0  0
  149.9301  141.6084  156.3937 C   0  0  0  0  0  0  0  0  0  0  0  0
  150.2512  140.4673  156.7237 O   0  0  0  0  0  0  0  0  0  0  0  0
  150.3477  142.7395  156.9873 N   0  0  0  0  0  0  0  0  0  0  0  0
  151.2306  142.8915  158.0908 C   0  0  0  0  0  0  0  0  0  0  0  0
  151.6364  144.1379  158.6273 C   0  0  0  0  0  0  0  0  0  0  0  0
  152.5064  144.1503  159.7345 C   0  0  0  0  0  0  0  0  0  0  0  0
  152.9314  142.9195  160.2708 C   0  0  0  0  0  0  0  0  0  0  0  0
  152.5420  141.7247  159.7790 N   0  0  0  0  0  0  0  0  0  0  0  0
  151.7087  141.7206  158.7169 C   0  0  0  0  0  0  0  0  0  0  0  0
  147.0288  139.2325  152.6611 C   0  0  0  0  0  0  0  0  0  0  0  0
  146.2063  138.1363  151.9687 C   0  0  0  0  0  0  0  0  0  0  0  0
  143.1100  136.5550  153.1447 H   0  0  0  0  0  0  0  0  0  0  0  0
  142.9856  135.7418  151.6098 H   0  0  0  0  0  0  0  0  0  0  0  0
  143.5342  137.4188  151.6585 H   0  0  0  0  0  0  0  0  0  0  0  0
  146.3752  135.1685  150.9311 H   0  0  0  0  0  0  0  0  0  0  0  0
  145.5066  136.5887  150.3274 H   0  0  0  0  0  0  0  0  0  0  0  0
  144.7133  135.0152  150.4338 H   0  0  0  0  0  0  0  0  0  0  0  0
  146.7479  136.5035  153.2795 H   0  0  0  0  0  0  0  0  0  0  0  0
  144.1553  138.0206  153.8670 H   0  0  0  0  0  0  0  0  0  0  0  0
  144.9506  136.8961  154.9428 H   0  0  0  0  0  0  0  0  0  0  0  0
  145.3451  139.1560  155.6147 H   0  0  0  0  0  0  0  0  0  0  0  0
  146.8686  138.3743  155.2397 H   0  0  0  0  0  0  0  0  0  0  0  0
  147.2234  143.1913  153.7209 H   0  0  0  0  0  0  0  0  0  0  0  0
  145.6562  142.5942  153.2931 H   0  0  0  0  0  0  0  0  0  0  0  0
  147.0771  142.0604  152.3874 H   0  0  0  0  0  0  0  0  0  0  0  0
  146.5517  142.4735  156.0456 H   0  0  0  0  0  0  0  0  0  0  0  0
  146.4652  140.7866  156.5005 H   0  0  0  0  0  0  0  0  0  0  0  0
  145.1376  141.5365  155.6180 H   0  0  0  0  0  0  0  0  0  0  0  0
  148.6519  139.8921  154.9296 H   0  0  0  0  0  0  0  0  0  0  0  0
  148.9109  140.9267  153.5644 H   0  0  0  0  0  0  0  0  0  0  0  0
  148.8740  142.8444  155.1959 H   0  0  0  0  0  0  0  0  0  0  0  0
  149.9385  143.5967  156.6450 H   0  0  0  0  0  0  0  0  0  0  0  0
  151.2927  145.0782  158.2260 H   0  0  0  0  0  0  0  0  0  0  0  0
  152.8366  145.0834  160.1663 H   0  0  0  0  0  0  0  0  0  0  0  0
  153.5970  142.8941  161.1208 H   0  0  0  0  0  0  0  0  0  0  0  0
  151.4174  140.7467  158.3512 H   0  0  0  0  0  0  0  0  0  0  0  0
  147.2888  139.9779  151.9134 H   0  0  0  0  0  0  0  0  0  0  0  0
  147.9685  138.8029  153.0106 H   0  0  0  0  0  0  0  0  0  0  0  0
  146.8013  137.7642  151.1355 H   0  0  0  0  0  0  0  0  0  0  0  0
  145.3040  138.5733  151.5379 H   0  0  0  0  0  0  0  0  0  0  0  0
  145.3931  140.1215  153.4309 H   0  0  0  0  0  0  0  0  0  0  0  0
  1  2  1  0  0  0  0
  1 24  1  0  0  0  0
  1 25  1  0  0  0  0
  1 26  1  0  0  0  0
  2  3  1  0  0  0  0
  2  4  1  0  0  0  0
  3 27  1  0  0  0  0
  3 28  1  0  0  0  0
  3 29  1  0  0  0  0
  4 23  1  0  0  0  0
  4  5  1  0  0  0  0
  4 30  1  0  0  0  0
  5  6  1  0  0  0  0
  5 31  1  0  0  0  0
  5 32  1  0  0  0  0
  6  7  1  0  0  0  0
  6 33  1  0  0  0  0
  6 34  1  0  0  0  0
  7  8  1  0  0  0  0
  7 22  1  0  0  0  0
  7 53  1  0  0  0  0
  8  9  1  0  0  0  0
  8 10  1  0  0  0  0
  8 11  1  0  0  0  0
  9 35  1  0  0  0  0
  9 36  1  0  0  0  0
  9 37  1  0  0  0  0
 10 38  1  0  0  0  0
 10 39  1  0  0  0  0
 10 40  1  0  0  0  0
 11 12  1  0  0  0  0
 11 41  1  0  0  0  0
 11 42  1  0  0  0  0
 12 13  1  0  0  0  0
 12 43  1  0  0  0  0
 13 14  2  0  0  0  0
 13 15  1  0  0  0  0
 15 16  1  0  0  0  0
 15 44  1  0  0  0  0
 16 21  1  0  0  0  0
 16 17  2  0  0  0  0
 17 18  1  0  0  0  0
 17 45  1  0  0  0  0
 18 19  2  0  0  0  0
 18 46  1  0  0  0  0
 19 20  1  0  0  0  0
 19 47  1  0  0  0  0
 20 21  2  0  0  0  0
 21 48  1  0  0  0  0
 22 23  1  0  0  0  0
 22 49  1  0  0  0  0
 22 50  1  0  0  0  0
 23 51  1  0  0  0  0
 23 52  1  0  0  0  0
M  CHG  1   7   1
M  END
> <s_m_source_file>
AV-unprocessed.smi

> <i_m_source_file_index>
2668

> <i_lp_mmshare_version>
43012

> <i_f3d_flags>
0

> <s_epik_input>
W0NIM11OKFtDSDNdKVtDSF0xW0NIMl1bQ0gyXU4oW0NIMl1bQ0gyXTEpQyhbQ0gzXSkoW0NIM10pW0NIMl1bTkhdQyg9TylbTkhdYzJbY0hdW2NIXVtjSF1uW2NIXTI=

> <s_epik_cmdline>
J2VwaWtfcHl0aG9uJywgJy1waCcsICc3LjAnLCAnLXRuJywgJzgnLCAnLW1hJywgJzIwMCcsICctbWV0YWxfYmluZGluZycsICctaW1hZScsICc8aW5maWxlLm1hZT4nLCAnLW9tYWUnLCAnPG91dGZpbGUubWFlPic=

> <r_epik_Ionization_Penalty>
1.32573

> <r_epik_Ionization_Penalty_Charging>
0.00219175

> <r_epik_Ionization_Penalty_Neutral>
1.32353

> <r_epik_State_Penalty>
1.51166

> <r_epik_Charging_Adjusted_Penalty>
1.51385

> <i_epik_Tot_Q>
1

> <i_epik_Tot_abs_Q>
1

> <r_epik_Metal_State_Penalty>
1.51178

> <b_epik_Metal_Only>
0

> <s_lp_Force_Field>
OPLS_2005

> <r_lp_Energy>
37.5279

> <b_lp_Chiralities_Consistent>
1

> <s_lp_Variant>
AV-unprocessed.smi:2668-4

> <Gold.Version>
5.8.1

> <Gold.Id.Protein>
6NUR|6NUR_protein|mol2

> <Gold.PLP.Fitness>
52.8359

> <Gold.PLP.PLP>
-42.7115

> <Gold.PLP.part.hbond>
-3.0000

> <Gold.PLP.part.metal>
0.0000

> <Gold.PLP.part.buried>
-6.2776

> <Gold.PLP.part.nonpolar>
-34.7551

> <Gold.PLP.part.repulsive>
0.3432

> <Gold.PLP.ligand.clash>
0.0000

> <Gold.PLP.ligand.torsion>
0.9914

> <Gold.PLP.Chemscore.Hbond>
3.9920

> <Gold.PLP.Chemscore.CHOScore>
0.0000

> <Gold.PLP.Chemscore.Metal>
0.0000

> <Gold.Chemscore.Hbonds>
donor molecule, donor type, donor heavy atom, donor atom, acceptor molecule, acceptor atom, score
      L1  H     7    53       P1 10175  2.00
      L1  H    12    43       P1  8028  1.00
      L1  H    15    44       P1  8028  1.00

> <Gold.PLP.Chemscore.Internal.Correction>
0.1312

> <Gold.Rescore>
     Score         DG    S(hbond)    S(metal)    S(lipo)     H(rot)  DE(clash)    DE(int)     intcor
     21.53     -23.62       2.87        0.00     108.62       1.62       0.11       1.98       ----

> <Gold.Chemscore.Fitness>
21.5292

> <Gold.Chemscore.DG>
-23.6178

> <Gold.Chemscore.ZeroCoef>
-5.4800

> <Gold.Chemscore.Hbond>
2.8694

> <Gold.Chemscore.Metal>
0.0000

> <Gold.Chemscore.Lipo>
108.6187

> <Gold.Chemscore.Internal_Hbond>
0.0000

> <Gold.Chemscore.DEClash>
0.1065

> <Gold.Chemscore.DEInternal>
1.9821

> <Gold.Chemscore.Rot>
1.6228

> <Gold.Chemscore.Internal.Correction>
   9.000000E+99

> <Gold.Chemscore.Hbonds>
donor molecule, donor type, donor heavy atom, donor atom, acceptor molecule, acceptor atom, score
      L1  H     7    53       P1 10175  0.97
      L1  H    12    43       P1  8028  0.96
      L1  H    15    44       P1  8028  1.00

> <Gold.Chemscore.Hbond.Weighted>
-9.5839

> <Gold.Chemscore.Metal.Weighted>
-0.0000

> <Gold.Chemscore.Lipo.Weighted>
-12.7084

> <Gold.Chemscore.Internal_Hbond.Weighted>
0.0000

> <Gold.Chemscore.DEClash.Weighted>
0.1065

> <Gold.Chemscore.DEInternal.Weighted>
1.9821

> <Gold.Chemscore.Rot.Weighted>
4.1545

> <Gold.Chemscore.Internal.Correction.Weighted>
   9.000000E+99

> <Gold.Protein.RotatedTorsions>
[ 6907 6896 6895 6894 ] final  138.56 input  -60.11 | X-H torsion
[ 7974 7965 7964 7962 ] final -112.62 input  175.53 | X-H torsion
[ 8008 7997 7996 7995 ] final  -17.66 input   59.86 | X-H torsion
[ 10167 10162 10161 10158 ] final -117.61 input  -65.29 | X-H torsion
[ 10718 10713 10712 10709 ] final  -46.68 input   66.30 | X-H torsion
[ 10763 10752 10751 10750 ] final  -81.04 input  -60.55 | X-H torsion
[ 11005 11000 10999 10996 ] final -119.47 input  -57.11 | X-H torsion

> <Gold.Protein.ActiveResidues>
 VAL166  LYS551  ARG553  GLY616  TRP617  ASP618  TYR619  PRO620  LYS621  CYS622 
 ASP623  PHE694  ASN695  SER759  ASP760  ASP761  ALA762  ILE779  LEU786  VAL792 
 PHE793  MET794  SER795  GLU796  ALA797  LYS798  CYS799  TRP800  GLU811  SER814 

> <Gold.Protein.RotatedAtoms>
  152.2651  133.5332  159.5404 H   0  0  0  0  0  0  0  0  0  0  0  0  # atno 6907 bound_to 6896
  150.7139  134.0775  159.3895 H   0  0  0  0  0  0  0  0  0  0  0  0  # atno 6908 bound_to 6896
  151.8692  135.0496  160.0528 H   0  0  0  0  0  0  0  0  0  0  0  0  # atno 6909 bound_to 6896
  145.1418  140.8782  143.3697 H   0  0  0  0  0  0  0  0  0  0  0  0  # atno 7974 bound_to 7965
  154.4962  140.2137  155.9442 H   0  0  0  0  0  0  0  0  0  0  0  0  # atno 8008 bound_to 7997
  156.1373  140.3186  155.8409 H   0  0  0  0  0  0  0  0  0  0  0  0  # atno 8009 bound_to 7997
  155.4185  140.0495  157.3018 H   0  0  0  0  0  0  0  0  0  0  0  0  # atno 8010 bound_to 7997
  140.0665  143.4918  152.2003 H   0  0  0  0  0  0  0  0  0  0  0  0  # atno 10167 bound_to 10162
  156.2159  130.4163  149.9054 H   0  0  0  0  0  0  0  0  0  0  0  0  # atno 10718 bound_to 10713
  154.5587  135.5640  153.6987 H   0  0  0  0  0  0  0  0  0  0  0  0  # atno 10763 bound_to 10752
  153.0011  135.6268  154.2275 H   0  0  0  0  0  0  0  0  0  0  0  0  # atno 10764 bound_to 10752
  154.2212  135.2869  155.2904 H   0  0  0  0  0  0  0  0  0  0  0  0  # atno 10765 bound_to 10752
  141.0213  134.0119  157.3278 H   0  0  0  0  0  0  0  0  0  0  0  0  # atno 11005 bound_to 11000
  145.0524  139.3171  143.5922 LP  0  0  0  0  0  0  0  0  0  0  0  0  # atno 17320 bound_to 7965
  146.3504  139.9936  142.8683 LP  0  0  0  0  0  0  0  0  0  0  0  0  # atno 17321 bound_to 7965
  139.5862  144.7532  151.3515 LP  0  0  0  0  0  0  0  0  0  0  0  0  # atno 17342 bound_to 10162
  140.7146  143.7299  150.7631 LP  0  0  0  0  0  0  0  0  0  0  0  0  # atno 17343 bound_to 10162
  156.6717  130.8823  151.3563 LP  0  0  0  0  0  0  0  0  0  0  0  0  # atno 17370 bound_to 10713
  157.7063  130.9389  150.0942 LP  0  0  0  0  0  0  0  0  0  0  0  0  # atno 17371 bound_to 10713
  139.9148  135.0195  156.7837 LP  0  0  0  0  0  0  0  0  0  0  0  0  # atno 17394 bound_to 11000
  140.6567  133.9682  155.7783 LP  0  0  0  0  0  0  0  0  0  0  0  0  # atno 17395 bound_to 11000

$$$$
