AV-unprocessed.smi:1740|AV-procd|sdf|7015|dock3
  -GOLD-   22720 8233D 1   1.00000     0.00000
 Structure written by MMmdl.
 52 54  0  0  0  0  0  0  0  0  4 V2000
  152.1871  139.2204  156.6224 N   0  5  0  0  0  0  0  0  0  0  0  0
  151.0648  139.3486  155.8866 C   0  0  0  0  0  0  0  0  0  0  0  0
  150.9480  139.8380  154.7657 O   0  0  0  0  0  0  0  0  0  0  0  0
  149.8304  138.7918  156.6037 C   0  0  0  0  0  0  0  0  0  0  0  0
  149.7744  137.3119  156.4887 N   0  3  2  0  0  0  0  0  0  0  0  0
  150.0633  136.8185  155.1153 C   0  0  0  0  0  0  0  0  0  0  0  0
  150.1201  135.2802  155.0731 C   0  0  0  0  0  0  0  0  0  0  0  0
  148.8364  134.6385  155.6274 C   0  0  2  0  0  0  0  0  0  0  0  0
  147.7208  134.8447  154.7040 N   0  0  0  0  0  0  0  0  0  0  0  0
  147.3957  134.0323  153.6885 C   0  0  0  0  0  0  0  0  0  0  0  0
  148.0193  133.0098  153.4047 O   0  0  0  0  0  0  0  0  0  0  0  0
  146.2974  134.4649  153.0480 N   0  0  0  0  0  0  0  0  0  0  0  0
  145.6057  133.8074  151.9935 C   0  0  0  0  0  0  0  0  0  0  0  0
  146.1854  132.6927  151.3359 C   0  0  0  0  0  0  0  0  0  0  0  0
  145.5225  132.0962  150.2473 C   0  0  0  0  0  0  0  0  0  0  0  0
  144.2962  132.6342  149.8214 C   0  0  0  0  0  0  0  0  0  0  0  0
  143.7765  133.7028  150.4601 N   0  3  0  0  0  0  0  0  0  0  0  0
  144.3581  134.3123  151.5237 C   0  0  0  0  0  0  0  0  0  0  0  0
  143.6854  135.4154  152.0990 N   0  0  0  0  0  0  0  0  0  0  0  0
  142.7986  135.2245  153.2408 C   0  0  0  0  0  0  0  0  0  0  0  0
  142.5394  136.6280  153.7809 C   0  0  0  0  0  0  0  0  0  0  0  0
  143.8724  137.3273  153.5315 C   0  0  0  0  0  0  0  0  0  0  0  0
  144.3802  136.6922  152.2330 C   0  0  0  0  0  0  0  0  0  0  0  0
  148.5353  135.2138  157.0256 C   0  0  0  0  0  0  0  0  0  0  0  0
  148.5066  136.7525  157.0212 C   0  0  0  0  0  0  0  0  0  0  0  0
  152.1920  138.5482  157.3993 H   0  0  0  0  0  0  0  0  0  0  0  0
  149.8904  139.0902  157.6519 H   0  0  0  0  0  0  0  0  0  0  0  0
  148.9186  139.2397  156.2053 H   0  0  0  0  0  0  0  0  0  0  0  0
  149.3006  137.1878  154.4279 H   0  0  0  0  0  0  0  0  0  0  0  0
  151.0164  137.2165  154.7659 H   0  0  0  0  0  0  0  0  0  0  0  0
  150.3049  134.9393  154.0537 H   0  0  0  0  0  0  0  0  0  0  0  0
  150.9725  134.9419  155.6638 H   0  0  0  0  0  0  0  0  0  0  0  0
  149.0062  133.5638  155.7166 H   0  0  0  0  0  0  0  0  0  0  0  0
  147.1539  135.6663  154.8550 H   0  0  0  0  0  0  0  0  0  0  0  0
  145.8333  135.2690  153.4445 H   0  0  0  0  0  0  0  0  0  0  0  0
  147.1439  132.2993  151.6408 H   0  0  0  0  0  0  0  0  0  0  0  0
  145.9559  131.2470  149.7394 H   0  0  0  0  0  0  0  0  0  0  0  0
  143.7205  132.2487  148.9926 H   0  0  0  0  0  0  0  0  0  0  0  0
  141.8741  134.7248  152.9505 H   0  0  0  0  0  0  0  0  0  0  0  0
  143.2903  134.6229  154.0063 H   0  0  0  0  0  0  0  0  0  0  0  0
  141.7509  137.1120  153.2031 H   0  0  0  0  0  0  0  0  0  0  0  0
  142.2430  136.6319  154.8299 H   0  0  0  0  0  0  0  0  0  0  0  0
  143.7789  138.4113  153.4643 H   0  0  0  0  0  0  0  0  0  0  0  0
  144.5619  137.0998  154.3455 H   0  0  0  0  0  0  0  0  0  0  0  0
  145.4642  136.5723  152.2492 H   0  0  0  0  0  0  0  0  0  0  0  0
  144.1196  137.3238  151.3835 H   0  0  0  0  0  0  0  0  0  0  0  0
  147.5924  134.8231  157.4096 H   0  0  0  0  0  0  0  0  0  0  0  0
  149.3041  134.8766  157.7222 H   0  0  0  0  0  0  0  0  0  0  0  0
  148.3498  137.1072  158.0406 H   0  0  0  0  0  0  0  0  0  0  0  0
  147.6673  137.1173  156.4269 H   0  0  0  0  0  0  0  0  0  0  0  0
  150.5132  136.9711  157.0889 H   0  0  0  0  0  0  0  0  0  0  0  0
  142.8852  134.0701  150.1261 H   0  0  0  0  0  0  0  0  0  0  0  0
  1  2  1  0  0  0  0
  1 26  1  0  0  0  0
  2  3  2  0  0  0  0
  2  4  1  0  0  0  0
  4  5  1  0  0  0  0
  4 27  1  0  0  0  0
  4 28  1  0  0  0  0
  5 25  1  0  0  0  0
  5  6  1  0  0  0  0
  5 51  1  0  0  0  0
  6  7  1  0  0  0  0
  6 29  1  0  0  0  0
  6 30  1  0  0  0  0
  7  8  1  0  0  0  0
  7 31  1  0  0  0  0
  7 32  1  0  0  0  0
  8  9  1  0  0  0  0
  8 24  1  0  0  0  0
  8 33  1  0  0  0  0
  9 10  1  0  0  0  0
  9 34  1  0  0  0  0
 10 11  2  0  0  0  0
 10 12  1  0  0  0  0
 12 13  1  0  0  0  0
 12 35  1  0  0  0  0
 13 18  1  0  0  0  0
 13 14  2  0  0  0  0
 14 15  1  0  0  0  0
 14 36  1  0  0  0  0
 15 16  2  0  0  0  0
 15 37  1  0  0  0  0
 16 17  1  0  0  0  0
 16 38  1  0  0  0  0
 17 18  2  0  0  0  0
 17 52  1  0  0  0  0
 18 19  1  0  0  0  0
 19 23  1  0  0  0  0
 19 20  1  0  0  0  0
 20 21  1  0  0  0  0
 20 39  1  0  0  0  0
 20 40  1  0  0  0  0
 21 22  1  0  0  0  0
 21 41  1  0  0  0  0
 21 42  1  0  0  0  0
 22 23  1  0  0  0  0
 22 43  1  0  0  0  0
 22 44  1  0  0  0  0
 23 45  1  0  0  0  0
 23 46  1  0  0  0  0
 24 25  1  0  0  0  0
 24 47  1  0  0  0  0
 24 48  1  0  0  0  0
 25 49  1  0  0  0  0
 25 50  1  0  0  0  0
M  CHG  1   1  -1
M  CHG  1   5   1
M  CHG  1  17   1
M  END
> <s_m_source_file>
AV-unprocessed.smi

> <i_m_source_file_index>
1740

> <i_lp_mmshare_version>
43012

> <i_f3d_flags>
0

> <s_epik_input>
W05IMl1DKD1PKVtDSDJdTjFbQ0gyXVtDSDJdW0NIXShbQ0gyXVtDSDJdMSlbTkhdQyg9TylbTkhdYzJbY0hdW2NIXVtjSF1uYzJOM1tDSDJdW0NIMl1bQ0gyXVtDSDJdMw==

> <s_epik_cmdline>
J2VwaWtfcHl0aG9uJywgJy1waCcsICc3LjAnLCAnLXRuJywgJzgnLCAnLW1hJywgJzIwMCcsICctbWV0YWxfYmluZGluZycsICctaW1hZScsICc8aW5maWxlLm1hZT4nLCAnLW9tYWUnLCAnPG91dGZpbGUubWFlPic=

> <r_lp_tautomer_probability>
0.999994

> <r_epik_Ionization_Penalty>
6.97817

> <r_epik_Ionization_Penalty_Charging>
6.97815

> <r_epik_Ionization_Penalty_Neutral>
1.88285e-05

> <r_epik_State_Penalty>
7.80985

> <r_epik_Charging_Adjusted_Penalty>
14.788

> <i_epik_Tot_Q>
1

> <i_epik_Tot_abs_Q>
3

> <r_epik_Metal_State_Penalty>
3.85728

> <b_epik_Metal_Only>
1

> <s_lp_Force_Field>
OPLS_2005

> <r_lp_Energy>
44.1168

> <b_lp_Chiralities_Consistent>
1

> <s_lp_Variant>
AV-unprocessed.smi:1740-10

> <Gold.Version>
5.8.1

> <Gold.Id.Protein>
6NUR|6NUR_protein|mol2

> <Gold.PLP.Fitness>
45.6507

> <Gold.PLP.PLP>
-32.4387

> <Gold.PLP.part.hbond>
-3.8140

> <Gold.PLP.part.metal>
0.0000

> <Gold.PLP.part.buried>
-5.1543

> <Gold.PLP.part.nonpolar>
-24.0922

> <Gold.PLP.part.repulsive>
0.4442

> <Gold.PLP.ligand.clash>
0.0000

> <Gold.PLP.ligand.torsion>
1.1174

> <Gold.PLP.Chemscore.Hbond>
4.9913

> <Gold.PLP.Chemscore.CHOScore>
0.0000

> <Gold.PLP.Chemscore.Metal>
0.0000

> <Gold.Chemscore.Hbonds>
donor molecule, donor type, donor heavy atom, donor atom, acceptor molecule, acceptor atom, score
      L1  H    17    52       P1 10186  2.00
      P1  H  7989  7998       L1     3  1.00
      P1  H  7997  8008       L1     1  0.42

> <Gold.PLP.Chemscore.Internal.Correction>
0.4730

> <Gold.Rescore>
     Score         DG    S(hbond)    S(metal)    S(lipo)     H(rot)  DE(clash)    DE(int)     intcor
     14.88     -17.27       2.76        0.00      69.91       2.18       0.05       2.35       ----

> <Gold.Chemscore.Fitness>
14.8797

> <Gold.Chemscore.DG>
-17.2720

> <Gold.Chemscore.ZeroCoef>
-5.4800

> <Gold.Chemscore.Hbond>
2.7551

> <Gold.Chemscore.Metal>
0.0000

> <Gold.Chemscore.Lipo>
69.9072

> <Gold.Chemscore.Internal_Hbond>
0.0000

> <Gold.Chemscore.DEClash>
0.0459

> <Gold.Chemscore.DEInternal>
2.3464

> <Gold.Chemscore.Rot>
2.1832

> <Gold.Chemscore.Internal.Correction>
   9.000000E+99

> <Gold.Chemscore.Hbonds>
donor molecule, donor type, donor heavy atom, donor atom, acceptor molecule, acceptor atom, score
      L1  H    17    52       P1 10186  0.95
      P1  H  7989  7998       L1     3  1.00
      P1  H  7997  8008       L1     1  0.16

> <Gold.Chemscore.Hbond.Weighted>
-9.2020

> <Gold.Chemscore.Metal.Weighted>
-0.0000

> <Gold.Chemscore.Lipo.Weighted>
-8.1791

> <Gold.Chemscore.Internal_Hbond.Weighted>
0.0000

> <Gold.Chemscore.DEClash.Weighted>
0.0459

> <Gold.Chemscore.DEInternal.Weighted>
2.3464

> <Gold.Chemscore.Rot.Weighted>
5.5891

> <Gold.Chemscore.Internal.Correction.Weighted>
   9.000000E+99

> <Gold.Protein.RotatedTorsions>
[ 6907 6896 6895 6894 ] final -134.28 input  -60.11 | X-H torsion
[ 7974 7965 7964 7962 ] final -143.41 input  175.53 | X-H torsion
[ 8008 7997 7996 7995 ] final  -42.07 input   59.86 | X-H torsion
[ 10167 10162 10161 10158 ] final  151.77 input  -65.29 | X-H torsion
[ 10718 10713 10712 10709 ] final   83.79 input   66.30 | X-H torsion
[ 10763 10752 10751 10750 ] final   15.31 input  -60.55 | X-H torsion
[ 11005 11000 10999 10996 ] final  -73.89 input  -57.11 | X-H torsion

> <Gold.Protein.ActiveResidues>
 VAL166  LYS551  ARG553  GLY616  TRP617  ASP618  TYR619  PRO620  LYS621  CYS622 
 ASP623  PHE694  ASN695  SER759  ASP760  ASP761  ALA762  ILE779  LEU786  VAL792 
 PHE793  MET794  SER795  GLU796  ALA797  LYS798  CYS799  TRP800  GLU811  SER814 

> <Gold.Protein.RotatedAtoms>
  150.9840  133.6217  159.2718 H   0  0  0  0  0  0  0  0  0  0  0  0  # atno 6907 bound_to 6896
  151.3461  135.0873  159.9397 H   0  0  0  0  0  0  0  0  0  0  0  0  # atno 6908 bound_to 6896
  152.5225  133.9441  159.7695 H   0  0  0  0  0  0  0  0  0  0  0  0  # atno 6909 bound_to 6896
  144.8372  140.5838  143.5476 H   0  0  0  0  0  0  0  0  0  0  0  0  # atno 7974 bound_to 7965
  154.4000  140.1483  156.3295 H   0  0  0  0  0  0  0  0  0  0  0  0  # atno 8008 bound_to 7997
  155.8456  140.3460  155.5639 H   0  0  0  0  0  0  0  0  0  0  0  0  # atno 8009 bound_to 7997
  155.8039  140.0874  157.1932 H   0  0  0  0  0  0  0  0  0  0  0  0  # atno 8010 bound_to 7997
  139.4838  144.5413  151.7559 H   0  0  0  0  0  0  0  0  0  0  0  0  # atno 10167 bound_to 10162
  157.6886  131.0106  150.2576 H   0  0  0  0  0  0  0  0  0  0  0  0  # atno 10718 bound_to 10713
  153.1538  135.6783  153.8843 H   0  0  0  0  0  0  0  0  0  0  0  0  # atno 10763 bound_to 10752
  153.8261  135.3124  155.3416 H   0  0  0  0  0  0  0  0  0  0  0  0  # atno 10764 bound_to 10752
  154.7882  135.4850  154.0080 H   0  0  0  0  0  0  0  0  0  0  0  0  # atno 10765 bound_to 10752
  141.1628  133.6893  156.7281 H   0  0  0  0  0  0  0  0  0  0  0  0  # atno 11005 bound_to 11000
  145.4771  139.1498  143.3782 LP  0  0  0  0  0  0  0  0  0  0  0  0  # atno 17320 bound_to 7965
  146.2669  140.4906  142.8830 LP  0  0  0  0  0  0  0  0  0  0  0  0  # atno 17321 bound_to 7965
  140.4953  144.1250  150.5959 LP  0  0  0  0  0  0  0  0  0  0  0  0  # atno 17342 bound_to 10162
  140.4124  143.2650  151.9816 LP  0  0  0  0  0  0  0  0  0  0  0  0  # atno 17343 bound_to 10162
  156.3161  130.3779  149.7617 LP  0  0  0  0  0  0  0  0  0  0  0  0  # atno 17370 bound_to 10713
  156.5202  130.8212  151.3201 LP  0  0  0  0  0  0  0  0  0  0  0  0  # atno 17371 bound_to 10713
  140.2765  134.8350  157.3895 LP  0  0  0  0  0  0  0  0  0  0  0  0  # atno 17394 bound_to 11000
  140.1472  134.4896  155.7987 LP  0  0  0  0  0  0  0  0  0  0  0  0  # atno 17395 bound_to 11000

$$$$
