AV-unprocessed.smi:854|AV-procd|sdf|3955|dock1
  -GOLD-   22720 1423D 1   1.00000     0.00000
 Structure written by MMmdl.
 27 28  0  0  0  0  0  0  0  0  1 V2000
  151.4742  141.2205  156.9687 O   0  0  0  0  0  0  0  0  0  0  0  0
  150.7817  142.2110  156.7407 C   0  0  0  0  0  0  0  0  0  0  0  0
  149.7437  142.1506  155.8790 N   0  0  0  0  0  0  0  0  0  0  0  0
  149.2177  141.0761  155.1040 C   0  0  0  0  0  0  0  0  0  0  0  0
  148.0285  141.0757  154.4882 N   0  0  0  0  0  0  0  0  0  0  0  0
  147.7819  139.8769  153.8145 C   0  0  0  0  0  0  0  0  0  0  0  0
  148.8000  138.9644  153.9300 C   0  0  0  0  0  0  0  0  0  0  0  0
  150.1143  139.5778  154.8968 S   0  0  0  0  0  0  0  0  0  0  0  0
  151.0116  143.4036  157.3139 N   0  0  0  0  0  0  0  0  0  0  0  0
  152.0766  143.6970  158.2687 C   0  0  0  0  0  0  0  0  0  0  0  0
  151.9367  142.8163  159.5260 C   0  0  0  0  0  0  0  0  0  0  0  0
  152.0208  143.7648  160.7235 C   0  0  0  0  0  0  0  0  0  0  0  0
  151.4865  145.0919  160.1948 C   0  0  0  0  0  0  0  0  0  0  0  0
  152.0093  145.1568  158.7601 C   0  0  0  0  0  0  0  0  0  0  0  0
  149.2578  143.0268  155.7542 H   0  0  0  0  0  0  0  0  0  0  0  0
  146.8524  139.7579  153.2775 H   0  0  0  0  0  0  0  0  0  0  0  0
  148.8553  137.9718  153.5081 H   0  0  0  0  0  0  0  0  0  0  0  0
  150.3963  144.1667  157.0695 H   0  0  0  0  0  0  0  0  0  0  0  0
  153.0453  143.5131  157.8000 H   0  0  0  0  0  0  0  0  0  0  0  0
  150.9681  142.3133  159.5391 H   0  0  0  0  0  0  0  0  0  0  0  0
  152.7009  142.0397  159.5704 H   0  0  0  0  0  0  0  0  0  0  0  0
  151.4635  143.4009  161.5873 H   0  0  0  0  0  0  0  0  0  0  0  0
  153.0621  143.8845  161.0253 H   0  0  0  0  0  0  0  0  0  0  0  0
  150.3957  145.0733  160.1889 H   0  0  0  0  0  0  0  0  0  0  0  0
  151.8041  145.9441  160.7964 H   0  0  0  0  0  0  0  0  0  0  0  0
  153.0153  145.5784  158.7648 H   0  0  0  0  0  0  0  0  0  0  0  0
  151.3964  145.8031  158.1299 H   0  0  0  0  0  0  0  0  0  0  0  0
  1  2  2  0  0  0  0
  2  3  1  0  0  0  0
  2  9  1  0  0  0  0
  3  4  1  0  0  0  0
  3 15  1  0  0  0  0
  4  8  1  0  0  0  0
  4  5  2  0  0  0  0
  5  6  1  0  0  0  0
  6  7  2  0  0  0  0
  6 16  1  0  0  0  0
  7  8  1  0  0  0  0
  7 17  1  0  0  0  0
  9 10  1  0  0  0  0
  9 18  1  0  0  0  0
 10 14  1  0  0  0  0
 10 11  1  0  0  0  0
 10 19  1  0  0  0  0
 11 12  1  0  0  0  0
 11 20  1  0  0  0  0
 11 21  1  0  0  0  0
 12 13  1  0  0  0  0
 12 22  1  0  0  0  0
 12 23  1  0  0  0  0
 13 14  1  0  0  0  0
 13 24  1  0  0  0  0
 13 25  1  0  0  0  0
 14 26  1  0  0  0  0
 14 27  1  0  0  0  0
M  END
> <s_m_source_file>
AV-unprocessed.smi

> <i_m_source_file_index>
854

> <i_lp_mmshare_version>
43012

> <i_f3d_flags>
0

> <s_epik_input>
W0NIMl0xW0NIMl1bQ0gyXVtDSDJdW0NIXTFbTkhdQyg9TylbTkhdYzJuW2NIXVtjSF1zMg==

> <s_epik_cmdline>
J2VwaWtfcHl0aG9uJywgJy1waCcsICc3LjAnLCAnLXRuJywgJzgnLCAnLW1hJywgJzIwMCcsICctbWV0YWxfYmluZGluZycsICctaW1hZScsICc8aW5maWxlLm1hZT4nLCAnLW9tYWUnLCAnPG91dGZpbGUubWFlPic=

> <r_lp_tautomer_probability>
0.999

> <r_epik_Ionization_Penalty>
0.000426276

> <r_epik_Ionization_Penalty_Charging>
0

> <r_epik_Ionization_Penalty_Neutral>
0.000426276

> <r_epik_State_Penalty>
0.000177984

> <r_epik_Charging_Adjusted_Penalty>
0.000177984

> <i_epik_Tot_Q>
0

> <i_epik_Tot_abs_Q>
0

> <r_epik_Metal_State_Penalty>
-0

> <b_epik_Metal_Only>
0

> <s_lp_Force_Field>
OPLS_2005

> <r_lp_Energy>
19.4897

> <b_lp_Chiralities_Consistent>
1

> <s_lp_Variant>
AV-unprocessed.smi:854-1

> <Gold.Version>
5.8.1

> <Gold.Id.Protein>
6NUR|6NUR_protein|mol2

> <Gold.PLP.Fitness>
41.5754

> <Gold.PLP.PLP>
-33.2154

> <Gold.PLP.part.hbond>
-2.0000

> <Gold.PLP.part.metal>
0.0000

> <Gold.PLP.part.buried>
-4.0559

> <Gold.PLP.part.nonpolar>
-28.2097

> <Gold.PLP.part.repulsive>
0.2862

> <Gold.PLP.ligand.clash>
0.0000

> <Gold.PLP.ligand.torsion>
0.0429

> <Gold.PLP.Chemscore.Hbond>
1.8143

> <Gold.PLP.Chemscore.CHOScore>
1.0000

> <Gold.PLP.Chemscore.Metal>
0.0000

> <Gold.Chemscore.Hbonds>
donor molecule, donor type, donor heavy atom, donor atom, acceptor molecule, acceptor atom, score
      L1  H     3    15       P1  8028  1.00
      L1  H     9    18       P1  8028  0.69
      L1  C     7    17       P1  7948  1.00

> <Gold.PLP.Chemscore.Internal.Correction>
0.0028

> <Gold.Rescore>
     Score         DG    S(hbond)    S(metal)    S(lipo)     H(rot)  DE(clash)    DE(int)     intcor
     16.49     -18.47       1.88        0.00      79.28       1.00       0.04       1.94       ----

> <Gold.Chemscore.Fitness>
16.4948

> <Gold.Chemscore.DG>
-18.4703

> <Gold.Chemscore.ZeroCoef>
-5.4800

> <Gold.Chemscore.Hbond>
1.8787

> <Gold.Chemscore.Metal>
0.0000

> <Gold.Chemscore.Lipo>
79.2762

> <Gold.Chemscore.Internal_Hbond>
0.0000

> <Gold.Chemscore.DEClash>
0.0378

> <Gold.Chemscore.DEInternal>
1.9377

> <Gold.Chemscore.Rot>
1.0000

> <Gold.Chemscore.Internal.Correction>
   9.000000E+99

> <Gold.Chemscore.Hbonds>
donor molecule, donor type, donor heavy atom, donor atom, acceptor molecule, acceptor atom, score
      L1  H     3    15       P1  8028  1.00
      L1  H     9    18       P1  8028  0.63

> <Gold.Chemscore.Hbond.Weighted>
-6.2750

> <Gold.Chemscore.Metal.Weighted>
-0.0000

> <Gold.Chemscore.Lipo.Weighted>
-9.2753

> <Gold.Chemscore.Internal_Hbond.Weighted>
0.0000

> <Gold.Chemscore.DEClash.Weighted>
0.0378

> <Gold.Chemscore.DEInternal.Weighted>
1.9377

> <Gold.Chemscore.Rot.Weighted>
2.5600

> <Gold.Chemscore.Internal.Correction.Weighted>
   9.000000E+99

> <Gold.Protein.RotatedTorsions>
[ 6907 6896 6895 6894 ] final   50.98 input  -60.11 | X-H torsion
[ 7974 7965 7964 7962 ] final  162.74 input  175.53 | X-H torsion
[ 8008 7997 7996 7995 ] final -129.14 input   59.86 | X-H torsion
[ 10167 10162 10161 10158 ] final   87.59 input  -65.29 | X-H torsion
[ 10718 10713 10712 10709 ] final   25.00 input   66.30 | X-H torsion
[ 10763 10752 10751 10750 ] final -164.56 input  -60.55 | X-H torsion
[ 11005 11000 10999 10996 ] final  -44.95 input  -57.11 | X-H torsion

> <Gold.Protein.ActiveResidues>
 VAL166  LYS551  ARG553  GLY616  TRP617  ASP618  TYR619  PRO620  LYS621  CYS622 
 ASP623  PHE694  ASN695  SER759  ASP760  ASP761  ALA762  ILE779  LEU786  VAL792 
 PHE793  MET794  SER795  GLU796  ALA797  LYS798  CYS799  TRP800  GLU811  SER814 

> <Gold.Protein.RotatedAtoms>
  152.3078  134.7534  160.0343 H   0  0  0  0  0  0  0  0  0  0  0  0  # atno 6907 bound_to 6896
  151.8026  133.3366  159.3539 H   0  0  0  0  0  0  0  0  0  0  0  0  # atno 6908 bound_to 6896
  150.7305  134.5669  159.5915 H   0  0  0  0  0  0  0  0  0  0  0  0  # atno 6909 bound_to 6896
  144.7622  139.8083  143.6328 H   0  0  0  0  0  0  0  0  0  0  0  0  # atno 7974 bound_to 7965
  155.2743  140.0441  157.3010 H   0  0  0  0  0  0  0  0  0  0  0  0  # atno 8008 bound_to 7997
  154.5634  140.2353  155.8268 H   0  0  0  0  0  0  0  0  0  0  0  0  # atno 8009 bound_to 7997
  156.2066  140.3011  155.9647 H   0  0  0  0  0  0  0  0  0  0  0  0  # atno 8010 bound_to 7997
  139.8758  144.6468  150.8898 H   0  0  0  0  0  0  0  0  0  0  0  0  # atno 10167 bound_to 10162
  157.1875  130.6830  149.6137 H   0  0  0  0  0  0  0  0  0  0  0  0  # atno 10718 bound_to 10713
  154.7016  135.2989  154.9332 H   0  0  0  0  0  0  0  0  0  0  0  0  # atno 10763 bound_to 10752
  154.0262  135.6676  153.4781 H   0  0  0  0  0  0  0  0  0  0  0  0  # atno 10764 bound_to 10752
  153.0686  135.5074  154.8163 H   0  0  0  0  0  0  0  0  0  0  0  0  # atno 10765 bound_to 10752
  141.0484  133.6752  156.2945 H   0  0  0  0  0  0  0  0  0  0  0  0  # atno 11005 bound_to 11000
  146.1696  139.4841  142.9936 LP  0  0  0  0  0  0  0  0  0  0  0  0  # atno 17320 bound_to 7965
  145.6583  141.0247  143.1723 LP  0  0  0  0  0  0  0  0  0  0  0  0  # atno 17321 bound_to 7965
  140.7753  143.3626  151.1799 LP  0  0  0  0  0  0  0  0  0  0  0  0  # atno 17342 bound_to 10162
  139.7241  143.9176  152.2996 LP  0  0  0  0  0  0  0  0  0  0  0  0  # atno 17343 bound_to 10162
  155.9716  130.4626  150.6151 LP  0  0  0  0  0  0  0  0  0  0  0  0  # atno 17370 bound_to 10713
  157.3893  131.0793  151.1408 LP  0  0  0  0  0  0  0  0  0  0  0  0  # atno 17371 bound_to 10713
  140.6102  134.5466  157.5532 LP  0  0  0  0  0  0  0  0  0  0  0  0  # atno 17394 bound_to 11000
  139.9330  134.7927  156.0878 LP  0  0  0  0  0  0  0  0  0  0  0  0  # atno 17395 bound_to 11000

$$$$
