AV-unprocessed.smi:518|AV-procd|sdf|2794|dock2
  -GOLD-   2262023263D 1   1.00000     0.00000
 Structure written by MMmdl.
 41 43  0  0  0  0  0  0  0  0  2 V2000
  153.0878  139.6021  154.8830 O   0  0  0  0  0  0  0  0  0  0  0  0
  151.8424  139.0010  155.1684 C   0  0  0  0  0  0  0  0  0  0  0  0
  151.3615  139.3338  156.5929 C   0  0  0  0  0  0  0  0  0  0  0  0
  151.1951  140.7780  156.8310 N   0  0  0  0  0  0  0  0  0  0  0  0
  150.4498  141.7030  156.1574 C   0  0  0  0  0  0  0  0  0  0  0  0
  149.5765  141.4678  154.9643 C   0  0  0  0  0  0  0  0  0  0  0  0
  148.2522  142.0758  155.0666 N   0  0  0  0  0  0  0  0  0  0  0  0
  147.5370  141.8775  153.8039 C   0  0  0  0  0  0  0  0  0  0  0  0
  146.1783  142.5985  153.8404 C   0  0  0  0  0  0  0  0  0  0  0  0
  145.3221  142.0856  155.0035 C   0  0  0  0  0  0  0  0  0  0  0  0
  146.1219  142.1847  156.3076 C   0  0  0  0  0  0  0  0  0  0  0  0
  147.4855  141.4845  156.1692 C   0  0  0  0  0  0  0  0  0  0  0  0
  150.6331  142.9008  156.7807 N   0  3  0  0  0  0  0  0  0  0  0  0
  151.4960  142.7427  157.8653 C   0  0  0  0  0  0  0  0  0  0  0  0
  151.9715  143.6651  158.7921 C   0  0  0  0  0  0  0  0  0  0  0  0
  152.8427  143.1720  159.7854 C   0  0  0  0  0  0  0  0  0  0  0  0
  153.2105  141.8113  159.8324 C   0  0  0  0  0  0  0  0  0  0  0  0
  154.2812  141.2658  161.0702 Cl  0  0  0  0  0  0  0  0  0  0  0  0
  152.7199  140.8871  158.8866 C   0  0  0  0  0  0  0  0  0  0  0  0
  151.8594  141.3813  157.9064 C   0  0  0  0  0  0  0  0  0  0  0  0
  153.4189  139.2367  154.0764 H   0  0  0  0  0  0  0  0  0  0  0  0
  151.1175  139.3326  154.4262 H   0  0  0  0  0  0  0  0  0  0  0  0
  151.9419  137.9217  155.0525 H   0  0  0  0  0  0  0  0  0  0  0  0
  150.3951  138.8612  156.7712 H   0  0  0  0  0  0  0  0  0  0  0  0
  152.0394  138.9238  157.3417 H   0  0  0  0  0  0  0  0  0  0  0  0
  150.0923  141.8780  154.0953 H   0  0  0  0  0  0  0  0  0  0  0  0
  149.4816  140.3943  154.7925 H   0  0  0  0  0  0  0  0  0  0  0  0
  148.1301  142.2758  152.9797 H   0  0  0  0  0  0  0  0  0  0  0  0
  147.3969  140.8123  153.6124 H   0  0  0  0  0  0  0  0  0  0  0  0
  146.3353  143.6732  153.9421 H   0  0  0  0  0  0  0  0  0  0  0  0
  145.6521  142.4497  152.8970 H   0  0  0  0  0  0  0  0  0  0  0  0
  144.3972  142.6580  155.0780 H   0  0  0  0  0  0  0  0  0  0  0  0
  145.0385  141.0481  154.8224 H   0  0  0  0  0  0  0  0  0  0  0  0
  146.2719  143.2329  156.5699 H   0  0  0  0  0  0  0  0  0  0  0  0
  145.5551  141.7396  157.1257 H   0  0  0  0  0  0  0  0  0  0  0  0
  147.3476  140.4152  156.0012 H   0  0  0  0  0  0  0  0  0  0  0  0
  148.0314  141.5935  157.1066 H   0  0  0  0  0  0  0  0  0  0  0  0
  151.6913  144.7076  158.7604 H   0  0  0  0  0  0  0  0  0  0  0  0
  153.2366  143.8523  160.5266 H   0  0  0  0  0  0  0  0  0  0  0  0
  153.0103  139.8478  158.9275 H   0  0  0  0  0  0  0  0  0  0  0  0
  150.1940  143.7628  156.4842 H   0  0  0  0  0  0  0  0  0  0  0  0
  1  2  1  0  0  0  0
  1 21  1  0  0  0  0
  2  3  1  0  0  0  0
  2 22  1  0  0  0  0
  2 23  1  0  0  0  0
  3  4  1  0  0  0  0
  3 24  1  0  0  0  0
  3 25  1  0  0  0  0
  4 20  1  0  0  0  0
  4  5  1  0  0  0  0
  5  6  1  0  0  0  0
  5 13  2  0  0  0  0
  6  7  1  0  0  0  0
  6 26  1  0  0  0  0
  6 27  1  0  0  0  0
  7 12  1  0  0  0  0
  7  8  1  0  0  0  0
  8  9  1  0  0  0  0
  8 28  1  0  0  0  0
  8 29  1  0  0  0  0
  9 10  1  0  0  0  0
  9 30  1  0  0  0  0
  9 31  1  0  0  0  0
 10 11  1  0  0  0  0
 10 32  1  0  0  0  0
 10 33  1  0  0  0  0
 11 12  1  0  0  0  0
 11 34  1  0  0  0  0
 11 35  1  0  0  0  0
 12 36  1  0  0  0  0
 12 37  1  0  0  0  0
 13 14  1  0  0  0  0
 13 41  1  0  0  0  0
 14 20  2  0  0  0  0
 14 15  1  0  0  0  0
 15 16  2  0  0  0  0
 15 38  1  0  0  0  0
 16 17  1  0  0  0  0
 16 39  1  0  0  0  0
 17 18  1  0  0  0  0
 17 19  2  0  0  0  0
 19 20  1  0  0  0  0
 19 40  1  0  0  0  0
M  CHG  1  13   1
M  END
> <s_m_source_file>
AV-unprocessed.smi

> <i_m_source_file_index>
518

> <i_lp_mmshare_version>
43012

> <i_f3d_flags>
0

> <s_epik_input>
W2NIXTFbY0hdYyhDbClbY0hdYyhjMTIpbihbQ0gyXVtDSDJdW09IXSljKG4yKVtDSDJdTjNbQ0gyXVtDSDJdW0NIMl1bQ0gyXVtDSDJdMw==

> <s_epik_cmdline>
J2VwaWtfcHl0aG9uJywgJy1waCcsICc3LjAnLCAnLXRuJywgJzgnLCAnLW1hJywgJzIwMCcsICctbWV0YWxfYmluZGluZycsICctaW1hZScsICc8aW5maWxlLm1hZT4nLCAnLW9tYWUnLCAnPG91dGZpbGUubWFlPic=

> <r_epik_Ionization_Penalty>
1.35728

> <r_epik_Ionization_Penalty_Charging>
1.07632

> <r_epik_Ionization_Penalty_Neutral>
0.28096

> <r_epik_State_Penalty>
1.90917

> <r_epik_Charging_Adjusted_Penalty>
2.98548

> <i_epik_Tot_Q>
1

> <i_epik_Tot_abs_Q>
1

> <r_epik_Metal_State_Penalty>
5.90072

> <b_epik_Metal_Only>
0

> <s_lp_Force_Field>
OPLS_2005

> <r_lp_Energy>
20.298

> <b_lp_Chiralities_Consistent>
1

> <s_lp_Variant>
AV-unprocessed.smi:518-3

> <Gold.Version>
5.8.1

> <Gold.Id.Protein>
6NUR|6NUR_protein|mol2

> <Gold.PLP.Fitness>
54.3438

> <Gold.PLP.PLP>
-45.7054

> <Gold.PLP.part.hbond>
-3.0000

> <Gold.PLP.part.metal>
0.0000

> <Gold.PLP.part.buried>
-6.4096

> <Gold.PLP.part.nonpolar>
-38.5420

> <Gold.PLP.part.repulsive>
2.4288

> <Gold.PLP.ligand.clash>
0.0000

> <Gold.PLP.ligand.torsion>
0.1847

> <Gold.PLP.Chemscore.Hbond>
3.0000

> <Gold.PLP.Chemscore.CHOScore>
0.0000

> <Gold.PLP.Chemscore.Metal>
0.0000

> <Gold.Chemscore.Hbonds>
donor molecule, donor type, donor heavy atom, donor atom, acceptor molecule, acceptor atom, score
      L1  H    13    41       P1  8028  2.00
      P1  H  7997  8008       L1     1  1.00

> <Gold.PLP.Chemscore.Internal.Correction>
0.0079

> <Gold.Rescore>
     Score         DG    S(hbond)    S(metal)    S(lipo)     H(rot)  DE(clash)    DE(int)     intcor
     19.36     -19.94       1.95        0.00     113.48       2.08       0.37       0.21       ----

> <Gold.Chemscore.Fitness>
19.3600

> <Gold.Chemscore.DG>
-19.9441

> <Gold.Chemscore.ZeroCoef>
-5.4800

> <Gold.Chemscore.Hbond>
1.9484

> <Gold.Chemscore.Metal>
0.0000

> <Gold.Chemscore.Lipo>
113.4841

> <Gold.Chemscore.Internal_Hbond>
0.0000

> <Gold.Chemscore.DEClash>
0.3696

> <Gold.Chemscore.DEInternal>
0.2145

> <Gold.Chemscore.Rot>
2.0786

> <Gold.Chemscore.Internal.Correction>
   9.000000E+99

> <Gold.Chemscore.Hbonds>
donor molecule, donor type, donor heavy atom, donor atom, acceptor molecule, acceptor atom, score
      L1  H    13    41       P1  8028  0.98
      P1  H  7997  8008       L1     1  0.90

> <Gold.Chemscore.Hbond.Weighted>
-6.5076

> <Gold.Chemscore.Metal.Weighted>
-0.0000

> <Gold.Chemscore.Lipo.Weighted>
-13.2776

> <Gold.Chemscore.Internal_Hbond.Weighted>
0.0000

> <Gold.Chemscore.DEClash.Weighted>
0.3696

> <Gold.Chemscore.DEInternal.Weighted>
0.2145

> <Gold.Chemscore.Rot.Weighted>
5.3212

> <Gold.Chemscore.Internal.Correction.Weighted>
   9.000000E+99

> <Gold.Protein.RotatedTorsions>
[ 6907 6896 6895 6894 ] final  -84.61 input  -60.11 | X-H torsion
[ 7974 7965 7964 7962 ] final  -19.96 input  175.53 | X-H torsion
[ 8008 7997 7996 7995 ] final  -33.38 input   59.86 | X-H torsion
[ 10167 10162 10161 10158 ] final   68.48 input  -65.29 | X-H torsion
[ 10718 10713 10712 10709 ] final  -77.23 input   66.30 | X-H torsion
[ 10763 10752 10751 10750 ] final -124.94 input  -60.55 | X-H torsion
[ 11005 11000 10999 10996 ] final  -91.77 input  -57.11 | X-H torsion

> <Gold.Protein.ActiveResidues>
 VAL166  LYS551  ARG553  GLY616  TRP617  ASP618  TYR619  PRO620  LYS621  CYS622 
 ASP623  PHE694  ASN695  SER759  ASP760  ASP761  ALA762  ILE779  LEU786  VAL792 
 PHE793  MET794  SER795  GLU796  ALA797  LYS798  CYS799  TRP800  GLU811  SER814 

> <Gold.Protein.RotatedAtoms>
  150.6875  134.3332  159.4835 H   0  0  0  0  0  0  0  0  0  0  0  0  # atno 6907 bound_to 6896
  152.1194  134.9214  160.0573 H   0  0  0  0  0  0  0  0  0  0  0  0  # atno 6908 bound_to 6896
  152.0426  133.3949  159.4380 H   0  0  0  0  0  0  0  0  0  0  0  0  # atno 6909 bound_to 6896
  146.1813  140.4136  142.8493 H   0  0  0  0  0  0  0  0  0  0  0  0  # atno 7974 bound_to 7965
  154.4150  140.1712  156.1879 H   0  0  0  0  0  0  0  0  0  0  0  0  # atno 8008 bound_to 7997
  155.9628  140.3392  155.6482 H   0  0  0  0  0  0  0  0  0  0  0  0  # atno 8009 bound_to 7997
  155.6727  140.0713  157.2505 H   0  0  0  0  0  0  0  0  0  0  0  0  # atno 8010 bound_to 7997
  140.0781  144.5094  150.7180 H   0  0  0  0  0  0  0  0  0  0  0  0  # atno 10167 bound_to 10162
  156.0151  130.4486  150.3314 H   0  0  0  0  0  0  0  0  0  0  0  0  # atno 10718 bound_to 10713
  154.8730  135.4046  154.3187 H   0  0  0  0  0  0  0  0  0  0  0  0  # atno 10763 bound_to 10752
  153.4019  135.7018  153.6425 H   0  0  0  0  0  0  0  0  0  0  0  0  # atno 10764 bound_to 10752
  153.5165  135.3696  155.2582 H   0  0  0  0  0  0  0  0  0  0  0  0  # atno 10765 bound_to 10752
  141.1537  133.7777  156.9926 H   0  0  0  0  0  0  0  0  0  0  0  0  # atno 11005 bound_to 11000
  144.8321  140.6723  143.6284 LP  0  0  0  0  0  0  0  0  0  0  0  0  # atno 17320 bound_to 7965
  145.4066  139.1587  143.4148 LP  0  0  0  0  0  0  0  0  0  0  0  0  # atno 17321 bound_to 7965
  140.7091  143.2491  151.4635 LP  0  0  0  0  0  0  0  0  0  0  0  0  # atno 17342 bound_to 10162
  139.5795  144.1741  152.1949 LP  0  0  0  0  0  0  0  0  0  0  0  0  # atno 17343 bound_to 10162
  157.1411  131.0297  151.2927 LP  0  0  0  0  0  0  0  0  0  0  0  0  # atno 17370 bound_to 10713
  157.4471  130.7577  149.7119 LP  0  0  0  0  0  0  0  0  0  0  0  0  # atno 17371 bound_to 10713
  140.0993  134.9545  157.1898 LP  0  0  0  0  0  0  0  0  0  0  0  0  # atno 17394 bound_to 11000
  140.3340  134.2778  155.7223 LP  0  0  0  0  0  0  0  0  0  0  0  0  # atno 17395 bound_to 11000

$$$$
