AV-unprocessed.smi:870|AV-procd|sdf|4008|dock10
  -GOLD-   22720 1493D 1   1.00000     0.00000
 Structure written by MMmdl.
 46 48  0  0  0  0  0  0  0  0  1 V2000
  149.2024  133.9028  155.7883 C   0  0  0  0  0  0  0  0  0  0  0  0
  148.8656  135.2034  155.3418 O   0  0  0  0  0  0  0  0  0  0  0  0
  149.5625  136.2146  156.0502 C   0  0  0  0  0  0  0  0  0  0  0  0
  148.9718  137.5333  155.6514 C   0  0  0  0  0  0  0  0  0  0  0  0
  147.6924  137.8289  155.8839 N   0  0  0  0  0  0  0  0  0  0  0  0
  147.5711  139.0963  155.3486 C   0  0  0  0  0  0  0  0  0  0  0  0
  146.4536  139.9586  155.2760 C   0  0  0  0  0  0  0  0  0  0  0  0
  146.5680  141.2255  154.6670 C   0  0  0  0  0  0  0  0  0  0  0  0
  147.7983  141.6469  154.1223 C   0  0  0  0  0  0  0  0  0  0  0  0
  148.9240  140.8033  154.1843 C   0  0  0  0  0  0  0  0  0  0  0  0
  148.8053  139.5406  154.7956 C   0  0  0  0  0  0  0  0  0  0  0  0
  149.6952  138.4953  155.0223 N   0  0  0  0  0  0  0  0  0  0  0  0
  151.1017  138.4674  154.6401 C   0  0  0  0  0  0  0  0  0  0  0  0
  152.0538  138.5989  155.8495 C   0  0  1  0  0  0  0  0  0  0  0  0
  153.4125  138.4937  155.4738 O   0  0  0  0  0  0  0  0  0  0  0  0
  151.8549  139.8958  156.6499 C   0  0  0  0  0  0  0  0  0  0  0  0
  152.5496  139.8002  157.8869 O   0  0  0  0  0  0  0  0  0  0  0  0
  152.6191  140.9141  158.6967 C   0  0  0  0  0  0  0  0  0  0  0  0
  152.0145  142.1572  158.3804 C   0  0  0  0  0  0  0  0  0  0  0  0
  152.1292  143.2517  159.2585 C   0  0  0  0  0  0  0  0  0  0  0  0
  152.8466  143.1199  160.4607 C   0  0  0  0  0  0  0  0  0  0  0  0
  153.4498  141.8912  160.7849 C   0  0  0  0  0  0  0  0  0  0  0  0
  153.3383  140.7916  159.9084 C   0  0  0  0  0  0  0  0  0  0  0  0
  153.9895  139.4710  160.2748 C   0  0  0  0  0  0  0  0  0  0  0  0
  148.6317  133.1634  155.2268 H   0  0  0  0  0  0  0  0  0  0  0  0
  148.9678  133.7766  156.8459 H   0  0  0  0  0  0  0  0  0  0  0  0
  150.2630  133.6973  155.6381 H   0  0  0  0  0  0  0  0  0  0  0  0
  149.4707  136.0830  157.1293 H   0  0  0  0  0  0  0  0  0  0  0  0
  150.6244  136.1927  155.7991 H   0  0  0  0  0  0  0  0  0  0  0  0
  145.5068  139.6442  155.6892 H   0  0  0  0  0  0  0  0  0  0  0  0
  145.7077  141.8768  154.6170 H   0  0  0  0  0  0  0  0  0  0  0  0
  147.8771  142.6186  153.6568 H   0  0  0  0  0  0  0  0  0  0  0  0
  149.8670  141.1233  153.7675 H   0  0  0  0  0  0  0  0  0  0  0  0
  151.3067  137.5515  154.0883 H   0  0  0  0  0  0  0  0  0  0  0  0
  151.2795  139.2838  153.9395 H   0  0  0  0  0  0  0  0  0  0  0  0
  151.8714  137.7634  156.5257 H   0  0  0  0  0  0  0  0  0  0  0  0
  153.4550  138.3665  154.5382 H   0  0  0  0  0  0  0  0  0  0  0  0
  152.2590  140.7295  156.0734 H   0  0  0  0  0  0  0  0  0  0  0  0
  150.7919  140.0846  156.8103 H   0  0  0  0  0  0  0  0  0  0  0  0
  151.4558  142.2987  157.4680 H   0  0  0  0  0  0  0  0  0  0  0  0
  151.6650  144.1943  159.0084 H   0  0  0  0  0  0  0  0  0  0  0  0
  152.9340  143.9602  161.1336 H   0  0  0  0  0  0  0  0  0  0  0  0
  153.9982  141.7965  161.7106 H   0  0  0  0  0  0  0  0  0  0  0  0
  154.5957  139.5605  161.1763 H   0  0  0  0  0  0  0  0  0  0  0  0
  154.6351  139.1256  159.4667 H   0  0  0  0  0  0  0  0  0  0  0  0
  153.2257  138.7138  160.4520 H   0  0  0  0  0  0  0  0  0  0  0  0
  1  2  1  0  0  0  0
  1 25  1  0  0  0  0
  1 26  1  0  0  0  0
  1 27  1  0  0  0  0
  2  3  1  0  0  0  0
  3  4  1  0  0  0  0
  3 28  1  0  0  0  0
  3 29  1  0  0  0  0
  4 12  1  0  0  0  0
  4  5  2  0  0  0  0
  5  6  1  0  0  0  0
  6 11  2  0  0  0  0
  6  7  1  0  0  0  0
  7  8  2  0  0  0  0
  7 30  1  0  0  0  0
  8  9  1  0  0  0  0
  8 31  1  0  0  0  0
  9 10  2  0  0  0  0
  9 32  1  0  0  0  0
 10 11  1  0  0  0  0
 10 33  1  0  0  0  0
 11 12  1  0  0  0  0
 12 13  1  0  0  0  0
 13 14  1  0  0  0  0
 13 34  1  0  0  0  0
 13 35  1  0  0  0  0
 14 15  1  0  0  0  0
 14 16  1  0  0  0  0
 14 36  1  0  0  0  0
 15 37  1  0  0  0  0
 16 17  1  0  0  0  0
 16 38  1  0  0  0  0
 16 39  1  0  0  0  0
 17 18  1  0  0  0  0
 18 23  1  0  0  0  0
 18 19  2  0  0  0  0
 19 20  1  0  0  0  0
 19 40  1  0  0  0  0
 20 21  2  0  0  0  0
 20 41  1  0  0  0  0
 21 22  1  0  0  0  0
 21 42  1  0  0  0  0
 22 23  2  0  0  0  0
 22 43  1  0  0  0  0
 23 24  1  0  0  0  0
 24 44  1  0  0  0  0
 24 45  1  0  0  0  0
 24 46  1  0  0  0  0
M  END
> <s_m_source_file>
AV-unprocessed.smi

> <i_m_source_file_index>
870

> <i_lp_mmshare_version>
43012

> <i_f3d_flags>
0

> <s_epik_input>
W2NIXTFbY0hdW2NIXVtjSF1jKGMxMiluKGMobjIpW0NIMl1PW0NIM10pW0NIMl1bQ0BIXShbT0hdKVtDSDJdT2MzW2NIXVtjSF1bY0hdW2NIXWMzW0NIM10=

> <s_epik_cmdline>
J2VwaWtfcHl0aG9uJywgJy1waCcsICc3LjAnLCAnLXRuJywgJzgnLCAnLW1hJywgJzIwMCcsICctbWV0YWxfYmluZGluZycsICctaW1hZScsICc8aW5maWxlLm1hZT4nLCAnLW9tYWUnLCAnPG91dGZpbGUubWFlPic=

> <r_lp_tautomer_probability>
1

> <r_epik_Ionization_Penalty>
0.0447032

> <r_epik_Ionization_Penalty_Charging>
0

> <r_epik_Ionization_Penalty_Neutral>
0.0447032

> <r_epik_State_Penalty>
0.0379025

> <r_epik_Charging_Adjusted_Penalty>
0.0379025

> <i_epik_Tot_Q>
0

> <i_epik_Tot_abs_Q>
0

> <r_epik_Metal_State_Penalty>
3.91398e-05

> <b_epik_Metal_Only>
0

> <s_lp_Force_Field>
OPLS_2005

> <r_lp_Energy>
16.5078

> <b_lp_Chiralities_Consistent>
1

> <s_lp_Variant>
AV-unprocessed.smi:870-2

> <Gold.Version>
5.8.1

> <Gold.Id.Protein>
6NUR|6NUR_protein|mol2

> <Gold.PLP.Fitness>
48.5718

> <Gold.PLP.PLP>
-45.1722

> <Gold.PLP.part.hbond>
-1.8719

> <Gold.PLP.part.metal>
0.0000

> <Gold.PLP.part.buried>
-4.8400

> <Gold.PLP.part.nonpolar>
-38.5342

> <Gold.PLP.part.repulsive>
0.7604

> <Gold.PLP.ligand.clash>
0.0000

> <Gold.PLP.ligand.torsion>
0.2267

> <Gold.PLP.Chemscore.Hbond>
1.2320

> <Gold.PLP.Chemscore.CHOScore>
0.0000

> <Gold.PLP.Chemscore.Metal>
0.0000

> <Gold.Chemscore.Hbonds>
donor molecule, donor type, donor heavy atom, donor atom, acceptor molecule, acceptor atom, score
      P1  H  7997  8008       L1    15  0.04
      P1  H  7997  8010       L1    17  0.20

> <Gold.PLP.Chemscore.Internal.Correction>
0.1570

> <Gold.Rescore>
     Score         DG    S(hbond)    S(metal)    S(lipo)     H(rot)  DE(clash)    DE(int)     intcor
     16.21     -16.63       0.81        0.00     123.67       2.36       0.07       0.34       ----

> <Gold.Chemscore.Fitness>
16.2130

> <Gold.Chemscore.DG>
-16.6263

> <Gold.Chemscore.ZeroCoef>
-5.4800

> <Gold.Chemscore.Hbond>
0.8129

> <Gold.Chemscore.Metal>
0.0000

> <Gold.Chemscore.Lipo>
123.6660

> <Gold.Chemscore.Internal_Hbond>
0.0000

> <Gold.Chemscore.DEClash>
0.0715

> <Gold.Chemscore.DEInternal>
0.3419

> <Gold.Chemscore.Rot>
2.3585

> <Gold.Chemscore.Internal.Correction>
   9.000000E+99

> <Gold.Chemscore.Hbond.Weighted>
-2.7152

> <Gold.Chemscore.Metal.Weighted>
-0.0000

> <Gold.Chemscore.Lipo.Weighted>
-14.4689

> <Gold.Chemscore.Internal_Hbond.Weighted>
0.0000

> <Gold.Chemscore.DEClash.Weighted>
0.0715

> <Gold.Chemscore.DEInternal.Weighted>
0.3419

> <Gold.Chemscore.Rot.Weighted>
6.0378

> <Gold.Chemscore.Internal.Correction.Weighted>
   9.000000E+99

> <Gold.Protein.RotatedTorsions>
[ 6907 6896 6895 6894 ] final   94.80 input  -60.11 | X-H torsion
[ 7974 7965 7964 7962 ] final  -13.81 input  175.53 | X-H torsion
[ 8008 7997 7996 7995 ] final   24.59 input   59.86 | X-H torsion
[ 10167 10162 10161 10158 ] final  -55.33 input  -65.29 | X-H torsion
[ 10718 10713 10712 10709 ] final   37.44 input   66.30 | X-H torsion
[ 10763 10752 10751 10750 ] final -166.93 input  -60.55 | X-H torsion
[ 11005 11000 10999 10996 ] final -117.19 input  -57.11 | X-H torsion

> <Gold.Protein.ActiveResidues>
 VAL166  LYS551  ARG553  GLY616  TRP617  ASP618  TYR619  PRO620  LYS621  CYS622 
 ASP623  PHE694  ASN695  SER759  ASP760  ASP761  ALA762  ILE779  LEU786  VAL792 
 PHE793  MET794  SER795  GLU796  ALA797  LYS798  CYS799  TRP800  GLU811  SER814 

> <Gold.Protein.RotatedAtoms>
  152.5447  134.1138  159.8369 H   0  0  0  0  0  0  0  0  0  0  0  0  # atno 6907 bound_to 6896
  151.1202  133.5102  159.2610 H   0  0  0  0  0  0  0  0  0  0  0  0  # atno 6908 bound_to 6896
  151.1787  135.0361  159.8838 H   0  0  0  0  0  0  0  0  0  0  0  0  # atno 6909 bound_to 6896
  146.2099  140.3258  142.8394 H   0  0  0  0  0  0  0  0  0  0  0  0  # atno 7974 bound_to 7965
  154.9985  140.3122  155.4877 H   0  0  0  0  0  0  0  0  0  0  0  0  # atno 8008 bound_to 7997
  156.2929  140.2236  156.5035 H   0  0  0  0  0  0  0  0  0  0  0  0  # atno 8009 bound_to 7997
  154.7639  140.0457  157.0984 H   0  0  0  0  0  0  0  0  0  0  0  0  # atno 8010 bound_to 7997
  140.6381  143.2493  151.5064 H   0  0  0  0  0  0  0  0  0  0  0  0  # atno 10167 bound_to 10162
  157.3469  130.7578  149.6951 H   0  0  0  0  0  0  0  0  0  0  0  0  # atno 10718 bound_to 10713
  154.6783  135.2950  154.9648 H   0  0  0  0  0  0  0  0  0  0  0  0  # atno 10763 bound_to 10752
  154.0651  135.6626  153.4821 H   0  0  0  0  0  0  0  0  0  0  0  0  # atno 10764 bound_to 10752
  153.0531  135.5161  154.7814 H   0  0  0  0  0  0  0  0  0  0  0  0  # atno 10765 bound_to 10752
  141.0372  133.9892  157.3053 H   0  0  0  0  0  0  0  0  0  0  0  0  # atno 11005 bound_to 11000
  144.8888  140.7496  143.5940 LP  0  0  0  0  0  0  0  0  0  0  0  0  # atno 17320 bound_to 7965
  145.3180  139.1797  143.4603 LP  0  0  0  0  0  0  0  0  0  0  0  0  # atno 17321 bound_to 7965
  139.5590  144.2202  152.1661 LP  0  0  0  0  0  0  0  0  0  0  0  0  # atno 17342 bound_to 10162
  140.1465  144.5154  150.6713 LP  0  0  0  0  0  0  0  0  0  0  0  0  # atno 17343 bound_to 10162
  155.9715  130.4151  150.4167 LP  0  0  0  0  0  0  0  0  0  0  0  0  # atno 17370 bound_to 10713
  157.2224  131.0485  151.2539 LP  0  0  0  0  0  0  0  0  0  0  0  0  # atno 17371 bound_to 10713
  139.9249  135.0201  156.8198 LP  0  0  0  0  0  0  0  0  0  0  0  0  # atno 17394 bound_to 11000
  140.6301  133.9913  155.7658 LP  0  0  0  0  0  0  0  0  0  0  0  0  # atno 17395 bound_to 11000

$$$$
