#       Name:                AV-unprocessed.smi:2075
#       Creating user name   scv26
#       Creation time:       Fri Mar 27 11:15:25 2020


#       File generated by GOLD software.
#

@<TRIPOS>MOLECULE
AV-unprocessed.smi:2075
    43    44     1
SMALL
NO_CHARGES


@<TRIPOS>ATOM
      1 ****        -2.1176   2.7262   1.7253 O.2            1 S1                 0.0000
      2 ****        -2.4436   1.8501   2.5266 C.2            1 S1                 0.0000
      3 ****        -3.9206   1.5619   2.8228 C.3            1 S1                 0.0000
      4 ****        -4.8993   2.0246   1.7245 C.3            1 S1                 0.0000
      5 ****        -6.1366   1.6631   2.0627 F              1 S1                 0.0000
      6 ****        -4.8692   3.3505   1.5832 F              1 S1                 0.0000
      7 ****        -4.5946   1.4588   0.5557 F              1 S1                 0.0000
      8 ****        -1.5523   1.0945   3.1873 N.am           1 S1                 0.0000
      9 ****        -0.1032   1.1933   3.0421 C.3            1 S1                 0.0000
     10 ****         0.4403   0.5713   1.7636 C.ar           1 S1                 0.0000
     11 ****         1.5578   1.1340   1.1180 C.ar           1 S1                 0.0000
     12 ****         2.0424   0.5374  -0.0617 C.ar           1 S1                 0.0000
     13 ****         1.3951  -0.6174  -0.5716 C.ar           1 S1                 0.0000
     14 ****         1.8319  -1.2692  -1.7485 N.3            1 S1                 0.0000
     15 ****         3.0436  -0.7879  -2.4079 C.3            1 S1                 0.0000
     16 ****         3.5337  -1.8030  -3.4544 C.3            1 S1                 0.0000
     17 ****         2.4838  -2.0998  -4.3672 O.3            1 S1                 0.0000
     18 ****         1.3723  -2.6973  -3.7099 C.3            1 S1                 0.0000
     19 ****         0.7917  -1.7204  -2.6734 C.3            1 S1                 0.0000
     20 ****         0.3259  -1.1587   0.0618 N.ar           1 S1                 0.0000
     21 ****        -0.1343  -0.5829   1.1917 C.ar           1 S1                 0.0000
     22 ****        -4.0397   0.4879   2.9745 H              1 S1                 0.0000
     23 ****        -4.1790   2.0378   3.7695 H              1 S1                 0.0000
     24 ****        -1.9007   0.3991   3.8312 H              1 S1                 0.0000
     25 ****         0.2009   2.2397   3.1055 H              1 S1                 0.0000
     26 ****         0.3582   0.6867   3.8898 H              1 S1                 0.0000
     27 ****         2.0383   2.0156   1.5163 H              1 S1                 0.0000
     28 ****         2.8922   0.9866  -0.5521 H              1 S1                 0.0000
     29 ****         2.8375   0.1722  -2.8829 H              1 S1                 0.0000
     30 ****         3.8384  -0.6333  -1.6776 H              1 S1                 0.0000
     31 ****         4.3793  -1.3929  -4.0064 H              1 S1                 0.0000
     32 ****         3.8824  -2.7187  -2.9738 H              1 S1                 0.0000
     33 ****         0.6145  -2.9487  -4.4520 H              1 S1                 0.0000
     34 ****         1.6746  -3.6325  -3.2356 H              1 S1                 0.0000
     35 ****        -0.0266  -2.2166  -2.1518 H              1 S1                 0.0000
     36 ****         0.3685  -0.8499  -3.1762 H              1 S1                 0.0000
     37 ****        -0.9860  -1.0639   1.6496 H              1 S1                 0.0000
     38 ****        -2.8202   3.2619   1.2569 LP             1 S1                 0.0000
     39 ****        -1.1502   2.9022   1.5430 LP             1 S1                 0.0000
     40 ****         2.1625  -2.1059  -1.3120 LP             1 S1                 0.0000
     41 ****         2.8272  -2.7307  -5.0628 LP             1 S1                 0.0000
     42 ****         2.1847  -1.2518  -4.8048 LP             1 S1                 0.0000
     43 ****        -0.1173  -1.9767  -0.3048 LP             1 S1                 0.0000
@<TRIPOS>BOND
    1    1    2 2     
    2    2    3 1     
    3    2    8 am    
    4    3    4 1     
    5    3   22 1     
    6    3   23 1     
    7    4    5 1     
    8    4    6 1     
    9    4    7 1     
   10    8    9 1     
   11    8   24 1     
   12    9   10 1     
   13    9   25 1     
   14    9   26 1     
   15   10   21 ar    
   16   10   11 ar    
   17   11   12 ar    
   18   11   27 1     
   19   12   13 ar    
   20   12   28 1     
   21   13   14 1     
   22   13   20 ar    
   23   14   19 1     
   24   14   15 1     
   25   15   16 1     
   26   15   29 1     
   27   15   30 1     
   28   16   17 1     
   29   16   31 1     
   30   16   32 1     
   31   17   18 1     
   32   18   19 1     
   33   18   33 1     
   34   18   34 1     
   35   19   35 1     
   36   19   36 1     
   37   20   21 ar    
   38   21   37 1     
   39    1   38 1     
   40    1   39 1     
   41   14   40 1     
   42   17   41 1     
   43   17   42 1     
   44   20   43 1     
@<TRIPOS>SUBSTRUCTURE
      1 S1             1
@<TRIPOS>SET
LONE_PAIRS      STATIC     ATOMS    <user>   **** ""
6 38 39 40 41 42 43
DONOR_HYDROGENS      STATIC     ATOMS    <user>   **** ""
1 24
ATOM$BLUE        STATIC     ATOMS    COLORGROUP SYSTEM
6 38 39 40 41 42 43
ATOM$RED        STATIC     ATOMS    COLORGROUP SYSTEM
1 24
