AV-unprocessed.smi:1656|AV-procd|sdf|6646|dock6
  -GOLD-   22720 7353D 1   1.00000     0.00000
 Structure written by MMmdl.
 49 52  0  0  0  0  0  0  0  0  1 V2000
  153.1205  143.2877  162.8421 C   0  0  0  0  0  0  0  0  0  0  0  0
  152.4565  143.1253  161.5013 C   0  0  0  0  0  0  0  0  0  0  0  0
  151.5308  143.9770  161.2043 N   0  0  0  0  0  0  0  0  0  0  0  0
  150.8632  143.9216  159.9960 N   0  0  0  0  0  0  0  0  0  0  0  0
  149.8705  144.9899  159.8078 C   0  0  0  0  0  0  0  0  0  0  0  0
  148.4789  144.6141  160.3370 C   0  0  0  0  0  0  0  0  0  0  0  0
  148.3177  144.3479  161.5285 O   0  0  0  0  0  0  0  0  0  0  0  0
  147.4932  144.5857  159.4234 N   0  0  0  0  0  0  0  0  0  0  0  0
  146.0721  144.2868  159.6304 C   0  0  0  0  0  0  0  0  0  0  0  0
  145.8580  143.3229  160.8297 C   0  0  0  0  0  0  0  0  0  0  0  0
  144.3572  142.9882  160.9718 C   0  0  1  0  0  0  0  0  0  0  0  0
  143.5579  144.2884  161.2075 C   0  0  0  0  0  0  0  0  0  0  0  0
  143.7503  145.2355  160.0029 C   0  0  2  0  0  0  0  0  0  0  0  0
  143.2483  144.5465  158.7170 C   0  0  0  0  0  0  0  0  0  0  0  0
  144.0532  143.2503  158.4889 C   0  0  2  0  0  0  0  0  0  0  0  0
  143.8554  142.2981  159.6863 C   0  0  0  0  0  0  0  0  0  0  0  0
  145.5513  143.5927  158.3458 C   0  0  0  0  0  0  0  0  0  0  0  0
  145.2472  145.5840  159.8550 C   0  0  0  0  0  0  0  0  0  0  0  0
  151.0852  142.9858  159.0281 C   0  0  0  0  0  0  0  0  0  0  0  0
  150.4566  142.9667  157.9687 O   0  0  0  0  0  0  0  0  0  0  0  0
  152.1353  142.0245  159.3713 C   0  0  0  0  0  0  0  0  0  0  0  0
  152.4085  141.0351  158.3795 C   0  0  0  0  0  0  0  0  0  0  0  0
  152.6136  140.2221  157.5811 N   0  0  0  0  0  0  0  0  0  0  0  0
  152.8050  142.0748  160.5501 C   0  0  0  0  0  0  0  0  0  0  0  0
  153.9056  141.1028  160.9525 C   0  0  0  0  0  0  0  0  0  0  0  0
  152.9327  142.4195  163.4739 H   0  0  0  0  0  0  0  0  0  0  0  0
  152.7550  144.1677  163.3734 H   0  0  0  0  0  0  0  0  0  0  0  0
  154.1991  143.3984  162.7294 H   0  0  0  0  0  0  0  0  0  0  0  0
  150.2163  145.9065  160.2899 H   0  0  0  0  0  0  0  0  0  0  0  0
  149.7729  145.2353  158.7489 H   0  0  0  0  0  0  0  0  0  0  0  0
  147.7519  144.8179  158.4755 H   0  0  0  0  0  0  0  0  0  0  0  0
  146.4333  142.4069  160.6886 H   0  0  0  0  0  0  0  0  0  0  0  0
  146.2134  143.7662  161.7600 H   0  0  0  0  0  0  0  0  0  0  0  0
  144.2158  142.3182  161.8202 H   0  0  0  0  0  0  0  0  0  0  0  0
  142.4997  144.0620  161.3440 H   0  0  0  0  0  0  0  0  0  0  0  0
  143.8899  144.7742  162.1259 H   0  0  0  0  0  0  0  0  0  0  0  0
  143.1816  146.1512  160.1675 H   0  0  0  0  0  0  0  0  0  0  0  0
  142.1840  144.3216  158.7988 H   0  0  0  0  0  0  0  0  0  0  0  0
  143.3573  145.2152  157.8623 H   0  0  0  0  0  0  0  0  0  0  0  0
  143.7042  142.7635  157.5777 H   0  0  0  0  0  0  0  0  0  0  0  0
  144.3966  141.3656  159.5213 H   0  0  0  0  0  0  0  0  0  0  0  0
  142.8028  142.0304  159.7867 H   0  0  0  0  0  0  0  0  0  0  0  0
  145.7003  144.2384  157.4790 H   0  0  0  0  0  0  0  0  0  0  0  0
  146.1200  142.6824  158.1496 H   0  0  0  0  0  0  0  0  0  0  0  0
  145.5805  146.1125  160.7483 H   0  0  0  0  0  0  0  0  0  0  0  0
  145.3898  146.2737  159.0218 H   0  0  0  0  0  0  0  0  0  0  0  0
  154.0591  140.3215  160.2088 H   0  0  0  0  0  0  0  0  0  0  0  0
  153.6606  140.6116  161.8947 H   0  0  0  0  0  0  0  0  0  0  0  0
  154.8521  141.6302  161.0753 H   0  0  0  0  0  0  0  0  0  0  0  0
  1  2  1  0  0  0  0
  1 26  1  0  0  0  0
  1 27  1  0  0  0  0
  1 28  1  0  0  0  0
  2 24  1  0  0  0  0
  2  3  2  0  0  0  0
  3  4  1  0  0  0  0
  4  5  1  0  0  0  0
  4 19  1  0  0  0  0
  5  6  1  0  0  0  0
  5 29  1  0  0  0  0
  5 30  1  0  0  0  0
  6  7  2  0  0  0  0
  6  8  1  0  0  0  0
  8  9  1  0  0  0  0
  8 31  1  0  0  0  0
  9 17  1  0  0  0  0
  9 18  1  0  0  0  0
  9 10  1  0  0  0  0
 10 11  1  0  0  0  0
 10 32  1  0  0  0  0
 10 33  1  0  0  0  0
 11 16  1  0  0  0  0
 11 12  1  0  0  0  0
 11 34  1  0  0  0  0
 12 13  1  0  0  0  0
 12 35  1  0  0  0  0
 12 36  1  0  0  0  0
 13 14  1  0  0  0  0
 13 18  1  0  0  0  0
 13 37  1  0  0  0  0
 14 15  1  0  0  0  0
 14 38  1  0  0  0  0
 14 39  1  0  0  0  0
 15 16  1  0  0  0  0
 15 17  1  0  0  0  0
 15 40  1  0  0  0  0
 16 41  1  0  0  0  0
 16 42  1  0  0  0  0
 17 43  1  0  0  0  0
 17 44  1  0  0  0  0
 18 45  1  0  0  0  0
 18 46  1  0  0  0  0
 19 20  2  0  0  0  0
 19 21  1  0  0  0  0
 21 22  1  0  0  0  0
 21 24  2  0  0  0  0
 22 23  3  0  0  0  0
 24 25  1  0  0  0  0
 25 47  1  0  0  0  0
 25 48  1  0  0  0  0
 25 49  1  0  0  0  0
M  END
> <s_m_source_file>
AV-unprocessed.smi

> <i_m_source_file_index>
1656

> <i_lp_mmshare_version>
43012

> <i_f3d_flags>
0

> <s_epik_input>
TiNDYyhjMVtDSDNdKWMoPU8pbihuYzFbQ0gzXSlbQ0gyXUMoPU8pW05IXUMyM1tDSDJdW0NASF00W0NIMl1bQ0BASF0oW0NIMl0zKVtDSDJdW0NASF0oW0NIMl00KVtDSDJdMg==

> <s_epik_cmdline>
J2VwaWtfcHl0aG9uJywgJy1waCcsICc3LjAnLCAnLXRuJywgJzgnLCAnLW1hJywgJzIwMCcsICctbWV0YWxfYmluZGluZycsICctaW1hZScsICc8aW5maWxlLm1hZT4nLCAnLW9tYWUnLCAnPG91dGZpbGUubWFlPic=

> <r_lp_tautomer_probability>
1

> <r_epik_Ionization_Penalty>
2.33831e-08

> <r_epik_Ionization_Penalty_Charging>
2.51001e-11

> <r_epik_Ionization_Penalty_Neutral>
2.3358e-08

> <r_epik_State_Penalty>
-0

> <r_epik_Charging_Adjusted_Penalty>
2.51001e-11

> <i_epik_Tot_Q>
0

> <i_epik_Tot_abs_Q>
0

> <r_epik_Metal_State_Penalty>
-0

> <b_epik_Metal_Only>
0

> <s_lp_Force_Field>
OPLS_2005

> <r_lp_Energy>
45.1543

> <b_lp_Chiralities_Consistent>
1

> <s_lp_Variant>
AV-unprocessed.smi:1656-1

> <Gold.Version>
5.8.1

> <Gold.Id.Protein>
6NUR|6NUR_protein|mol2

> <Gold.PLP.Fitness>
48.3210

> <Gold.PLP.PLP>
-41.5062

> <Gold.PLP.part.hbond>
-3.0000

> <Gold.PLP.part.metal>
0.0000

> <Gold.PLP.part.buried>
-8.4880

> <Gold.PLP.part.nonpolar>
-31.2431

> <Gold.PLP.part.repulsive>
0.5992

> <Gold.PLP.ligand.clash>
0.0000

> <Gold.PLP.ligand.torsion>
0.9271

> <Gold.PLP.Chemscore.Hbond>
2.8880

> <Gold.PLP.Chemscore.CHOScore>
0.0000

> <Gold.PLP.Chemscore.Metal>
0.0000

> <Gold.Chemscore.Hbonds>
donor molecule, donor type, donor heavy atom, donor atom, acceptor molecule, acceptor atom, score
      L1  H     8    31       P1  8029  0.99
      P1  H  6933  6944       L1     7  0.88
      P1  H  7997  8010       L1    23  1.00

> <Gold.PLP.Chemscore.Internal.Correction>
0.0050

> <Gold.Rescore>
     Score         DG    S(hbond)    S(metal)    S(lipo)     H(rot)  DE(clash)    DE(int)     intcor
     18.04     -20.63       2.33        0.00      94.47       1.44       0.22       2.36       ----

> <Gold.Chemscore.Fitness>
18.0432

> <Gold.Chemscore.DG>
-20.6300

> <Gold.Chemscore.ZeroCoef>
-5.4800

> <Gold.Chemscore.Hbond>
2.3337

> <Gold.Chemscore.Metal>
0.0000

> <Gold.Chemscore.Lipo>
94.4659

> <Gold.Chemscore.Internal_Hbond>
0.0000

> <Gold.Chemscore.DEClash>
0.2230

> <Gold.Chemscore.DEInternal>
2.3638

> <Gold.Chemscore.Rot>
1.4442

> <Gold.Chemscore.Internal.Correction>
   9.000000E+99

> <Gold.Chemscore.Hbonds>
donor molecule, donor type, donor heavy atom, donor atom, acceptor molecule, acceptor atom, score
      L1  H     8    31       P1  8029  0.92
      P1  H  6933  6944       L1     7  0.22
      P1  H  7997  8010       L1    23  0.90

> <Gold.Chemscore.Hbond.Weighted>
-7.7946

> <Gold.Chemscore.Metal.Weighted>
-0.0000

> <Gold.Chemscore.Lipo.Weighted>
-11.0525

> <Gold.Chemscore.Internal_Hbond.Weighted>
0.0000

> <Gold.Chemscore.DEClash.Weighted>
0.2230

> <Gold.Chemscore.DEInternal.Weighted>
2.3638

> <Gold.Chemscore.Rot.Weighted>
3.6971

> <Gold.Chemscore.Internal.Correction.Weighted>
   9.000000E+99

> <Gold.Protein.RotatedTorsions>
[ 6907 6896 6895 6894 ] final   -2.71 input  -60.11 | X-H torsion
[ 7974 7965 7964 7962 ] final  -18.70 input  175.53 | X-H torsion
[ 8008 7997 7996 7995 ] final   54.36 input   59.86 | X-H torsion
[ 10167 10162 10161 10158 ] final   19.54 input  -65.29 | X-H torsion
[ 10718 10713 10712 10709 ] final   -0.22 input   66.30 | X-H torsion
[ 10763 10752 10751 10750 ] final  160.87 input  -60.55 | X-H torsion
[ 11005 11000 10999 10996 ] final  -47.36 input  -57.11 | X-H torsion

> <Gold.Protein.ActiveResidues>
 VAL166  LYS551  ARG553  GLY616  TRP617  ASP618  TYR619  PRO620  LYS621  CYS622 
 ASP623  PHE694  ASN695  SER759  ASP760  ASP761  ALA762  ILE779  LEU786  VAL792 
 PHE793  MET794  SER795  GLU796  ALA797  LYS798  CYS799  TRP800  GLU811  SER814 

> <Gold.Protein.RotatedAtoms>
  151.5255  135.1068  159.9889 H   0  0  0  0  0  0  0  0  0  0  0  0  # atno 6907 bound_to 6896
  152.4602  133.7801  159.6856 H   0  0  0  0  0  0  0  0  0  0  0  0  # atno 6908 bound_to 6896
  150.8560  133.7649  159.3033 H   0  0  0  0  0  0  0  0  0  0  0  0  # atno 6909 bound_to 6896
  146.1879  140.3958  142.8469 H   0  0  0  0  0  0  0  0  0  0  0  0  # atno 7974 bound_to 7965
  155.4835  140.3469  155.4343 H   0  0  0  0  0  0  0  0  0  0  0  0  # atno 8008 bound_to 7997
  156.1024  140.1439  156.9478 H   0  0  0  0  0  0  0  0  0  0  0  0  # atno 8009 bound_to 7997
  154.4702  140.0903  156.7103 H   0  0  0  0  0  0  0  0  0  0  0  0  # atno 8010 bound_to 7997
  140.5571  143.9404  150.6617 H   0  0  0  0  0  0  0  0  0  0  0  0  # atno 10167 bound_to 10162
  156.8236  130.5465  149.5694 H   0  0  0  0  0  0  0  0  0  0  0  0  # atno 10718 bound_to 10713
  154.2541  135.2770  155.2804 H   0  0  0  0  0  0  0  0  0  0  0  0  # atno 10763 bound_to 10752
  154.5440  135.5694  153.6867 H   0  0  0  0  0  0  0  0  0  0  0  0  # atno 10764 bound_to 10752
  152.9975  135.6258  154.2689 H   0  0  0  0  0  0  0  0  0  0  0  0  # atno 10765 bound_to 10752
  141.0636  133.6701  156.3286 H   0  0  0  0  0  0  0  0  0  0  0  0  # atno 11005 bound_to 11000
  144.8431  140.6887  143.6217 LP  0  0  0  0  0  0  0  0  0  0  0  0  # atno 17320 bound_to 7965
  145.3883  139.1622  143.4243 LP  0  0  0  0  0  0  0  0  0  0  0  0  # atno 17321 bound_to 7965
  140.2845  143.3366  152.1120 LP  0  0  0  0  0  0  0  0  0  0  0  0  # atno 17342 bound_to 10162
  139.5053  144.6792  151.6052 LP  0  0  0  0  0  0  0  0  0  0  0  0  # atno 17343 bound_to 10162
  156.0974  130.5943  150.9837 LP  0  0  0  0  0  0  0  0  0  0  0  0  # atno 17370 bound_to 10713
  157.6444  131.0906  150.8185 LP  0  0  0  0  0  0  0  0  0  0  0  0  # atno 17371 bound_to 10713
  140.5819  134.5737  157.5481 LP  0  0  0  0  0  0  0  0  0  0  0  0  # atno 17394 bound_to 11000
  139.9455  134.7709  156.0572 LP  0  0  0  0  0  0  0  0  0  0  0  0  # atno 17395 bound_to 11000

$$$$
