AV-unprocessed.smi:79|AV-procd|sdf|777|dock2
  -GOLD-   2262017133D 1   1.00000     0.00000
 Structure written by MMmdl.
 56 59  0  0  0  0  0  0  0  0  2 V2000
  145.9085  131.8518  149.4596 C   0  0  0  0  0  0  0  0  0  0  0  0
  145.9771  132.6302  150.7819 C   0  0  2  0  0  0  0  0  0  0  0  0
  147.3200  132.6305  151.2186 O   0  0  0  0  0  0  0  0  0  0  0  0
  145.1061  132.0096  151.8932 C   0  0  0  0  0  0  0  0  0  0  0  0
  144.7731  132.9718  152.9746 N   0  3  2  0  0  0  0  0  0  0  0  0
  144.1171  134.2128  152.4830 C   0  0  0  0  0  0  0  0  0  0  0  0
  143.7195  135.1314  153.6507 C   0  0  0  0  0  0  0  0  0  0  0  0
  144.8702  135.4013  154.5099 N   0  0  0  0  0  0  0  0  0  0  0  0
  145.5844  136.5131  154.1909 C   0  0  0  0  0  0  0  0  0  0  0  0
  145.2711  137.2288  153.0779 N   0  0  0  0  0  0  0  0  0  0  0  0
  145.9609  138.3297  152.7649 C   0  0  0  0  0  0  0  0  0  0  0  0
  146.9861  138.8838  153.4141 N   0  0  0  0  0  0  0  0  0  0  0  0
  147.3111  138.1682  154.5285 C   0  0  0  0  0  0  0  0  0  0  0  0
  146.6675  136.9838  154.9860 C   0  0  0  0  0  0  0  0  0  0  0  0
  147.2788  136.5345  156.1504 N   0  0  0  0  0  0  0  0  0  0  0  0
  148.2234  137.4069  156.3729 C   0  0  0  0  0  0  0  0  0  0  0  0
  148.3210  138.4169  155.4424 N   0  0  0  0  0  0  0  0  0  0  0  0
  149.2792  139.5119  155.4404 C   0  0  0  0  0  0  0  0  0  0  0  0
  150.7482  139.0504  155.4521 C   0  0  0  0  0  0  0  0  0  0  0  0
  150.9251  137.9448  154.3915 C   0  0  0  0  0  0  0  0  0  0  0  0
  150.2290  138.2277  153.1939 O   0  0  0  0  0  0  0  0  0  0  0  0
  151.7860  140.1821  155.4333 C   0  0  0  0  0  0  0  0  0  0  0  0
  152.4727  139.6472  156.5865 O   0  0  0  0  0  0  0  0  0  0  0  0
  151.3577  138.7622  156.8318 C   0  0  0  0  0  0  0  0  0  0  0  0
  145.5743  134.2148  155.0082 C   0  0  1  0  0  0  0  0  0  0  0  0
  144.7567  133.4933  156.0937 C   0  0  0  0  0  0  0  0  0  0  0  0
  145.9434  133.2674  153.8431 C   0  0  0  0  0  0  0  0  0  0  0  0
  144.8965  131.8467  149.0543 H   0  0  0  0  0  0  0  0  0  0  0  0
  146.2202  130.8149  149.5904 H   0  0  0  0  0  0  0  0  0  0  0  0
  146.5575  132.3009  148.7070 H   0  0  0  0  0  0  0  0  0  0  0  0
  145.6998  133.6691  150.6067 H   0  0  0  0  0  0  0  0  0  0  0  0
  147.7820  131.9283  150.7862 H   0  0  0  0  0  0  0  0  0  0  0  0
  144.1839  131.6420  151.4401 H   0  0  0  0  0  0  0  0  0  0  0  0
  145.5997  131.1387  152.3279 H   0  0  0  0  0  0  0  0  0  0  0  0
  144.7968  134.7399  151.8114 H   0  0  0  0  0  0  0  0  0  0  0  0
  143.2251  133.9735  151.9060 H   0  0  0  0  0  0  0  0  0  0  0  0
  143.2844  136.0489  153.2559 H   0  0  0  0  0  0  0  0  0  0  0  0
  142.9368  134.6615  154.2465 H   0  0  0  0  0  0  0  0  0  0  0  0
  145.6457  138.8401  151.8666 H   0  0  0  0  0  0  0  0  0  0  0  0
  148.8802  137.3333  157.2271 H   0  0  0  0  0  0  0  0  0  0  0  0
  149.0837  140.1426  154.5721 H   0  0  0  0  0  0  0  0  0  0  0  0
  149.0670  140.1357  156.3096 H   0  0  0  0  0  0  0  0  0  0  0  0
  151.9753  137.8146  154.1300 H   0  0  0  0  0  0  0  0  0  0  0  0
  150.5713  136.9848  154.7688 H   0  0  0  0  0  0  0  0  0  0  0  0
  149.8906  137.4178  152.8438 H   0  0  0  0  0  0  0  0  0  0  0  0
  152.4136  140.2057  154.5417 H   0  0  0  0  0  0  0  0  0  0  0  0
  151.3690  141.1701  155.6358 H   0  0  0  0  0  0  0  0  0  0  0  0
  150.7514  139.1092  157.6694 H   0  0  0  0  0  0  0  0  0  0  0  0
  151.6651  137.7262  156.9782 H   0  0  0  0  0  0  0  0  0  0  0  0
  146.4991  134.5293  155.4943 H   0  0  0  0  0  0  0  0  0  0  0  0
  145.3215  132.6636  156.5194 H   0  0  0  0  0  0  0  0  0  0  0  0
  143.8226  133.0876  155.7050 H   0  0  0  0  0  0  0  0  0  0  0  0
  144.5101  134.1723  156.9106 H   0  0  0  0  0  0  0  0  0  0  0  0
  146.3580  132.3404  154.2409 H   0  0  0  0  0  0  0  0  0  0  0  0
  146.7262  133.7170  153.2305 H   0  0  0  0  0  0  0  0  0  0  0  0
  144.1027  132.5067  153.5698 H   0  0  0  0  0  0  0  0  0  0  0  0
  1  2  1  0  0  0  0
  1 28  1  0  0  0  0
  1 29  1  0  0  0  0
  1 30  1  0  0  0  0
  2  3  1  0  0  0  0
  2  4  1  0  0  0  0
  2 31  1  0  0  0  0
  3 32  1  0  0  0  0
  4  5  1  0  0  0  0
  4 33  1  0  0  0  0
  4 34  1  0  0  0  0
  5 27  1  0  0  0  0
  5  6  1  0  0  0  0
  5 56  1  0  0  0  0
  6  7  1  0  0  0  0
  6 35  1  0  0  0  0
  6 36  1  0  0  0  0
  7  8  1  0  0  0  0
  7 37  1  0  0  0  0
  7 38  1  0  0  0  0
  8  9  1  0  0  0  0
  8 25  1  0  0  0  0
  9 14  1  0  0  0  0
  9 10  2  0  0  0  0
 10 11  1  0  0  0  0
 11 12  2  0  0  0  0
 11 39  1  0  0  0  0
 12 13  1  0  0  0  0
 13 17  1  0  0  0  0
 13 14  2  0  0  0  0
 14 15  1  0  0  0  0
 15 16  2  0  0  0  0
 16 17  1  0  0  0  0
 16 40  1  0  0  0  0
 17 18  1  0  0  0  0
 18 19  1  0  0  0  0
 18 41  1  0  0  0  0
 18 42  1  0  0  0  0
 19 24  1  0  0  0  0
 19 20  1  0  0  0  0
 19 22  1  0  0  0  0
 20 21  1  0  0  0  0
 20 43  1  0  0  0  0
 20 44  1  0  0  0  0
 21 45  1  0  0  0  0
 22 23  1  0  0  0  0
 22 46  1  0  0  0  0
 22 47  1  0  0  0  0
 23 24  1  0  0  0  0
 24 48  1  0  0  0  0
 24 49  1  0  0  0  0
 25 26  1  0  0  0  0
 25 27  1  0  0  0  0
 25 50  1  0  0  0  0
 26 51  1  0  0  0  0
 26 52  1  0  0  0  0
 26 53  1  0  0  0  0
 27 54  1  0  0  0  0
 27 55  1  0  0  0  0
M  CHG  1   5   1
M  END
> <s_m_source_file>
AV-unprocessed.smi

> <i_m_source_file_index>
79

> <i_lp_mmshare_version>
43012

> <i_f3d_flags>
0

> <s_epik_input>
W0NIM11bQ0BIXShbT0hdKVtDSDJdTjFbQ0gyXVtDSDJdTihbQ0BASF0oW0NIM10pW0NIMl0xKWMobltjSF1uMiljKGMyMyluW2NIXW4zW0NIMl1DNChbQ0gyXVtPSF0pW0NIMl1PW0NIMl00

> <s_epik_cmdline>
J2VwaWtfcHl0aG9uJywgJy1waCcsICc3LjAnLCAnLXRuJywgJzgnLCAnLW1hJywgJzIwMCcsICctbWV0YWxfYmluZGluZycsICctaW1hZScsICc8aW5maWxlLm1hZT4nLCAnLW9tYWUnLCAnPG91dGZpbGUubWFlPic=

> <r_lp_tautomer_probability>
1

> <r_epik_Ionization_Penalty>
0.00515943

> <r_epik_Ionization_Penalty_Charging>
0.00509693

> <r_epik_Ionization_Penalty_Neutral>
6.25007e-05

> <r_epik_State_Penalty>
-0

> <r_epik_Charging_Adjusted_Penalty>
0.00509693

> <i_epik_Tot_Q>
1

> <i_epik_Tot_abs_Q>
1

> <r_epik_Metal_State_Penalty>
-0

> <b_epik_Metal_Only>
0

> <s_lp_Force_Field>
OPLS_2005

> <r_lp_Energy>
51.7042

> <b_lp_Chiralities_Consistent>
1

> <s_lp_Variant>
AV-unprocessed.smi:79-1

> <Gold.Version>
5.8.1

> <Gold.Id.Protein>
6NUR|6NUR_protein|mol2

> <Gold.PLP.Fitness>
42.9558

> <Gold.PLP.PLP>
-25.7686

> <Gold.PLP.part.hbond>
-5.9761

> <Gold.PLP.part.metal>
0.0000

> <Gold.PLP.part.buried>
0.7637

> <Gold.PLP.part.nonpolar>
-21.0065

> <Gold.PLP.part.repulsive>
0.4505

> <Gold.PLP.ligand.clash>
0.0000

> <Gold.PLP.ligand.torsion>
1.0209

> <Gold.PLP.Chemscore.Hbond>
5.0000

> <Gold.PLP.Chemscore.CHOScore>
1.0755

> <Gold.PLP.Chemscore.Metal>
0.0000

> <Gold.Chemscore.Hbonds>
donor molecule, donor type, donor heavy atom, donor atom, acceptor molecule, acceptor atom, score
      L1  H     3    32       P1 10747  1.00
      L1  H     5    56       P1 10957  2.00
      L1  H    21    45       P1  7948  0.95
      P1  H  7997  8010       L1    23  1.00
      L1  C    11    39       P1 10171  0.54
      L1  C    11    39       P1 10175  0.48

> <Gold.PLP.Chemscore.Internal.Correction>
1.0024

> <Gold.Rescore>
     Score         DG    S(hbond)    S(metal)    S(lipo)     H(rot)  DE(clash)    DE(int)     intcor
     11.33     -14.91       3.43        0.00      64.27       3.72       0.39       3.19       ----

> <Gold.Chemscore.Fitness>
11.3335

> <Gold.Chemscore.DG>
-14.9115

> <Gold.Chemscore.ZeroCoef>
-5.4800

> <Gold.Chemscore.Hbond>
3.4255

> <Gold.Chemscore.Metal>
0.0000

> <Gold.Chemscore.Lipo>
64.2746

> <Gold.Chemscore.Internal_Hbond>
0.0000

> <Gold.Chemscore.DEClash>
0.3871

> <Gold.Chemscore.DEInternal>
3.1909

> <Gold.Chemscore.Rot>
3.7226

> <Gold.Chemscore.Internal.Correction>
   9.000000E+99

> <Gold.Chemscore.Hbonds>
donor molecule, donor type, donor heavy atom, donor atom, acceptor molecule, acceptor atom, score
      L1  H     3    32       P1 10747  1.00
      L1  H     5    56       P1 10957  0.33
      L1  H    21    45       P1  7948  0.22
      P1  H  7997  8010       L1    23  0.65

> <Gold.Chemscore.Hbond.Weighted>
-11.4412

> <Gold.Chemscore.Metal.Weighted>
-0.0000

> <Gold.Chemscore.Lipo.Weighted>
-7.5201

> <Gold.Chemscore.Internal_Hbond.Weighted>
0.0000

> <Gold.Chemscore.DEClash.Weighted>
0.3871

> <Gold.Chemscore.DEInternal.Weighted>
3.1909

> <Gold.Chemscore.Rot.Weighted>
9.5298

> <Gold.Chemscore.Internal.Correction.Weighted>
   9.000000E+99

> <Gold.Protein.RotatedTorsions>
[ 6907 6896 6895 6894 ] final  -89.80 input  -60.11 | X-H torsion
[ 7974 7965 7964 7962 ] final  -53.72 input  175.53 | X-H torsion
[ 8008 7997 7996 7995 ] final   72.53 input   59.86 | X-H torsion
[ 10167 10162 10161 10158 ] final -174.94 input  -65.29 | X-H torsion
[ 10718 10713 10712 10709 ] final   30.03 input   66.30 | X-H torsion
[ 10763 10752 10751 10750 ] final -164.43 input  -60.55 | X-H torsion
[ 11005 11000 10999 10996 ] final -115.80 input  -57.11 | X-H torsion

> <Gold.Protein.ActiveResidues>
 VAL166  LYS551  ARG553  GLY616  TRP617  ASP618  TYR619  PRO620  LYS621  CYS622 
 ASP623  PHE694  ASN695  SER759  ASP760  ASP761  ALA762  ILE779  LEU786  VAL792 
 PHE793  MET794  SER795  GLU796  ALA797  LYS798  CYS799  TRP800  GLU811  SER814 

> <Gold.Protein.RotatedAtoms>
  150.6876  134.2531  159.4518 H   0  0  0  0  0  0  0  0  0  0  0  0  # atno 6907 bound_to 6896
  152.0467  134.9676  160.0583 H   0  0  0  0  0  0  0  0  0  0  0  0  # atno 6908 bound_to 6896
  152.1157  133.4290  159.4688 H   0  0  0  0  0  0  0  0  0  0  0  0  # atno 6909 bound_to 6896
  145.8937  140.8050  142.9778 H   0  0  0  0  0  0  0  0  0  0  0  0  # atno 7974 bound_to 7965
  155.7702  140.3484  155.5243 H   0  0  0  0  0  0  0  0  0  0  0  0  # atno 8008 bound_to 7997
  155.8829  140.1005  157.1494 H   0  0  0  0  0  0  0  0  0  0  0  0  # atno 8009 bound_to 7997
  154.4026  140.1319  156.4206 H   0  0  0  0  0  0  0  0  0  0  0  0  # atno 8010 bound_to 7997
  139.5607  144.1877  152.1234 H   0  0  0  0  0  0  0  0  0  0  0  0  # atno 10167 bound_to 10162
  157.2543  130.7130  149.6421 H   0  0  0  0  0  0  0  0  0  0  0  0  # atno 10718 bound_to 10713
  154.7029  135.2991  154.9314 H   0  0  0  0  0  0  0  0  0  0  0  0  # atno 10763 bound_to 10752
  154.0241  135.6679  153.4779 H   0  0  0  0  0  0  0  0  0  0  0  0  # atno 10764 bound_to 10752
  153.0695  135.5069  154.8183 H   0  0  0  0  0  0  0  0  0  0  0  0  # atno 10765 bound_to 10752
  141.0464  133.9756  157.2910 H   0  0  0  0  0  0  0  0  0  0  0  0  # atno 11005 bound_to 11000
  144.6732  140.1569  143.7425 LP  0  0  0  0  0  0  0  0  0  0  0  0  # atno 17320 bound_to 7965
  145.8877  139.2358  143.1568 LP  0  0  0  0  0  0  0  0  0  0  0  0  # atno 17321 bound_to 7965
  140.1390  144.5220  150.6756 LP  0  0  0  0  0  0  0  0  0  0  0  0  # atno 17342 bound_to 10162
  140.6886  143.2363  151.5192 LP  0  0  0  0  0  0  0  0  0  0  0  0  # atno 17343 bound_to 10162
  155.9665  130.4417  150.5353 LP  0  0  0  0  0  0  0  0  0  0  0  0  # atno 17370 bound_to 10713
  157.3244  131.0688  151.1908 LP  0  0  0  0  0  0  0  0  0  0  0  0  # atno 17371 bound_to 10713
  139.9315  135.0199  156.8416 LP  0  0  0  0  0  0  0  0  0  0  0  0  # atno 17394 bound_to 11000
  140.6139  134.0057  155.7588 LP  0  0  0  0  0  0  0  0  0  0  0  0  # atno 17395 bound_to 11000

$$$$
