AV-unprocessed.smi:1181|AV-procd|sdf|4966|dock9
  -GOLD-   22720 3563D 1   1.00000     0.00000
 Structure written by MMmdl.
 44 45  0  0  0  0  0  0  0  0  1 V2000
  144.8887  136.1139  151.1517 C   0  0  0  0  0  0  0  0  0  0  0  0
  145.3057  137.1860  151.9785 O   0  0  0  0  0  0  0  0  0  0  0  0
  145.7923  138.2894  151.2324 C   0  0  0  0  0  0  0  0  0  0  0  0
  146.1970  139.4093  152.1956 C   0  0  0  0  0  0  0  0  0  0  0  0
  146.9967  138.8537  153.2352 O   0  0  0  0  0  0  0  0  0  0  0  0
  147.7922  139.7004  153.9791 C   0  0  0  0  0  0  0  0  0  0  0  0
  148.8380  139.1435  154.7414 C   0  0  0  0  0  0  0  0  0  0  0  0
  149.6522  140.0015  155.5041 C   0  0  0  0  0  0  0  0  0  0  0  0
  149.4054  141.3885  155.4755 C   0  0  0  0  0  0  0  0  0  0  0  0
  150.2275  142.2289  156.2724 N   0  0  0  0  0  0  0  0  0  0  0  0
  151.0953  141.8837  157.2440 C   0  0  0  0  0  0  0  0  0  0  0  0
  151.2718  140.7206  157.6080 O   0  0  0  0  0  0  0  0  0  0  0  0
  151.7402  142.9349  157.8134 N   0  0  0  0  0  0  0  0  0  0  0  0
  151.5510  144.3599  157.4893 C   0  0  0  0  0  0  0  0  0  0  0  0
  150.7984  145.0339  158.6502 C   0  0  0  0  0  0  0  0  0  0  0  0
  151.5580  144.8559  159.9826 C   0  0  0  0  0  0  0  0  0  0  0  0
  150.7702  145.4339  161.1660 C   0  0  0  0  0  0  0  0  0  0  0  0
  151.9311  143.3750  160.2127 C   0  0  0  0  0  0  0  0  0  0  0  0
  152.6235  142.7731  158.9758 C   0  0  0  0  0  0  0  0  0  0  0  0
  148.3226  141.8503  154.6883 C   0  0  0  0  0  0  0  0  0  0  0  0
  147.5367  141.0321  153.9563 N   0  0  0  0  0  0  0  0  0  0  0  0
  144.5253  135.2939  151.7709 H   0  0  0  0  0  0  0  0  0  0  0  0
  145.7143  135.7383  150.5460 H   0  0  0  0  0  0  0  0  0  0  0  0
  144.0782  136.4195  150.4887 H   0  0  0  0  0  0  0  0  0  0  0  0
  146.6629  137.9747  150.6551 H   0  0  0  0  0  0  0  0  0  0  0  0
  145.0415  138.6470  150.5259 H   0  0  0  0  0  0  0  0  0  0  0  0
  146.7320  140.1945  151.6584 H   0  0  0  0  0  0  0  0  0  0  0  0
  145.2969  139.8502  152.6273 H   0  0  0  0  0  0  0  0  0  0  0  0
  149.0111  138.0776  154.7421 H   0  0  0  0  0  0  0  0  0  0  0  0
  150.4580  139.5969  156.0993 H   0  0  0  0  0  0  0  0  0  0  0  0
  150.0989  143.2204  156.1321 H   0  0  0  0  0  0  0  0  0  0  0  0
  152.5273  144.8291  157.3590 H   0  0  0  0  0  0  0  0  0  0  0  0
  151.0242  144.5380  156.5520 H   0  0  0  0  0  0  0  0  0  0  0  0
  150.6617  146.0946  158.4372 H   0  0  0  0  0  0  0  0  0  0  0  0
  149.7993  144.6029  158.7319 H   0  0  0  0  0  0  0  0  0  0  0  0
  152.4897  145.4180  159.9041 H   0  0  0  0  0  0  0  0  0  0  0  0
  149.8191  144.9175  161.2991 H   0  0  0  0  0  0  0  0  0  0  0  0
  150.5564  146.4924  161.0154 H   0  0  0  0  0  0  0  0  0  0  0  0
  151.3331  145.3402  162.0951 H   0  0  0  0  0  0  0  0  0  0  0  0
  152.5829  143.2847  161.0822 H   0  0  0  0  0  0  0  0  0  0  0  0
  151.0331  142.7981  160.4390 H   0  0  0  0  0  0  0  0  0  0  0  0
  152.8855  141.7322  159.1694 H   0  0  0  0  0  0  0  0  0  0  0  0
  153.5691  143.2838  158.7882 H   0  0  0  0  0  0  0  0  0  0  0  0
  148.0487  142.8931  154.6500 H   0  0  0  0  0  0  0  0  0  0  0  0
  1  2  1  0  0  0  0
  1 22  1  0  0  0  0
  1 23  1  0  0  0  0
  1 24  1  0  0  0  0
  2  3  1  0  0  0  0
  3  4  1  0  0  0  0
  3 25  1  0  0  0  0
  3 26  1  0  0  0  0
  4  5  1  0  0  0  0
  4 27  1  0  0  0  0
  4 28  1  0  0  0  0
  5  6  1  0  0  0  0
  6 21  1  0  0  0  0
  6  7  2  0  0  0  0
  7  8  1  0  0  0  0
  7 29  1  0  0  0  0
  8  9  2  0  0  0  0
  8 30  1  0  0  0  0
  9 10  1  0  0  0  0
  9 20  1  0  0  0  0
 10 11  1  0  0  0  0
 10 31  1  0  0  0  0
 11 12  2  0  0  0  0
 11 13  1  0  0  0  0
 13 19  1  0  0  0  0
 13 14  1  0  0  0  0
 14 15  1  0  0  0  0
 14 32  1  0  0  0  0
 14 33  1  0  0  0  0
 15 16  1  0  0  0  0
 15 34  1  0  0  0  0
 15 35  1  0  0  0  0
 16 17  1  0  0  0  0
 16 18  1  0  0  0  0
 16 36  1  0  0  0  0
 17 37  1  0  0  0  0
 17 38  1  0  0  0  0
 17 39  1  0  0  0  0
 18 19  1  0  0  0  0
 18 40  1  0  0  0  0
 18 41  1  0  0  0  0
 19 42  1  0  0  0  0
 19 43  1  0  0  0  0
 20 21  2  0  0  0  0
 20 44  1  0  0  0  0
M  END
> <s_m_source_file>
AV-unprocessed.smi

> <i_m_source_file_index>
1181

> <i_lp_mmshare_version>
43012

> <i_f3d_flags>
0

> <s_epik_input>
W0NIM11PW0NIMl1bQ0gyXU9jMVtjSF1bY0hdYyhbY0hdbjEpW05IXUMoPU8pTjJbQ0gyXVtDSDJdW0NIXShbQ0gzXSlbQ0gyXVtDSDJdMg==

> <s_epik_cmdline>
J2VwaWtfcHl0aG9uJywgJy1waCcsICc3LjAnLCAnLXRuJywgJzgnLCAnLW1hJywgJzIwMCcsICctbWV0YWxfYmluZGluZycsICctaW1hZScsICc8aW5maWxlLm1hZT4nLCAnLW9tYWUnLCAnPG91dGZpbGUubWFlPic=

> <r_lp_tautomer_probability>
1

> <r_epik_Ionization_Penalty>
8.49399e-05

> <r_epik_Ionization_Penalty_Charging>
0

> <r_epik_Ionization_Penalty_Neutral>
8.49399e-05

> <r_epik_State_Penalty>
-0

> <r_epik_Charging_Adjusted_Penalty>
0

> <i_epik_Tot_Q>
0

> <i_epik_Tot_abs_Q>
0

> <r_epik_Metal_State_Penalty>
-0

> <b_epik_Metal_Only>
0

> <s_lp_Force_Field>
OPLS_2005

> <r_lp_Energy>
36.0421

> <b_lp_Chiralities_Consistent>
1

> <s_lp_Variant>
AV-unprocessed.smi:1181-1

> <Gold.Version>
5.8.1

> <Gold.Id.Protein>
6NUR|6NUR_protein|mol2

> <Gold.PLP.Fitness>
43.4877

> <Gold.PLP.PLP>
-38.4300

> <Gold.PLP.part.hbond>
-1.0000

> <Gold.PLP.part.metal>
0.0000

> <Gold.PLP.part.buried>
5.3309

> <Gold.PLP.part.nonpolar>
-44.6059

> <Gold.PLP.part.repulsive>
0.8769

> <Gold.PLP.ligand.clash>
0.0000

> <Gold.PLP.ligand.torsion>
0.4028

> <Gold.PLP.Chemscore.Hbond>
0.9425

> <Gold.PLP.Chemscore.CHOScore>
1.0000

> <Gold.PLP.Chemscore.Metal>
0.0000

> <Gold.Chemscore.Hbonds>
donor molecule, donor type, donor heavy atom, donor atom, acceptor molecule, acceptor atom, score
      L1  H    10    31       P1  8028  0.98
      L1  C    20    44       P1  8028  1.00

> <Gold.PLP.Chemscore.Internal.Correction>
0.0358

> <Gold.Rescore>
     Score         DG    S(hbond)    S(metal)    S(lipo)     H(rot)  DE(clash)    DE(int)     intcor
     13.80     -18.28       0.91        0.00     117.34       1.55       2.64       1.84       ----

> <Gold.Chemscore.Fitness>
13.8010

> <Gold.Chemscore.DG>
-18.2762

> <Gold.Chemscore.ZeroCoef>
-5.4800

> <Gold.Chemscore.Hbond>
0.9101

> <Gold.Chemscore.Metal>
0.0000

> <Gold.Chemscore.Lipo>
117.3390

> <Gold.Chemscore.Internal_Hbond>
0.0000

> <Gold.Chemscore.DEClash>
2.6376

> <Gold.Chemscore.DEInternal>
1.8376

> <Gold.Chemscore.Rot>
1.5517

> <Gold.Chemscore.Internal.Correction>
   9.000000E+99

> <Gold.Chemscore.Hbonds>
donor molecule, donor type, donor heavy atom, donor atom, acceptor molecule, acceptor atom, score
      L1  H    10    31       P1  8028  0.91

> <Gold.Chemscore.Hbond.Weighted>
-3.0398

> <Gold.Chemscore.Metal.Weighted>
-0.0000

> <Gold.Chemscore.Lipo.Weighted>
-13.7287

> <Gold.Chemscore.Internal_Hbond.Weighted>
0.0000

> <Gold.Chemscore.DEClash.Weighted>
2.6376

> <Gold.Chemscore.DEInternal.Weighted>
1.8376

> <Gold.Chemscore.Rot.Weighted>
3.9723

> <Gold.Chemscore.Internal.Correction.Weighted>
   9.000000E+99

> <Gold.Protein.RotatedTorsions>
[ 6907 6896 6895 6894 ] final   11.35 input  -60.11 | X-H torsion
[ 7974 7965 7964 7962 ] final  134.93 input  175.53 | X-H torsion
[ 8008 7997 7996 7995 ] final  176.40 input   59.86 | X-H torsion
[ 10167 10162 10161 10158 ] final -102.46 input  -65.29 | X-H torsion
[ 10718 10713 10712 10709 ] final  -65.29 input   66.30 | X-H torsion
[ 10763 10752 10751 10750 ] final  -39.45 input  -60.55 | X-H torsion
[ 11005 11000 10999 10996 ] final   26.47 input  -57.11 | X-H torsion

> <Gold.Protein.ActiveResidues>
 VAL166  LYS551  ARG553  GLY616  TRP617  ASP618  TYR619  PRO620  LYS621  CYS622 
 ASP623  PHE694  ASN695  SER759  ASP760  ASP761  ALA762  ILE779  LEU786  VAL792 
 PHE793  MET794  SER795  GLU796  ALA797  LYS798  CYS799  TRP800  GLU811  SER814 

> <Gold.Protein.RotatedAtoms>
  151.7530  135.0828  160.0333 H   0  0  0  0  0  0  0  0  0  0  0  0  # atno 6907 bound_to 6896
  152.3404  133.6056  159.5881 H   0  0  0  0  0  0  0  0  0  0  0  0  # atno 6908 bound_to 6896
  150.7476  133.9647  159.3568 H   0  0  0  0  0  0  0  0  0  0  0  0  # atno 6909 bound_to 6896
  144.9714  139.4601  143.5431 H   0  0  0  0  0  0  0  0  0  0  0  0  # atno 7974 bound_to 7965
  156.0769  140.1384  156.9760 H   0  0  0  0  0  0  0  0  0  0  0  0  # atno 8008 bound_to 7997
  154.4563  140.0960  156.6815 H   0  0  0  0  0  0  0  0  0  0  0  0  # atno 8009 bound_to 7997
  155.5139  140.3454  155.4396 H   0  0  0  0  0  0  0  0  0  0  0  0  # atno 8010 bound_to 7997
  140.2304  143.3611  152.0891 H   0  0  0  0  0  0  0  0  0  0  0  0  # atno 10167 bound_to 10162
  156.0678  130.4245  150.1543 H   0  0  0  0  0  0  0  0  0  0  0  0  # atno 10718 bound_to 10713
  153.9297  135.6773  153.4746 H   0  0  0  0  0  0  0  0  0  0  0  0  # atno 10763 bound_to 10752
  153.0986  135.4839  154.8822 H   0  0  0  0  0  0  0  0  0  0  0  0  # atno 10764 bound_to 10752
  154.7435  135.3166  154.8644 H   0  0  0  0  0  0  0  0  0  0  0  0  # atno 10765 bound_to 10752
  140.3366  134.2379  155.7695 H   0  0  0  0  0  0  0  0  0  0  0  0  # atno 11005 bound_to 11000
  146.3383  139.8929  142.8806 LP  0  0  0  0  0  0  0  0  0  0  0  0  # atno 17320 bound_to 7965
  145.2553  141.0058  143.3857 LP  0  0  0  0  0  0  0  0  0  0  0  0  # atno 17321 bound_to 7965
  139.5112  144.6896  151.5794 LP  0  0  0  0  0  0  0  0  0  0  0  0  # atno 17342 bound_to 10162
  140.6189  143.9296  150.6510 LP  0  0  0  0  0  0  0  0  0  0  0  0  # atno 17343 bound_to 10162
  156.9600  130.9802  151.3481 LP  0  0  0  0  0  0  0  0  0  0  0  0  # atno 17370 bound_to 10713
  157.5730  130.8324  149.8418 LP  0  0  0  0  0  0  0  0  0  0  0  0  # atno 17371 bound_to 10713
  141.2049  133.7873  157.0260 LP  0  0  0  0  0  0  0  0  0  0  0  0  # atno 17394 bound_to 11000
  140.0816  134.9645  157.1633 LP  0  0  0  0  0  0  0  0  0  0  0  0  # atno 17395 bound_to 11000

$$$$
