AV-unprocessed.smi:438|AV-procd|sdf|2577|dock6
  -GOLD-   2262022563D 1   1.00000     0.00000
 Structure written by MMmdl.
 48 49  0  0  0  0  0  0  0  0  1 V2000
  147.3474  142.4665  157.2389 C   0  0  0  0  0  0  0  0  0  0  0  0
  146.4213  141.2909  156.9861 C   0  0  0  0  0  0  0  0  0  0  0  0
  145.8023  140.7854  158.0755 N   0  0  0  0  0  0  0  0  0  0  0  0
  144.9771  139.7585  157.8691 C   0  0  0  0  0  0  0  0  0  0  0  0
  144.1752  139.0748  159.3009 S   0  0  0  0  0  0  0  0  0  0  0  0
  145.0337  137.4795  159.4568 C   0  0  0  0  0  0  0  0  0  0  0  0
  145.4099  137.1723  160.9028 C   0  0  0  0  0  0  0  0  0  0  0  0
  145.8172  138.0727  161.6361 O   0  0  0  0  0  0  0  0  0  0  0  0
  145.2578  135.8983  161.2979 N   0  0  0  0  0  0  0  0  0  0  0  0
  145.5078  135.3726  162.6414 C   0  0  2  0  0  0  0  0  0  0  0  0
  147.0224  135.1785  162.8572 C   0  0  0  0  0  0  0  0  0  0  0  0
  147.5876  134.0174  162.0209 C   0  0  0  0  0  0  0  0  0  0  0  0
  146.8183  132.7150  162.2861 C   0  0  0  0  0  0  0  0  0  0  0  0
  145.3111  132.8965  162.0447 C   0  0  0  0  0  0  0  0  0  0  0  0
  144.7351  134.0515  162.8901 C   0  0  2  0  0  0  0  0  0  0  0  0
  143.2162  134.1933  162.6898 C   0  0  0  0  0  0  0  0  0  0  0  0
  144.6990  139.1640  156.7091 N   0  0  0  0  0  0  0  0  0  0  0  0
  145.3107  139.6569  155.6109 C   0  0  0  0  0  0  0  0  0  0  0  0
  145.0322  139.0736  154.4090 O   0  0  0  0  0  0  0  0  0  0  0  0
  146.2107  140.7490  155.6920 C   0  0  0  0  0  0  0  0  0  0  0  0
  146.8998  141.3056  154.4523 C   0  0  0  0  0  0  0  0  0  0  0  0
  148.4143  141.0589  154.4728 C   0  0  0  0  0  0  0  0  0  0  0  0
  148.9577  141.3175  153.1969 O   0  0  0  0  0  0  0  0  0  0  0  0
  147.1193  143.2898  156.5617 H   0  0  0  0  0  0  0  0  0  0  0  0
  148.3850  142.1687  157.0866 H   0  0  0  0  0  0  0  0  0  0  0  0
  147.2493  142.8383  158.2598 H   0  0  0  0  0  0  0  0  0  0  0  0
  144.3857  136.6909  159.0733 H   0  0  0  0  0  0  0  0  0  0  0  0
  145.9373  137.4674  158.8471 H   0  0  0  0  0  0  0  0  0  0  0  0
  144.9122  135.2382  160.6165 H   0  0  0  0  0  0  0  0  0  0  0  0
  145.1705  136.1014  163.3804 H   0  0  0  0  0  0  0  0  0  0  0  0
  147.5581  136.1004  162.6273 H   0  0  0  0  0  0  0  0  0  0  0  0
  147.2089  134.9775  163.9130 H   0  0  0  0  0  0  0  0  0  0  0  0
  147.5345  134.2647  160.9599 H   0  0  0  0  0  0  0  0  0  0  0  0
  148.6443  133.8766  162.2501 H   0  0  0  0  0  0  0  0  0  0  0  0
  147.2033  131.9191  161.6480 H   0  0  0  0  0  0  0  0  0  0  0  0
  146.9871  132.3950  163.3151 H   0  0  0  0  0  0  0  0  0  0  0  0
  145.1306  133.0836  160.9854 H   0  0  0  0  0  0  0  0  0  0  0  0
  144.7925  131.9674  162.2836 H   0  0  0  0  0  0  0  0  0  0  0  0
  144.8870  133.7884  163.9380 H   0  0  0  0  0  0  0  0  0  0  0  0
  142.9620  134.3925  161.6484 H   0  0  0  0  0  0  0  0  0  0  0  0
  142.8155  135.0085  163.2928 H   0  0  0  0  0  0  0  0  0  0  0  0
  142.6971  133.2809  162.9842 H   0  0  0  0  0  0  0  0  0  0  0  0
  144.5336  139.6383  153.8387 H   0  0  0  0  0  0  0  0  0  0  0  0
  146.4620  140.8687  153.5549 H   0  0  0  0  0  0  0  0  0  0  0  0
  146.6986  142.3751  154.3797 H   0  0  0  0  0  0  0  0  0  0  0  0
  148.9015  141.7046  155.2042 H   0  0  0  0  0  0  0  0  0  0  0  0
  148.6349  140.0272  154.7483 H   0  0  0  0  0  0  0  0  0  0  0  0
  149.1479  140.4919  152.7780 H   0  0  0  0  0  0  0  0  0  0  0  0
  1  2  1  0  0  0  0
  1 24  1  0  0  0  0
  1 25  1  0  0  0  0
  1 26  1  0  0  0  0
  2 20  1  0  0  0  0
  2  3  2  0  0  0  0
  3  4  1  0  0  0  0
  4  5  1  0  0  0  0
  4 17  2  0  0  0  0
  5  6  1  0  0  0  0
  6  7  1  0  0  0  0
  6 27  1  0  0  0  0
  6 28  1  0  0  0  0
  7  8  2  0  0  0  0
  7  9  1  0  0  0  0
  9 10  1  0  0  0  0
  9 29  1  0  0  0  0
 10 15  1  0  0  0  0
 10 11  1  0  0  0  0
 10 30  1  0  0  0  0
 11 12  1  0  0  0  0
 11 31  1  0  0  0  0
 11 32  1  0  0  0  0
 12 13  1  0  0  0  0
 12 33  1  0  0  0  0
 12 34  1  0  0  0  0
 13 14  1  0  0  0  0
 13 35  1  0  0  0  0
 13 36  1  0  0  0  0
 14 15  1  0  0  0  0
 14 37  1  0  0  0  0
 14 38  1  0  0  0  0
 15 16  1  0  0  0  0
 15 39  1  0  0  0  0
 16 40  1  0  0  0  0
 16 41  1  0  0  0  0
 16 42  1  0  0  0  0
 17 18  1  0  0  0  0
 18 19  1  0  0  0  0
 18 20  2  0  0  0  0
 19 43  1  0  0  0  0
 20 21  1  0  0  0  0
 21 22  1  0  0  0  0
 21 44  1  0  0  0  0
 21 45  1  0  0  0  0
 22 23  1  0  0  0  0
 22 46  1  0  0  0  0
 22 47  1  0  0  0  0
 23 48  1  0  0  0  0
M  END
> <s_m_source_file>
AV-unprocessed.smi

> <i_m_source_file_index>
438

> <i_lp_mmshare_version>
43012

> <i_f3d_flags>
0

> <s_epik_input>
W09IXVtDSDJdW0NIMl1jMWMoW09IXSluYyhuYzFbQ0gzXSlTW0NIMl1DKD1PKVtOSF1bQ0BASF0yW0NIMl1bQ0gyXVtDSDJdW0NIMl1bQ0BIXTJbQ0gzXQ==

> <s_epik_cmdline>
J2VwaWtfcHl0aG9uJywgJy1waCcsICc3LjAnLCAnLXRuJywgJzgnLCAnLW1hJywgJzIwMCcsICctbWV0YWxfYmluZGluZycsICctaW1hZScsICc8aW5maWxlLm1hZT4nLCAnLW9tYWUnLCAnPG91dGZpbGUubWFlPic=

> <r_lp_tautomer_probability>
0.0660145

> <r_epik_Ionization_Penalty>
2.91405

> <r_epik_Ionization_Penalty_Charging>
0

> <r_epik_Ionization_Penalty_Neutral>
2.91405

> <r_epik_State_Penalty>
2.44767

> <r_epik_Charging_Adjusted_Penalty>
2.44767

> <i_epik_Tot_Q>
0

> <i_epik_Tot_abs_Q>
0

> <r_epik_Metal_State_Penalty>
3.04288

> <b_epik_Metal_Only>
0

> <s_lp_Force_Field>
OPLS_2005

> <r_lp_Energy>
3.55381

> <b_lp_Chiralities_Consistent>
1

> <s_lp_Variant>
AV-unprocessed.smi:438-15

> <Gold.Version>
5.8.1

> <Gold.Id.Protein>
6NUR|6NUR_protein|mol2

> <Gold.PLP.Fitness>
43.3709

> <Gold.PLP.PLP>
-34.2849

> <Gold.PLP.part.hbond>
-5.7024

> <Gold.PLP.part.metal>
0.0000

> <Gold.PLP.part.buried>
-3.7471

> <Gold.PLP.part.nonpolar>
-24.4773

> <Gold.PLP.part.repulsive>
0.0176

> <Gold.PLP.ligand.clash>
0.0000

> <Gold.PLP.ligand.torsion>
1.0794

> <Gold.PLP.Chemscore.Hbond>
3.7280

> <Gold.PLP.Chemscore.CHOScore>
0.0000

> <Gold.PLP.Chemscore.Metal>
0.0000

> <Gold.Chemscore.Hbonds>
donor molecule, donor type, donor heavy atom, donor atom, acceptor molecule, acceptor atom, score
      L1  H    19    43       P1 10175  1.00
      L1  H    23    48       P1  7957  0.66
      P1  H  6934  6947       L1     8  0.70
      P1  H  8011  8017       L1    23  1.00

> <Gold.PLP.Chemscore.Internal.Correction>
0.0608

> <Gold.Rescore>
     Score         DG    S(hbond)    S(metal)    S(lipo)     H(rot)  DE(clash)    DE(int)     intcor
     12.89     -14.15       2.82        0.00      68.75       3.44       0.07       1.19       ----

> <Gold.Chemscore.Fitness>
12.8864

> <Gold.Chemscore.DG>
-14.1476

> <Gold.Chemscore.ZeroCoef>
-5.4800

> <Gold.Chemscore.Hbond>
2.8204

> <Gold.Chemscore.Metal>
0.0000

> <Gold.Chemscore.Lipo>
68.7490

> <Gold.Chemscore.Internal_Hbond>
0.0000

> <Gold.Chemscore.DEClash>
0.0727

> <Gold.Chemscore.DEInternal>
1.1885

> <Gold.Chemscore.Rot>
3.4359

> <Gold.Chemscore.Internal.Correction>
   9.000000E+99

> <Gold.Chemscore.Hbonds>
donor molecule, donor type, donor heavy atom, donor atom, acceptor molecule, acceptor atom, score
      L1  H    19    43       P1 10175  1.00
      L1  H    23    48       P1  7957  0.66
      P1  H  6934  6947       L1     8  0.63
      P1  H  8011  8017       L1    23  0.42

> <Gold.Chemscore.Hbond.Weighted>
-9.4200

> <Gold.Chemscore.Metal.Weighted>
-0.0000

> <Gold.Chemscore.Lipo.Weighted>
-8.0436

> <Gold.Chemscore.Internal_Hbond.Weighted>
0.0000

> <Gold.Chemscore.DEClash.Weighted>
0.0727

> <Gold.Chemscore.DEInternal.Weighted>
1.1885

> <Gold.Chemscore.Rot.Weighted>
8.7960

> <Gold.Chemscore.Internal.Correction.Weighted>
   9.000000E+99

> <Gold.Protein.RotatedTorsions>
[ 6907 6896 6895 6894 ] final  157.72 input  -60.11 | X-H torsion
[ 7974 7965 7964 7962 ] final -130.51 input  175.53 | X-H torsion
[ 8008 7997 7996 7995 ] final   -2.10 input   59.86 | X-H torsion
[ 10167 10162 10161 10158 ] final  148.87 input  -65.29 | X-H torsion
[ 10718 10713 10712 10709 ] final  116.85 input   66.30 | X-H torsion
[ 10763 10752 10751 10750 ] final   11.88 input  -60.55 | X-H torsion
[ 11005 11000 10999 10996 ] final  -89.29 input  -57.11 | X-H torsion

> <Gold.Protein.ActiveResidues>
 VAL166  LYS551  ARG553  GLY616  TRP617  ASP618  TYR619  PRO620  LYS621  CYS622 
 ASP623  PHE694  ASN695  SER759  ASP760  ASP761  ALA762  ILE779  LEU786  VAL792 
 PHE793  MET794  SER795  GLU796  ALA797  LYS798  CYS799  TRP800  GLU811  SER814 

> <Gold.Protein.RotatedAtoms>
  152.0110  133.3861  159.4219 H   0  0  0  0  0  0  0  0  0  0  0  0  # atno 6907 bound_to 6896
  150.6899  134.3730  159.5010 H   0  0  0  0  0  0  0  0  0  0  0  0  # atno 6908 bound_to 6896
  152.1491  134.9002  160.0600 H   0  0  0  0  0  0  0  0  0  0  0  0  # atno 6909 bound_to 6896
  144.9468  140.7300  143.4813 H   0  0  0  0  0  0  0  0  0  0  0  0  # atno 7974 bound_to 7965
  154.6395  140.2543  155.7339 H   0  0  0  0  0  0  0  0  0  0  0  0  # atno 8008 bound_to 7997
  156.2521  140.2890  156.0703 H   0  0  0  0  0  0  0  0  0  0  0  0  # atno 8009 bound_to 7997
  155.1619  140.0384  157.2834 H   0  0  0  0  0  0  0  0  0  0  0  0  # atno 8010 bound_to 7997
  139.4869  144.5646  151.7169 H   0  0  0  0  0  0  0  0  0  0  0  0  # atno 10167 bound_to 10162
  157.6134  131.1030  150.7532 H   0  0  0  0  0  0  0  0  0  0  0  0  # atno 10718 bound_to 10713
  153.1880  135.6838  153.8390 H   0  0  0  0  0  0  0  0  0  0  0  0  # atno 10763 bound_to 10752
  153.7699  135.3197  155.3351 H   0  0  0  0  0  0  0  0  0  0  0  0  # atno 10764 bound_to 10752
  154.8100  135.4723  154.0589 H   0  0  0  0  0  0  0  0  0  0  0  0  # atno 10765 bound_to 10752
  141.1587  133.7621  156.9574 H   0  0  0  0  0  0  0  0  0  0  0  0  # atno 11005 bound_to 11000
  145.2906  139.1885  143.4742 LP  0  0  0  0  0  0  0  0  0  0  0  0  # atno 17320 bound_to 7965
  146.3306  140.2882  142.8614 LP  0  0  0  0  0  0  0  0  0  0  0  0  # atno 17321 bound_to 7965
  140.5222  144.0862  150.6026 LP  0  0  0  0  0  0  0  0  0  0  0  0  # atno 17342 bound_to 10162
  140.3823  143.2796  152.0156 LP  0  0  0  0  0  0  0  0  0  0  0  0  # atno 17343 bound_to 10162
  156.7904  130.4888  149.5386 LP  0  0  0  0  0  0  0  0  0  0  0  0  # atno 17370 bound_to 10713
  156.1246  130.6134  151.0244 LP  0  0  0  0  0  0  0  0  0  0  0  0  # atno 17371 bound_to 10713
  140.1216  134.9413  157.2211 LP  0  0  0  0  0  0  0  0  0  0  0  0  # atno 17394 bound_to 11000
  140.3065  134.3072  155.7277 LP  0  0  0  0  0  0  0  0  0  0  0  0  # atno 17395 bound_to 11000

$$$$
