#       Name:                AV-unprocessed.smi:1940
#       Creating user name   scv26
#       Creation time:       Fri Mar 27 09:58:36 2020


#       File generated by GOLD software.
#

@<TRIPOS>MOLECULE
AV-unprocessed.smi:1940
    55    57     1
SMALL
NO_CHARGES


@<TRIPOS>ATOM
      1 ****        -3.5828  -3.3003   1.4682 C.3            1 S1                 0.0000
      2 ****        -3.5993  -2.4702   0.1716 C.3            1 S1                 0.0000
      3 ****        -2.2351  -2.1007  -0.1983 N.am           1 S1                 0.0000
      4 ****        -1.5315  -1.0886   0.3283 C.2            1 S1                 0.0000
      5 ****        -1.9594  -0.3571   1.2205 O.2            1 S1                 0.0000
      6 ****        -0.3145  -1.0041  -0.2358 N.am           1 S1                 0.0000
      7 ****         0.7386  -0.0904   0.0418 C.ar           1 S1                 0.0000
      8 ****         2.0254  -0.4086  -0.4336 C.ar           1 S1                 0.0000
      9 ****         3.0901   0.4786  -0.1894 C.ar           1 S1                 0.0000
     10 ****         2.8406   1.6747   0.5225 C.ar           1 S1                 0.0000
     11 ****         3.8940   2.5789   0.7770 N.3            1 S1                 0.0000
     12 ****         3.6807   3.5972   1.8085 C.3            1 S1                 0.0000
     13 ****         5.0096   4.2452   2.2327 C.3            1 S1                 0.0000
     14 ****         5.7705   4.7901   1.0152 C.3            1 S1                 0.0000
     15 ****         5.9661   3.6763  -0.0240 C.3            1 S1                 0.0000
     16 ****         4.6218   3.0350  -0.4088 C.3            1 S1                 0.0000
     17 ****         1.6010   1.9853   0.9744 N.ar           1 S1                 0.0000
     18 ****         0.5821   1.1322   0.7374 C.ar           1 S1                 0.0000
     19 ****        -4.2470  -3.2335  -1.0002 C.3            1 S1                 0.0000
     20 ****        -5.7091  -3.6254  -0.7802 C.3            1 S1                 0.0000
     21 ****        -6.2048  -3.7673  -2.2005 C.3            1 S1                 0.0000
     22 ****        -5.4824  -2.6187  -2.8963 C.3            1 S1                 0.0000
     23 ****        -4.2687  -2.4230  -2.1747 O.3            1 S1                 0.0000
     24 ****        -4.5926  -3.5554   1.7897 H              1 S1                 0.0000
     25 ****        -3.1163  -2.7506   2.2863 H              1 S1                 0.0000
     26 ****        -3.0302  -4.2309   1.3359 H              1 S1                 0.0000
     27 ****        -4.1753  -1.5594   0.3462 H              1 S1                 0.0000
     28 ****        -1.8031  -2.6486  -0.9278 H              1 S1                 0.0000
     29 ****        -0.0959  -1.7167  -0.9164 H              1 S1                 0.0000
     30 ****         2.2004  -1.3265  -0.9755 H              1 S1                 0.0000
     31 ****         4.0818   0.2286  -0.5359 H              1 S1                 0.0000
     32 ****         3.0006   4.3590   1.4248 H              1 S1                 0.0000
     33 ****         3.2061   3.1511   2.6835 H              1 S1                 0.0000
     34 ****         4.8220   5.0466   2.9475 H              1 S1                 0.0000
     35 ****         5.6265   3.5078   2.7482 H              1 S1                 0.0000
     36 ****         5.2119   5.6150   0.5710 H              1 S1                 0.0000
     37 ****         6.7356   5.1939   1.3223 H              1 S1                 0.0000
     38 ****         6.4559   4.0753  -0.9125 H              1 S1                 0.0000
     39 ****         6.6314   2.9122   0.3802 H              1 S1                 0.0000
     40 ****         4.8066   2.2192  -1.1064 H              1 S1                 0.0000
     41 ****         4.0026   3.7616  -0.9365 H              1 S1                 0.0000
     42 ****        -0.3736   1.4664   1.1077 H              1 S1                 0.0000
     43 ****        -3.6704  -4.1313  -1.2305 H              1 S1                 0.0000
     44 ****        -5.8227  -4.5402  -0.1979 H              1 S1                 0.0000
     45 ****        -6.2522  -2.8261  -0.2739 H              1 S1                 0.0000
     46 ****        -5.8808  -4.7226  -2.6154 H              1 S1                 0.0000
     47 ****        -7.2898  -3.7055  -2.2870 H              1 S1                 0.0000
     48 ****        -5.2912  -2.8264  -3.9494 H              1 S1                 0.0000
     49 ****        -6.0720  -1.7034  -2.8331 H              1 S1                 0.0000
     50 ****        -2.8770  -0.5035   1.5900 LP             1 S1                 0.0000
     51 ****        -1.3896   0.3838   1.5760 LP             1 S1                 0.0000
     52 ****         4.5417   1.9787   1.2463 LP             1 S1                 0.0000
     53 ****         1.4433   2.8354   1.4768 LP             1 S1                 0.0000
     54 ****        -3.4955  -2.6698  -2.7588 LP             1 S1                 0.0000
     55 ****        -4.1940  -1.4611  -1.9118 LP             1 S1                 0.0000
@<TRIPOS>BOND
    1    1    2 1     
    2    1   24 1     
    3    1   25 1     
    4    1   26 1     
    5    2    3 1     
    6    2   19 1     
    7    2   27 1     
    8    3    4 am    
    9    3   28 1     
   10    4    5 2     
   11    4    6 am    
   12    6    7 1     
   13    6   29 1     
   14    7   18 ar    
   15    7    8 ar    
   16    8    9 ar    
   17    8   30 1     
   18    9   10 ar    
   19    9   31 1     
   20   10   11 1     
   21   10   17 ar    
   22   11   16 1     
   23   11   12 1     
   24   12   13 1     
   25   12   32 1     
   26   12   33 1     
   27   13   14 1     
   28   13   34 1     
   29   13   35 1     
   30   14   15 1     
   31   14   36 1     
   32   14   37 1     
   33   15   16 1     
   34   15   38 1     
   35   15   39 1     
   36   16   40 1     
   37   16   41 1     
   38   17   18 ar    
   39   18   42 1     
   40   19   23 1     
   41   19   20 1     
   42   19   43 1     
   43   20   21 1     
   44   20   44 1     
   45   20   45 1     
   46   21   22 1     
   47   21   46 1     
   48   21   47 1     
   49   22   23 1     
   50   22   48 1     
   51   22   49 1     
   52    5   50 1     
   53    5   51 1     
   54   11   52 1     
   55   17   53 1     
   56   23   54 1     
   57   23   55 1     
@<TRIPOS>SUBSTRUCTURE
      1 S1             1
@<TRIPOS>SET
LONE_PAIRS      STATIC     ATOMS    <user>   **** ""
6 50 51 52 53 54 55
DONOR_HYDROGENS      STATIC     ATOMS    <user>   **** ""
2 28 29
ATOM$BLUE        STATIC     ATOMS    COLORGROUP SYSTEM
6 50 51 52 53 54 55
ATOM$RED        STATIC     ATOMS    COLORGROUP SYSTEM
2 28 29
