AV-unprocessed.smi:1489|AV-procd|sdf|6028|dock7
  -GOLD-   22720 6133D 1   1.00000     0.00000
 Structure written by MMmdl.
 47 49  0  0  0  0  0  0  0  0  2 V2000
  146.5652  137.1588  153.6956 O   0  0  0  0  0  0  0  0  0  0  0  0
  145.9039  138.0931  153.2441 C   0  0  0  0  0  0  0  0  0  0  0  0
  146.1735  139.3948  153.4437 N   0  0  0  0  0  0  0  0  0  0  0  0
  147.2158  139.9683  154.2206 C   0  0  0  0  0  0  0  0  0  0  0  0
  148.2907  139.1359  154.5999 C   0  0  0  0  0  0  0  0  0  0  0  0
  149.3543  139.6677  155.3573 C   0  0  0  0  0  0  0  0  0  0  0  0
  149.3340  141.0355  155.7171 C   0  0  0  0  0  0  0  0  0  0  0  0
  150.3444  141.6625  156.4600 N   0  0  0  0  0  0  0  0  0  0  0  0
  149.8971  142.3243  157.6742 C   0  0  0  0  0  0  0  0  0  0  0  0
  151.1623  142.5544  158.5031 C   0  0  0  0  0  0  0  0  0  0  0  0
  152.1637  141.5135  157.9890 C   0  0  0  0  0  0  0  0  0  0  0  0
  151.4328  140.7847  156.8574 C   0  0  0  0  0  0  0  0  0  0  0  0
  148.2951  141.8030  155.3214 N   0  3  0  0  0  0  0  0  0  0  0  0
  147.2551  141.3324  154.5994 C   0  0  0  0  0  0  0  0  0  0  0  0
  144.8231  137.9385  152.4621 N   0  0  0  0  0  0  0  0  0  0  0  0
  144.2356  136.6822  151.9916 C   0  0  2  0  0  0  0  0  0  0  0  0
  143.3685  135.9889  153.0636 C   0  0  0  0  0  0  0  0  0  0  0  0
  142.7022  134.7208  152.4998 C   0  0  0  0  0  0  0  0  0  0  0  0
  143.7247  133.7491  151.8773 C   0  0  2  0  0  0  0  0  0  0  0  0
  144.5204  133.1671  152.8909 O   0  0  0  0  0  0  0  0  0  0  0  0
  144.6253  134.4512  150.8420 C   0  0  0  0  0  0  0  0  0  0  0  0
  145.2901  135.7162  151.4124 C   0  0  0  0  0  0  0  0  0  0  0  0
  145.5959  140.0502  152.9380 H   0  0  0  0  0  0  0  0  0  0  0  0
  148.3011  138.0931  154.3180 H   0  0  0  0  0  0  0  0  0  0  0  0
  150.1743  139.0288  155.6513 H   0  0  0  0  0  0  0  0  0  0  0  0
  149.3931  143.2639  157.4456 H   0  0  0  0  0  0  0  0  0  0  0  0
  149.1988  141.6933  158.2251 H   0  0  0  0  0  0  0  0  0  0  0  0
  151.5502  143.5586  158.3280 H   0  0  0  0  0  0  0  0  0  0  0  0
  150.9686  142.4550  159.5715 H   0  0  0  0  0  0  0  0  0  0  0  0
  153.0572  142.0110  157.6094 H   0  0  0  0  0  0  0  0  0  0  0  0
  152.4769  140.8207  158.7706 H   0  0  0  0  0  0  0  0  0  0  0  0
  151.0456  139.8294  157.2149 H   0  0  0  0  0  0  0  0  0  0  0  0
  152.0986  140.5834  156.0176 H   0  0  0  0  0  0  0  0  0  0  0  0
  146.5085  142.0701  154.3461 H   0  0  0  0  0  0  0  0  0  0  0  0
  144.3597  138.7789  152.1491 H   0  0  0  0  0  0  0  0  0  0  0  0
  143.5735  136.9700  151.1738 H   0  0  0  0  0  0  0  0  0  0  0  0
  143.9723  135.7189  153.9301 H   0  0  0  0  0  0  0  0  0  0  0  0
  142.6013  136.6746  153.4248 H   0  0  0  0  0  0  0  0  0  0  0  0
  142.1308  134.2189  153.2814 H   0  0  0  0  0  0  0  0  0  0  0  0
  141.9794  135.0113  151.7362 H   0  0  0  0  0  0  0  0  0  0  0  0
  143.1896  132.9345  151.3881 H   0  0  0  0  0  0  0  0  0  0  0  0
  143.9531  132.7182  153.4986 H   0  0  0  0  0  0  0  0  0  0  0  0
  145.3858  133.7619  150.4729 H   0  0  0  0  0  0  0  0  0  0  0  0
  144.0223  134.7281  149.9764 H   0  0  0  0  0  0  0  0  0  0  0  0
  145.8625  136.2130  150.6284 H   0  0  0  0  0  0  0  0  0  0  0  0
  146.0083  135.4274  152.1802 H   0  0  0  0  0  0  0  0  0  0  0  0
  148.2961  142.7904  155.5788 H   0  0  0  0  0  0  0  0  0  0  0  0
  1  2  2  0  0  0  0
  2  3  1  0  0  0  0
  2 15  1  0  0  0  0
  3  4  1  0  0  0  0
  3 23  1  0  0  0  0
  4 14  1  0  0  0  0
  4  5  2  0  0  0  0
  5  6  1  0  0  0  0
  5 24  1  0  0  0  0
  6  7  2  0  0  0  0
  6 25  1  0  0  0  0
  7  8  1  0  0  0  0
  7 13  1  0  0  0  0
  8 12  1  0  0  0  0
  8  9  1  0  0  0  0
  9 10  1  0  0  0  0
  9 26  1  0  0  0  0
  9 27  1  0  0  0  0
 10 11  1  0  0  0  0
 10 28  1  0  0  0  0
 10 29  1  0  0  0  0
 11 12  1  0  0  0  0
 11 30  1  0  0  0  0
 11 31  1  0  0  0  0
 12 32  1  0  0  0  0
 12 33  1  0  0  0  0
 13 14  2  0  0  0  0
 13 47  1  0  0  0  0
 14 34  1  0  0  0  0
 15 16  1  0  0  0  0
 15 35  1  0  0  0  0
 16 22  1  0  0  0  0
 16 17  1  0  0  0  0
 16 36  1  0  0  0  0
 17 18  1  0  0  0  0
 17 37  1  0  0  0  0
 17 38  1  0  0  0  0
 18 19  1  0  0  0  0
 18 39  1  0  0  0  0
 18 40  1  0  0  0  0
 19 20  1  0  0  0  0
 19 21  1  0  0  0  0
 19 41  1  0  0  0  0
 20 42  1  0  0  0  0
 21 22  1  0  0  0  0
 21 43  1  0  0  0  0
 21 44  1  0  0  0  0
 22 45  1  0  0  0  0
 22 46  1  0  0  0  0
M  CHG  1  13   1
M  END
> <s_m_source_file>
AV-unprocessed.smi

> <i_m_source_file_index>
1489

> <i_lp_mmshare_version>
43012

> <i_f3d_flags>
0

> <s_epik_input>
W0NIMl0xW0NIMl1bQ0BIXShbT0hdKVtDSDJdW0NIMl1bQ0BIXTFbTkhdQyg9TylbTkhdYzJbY0hdW2NIXWMobltjSF0yKU4zW0NIMl1bQ0gyXVtDSDJdW0NIMl0z

> <s_epik_cmdline>
J2VwaWtfcHl0aG9uJywgJy1waCcsICc3LjAnLCAnLXRuJywgJzgnLCAnLW1hJywgJzIwMCcsICctbWV0YWxfYmluZGluZycsICctaW1hZScsICc8aW5maWxlLm1hZT4nLCAnLW9tYWUnLCAnPG91dGZpbGUubWFlPic=

> <r_lp_tautomer_probability>
0.999994

> <r_epik_Ionization_Penalty>
1.08454

> <r_epik_Ionization_Penalty_Charging>
1.08452

> <r_epik_Ionization_Penalty_Neutral>
2.18252e-05

> <r_epik_State_Penalty>
1.14025

> <r_epik_Charging_Adjusted_Penalty>
2.22477

> <i_epik_Tot_Q>
1

> <i_epik_Tot_abs_Q>
1

> <r_epik_Metal_State_Penalty>
1.22975

> <b_epik_Metal_Only>
0

> <s_lp_Force_Field>
OPLS_2005

> <r_lp_Energy>
45.8336

> <b_lp_Chiralities_Consistent>
1

> <s_lp_Variant>
AV-unprocessed.smi:1489-4

> <Gold.Version>
5.8.1

> <Gold.Id.Protein>
6NUR|6NUR_protein|mol2

> <Gold.PLP.Fitness>
45.4500

> <Gold.PLP.PLP>
-31.3475

> <Gold.PLP.part.hbond>
-5.0000

> <Gold.PLP.part.metal>
0.0000

> <Gold.PLP.part.buried>
-5.7315

> <Gold.PLP.part.nonpolar>
-22.2349

> <Gold.PLP.part.repulsive>
0.3210

> <Gold.PLP.ligand.clash>
0.0000

> <Gold.PLP.ligand.torsion>
0.2638

> <Gold.PLP.Chemscore.Hbond>
4.8640

> <Gold.PLP.Chemscore.CHOScore>
0.0000

> <Gold.PLP.Chemscore.Metal>
0.0000

> <Gold.Chemscore.Hbonds>
donor molecule, donor type, donor heavy atom, donor atom, acceptor molecule, acceptor atom, score
      L1  H     3    23       P1 10175  0.86
      L1  H    13    47       P1  8028  2.00
      L1  H    15    35       P1 10175  1.00
      L1  H    20    42       P1 10957  0.98

> <Gold.PLP.Chemscore.Internal.Correction>
0.0381

> <Gold.Rescore>
     Score         DG    S(hbond)    S(metal)    S(lipo)     H(rot)  DE(clash)    DE(int)     intcor
     19.62     -22.51       3.84        0.00      73.00       1.69       0.07       2.82       ----

> <Gold.Chemscore.Fitness>
19.6208

> <Gold.Chemscore.DG>
-22.5106

> <Gold.Chemscore.ZeroCoef>
-5.4800

> <Gold.Chemscore.Hbond>
3.8394

> <Gold.Chemscore.Metal>
0.0000

> <Gold.Chemscore.Lipo>
72.9972

> <Gold.Chemscore.Internal_Hbond>
0.0000

> <Gold.Chemscore.DEClash>
0.0714

> <Gold.Chemscore.DEInternal>
2.8184

> <Gold.Chemscore.Rot>
1.6929

> <Gold.Chemscore.Internal.Correction>
   9.000000E+99

> <Gold.Chemscore.Hbonds>
donor molecule, donor type, donor heavy atom, donor atom, acceptor molecule, acceptor atom, score
      L1  H     3    23       P1 10175  0.80
      L1  H    13    47       P1  8028  0.94
      L1  H    15    35       P1 10175  0.96
      L1  H    20    42       P1 10957  0.50

> <Gold.Chemscore.Hbond.Weighted>
-12.8237

> <Gold.Chemscore.Metal.Weighted>
-0.0000

> <Gold.Chemscore.Lipo.Weighted>
-8.5407

> <Gold.Chemscore.Internal_Hbond.Weighted>
0.0000

> <Gold.Chemscore.DEClash.Weighted>
0.0714

> <Gold.Chemscore.DEInternal.Weighted>
2.8184

> <Gold.Chemscore.Rot.Weighted>
4.3338

> <Gold.Chemscore.Internal.Correction.Weighted>
   9.000000E+99

> <Gold.Protein.RotatedTorsions>
[ 6907 6896 6895 6894 ] final  161.64 input  -60.11 | X-H torsion
[ 7974 7965 7964 7962 ] final   16.28 input  175.53 | X-H torsion
[ 8008 7997 7996 7995 ] final   64.17 input   59.86 | X-H torsion
[ 10167 10162 10161 10158 ] final  153.95 input  -65.29 | X-H torsion
[ 10718 10713 10712 10709 ] final  -41.06 input   66.30 | X-H torsion
[ 10763 10752 10751 10750 ] final  105.39 input  -60.55 | X-H torsion
[ 11005 11000 10999 10996 ] final  -48.58 input  -57.11 | X-H torsion

> <Gold.Protein.ActiveResidues>
 VAL166  LYS551  ARG553  GLY616  TRP617  ASP618  TYR619  PRO620  LYS621  CYS622 
 ASP623  PHE694  ASN695  SER759  ASP760  ASP761  ALA762  ILE779  LEU786  VAL792 
 PHE793  MET794  SER795  GLU796  ALA797  LYS798  CYS799  TRP800  GLU811  SER814 

> <Gold.Protein.RotatedAtoms>
  151.9525  133.3670  159.4004 H   0  0  0  0  0  0  0  0  0  0  0  0  # atno 6907 bound_to 6896
  150.6978  134.4325  159.5264 H   0  0  0  0  0  0  0  0  0  0  0  0  # atno 6908 bound_to 6896
  152.2001  134.8596  160.0559 H   0  0  0  0  0  0  0  0  0  0  0  0  # atno 6909 bound_to 6896
  146.2254  139.8771  142.8577 H   0  0  0  0  0  0  0  0  0  0  0  0  # atno 7974 bound_to 7965
  155.6418  140.3497  155.4717 H   0  0  0  0  0  0  0  0  0  0  0  0  # atno 8008 bound_to 7997
  155.9920  140.1195  157.0653 H   0  0  0  0  0  0  0  0  0  0  0  0  # atno 8009 bound_to 7997
  154.4222  140.1117  156.5564 H   0  0  0  0  0  0  0  0  0  0  0  0  # atno 8010 bound_to 7997
  139.4825  144.5229  151.7847 H   0  0  0  0  0  0  0  0  0  0  0  0  # atno 10167 bound_to 10162
  156.2745  130.4210  149.8403 H   0  0  0  0  0  0  0  0  0  0  0  0  # atno 10718 bound_to 10713
  153.3787  135.3911  155.1841 H   0  0  0  0  0  0  0  0  0  0  0  0  # atno 10763 bound_to 10752
  154.8704  135.3720  154.4884 H   0  0  0  0  0  0  0  0  0  0  0  0  # atno 10764 bound_to 10752
  153.5359  135.7085  153.5721 H   0  0  0  0  0  0  0  0  0  0  0  0  # atno 10765 bound_to 10752
  141.0709  133.6679  156.3462 H   0  0  0  0  0  0  0  0  0  0  0  0  # atno 11005 bound_to 11000
  145.2550  141.0057  143.3859 LP  0  0  0  0  0  0  0  0  0  0  0  0  # atno 17320 bound_to 7965
  144.9344  139.4261  143.6479 LP  0  0  0  0  0  0  0  0  0  0  0  0  # atno 17321 bound_to 7965
  140.4745  144.1539  150.5923 LP  0  0  0  0  0  0  0  0  0  0  0  0  # atno 17342 bound_to 10162
  140.4346  143.2553  151.9552 LP  0  0  0  0  0  0  0  0  0  0  0  0  # atno 17343 bound_to 10162
  156.5872  130.8491  151.3399 LP  0  0  0  0  0  0  0  0  0  0  0  0  # atno 17370 bound_to 10713
  157.7294  130.9671  150.1788 LP  0  0  0  0  0  0  0  0  0  0  0  0  # atno 17371 bound_to 10713
  140.5675  134.5873  157.5449 LP  0  0  0  0  0  0  0  0  0  0  0  0  # atno 17394 bound_to 11000
  139.9523  134.7596  156.0421 LP  0  0  0  0  0  0  0  0  0  0  0  0  # atno 17395 bound_to 11000

$$$$
