AV-unprocessed.smi:35|AV-procd|sdf|271|dock5
  -GOLD-   2262016 43D 1   1.00000     0.00000
 Structure written by MMmdl.
 28 29  0  0  0  0  0  0  0  0  2 V2000
  152.9159  141.1839  159.0160 O   0  0  0  0  0  0  0  0  0  0  0  0
  152.2870  140.9775  157.9797 C   0  0  0  0  0  0  0  0  0  0  0  0
  152.5293  139.9088  157.1669 N   0  5  0  0  0  0  0  0  0  0  0  0
  151.8247  139.6814  156.0196 C   0  0  0  0  0  0  0  0  0  0  0  0
  152.0256  138.7128  155.2866 O   0  0  0  0  0  0  0  0  0  0  0  0
  150.7969  140.5921  155.6490 N   0  0  0  0  0  0  0  0  0  0  0  0
  150.0202  140.3347  154.3694 C   0  0  2  0  0  0  0  0  0  0  0  0
  149.1383  141.3934  154.1304 O   0  0  0  0  0  0  0  0  0  0  0  0
  147.8022  140.9915  154.4153 C   0  0  1  0  0  0  0  0  0  0  0  0
  146.7838  141.8920  153.6953 C   0  0  0  0  0  0  0  0  0  0  0  0
  146.8404  143.2029  154.2167 O   0  0  0  0  0  0  0  0  0  0  0  0
  147.7947  139.5176  153.9931 C   0  0  1  0  0  0  0  0  0  0  0  0
  147.6294  139.3865  152.5926 O   0  0  0  0  0  0  0  0  0  0  0  0
  149.1767  139.0351  154.4149 C   0  0  2  0  0  0  0  0  0  0  0  0
  149.0963  138.4432  155.7001 O   0  0  0  0  0  0  0  0  0  0  0  0
  150.5322  141.6892  156.4528 C   0  0  0  0  0  0  0  0  0  0  0  0
  151.2307  141.9058  157.5855 C   0  0  0  0  0  0  0  0  0  0  0  0
  150.7430  143.5122  158.6383 Br  0  0  0  0  0  0  0  0  0  0  0  0
  150.7652  140.3397  153.5721 H   0  0  0  0  0  0  0  0  0  0  0  0
  147.6382  141.0312  155.4936 H   0  0  0  0  0  0  0  0  0  0  0  0
  146.9557  141.9055  152.6184 H   0  0  0  0  0  0  0  0  0  0  0  0
  145.7722  141.5196  153.8594 H   0  0  0  0  0  0  0  0  0  0  0  0
  147.6032  143.2727  154.7700 H   0  0  0  0  0  0  0  0  0  0  0  0
  146.9895  138.9633  154.4775 H   0  0  0  0  0  0  0  0  0  0  0  0
  148.2467  139.9602  152.1651 H   0  0  0  0  0  0  0  0  0  0  0  0
  149.5938  138.3020  153.7233 H   0  0  0  0  0  0  0  0  0  0  0  0
  148.5084  137.7043  155.6473 H   0  0  0  0  0  0  0  0  0  0  0  0
  149.7597  142.3927  156.1840 H   0  0  0  0  0  0  0  0  0  0  0  0
  1  2  2  0  0  0  0
  2 17  1  0  0  0  0
  2  3  1  0  0  0  0
  3  4  1  0  0  0  0
  4  5  2  0  0  0  0
  4  6  1  0  0  0  0
  6  7  1  0  0  0  0
  6 16  1  0  0  0  0
  7 14  1  0  0  0  0
  7  8  1  0  0  0  0
  7 19  1  0  0  0  0
  8  9  1  0  0  0  0
  9 10  1  0  0  0  0
  9 12  1  0  0  0  0
  9 20  1  0  0  0  0
 10 11  1  0  0  0  0
 10 21  1  0  0  0  0
 10 22  1  0  0  0  0
 11 23  1  0  0  0  0
 12 13  1  0  0  0  0
 12 14  1  0  0  0  0
 12 24  1  0  0  0  0
 13 25  1  0  0  0  0
 14 15  1  0  0  0  0
 14 26  1  0  0  0  0
 15 27  1  0  0  0  0
 16 17  2  0  0  0  0
 16 28  1  0  0  0  0
 17 18  1  0  0  0  0
M  CHG  1   3  -1
M  END
> <s_m_source_file>
AV-unprocessed.smi

> <i_m_source_file_index>
35

> <i_lp_mmshare_version>
43012

> <i_f3d_flags>
0

> <s_epik_input>
Tz1jMVtuSF1jKD1PKW4oW2NIXWMxQnIpW0NAQEhdMk9bQ0BASF0oW0NIMl1bT0hdKVtDQEBIXShbT0hdKVtDQEhdMltPSF0=

> <s_epik_cmdline>
J2VwaWtfcHl0aG9uJywgJy1waCcsICc3LjAnLCAnLXRuJywgJzgnLCAnLW1hJywgJzIwMCcsICctbWV0YWxfYmluZGluZycsICctaW1hZScsICc8aW5maWxlLm1hZT4nLCAnLW9tYWUnLCAnPG91dGZpbGUubWFlPic=

> <r_epik_Ionization_Penalty>
1.06112

> <r_epik_Ionization_Penalty_Charging>
2.1796e-09

> <r_epik_Ionization_Penalty_Neutral>
1.06112

> <r_epik_State_Penalty>
1.11484

> <r_epik_Charging_Adjusted_Penalty>
1.11484

> <i_epik_Tot_Q>
-1

> <i_epik_Tot_abs_Q>
1

> <r_epik_Metal_State_Penalty>
0.0032876

> <b_epik_Metal_Only>
0

> <s_epik_Chemistry_Notes>
This compound contains an acetal/aminal-like group ( X-CH(R)-Y where X, Y are N, S, or O) that may be acid/base labile, releasing an aldehyde.

> <s_lp_Force_Field>
OPLS_2005

> <r_lp_Energy>
42.0802

> <b_lp_Chiralities_Consistent>
1

> <s_lp_Variant>
AV-unprocessed.smi:35-25

> <Gold.Version>
5.8.1

> <Gold.Id.Protein>
6NUR|6NUR_protein|mol2

> <Gold.PLP.Fitness>
45.8100

> <Gold.PLP.PLP>
-30.1680

> <Gold.PLP.part.hbond>
-5.7129

> <Gold.PLP.part.metal>
0.0000

> <Gold.PLP.part.buried>
-2.2234

> <Gold.PLP.part.nonpolar>
-22.2310

> <Gold.PLP.part.repulsive>
0.1811

> <Gold.PLP.ligand.clash>
0.0000

> <Gold.PLP.ligand.torsion>
0.0590

> <Gold.PLP.Chemscore.Hbond>
4.2308

> <Gold.PLP.Chemscore.CHOScore>
1.0000

> <Gold.PLP.Chemscore.Metal>
0.0000

> <Gold.Chemscore.Hbonds>
donor molecule, donor type, donor heavy atom, donor atom, acceptor molecule, acceptor atom, score
      L1  H    11    23       P1  8028  0.69
      L1  H    13    25       P1  7957  0.90
      P1  H  7997  8009       L1     3  2.00
      P1  H  8011  8017       L1     8  0.46
      L1  C    16    28       P1  8028  0.97

> <Gold.PLP.Chemscore.Internal.Correction>
0.0675

> <Gold.Rescore>
     Score         DG    S(hbond)    S(metal)    S(lipo)     H(rot)  DE(clash)    DE(int)     intcor
      8.32     -10.02       2.49        0.00      47.01       3.63       1.39       0.31       ----

> <Gold.Chemscore.Fitness>
8.3174

> <Gold.Chemscore.DG>
-10.0219

> <Gold.Chemscore.ZeroCoef>
-5.4800

> <Gold.Chemscore.Hbond>
2.4922

> <Gold.Chemscore.Metal>
0.0000

> <Gold.Chemscore.Lipo>
47.0142

> <Gold.Chemscore.Internal_Hbond>
0.0000

> <Gold.Chemscore.DEClash>
1.3902

> <Gold.Chemscore.DEInternal>
0.3144

> <Gold.Chemscore.Rot>
3.6261

> <Gold.Chemscore.Internal.Correction>
   9.000000E+99

> <Gold.Chemscore.Hbonds>
donor molecule, donor type, donor heavy atom, donor atom, acceptor molecule, acceptor atom, score
      L1  H    11    23       P1  8028  0.30
      L1  H    13    25       P1  7957  0.88
      P1  H  7997  8009       L1     3  0.21
      P1  H  8011  8017       L1     8  0.29

> <Gold.Chemscore.Hbond.Weighted>
-8.3241

> <Gold.Chemscore.Metal.Weighted>
-0.0000

> <Gold.Chemscore.Lipo.Weighted>
-5.5007

> <Gold.Chemscore.Internal_Hbond.Weighted>
0.0000

> <Gold.Chemscore.DEClash.Weighted>
1.3902

> <Gold.Chemscore.DEInternal.Weighted>
0.3144

> <Gold.Chemscore.Rot.Weighted>
9.2828

> <Gold.Chemscore.Internal.Correction.Weighted>
   9.000000E+99

> <Gold.Protein.RotatedTorsions>
[ 6907 6896 6895 6894 ] final  147.54 input  -60.11 | X-H torsion
[ 7974 7965 7964 7962 ] final -120.96 input  175.53 | X-H torsion
[ 8008 7997 7996 7995 ] final -171.01 input   59.86 | X-H torsion
[ 10167 10162 10161 10158 ] final  -67.61 input  -65.29 | X-H torsion
[ 10718 10713 10712 10709 ] final  -75.35 input   66.30 | X-H torsion
[ 10763 10752 10751 10750 ] final   44.85 input  -60.55 | X-H torsion
[ 11005 11000 10999 10996 ] final  -22.64 input  -57.11 | X-H torsion

> <Gold.Protein.ActiveResidues>
 VAL166  LYS551  ARG553  GLY616  TRP617  ASP618  TYR619  PRO620  LYS621  CYS622 
 ASP623  PHE694  ASN695  SER759  ASP760  ASP761  ALA762  ILE779  LEU786  VAL792 
 PHE793  MET794  SER795  GLU796  ALA797  LYS798  CYS799  TRP800  GLU811  SER814 

> <Gold.Protein.RotatedAtoms>
  152.1534  133.4536  159.4824 H   0  0  0  0  0  0  0  0  0  0  0  0  # atno 6907 bound_to 6896
  150.6898  134.2161  159.4387 H   0  0  0  0  0  0  0  0  0  0  0  0  # atno 6908 bound_to 6896
  152.0059  134.9903  160.0617 H   0  0  0  0  0  0  0  0  0  0  0  0  # atno 6909 bound_to 6896
  145.0456  140.8179  143.4240 H   0  0  0  0  0  0  0  0  0  0  0  0  # atno 7974 bound_to 7965
  155.9259  140.1082  157.1170 H   0  0  0  0  0  0  0  0  0  0  0  0  # atno 8008 bound_to 7997
  154.4062  140.1247  156.4805 H   0  0  0  0  0  0  0  0  0  0  0  0  # atno 8009 bound_to 7997
  155.7139  140.3470  155.4988 H   0  0  0  0  0  0  0  0  0  0  0  0  # atno 8010 bound_to 7997
  140.5570  143.2312  151.6802 H   0  0  0  0  0  0  0  0  0  0  0  0  # atno 10167 bound_to 10162
  156.0210  130.4439  150.3030 H   0  0  0  0  0  0  0  0  0  0  0  0  # atno 10718 bound_to 10713
  152.9834  135.6058  154.3341 H   0  0  0  0  0  0  0  0  0  0  0  0  # atno 10763 bound_to 10752
  154.3042  135.2772  155.2598 H   0  0  0  0  0  0  0  0  0  0  0  0  # atno 10764 bound_to 10752
  154.4837  135.5910  153.6464 H   0  0  0  0  0  0  0  0  0  0  0  0  # atno 10765 bound_to 10752
  140.8676  133.7743  156.0149 H   0  0  0  0  0  0  0  0  0  0  0  0  # atno 11005 bound_to 11000
  145.1592  139.2468  143.5400 LP  0  0  0  0  0  0  0  0  0  0  0  0  # atno 17320 bound_to 7965
  146.3513  140.1314  142.8597 LP  0  0  0  0  0  0  0  0  0  0  0  0  # atno 17321 bound_to 7965
  139.5052  144.3725  152.0456 LP  0  0  0  0  0  0  0  0  0  0  0  0  # atno 17342 bound_to 10162
  140.2847  144.3820  150.6107 LP  0  0  0  0  0  0  0  0  0  0  0  0  # atno 17343 bound_to 10162
  157.1132  131.0227  151.3039 LP  0  0  0  0  0  0  0  0  0  0  0  0  # atno 17370 bound_to 10713
  157.4687  130.7696  149.7303 LP  0  0  0  0  0  0  0  0  0  0  0  0  # atno 17371 bound_to 10713
  140.8610  134.2840  157.5234 LP  0  0  0  0  0  0  0  0  0  0  0  0  # atno 17394 bound_to 11000
  139.8710  134.9518  156.4096 LP  0  0  0  0  0  0  0  0  0  0  0  0  # atno 17395 bound_to 11000

$$$$
