AV-unprocessed.smi:2756|AV-procd|sdf|10618|dock3
  -GOLD-   2272015 63D 1   1.00000     0.00000
 Structure written by MMmdl.
 19 19  0  0  0  0  0  0  0  0  3 V2000
  149.8219  142.2803  155.6773 N   0  0  0  0  0  0  0  0  0  0  0  0
  150.6941  142.3183  156.7653 C   0  0  0  0  0  0  0  0  0  0  0  0
  150.9847  143.5318  157.2852 N   0  3  0  0  0  0  0  0  0  0  0  0
  151.8060  143.7047  158.3434 C   0  0  0  0  0  0  0  0  0  0  0  0
  152.4042  142.5863  158.9554 C   0  0  0  0  0  0  0  0  0  0  0  0
  152.1327  141.3004  158.4460 C   0  0  0  0  0  0  0  0  0  0  0  0
  151.2700  141.1551  157.3361 C   0  0  0  0  0  0  0  0  0  0  0  0
  150.9815  139.7642  156.7875 C   0  0  0  0  0  0  0  0  0  0  0  0
  152.1920  139.3183  155.9673 C   0  0  0  0  0  0  0  0  0  0  0  0
  153.2448  139.0747  156.5966 O   0  0  0  0  0  0  0  0  0  0  0  0
  152.0458  139.2432  154.7278 O   0  5  0  0  0  0  0  0  0  0  0  0
  149.5677  141.3993  155.2521 H   0  0  0  0  0  0  0  0  0  0  0  0
  149.2720  143.0856  155.4162 H   0  0  0  0  0  0  0  0  0  0  0  0
  151.9559  144.7242  158.6673 H   0  0  0  0  0  0  0  0  0  0  0  0
  153.0601  142.7112  159.8043 H   0  0  0  0  0  0  0  0  0  0  0  0
  152.5808  140.4324  158.9071 H   0  0  0  0  0  0  0  0  0  0  0  0
  150.7815  139.0602  157.5961 H   0  0  0  0  0  0  0  0  0  0  0  0
  150.0936  139.7804  156.1541 H   0  0  0  0  0  0  0  0  0  0  0  0
  150.5599  144.3569  156.8618 H   0  0  0  0  0  0  0  0  0  0  0  0
  1  2  1  0  0  0  0
  1 12  1  0  0  0  0
  1 13  1  0  0  0  0
  2  7  1  0  0  0  0
  2  3  2  0  0  0  0
  3  4  1  0  0  0  0
  3 19  1  0  0  0  0
  4  5  2  0  0  0  0
  4 14  1  0  0  0  0
  5  6  1  0  0  0  0
  5 15  1  0  0  0  0
  6  7  2  0  0  0  0
  6 16  1  0  0  0  0
  7  8  1  0  0  0  0
  8  9  1  0  0  0  0
  8 17  1  0  0  0  0
  8 18  1  0  0  0  0
  9 10  2  0  0  0  0
  9 11  1  0  0  0  0
M  CHG  1   3   1
M  CHG  1  11  -1
M  END
> <s_m_source_file>
AV-unprocessed.smi

> <i_m_source_file_index>
2756

> <i_lp_mmshare_version>
43012

> <i_f3d_flags>
0

> <s_epik_input>
W05IMl1jMW5bY0hdW2NIXVtjSF1jMVtDSDJdQyg9TylbT0hd

> <s_epik_cmdline>
J2VwaWtfcHl0aG9uJywgJy1waCcsICc3LjAnLCAnLXRuJywgJzgnLCAnLW1hJywgJzIwMCcsICctbWV0YWxfYmluZGluZycsICctaW1hZScsICc8aW5maWxlLm1hZT4nLCAnLW9tYWUnLCAnPG91dGZpbGUubWFlPic=

> <r_lp_tautomer_probability>
0.999994

> <r_epik_Ionization_Penalty>
0.0994946

> <r_epik_Ionization_Penalty_Charging>
0.0994944

> <r_epik_Ionization_Penalty_Neutral>
2.48807e-07

> <r_epik_State_Penalty>
0.0891183

> <r_epik_Charging_Adjusted_Penalty>
0.188613

> <i_epik_Tot_Q>
0

> <i_epik_Tot_abs_Q>
2

> <r_epik_Metal_State_Penalty>
3.01912

> <b_epik_Metal_Only>
0

> <s_lp_Force_Field>
OPLS_2005

> <r_lp_Energy>
1.50311

> <b_lp_Chiralities_Consistent>
1

> <s_lp_Variant>
AV-unprocessed.smi:2756-1

> <Gold.Version>
5.8.1

> <Gold.Id.Protein>
6NUR|6NUR_protein|mol2

> <Gold.PLP.Fitness>
41.0760

> <Gold.PLP.PLP>
-22.5852

> <Gold.PLP.part.hbond>
-3.8161

> <Gold.PLP.part.metal>
0.0000

> <Gold.PLP.part.buried>
-3.2468

> <Gold.PLP.part.nonpolar>
-16.5074

> <Gold.PLP.part.repulsive>
0.2255

> <Gold.PLP.ligand.clash>
0.0000

> <Gold.PLP.ligand.torsion>
0.3112

> <Gold.PLP.Chemscore.Hbond>
6.3708

> <Gold.PLP.Chemscore.CHOScore>
0.0000

> <Gold.PLP.Chemscore.Metal>
0.0000

> <Gold.Chemscore.Hbonds>
donor molecule, donor type, donor heavy atom, donor atom, acceptor molecule, acceptor atom, score
      L1  H     1    13       P1  8028  1.98
      L1  H     3    19       P1  8028  1.36
      P1  H  7989  7998       L1    11  0.83
      P1  H  7997  8009       L1    10  2.00

> <Gold.PLP.Chemscore.Internal.Correction>
0.0007

> <Gold.Rescore>
     Score         DG    S(hbond)    S(metal)    S(lipo)     H(rot)  DE(clash)    DE(int)     intcor
     17.43     -17.90       3.58        0.00      38.49       1.58       0.05       0.42       ----

> <Gold.Chemscore.Fitness>
17.4285

> <Gold.Chemscore.DG>
-17.8951

> <Gold.Chemscore.ZeroCoef>
-5.4800

> <Gold.Chemscore.Hbond>
3.5829

> <Gold.Chemscore.Metal>
0.0000

> <Gold.Chemscore.Lipo>
38.4912

> <Gold.Chemscore.Internal_Hbond>
0.0000

> <Gold.Chemscore.DEClash>
0.0509

> <Gold.Chemscore.DEInternal>
0.4158

> <Gold.Chemscore.Rot>
1.5841

> <Gold.Chemscore.Internal.Correction>
   9.000000E+99

> <Gold.Chemscore.Hbonds>
donor molecule, donor type, donor heavy atom, donor atom, acceptor molecule, acceptor atom, score
      L1  H     1    13       P1  8028  0.94
      L1  H     3    19       P1  8028  0.63
      P1  H  7989  7998       L1    11  0.78
      P1  H  7997  8009       L1    10  0.91

> <Gold.Chemscore.Hbond.Weighted>
-11.9670

> <Gold.Chemscore.Metal.Weighted>
-0.0000

> <Gold.Chemscore.Lipo.Weighted>
-4.5035

> <Gold.Chemscore.Internal_Hbond.Weighted>
0.0000

> <Gold.Chemscore.DEClash.Weighted>
0.0509

> <Gold.Chemscore.DEInternal.Weighted>
0.4158

> <Gold.Chemscore.Rot.Weighted>
4.0554

> <Gold.Chemscore.Internal.Correction.Weighted>
   9.000000E+99

> <Gold.Protein.RotatedTorsions>
[ 6907 6896 6895 6894 ] final -157.37 input  -60.11 | X-H torsion
[ 7974 7965 7964 7962 ] final   49.30 input  175.53 | X-H torsion
[ 8008 7997 7996 7995 ] final  171.75 input   59.86 | X-H torsion
[ 10167 10162 10161 10158 ] final   38.55 input  -65.29 | X-H torsion
[ 10718 10713 10712 10709 ] final   10.50 input   66.30 | X-H torsion
[ 10763 10752 10751 10750 ] final   57.80 input  -60.55 | X-H torsion
[ 11005 11000 10999 10996 ] final  -28.76 input  -57.11 | X-H torsion

> <Gold.Protein.ActiveResidues>
 VAL166  LYS551  ARG553  GLY616  TRP617  ASP618  TYR619  PRO620  LYS621  CYS622 
 ASP623  PHE694  ASN695  SER759  ASP760  ASP761  ALA762  ILE779  LEU786  VAL792 
 PHE793  MET794  SER795  GLU796  ALA797  LYS798  CYS799  TRP800  GLU811  SER814 

> <Gold.Protein.RotatedAtoms>
  151.3018  133.4119  159.2640 H   0  0  0  0  0  0  0  0  0  0  0  0  # atno 6907 bound_to 6896
  151.0188  134.9454  159.8058 H   0  0  0  0  0  0  0  0  0  0  0  0  # atno 6908 bound_to 6896
  152.5319  134.2982  159.9121 H   0  0  0  0  0  0  0  0  0  0  0  0  # atno 6909 bound_to 6896
  146.0122  139.4556  142.9949 H   0  0  0  0  0  0  0  0  0  0  0  0  # atno 7974 bound_to 7965
  156.1241  140.1504  156.9162 H   0  0  0  0  0  0  0  0  0  0  0  0  # atno 8008 bound_to 7997
  154.4858  140.0866  156.7524 H   0  0  0  0  0  0  0  0  0  0  0  0  # atno 8009 bound_to 7997
  155.4375  140.3429  155.4288 H   0  0  0  0  0  0  0  0  0  0  0  0  # atno 8010 bound_to 7997
  140.3925  144.1833  150.6131 H   0  0  0  0  0  0  0  0  0  0  0  0  # atno 10167 bound_to 10162
  156.9819  130.6009  149.5677 H   0  0  0  0  0  0  0  0  0  0  0  0  # atno 10718 bound_to 10713
  152.9857  135.5629  154.5449 H   0  0  0  0  0  0  0  0  0  0  0  0  # atno 10763 bound_to 10752
  154.4897  135.2792  155.1508 H   0  0  0  0  0  0  0  0  0  0  0  0  # atno 10764 bound_to 10752
  154.2983  135.6312  153.5467 H   0  0  0  0  0  0  0  0  0  0  0  0  # atno 10765 bound_to 10752
  140.9236  133.7383  156.0836 H   0  0  0  0  0  0  0  0  0  0  0  0  # atno 11005 bound_to 11000
  145.7324  141.0037  143.1344 LP  0  0  0  0  0  0  0  0  0  0  0  0  # atno 17320 bound_to 7965
  144.6957  139.9001  143.7458 LP  0  0  0  0  0  0  0  0  0  0  0  0  # atno 17321 bound_to 7965
  140.4824  143.2374  151.8936 LP  0  0  0  0  0  0  0  0  0  0  0  0  # atno 17342 bound_to 10162
  139.4788  144.5254  151.8742 LP  0  0  0  0  0  0  0  0  0  0  0  0  # atno 17343 bound_to 10162
  156.0241  130.5335  150.8358 LP  0  0  0  0  0  0  0  0  0  0  0  0  # atno 17370 bound_to 10713
  157.5520  131.0944  150.9682 LP  0  0  0  0  0  0  0  0  0  0  0  0  # atno 17371 bound_to 10713
  140.7955  134.3569  157.5453 LP  0  0  0  0  0  0  0  0  0  0  0  0  # atno 17394 bound_to 11000
  139.8781  134.9166  156.3159 LP  0  0  0  0  0  0  0  0  0  0  0  0  # atno 17395 bound_to 11000

$$$$
