AV-unprocessed.smi:2150|AV-procd|sdf|8757|dock2
  -GOLD-   2272011533D 1   1.00000     0.00000
 Structure written by MMmdl.
 35 36  0  0  0  0  0  0  0  0  1 V2000
  147.8010  131.5722  154.3765 O   0  0  0  0  0  0  0  0  0  0  0  0
  148.2879  132.7037  154.3752 C   0  0  0  0  0  0  0  0  0  0  0  0
  149.6062  132.9958  155.1058 C   0  0  0  0  0  0  0  0  0  0  0  0
  149.4377  133.8482  156.2939 N   0  0  0  0  0  0  0  0  0  0  0  0
  149.1717  135.2114  156.0825 C   0  0  0  0  0  0  0  0  0  0  0  0
  149.0099  136.0495  157.1164 C   0  0  0  0  0  0  0  0  0  0  0  0
  149.1259  135.4618  158.4574 C   0  0  0  0  0  0  0  0  0  0  0  0
  149.3723  134.2204  158.6537 N   0  0  0  0  0  0  0  0  0  0  0  0
  149.5467  133.3434  157.5660 C   0  0  0  0  0  0  0  0  0  0  0  0
  149.7910  132.1503  157.7471 O   0  0  0  0  0  0  0  0  0  0  0  0
  147.7306  133.7431  153.7335 N   0  0  0  0  0  0  0  0  0  0  0  0
  146.4915  133.6967  152.9539 C   0  0  1  0  0  0  0  0  0  0  0  0
  146.7424  132.7799  151.7345 C   0  0  0  0  0  0  0  0  0  0  0  0
  145.7806  133.0312  150.5602 C   0  0  0  0  0  0  0  0  0  0  0  0
  144.3063  132.7089  150.8472 C   0  0  0  0  0  0  0  0  0  0  0  0
  143.6911  133.5687  151.9645 C   0  0  0  0  0  0  0  0  0  0  0  0
  144.0930  133.1151  153.2896 N   0  0  0  0  0  0  0  0  0  0  0  0
  145.3346  133.1125  153.7985 C   0  0  0  0  0  0  0  0  0  0  0  0
  145.5459  132.6469  154.9183 O   0  0  0  0  0  0  0  0  0  0  0  0
  150.0579  132.0421  155.3822 H   0  0  0  0  0  0  0  0  0  0  0  0
  150.3124  133.4571  154.4129 H   0  0  0  0  0  0  0  0  0  0  0  0
  149.1171  135.5215  155.0490 H   0  0  0  0  0  0  0  0  0  0  0  0
  148.8074  137.1061  157.0244 H   0  0  0  0  0  0  0  0  0  0  0  0
  148.9875  136.1597  159.2871 H   0  0  0  0  0  0  0  0  0  0  0  0
  148.2068  134.6323  153.7743 H   0  0  0  0  0  0  0  0  0  0  0  0
  146.2412  134.7056  152.6208 H   0  0  0  0  0  0  0  0  0  0  0  0
  147.7524  132.9557  151.3604 H   0  0  0  0  0  0  0  0  0  0  0  0
  146.7190  131.7277  152.0239 H   0  0  0  0  0  0  0  0  0  0  0  0
  145.8681  134.0691  150.2370 H   0  0  0  0  0  0  0  0  0  0  0  0
  146.1062  132.4292  149.7113 H   0  0  0  0  0  0  0  0  0  0  0  0
  143.7396  132.8771  149.9308 H   0  0  0  0  0  0  0  0  0  0  0  0
  144.1900  131.6492  151.0794 H   0  0  0  0  0  0  0  0  0  0  0  0
  143.9327  134.6241  151.8309 H   0  0  0  0  0  0  0  0  0  0  0  0
  142.6046  133.4944  151.9170 H   0  0  0  0  0  0  0  0  0  0  0  0
  143.3597  132.7362  153.8714 H   0  0  0  0  0  0  0  0  0  0  0  0
  1  2  2  0  0  0  0
  2  3  1  0  0  0  0
  2 11  1  0  0  0  0
  3  4  1  0  0  0  0
  3 20  1  0  0  0  0
  3 21  1  0  0  0  0
  4  9  1  0  0  0  0
  4  5  1  0  0  0  0
  5  6  2  0  0  0  0
  5 22  1  0  0  0  0
  6  7  1  0  0  0  0
  6 23  1  0  0  0  0
  7  8  2  0  0  0  0
  7 24  1  0  0  0  0
  8  9  1  0  0  0  0
  9 10  2  0  0  0  0
 11 12  1  0  0  0  0
 11 25  1  0  0  0  0
 12 18  1  0  0  0  0
 12 13  1  0  0  0  0
 12 26  1  0  0  0  0
 13 14  1  0  0  0  0
 13 27  1  0  0  0  0
 13 28  1  0  0  0  0
 14 15  1  0  0  0  0
 14 29  1  0  0  0  0
 14 30  1  0  0  0  0
 15 16  1  0  0  0  0
 15 31  1  0  0  0  0
 15 32  1  0  0  0  0
 16 17  1  0  0  0  0
 16 33  1  0  0  0  0
 16 34  1  0  0  0  0
 17 18  1  0  0  0  0
 17 35  1  0  0  0  0
 18 19  2  0  0  0  0
M  END
> <s_m_source_file>
AV-unprocessed.smi

> <i_m_source_file_index>
2150

> <i_lp_mmshare_version>
43012

> <i_f3d_flags>
0

> <s_epik_input>
Tz1jMW5bY0hdW2NIXVtjSF1uMVtDSDJdQyg9TylbTkhdW0NAQEhdMltDSDJdW0NIMl1bQ0gyXVtDSDJdW05IXUMyPU8=

> <s_epik_cmdline>
J2VwaWtfcHl0aG9uJywgJy1waCcsICc3LjAnLCAnLXRuJywgJzgnLCAnLW1hJywgJzIwMCcsICctbWV0YWxfYmluZGluZycsICctaW1hZScsICc8aW5maWxlLm1hZT4nLCAnLW9tYWUnLCAnPG91dGZpbGUubWFlPic=

> <r_lp_tautomer_probability>
1

> <r_epik_Ionization_Penalty>
6.25431e-06

> <r_epik_Ionization_Penalty_Charging>
1.47848e-08

> <r_epik_Ionization_Penalty_Neutral>
6.23953e-06

> <r_epik_State_Penalty>
-0

> <r_epik_Charging_Adjusted_Penalty>
1.47848e-08

> <i_epik_Tot_Q>
0

> <i_epik_Tot_abs_Q>
0

> <r_epik_Metal_State_Penalty>
-0

> <b_epik_Metal_Only>
0

> <s_lp_Force_Field>
OPLS_2005

> <r_lp_Energy>
14.2725

> <b_lp_Chiralities_Consistent>
1

> <s_lp_Variant>
AV-unprocessed.smi:2150-2

> <Gold.Version>
5.8.1

> <Gold.Id.Protein>
6NUR|6NUR_protein|mol2

> <Gold.PLP.Fitness>
37.2032

> <Gold.PLP.PLP>
-26.2899

> <Gold.PLP.part.hbond>
-4.0000

> <Gold.PLP.part.metal>
0.0000

> <Gold.PLP.part.buried>
-3.0820

> <Gold.PLP.part.nonpolar>
-18.9995

> <Gold.PLP.part.repulsive>
0.1308

> <Gold.PLP.ligand.clash>
0.0000

> <Gold.PLP.ligand.torsion>
0.2682

> <Gold.PLP.Chemscore.Hbond>
2.8160

> <Gold.PLP.Chemscore.CHOScore>
1.0000

> <Gold.PLP.Chemscore.Metal>
0.0000

> <Gold.Chemscore.Hbonds>
donor molecule, donor type, donor heavy atom, donor atom, acceptor molecule, acceptor atom, score
      L1  H    17    35       P1 10957  0.93
      P1  H  6896  6907       L1     8  0.17

> <Gold.PLP.Chemscore.Internal.Correction>
0.0018

> <Gold.Rescore>
     Score         DG    S(hbond)    S(metal)    S(lipo)     H(rot)  DE(clash)    DE(int)     intcor
     10.93     -15.67       2.73        0.00      46.18       1.69       0.06       4.68       ----

> <Gold.Chemscore.Fitness>
10.9343

> <Gold.Chemscore.DG>
-15.6716

> <Gold.Chemscore.ZeroCoef>
-5.4800

> <Gold.Chemscore.Hbond>
2.7327

> <Gold.Chemscore.Metal>
0.0000

> <Gold.Chemscore.Lipo>
46.1794

> <Gold.Chemscore.Internal_Hbond>
0.0000

> <Gold.Chemscore.DEClash>
0.0580

> <Gold.Chemscore.DEInternal>
4.6794

> <Gold.Chemscore.Rot>
1.6947

> <Gold.Chemscore.Internal.Correction>
   9.000000E+99

> <Gold.Chemscore.Hbonds>
donor molecule, donor type, donor heavy atom, donor atom, acceptor molecule, acceptor atom, score
      L1  H    17    35       P1 10957  0.81

> <Gold.Chemscore.Hbond.Weighted>
-9.1271

> <Gold.Chemscore.Metal.Weighted>
-0.0000

> <Gold.Chemscore.Lipo.Weighted>
-5.4030

> <Gold.Chemscore.Internal_Hbond.Weighted>
0.0000

> <Gold.Chemscore.DEClash.Weighted>
0.0580

> <Gold.Chemscore.DEInternal.Weighted>
4.6794

> <Gold.Chemscore.Rot.Weighted>
4.3385

> <Gold.Chemscore.Internal.Correction.Weighted>
   9.000000E+99

> <Gold.Protein.RotatedTorsions>
[ 6907 6896 6895 6894 ] final -134.76 input  -60.11 | X-H torsion
[ 7974 7965 7964 7962 ] final   19.52 input  175.53 | X-H torsion
[ 8008 7997 7996 7995 ] final -154.70 input   59.86 | X-H torsion
[ 10167 10162 10161 10158 ] final    7.08 input  -65.29 | X-H torsion
[ 10718 10713 10712 10709 ] final -144.12 input   66.30 | X-H torsion
[ 10763 10752 10751 10750 ] final -177.89 input  -60.55 | X-H torsion
[ 11005 11000 10999 10996 ] final  102.65 input  -57.11 | X-H torsion

> <Gold.Protein.ActiveResidues>
 VAL166  LYS551  ARG553  GLY616  TRP617  ASP618  TYR619  PRO620  LYS621  CYS622 
 ASP623  PHE694  ASN695  SER759  ASP760  ASP761  ALA762  ILE779  LEU786  VAL792 
 PHE793  MET794  SER795  GLU796  ALA797  LYS798  CYS799  TRP800  GLU811  SER814 

> <Gold.Protein.RotatedAtoms>
  150.9897  133.6162  159.2709 H   0  0  0  0  0  0  0  0  0  0  0  0  # atno 6907 bound_to 6896
  151.3387  135.0857  159.9373 H   0  0  0  0  0  0  0  0  0  0  0  0  # atno 6908 bound_to 6896
  152.5242  133.9512  159.7727 H   0  0  0  0  0  0  0  0  0  0  0  0  # atno 6909 bound_to 6896
  146.2146  139.8301  142.8662 H   0  0  0  0  0  0  0  0  0  0  0  0  # atno 7974 bound_to 7965
  155.6904  140.0755  157.2450 H   0  0  0  0  0  0  0  0  0  0  0  0  # atno 8008 bound_to 7997
  154.4090  140.1665  156.2132 H   0  0  0  0  0  0  0  0  0  0  0  0  # atno 8009 bound_to 7997
  155.9457  140.3381  155.6368 H   0  0  0  0  0  0  0  0  0  0  0  0  # atno 8010 bound_to 7997
  140.6392  143.7815  150.7403 H   0  0  0  0  0  0  0  0  0  0  0  0  # atno 10167 bound_to 10162
  156.3662  130.7764  151.1938 H   0  0  0  0  0  0  0  0  0  0  0  0  # atno 10718 bound_to 10713
  154.5545  135.2815  155.0977 H   0  0  0  0  0  0  0  0  0  0  0  0  # atno 10763 bound_to 10752
  154.2410  135.6357  153.5211 H   0  0  0  0  0  0  0  0  0  0  0  0  # atno 10764 bound_to 10752
  153.0012  135.5560  154.6121 H   0  0  0  0  0  0  0  0  0  0  0  0  # atno 10765 bound_to 10752
  139.8779  134.9232  156.5090 H   0  0  0  0  0  0  0  0  0  0  0  0  # atno 11005 bound_to 11000
  145.3006  141.0193  143.3610 LP  0  0  0  0  0  0  0  0  0  0  0  0  # atno 17320 bound_to 7965
  144.9008  139.4651  143.6633 LP  0  0  0  0  0  0  0  0  0  0  0  0  # atno 17321 bound_to 7965
  140.1443  143.4413  152.2173 LP  0  0  0  0  0  0  0  0  0  0  0  0  # atno 17342 bound_to 10162
  139.5601  144.7400  151.4180 LP  0  0  0  0  0  0  0  0  0  0  0  0  # atno 17343 bound_to 10162
  157.7479  131.0385  150.4508 LP  0  0  0  0  0  0  0  0  0  0  0  0  # atno 17370 bound_to 10713
  156.4728  130.4056  149.6508 LP  0  0  0  0  0  0  0  0  0  0  0  0  # atno 17371 bound_to 10713
  140.8534  133.8114  155.9192 LP  0  0  0  0  0  0  0  0  0  0  0  0  # atno 17394 bound_to 11000
  140.9121  134.2247  157.4979 LP  0  0  0  0  0  0  0  0  0  0  0  0  # atno 17395 bound_to 11000

$$$$
