AV-unprocessed.smi:1019|AV-procd|sdf|4452|dock2
  -GOLD-   22720 2423D 1   1.00000     0.00000
 Structure written by MMmdl.
 43 45  0  0  0  0  0  0  0  0  1 V2000
  153.2423  139.4376  158.7905 C   0  0  0  0  0  0  0  0  0  0  0  0
  151.8597  139.5481  158.3338 N   0  0  0  0  0  0  0  0  0  0  0  0
  151.6412  140.8081  157.6171 C   0  0  0  0  0  0  0  0  0  0  0  0
  151.5497  142.0234  158.5242 C   0  0  0  0  0  0  0  0  0  0  0  0
  150.4483  142.8995  158.4241 C   0  0  0  0  0  0  0  0  0  0  0  0
  150.3611  144.0258  159.2652 C   0  0  0  0  0  0  0  0  0  0  0  0
  151.3753  144.2807  160.2085 C   0  0  0  0  0  0  0  0  0  0  0  0
  152.4771  143.4093  160.3098 C   0  0  0  0  0  0  0  0  0  0  0  0
  152.5651  142.2828  159.4686 C   0  0  0  0  0  0  0  0  0  0  0  0
  151.5083  138.3845  157.5175 C   0  0  0  0  0  0  0  0  0  0  0  0
  150.9279  137.1825  158.2942 C   0  0  1  0  0  0  0  0  0  0  0  0
  151.7640  136.8977  159.4000 O   0  0  0  0  0  0  0  0  0  0  0  0
  149.5064  137.4674  158.8180 C   0  0  0  0  0  0  0  0  0  0  0  0
  148.7876  136.2544  159.1664 N   0  0  0  0  0  0  0  0  0  0  0  0
  148.5452  135.1937  158.3723 C   0  0  0  0  0  0  0  0  0  0  0  0
  147.8623  134.1814  158.8997 N   0  0  0  0  0  0  0  0  0  0  0  0
  147.6393  134.6358  160.1882 C   0  0  0  0  0  0  0  0  0  0  0  0
  146.9647  134.0289  161.2718 C   0  0  0  0  0  0  0  0  0  0  0  0
  146.8616  134.6937  162.5117 C   0  0  0  0  0  0  0  0  0  0  0  0
  147.4300  135.9721  162.6873 C   0  0  0  0  0  0  0  0  0  0  0  0
  148.1074  136.5967  161.6226 C   0  0  0  0  0  0  0  0  0  0  0  0
  148.2073  135.9303  160.3873 C   0  0  0  0  0  0  0  0  0  0  0  0
  153.3967  138.5079  159.3392 H   0  0  0  0  0  0  0  0  0  0  0  0
  153.5039  140.2540  159.4641 H   0  0  0  0  0  0  0  0  0  0  0  0
  153.9373  139.4543  157.9501 H   0  0  0  0  0  0  0  0  0  0  0  0
  152.4258  140.9588  156.8742 H   0  0  0  0  0  0  0  0  0  0  0  0
  150.7017  140.7702  157.0668 H   0  0  0  0  0  0  0  0  0  0  0  0
  149.6677  142.7068  157.7027 H   0  0  0  0  0  0  0  0  0  0  0  0
  149.5159  144.6937  159.1870 H   0  0  0  0  0  0  0  0  0  0  0  0
  151.3080  145.1440  160.8539 H   0  0  0  0  0  0  0  0  0  0  0  0
  153.2551  143.6047  161.0329 H   0  0  0  0  0  0  0  0  0  0  0  0
  153.4121  141.6178  159.5528 H   0  0  0  0  0  0  0  0  0  0  0  0
  150.8402  138.6750  156.7049 H   0  0  0  0  0  0  0  0  0  0  0  0
  152.4203  138.0412  157.0275 H   0  0  0  0  0  0  0  0  0  0  0  0
  150.8934  136.3053  157.6462 H   0  0  0  0  0  0  0  0  0  0  0  0
  151.7174  137.6229  160.0045 H   0  0  0  0  0  0  0  0  0  0  0  0
  149.5444  138.1176  159.6935 H   0  0  0  0  0  0  0  0  0  0  0  0
  148.9247  137.9961  158.0617 H   0  0  0  0  0  0  0  0  0  0  0  0
  148.8859  135.1648  157.3477 H   0  0  0  0  0  0  0  0  0  0  0  0
  146.5257  133.0499  161.1492 H   0  0  0  0  0  0  0  0  0  0  0  0
  146.3437  134.2197  163.3325 H   0  0  0  0  0  0  0  0  0  0  0  0
  147.3454  136.4733  163.6404 H   0  0  0  0  0  0  0  0  0  0  0  0
  148.5441  137.5757  161.7528 H   0  0  0  0  0  0  0  0  0  0  0  0
  1  2  1  0  0  0  0
  1 23  1  0  0  0  0
  1 24  1  0  0  0  0
  1 25  1  0  0  0  0
  2  3  1  0  0  0  0
  2 10  1  0  0  0  0
  3  4  1  0  0  0  0
  3 26  1  0  0  0  0
  3 27  1  0  0  0  0
  4  9  1  0  0  0  0
  4  5  2  0  0  0  0
  5  6  1  0  0  0  0
  5 28  1  0  0  0  0
  6  7  2  0  0  0  0
  6 29  1  0  0  0  0
  7  8  1  0  0  0  0
  7 30  1  0  0  0  0
  8  9  2  0  0  0  0
  8 31  1  0  0  0  0
  9 32  1  0  0  0  0
 10 11  1  0  0  0  0
 10 33  1  0  0  0  0
 10 34  1  0  0  0  0
 11 12  1  0  0  0  0
 11 13  1  0  0  0  0
 11 35  1  0  0  0  0
 12 36  1  0  0  0  0
 13 14  1  0  0  0  0
 13 37  1  0  0  0  0
 13 38  1  0  0  0  0
 14 22  1  0  0  0  0
 14 15  1  0  0  0  0
 15 16  2  0  0  0  0
 15 39  1  0  0  0  0
 16 17  1  0  0  0  0
 17 22  2  0  0  0  0
 17 18  1  0  0  0  0
 18 19  2  0  0  0  0
 18 40  1  0  0  0  0
 19 20  1  0  0  0  0
 19 41  1  0  0  0  0
 20 21  2  0  0  0  0
 20 42  1  0  0  0  0
 21 22  1  0  0  0  0
 21 43  1  0  0  0  0
M  END
> <s_m_source_file>
AV-unprocessed.smi

> <i_m_source_file_index>
1019

> <i_lp_mmshare_version>
43012

> <i_f3d_flags>
0

> <s_epik_input>
W2NIXTFbY0hdW2NIXVtjSF1bY0hdYzFbQ0gyXU4oW0NIM10pW0NIMl1bQ0BIXShbT0hdKVtDSDJdbihbY0hdbjIpYyhjMjMpW2NIXVtjSF1bY0hdW2NIXTM=

> <s_epik_cmdline>
J2VwaWtfcHl0aG9uJywgJy1waCcsICc3LjAnLCAnLXRuJywgJzgnLCAnLW1hJywgJzIwMCcsICctbWV0YWxfYmluZGluZycsICctaW1hZScsICc8aW5maWxlLm1hZT4nLCAnLW9tYWUnLCAnPG91dGZpbGUubWFlPic=

> <r_epik_Ionization_Penalty>
1.56741

> <r_epik_Ionization_Penalty_Charging>
0

> <r_epik_Ionization_Penalty_Neutral>
1.56741

> <r_epik_State_Penalty>
1.62466

> <r_epik_Charging_Adjusted_Penalty>
1.62466

> <i_epik_Tot_Q>
0

> <i_epik_Tot_abs_Q>
0

> <r_epik_Metal_State_Penalty>
1.58486

> <b_epik_Metal_Only>
0

> <s_lp_Force_Field>
OPLS_2005

> <r_lp_Energy>
22.9091

> <b_lp_Chiralities_Consistent>
1

> <s_lp_Variant>
AV-unprocessed.smi:1019-10

> <Gold.Version>
5.8.1

> <Gold.Id.Protein>
6NUR|6NUR_protein|mol2

> <Gold.PLP.Fitness>
45.4218

> <Gold.PLP.PLP>
-43.7446

> <Gold.PLP.part.hbond>
-1.0000

> <Gold.PLP.part.metal>
0.0000

> <Gold.PLP.part.buried>
-2.3437

> <Gold.PLP.part.nonpolar>
-40.1116

> <Gold.PLP.part.repulsive>
0.0000

> <Gold.PLP.ligand.clash>
0.0000

> <Gold.PLP.ligand.torsion>
0.8339

> <Gold.PLP.Chemscore.Hbond>
1.0000

> <Gold.PLP.Chemscore.CHOScore>
0.0000

> <Gold.PLP.Chemscore.Metal>
0.0000

> <Gold.Chemscore.Hbonds>
donor molecule, donor type, donor heavy atom, donor atom, acceptor molecule, acceptor atom, score
      P1  H  6896  6908       L1    12  1.00

> <Gold.PLP.Chemscore.Internal.Correction>
0.3450

> <Gold.Rescore>
     Score         DG    S(hbond)    S(metal)    S(lipo)     H(rot)  DE(clash)    DE(int)     intcor
     15.54     -17.86       0.91        0.00     129.47       2.27       0.10       2.22       ----

> <Gold.Chemscore.Fitness>
15.5405

> <Gold.Chemscore.DG>
-17.8586

> <Gold.Chemscore.ZeroCoef>
-5.4800

> <Gold.Chemscore.Hbond>
0.9082

> <Gold.Chemscore.Metal>
0.0000

> <Gold.Chemscore.Lipo>
129.4697

> <Gold.Chemscore.Internal_Hbond>
0.0000

> <Gold.Chemscore.DEClash>
0.1027

> <Gold.Chemscore.DEInternal>
2.2154

> <Gold.Chemscore.Rot>
2.2667

> <Gold.Chemscore.Internal.Correction>
   9.000000E+99

> <Gold.Chemscore.Hbonds>
donor molecule, donor type, donor heavy atom, donor atom, acceptor molecule, acceptor atom, score
      P1  H  6896  6908       L1    12  0.89

> <Gold.Chemscore.Hbond.Weighted>
-3.0335

> <Gold.Chemscore.Metal.Weighted>
-0.0000

> <Gold.Chemscore.Lipo.Weighted>
-15.1480

> <Gold.Chemscore.Internal_Hbond.Weighted>
0.0000

> <Gold.Chemscore.DEClash.Weighted>
0.1027

> <Gold.Chemscore.DEInternal.Weighted>
2.2154

> <Gold.Chemscore.Rot.Weighted>
5.8028

> <Gold.Chemscore.Internal.Correction.Weighted>
   9.000000E+99

> <Gold.Protein.RotatedTorsions>
[ 6907 6896 6895 6894 ] final -109.29 input  -60.11 | X-H torsion
[ 7974 7965 7964 7962 ] final  163.34 input  175.53 | X-H torsion
[ 8008 7997 7996 7995 ] final   89.06 input   59.86 | X-H torsion
[ 10167 10162 10161 10158 ] final  112.28 input  -65.29 | X-H torsion
[ 10718 10713 10712 10709 ] final  -12.22 input   66.30 | X-H torsion
[ 10763 10752 10751 10750 ] final -124.40 input  -60.55 | X-H torsion
[ 11005 11000 10999 10996 ] final   91.00 input  -57.11 | X-H torsion

> <Gold.Protein.ActiveResidues>
 VAL166  LYS551  ARG553  GLY616  TRP617  ASP618  TYR619  PRO620  LYS621  CYS622 
 ASP623  PHE694  ASN695  SER759  ASP760  ASP761  ALA762  ILE779  LEU786  VAL792 
 PHE793  MET794  SER795  GLU796  ALA797  LYS798  CYS799  TRP800  GLU811  SER814 

> <Gold.Protein.RotatedAtoms>
  150.7553  133.9551  159.3497 H   0  0  0  0  0  0  0  0  0  0  0  0  # atno 6907 bound_to 6896
  151.7471  135.0839  160.0334 H   0  0  0  0  0  0  0  0  0  0  0  0  # atno 6908 bound_to 6896
  152.3490  133.6120  159.5967 H   0  0  0  0  0  0  0  0  0  0  0  0  # atno 6909 bound_to 6896
  144.7594  139.8168  143.6338 H   0  0  0  0  0  0  0  0  0  0  0  0  # atno 7974 bound_to 7965
  155.9953  140.3365  155.6793 H   0  0  0  0  0  0  0  0  0  0  0  0  # atno 8008 bound_to 7997
  155.6364  140.0690  157.2650 H   0  0  0  0  0  0  0  0  0  0  0  0  # atno 8009 bound_to 7997
  154.4232  140.1750  156.1514 H   0  0  0  0  0  0  0  0  0  0  0  0  # atno 8010 bound_to 7997
  139.6548  144.7129  151.1979 H   0  0  0  0  0  0  0  0  0  0  0  0  # atno 10167 bound_to 10162
  156.6477  130.4946  149.6073 H   0  0  0  0  0  0  0  0  0  0  0  0  # atno 10718 bound_to 10713
  154.8722  135.4065  154.3099 H   0  0  0  0  0  0  0  0  0  0  0  0  # atno 10763 bound_to 10752
  153.3944  135.7016  153.6476 H   0  0  0  0  0  0  0  0  0  0  0  0  # atno 10764 bound_to 10752
  153.5245  135.3680  155.2619 H   0  0  0  0  0  0  0  0  0  0  0  0  # atno 10765 bound_to 10752
  139.8846  134.8647  156.3365 H   0  0  0  0  0  0  0  0  0  0  0  0  # atno 11005 bound_to 11000
  146.1641  139.4766  142.9969 LP  0  0  0  0  0  0  0  0  0  0  0  0  # atno 17320 bound_to 7965
  145.6669  141.0226  143.1679 LP  0  0  0  0  0  0  0  0  0  0  0  0  # atno 17321 bound_to 7965
  140.7554  143.6091  150.8623 LP  0  0  0  0  0  0  0  0  0  0  0  0  # atno 17342 bound_to 10162
  139.9743  143.6022  152.2964 LP  0  0  0  0  0  0  0  0  0  0  0  0  # atno 17343 bound_to 10162
  156.2109  130.6678  151.1268 LP  0  0  0  0  0  0  0  0  0  0  0  0  # atno 17370 bound_to 10713
  157.7151  131.0714  150.6357 LP  0  0  0  0  0  0  0  0  0  0  0  0  # atno 17371 bound_to 10713
  140.9688  133.7341  156.0504 LP  0  0  0  0  0  0  0  0  0  0  0  0  # atno 17394 bound_to 11000
  140.7897  134.3631  157.5467 LP  0  0  0  0  0  0  0  0  0  0  0  0  # atno 17395 bound_to 11000

$$$$
