AV-unprocessed.smi:3249|AV-procd|sdf|12417|dock10
  -GOLD-   2272018303D 1   1.00000     0.00000
 Structure written by MMmdl.
 44 45  0  0  0  0  0  0  0  0  2 V2000
  154.1728  128.1714  153.3586 C   0  0  0  0  0  0  0  0  0  0  0  0
  152.9790  129.0180  153.6950 C   0  0  0  0  0  0  0  0  0  0  0  0
  152.9191  130.1354  154.5750 C   0  0  0  0  0  0  0  0  0  0  0  0
  151.7102  130.6675  154.6483 N   0  0  0  0  0  0  0  0  0  0  0  0
  150.9544  129.9118  153.8231 N   0  0  0  0  0  0  0  0  0  0  0  0
  149.5427  130.2285  153.6440 C   0  0  2  0  0  0  0  0  0  0  0  0
  148.8844  129.1810  152.7266 C   0  0  0  0  0  0  0  0  0  0  0  0
  149.3309  131.6801  153.1396 C   0  0  2  0  0  0  0  0  0  0  0  0
  149.4761  132.7338  154.2581 C   0  0  0  0  0  0  0  0  0  0  0  0
  147.9984  131.7967  152.5042 N   0  3  0  0  0  0  0  0  0  0  0  0
  147.5932  133.1686  152.1318 C   0  0  0  0  0  0  0  0  0  0  0  0
  146.0748  133.2552  151.9238 C   0  0  2  0  0  0  0  0  0  0  0  0
  145.5440  132.0838  151.0742 C   0  0  0  0  0  0  0  0  0  0  0  0
  144.0457  132.2523  150.7980 C   0  0  0  0  0  0  0  0  0  0  0  0
  143.7858  133.6345  150.1903 C   0  0  0  0  0  0  0  0  0  0  0  0
  144.4052  134.7297  151.0724 C   0  0  0  0  0  0  0  0  0  0  0  0
  145.7967  134.4809  151.2494 O   0  0  0  0  0  0  0  0  0  0  0  0
  151.6981  128.9090  153.2331 C   0  0  0  0  0  0  0  0  0  0  0  0
  154.9708  128.2865  154.0924 H   0  0  0  0  0  0  0  0  0  0  0  0
  154.5899  128.4345  152.3865 H   0  0  0  0  0  0  0  0  0  0  0  0
  153.9196  127.1115  153.3245 H   0  0  0  0  0  0  0  0  0  0  0  0
  153.7151  130.5747  155.1582 H   0  0  0  0  0  0  0  0  0  0  0  0
  149.0677  130.1448  154.6238 H   0  0  0  0  0  0  0  0  0  0  0  0
  147.8062  129.3261  152.6605 H   0  0  0  0  0  0  0  0  0  0  0  0
  149.0515  128.1720  153.1051 H   0  0  0  0  0  0  0  0  0  0  0  0
  149.2870  129.2256  151.7142 H   0  0  0  0  0  0  0  0  0  0  0  0
  150.0898  131.8827  152.3819 H   0  0  0  0  0  0  0  0  0  0  0  0
  150.4783  132.7339  154.6871 H   0  0  0  0  0  0  0  0  0  0  0  0
  148.7698  132.5476  155.0676 H   0  0  0  0  0  0  0  0  0  0  0  0
  149.2978  133.7440  153.8914 H   0  0  0  0  0  0  0  0  0  0  0  0
  148.0128  131.2483  151.6562 H   0  0  0  0  0  0  0  0  0  0  0  0
  147.9024  133.8808  152.8966 H   0  0  0  0  0  0  0  0  0  0  0  0
  148.1084  133.4434  151.2105 H   0  0  0  0  0  0  0  0  0  0  0  0
  145.5781  133.2523  152.8960 H   0  0  0  0  0  0  0  0  0  0  0  0
  146.0847  132.0404  150.1277 H   0  0  0  0  0  0  0  0  0  0  0  0
  145.7242  131.1351  151.5806 H   0  0  0  0  0  0  0  0  0  0  0  0
  143.6911  131.4692  150.1276 H   0  0  0  0  0  0  0  0  0  0  0  0
  143.4852  132.1479  151.7280 H   0  0  0  0  0  0  0  0  0  0  0  0
  144.2206  133.6832  149.1910 H   0  0  0  0  0  0  0  0  0  0  0  0
  142.7148  133.8021  150.0739 H   0  0  0  0  0  0  0  0  0  0  0  0
  144.2794  135.7047  150.6015 H   0  0  0  0  0  0  0  0  0  0  0  0
  143.9069  134.7780  152.0418 H   0  0  0  0  0  0  0  0  0  0  0  0
  151.2598  128.2089  152.5371 H   0  0  0  0  0  0  0  0  0  0  0  0
  147.3063  131.4028  153.1260 H   0  0  0  0  0  0  0  0  0  0  0  0
  1  2  1  0  0  0  0
  1 19  1  0  0  0  0
  1 20  1  0  0  0  0
  1 21  1  0  0  0  0
  2 18  2  0  0  0  0
  2  3  1  0  0  0  0
  3  4  2  0  0  0  0
  3 22  1  0  0  0  0
  4  5  1  0  0  0  0
  5  6  1  0  0  0  0
  5 18  1  0  0  0  0
  6  7  1  0  0  0  0
  6  8  1  0  0  0  0
  6 23  1  0  0  0  0
  7 24  1  0  0  0  0
  7 25  1  0  0  0  0
  7 26  1  0  0  0  0
  8  9  1  0  0  0  0
  8 10  1  0  0  0  0
  8 27  1  0  0  0  0
  9 28  1  0  0  0  0
  9 29  1  0  0  0  0
  9 30  1  0  0  0  0
 10 11  1  0  0  0  0
 10 31  1  0  0  0  0
 10 44  1  0  0  0  0
 11 12  1  0  0  0  0
 11 32  1  0  0  0  0
 11 33  1  0  0  0  0
 12 17  1  0  0  0  0
 12 13  1  0  0  0  0
 12 34  1  0  0  0  0
 13 14  1  0  0  0  0
 13 35  1  0  0  0  0
 13 36  1  0  0  0  0
 14 15  1  0  0  0  0
 14 37  1  0  0  0  0
 14 38  1  0  0  0  0
 15 16  1  0  0  0  0
 15 39  1  0  0  0  0
 15 40  1  0  0  0  0
 16 17  1  0  0  0  0
 16 41  1  0  0  0  0
 16 42  1  0  0  0  0
 18 43  1  0  0  0  0
M  CHG  1  10   1
M  END
> <s_m_source_file>
AV-unprocessed.smi

> <i_m_source_file_index>
3249

> <i_lp_mmshare_version>
43012

> <i_f3d_flags>
0

> <s_epik_input>
W0NIM11jMVtjSF1ubihbY0hdMSlbQ0BIXShbQ0gzXSlbQ0BIXShbQ0gzXSlbTkhdW0NIMl1bQ0BASF0yW0NIMl1bQ0gyXVtDSDJdW0NIMl1PMg==

> <s_epik_cmdline>
J2VwaWtfcHl0aG9uJywgJy1waCcsICc3LjAnLCAnLXRuJywgJzgnLCAnLW1hJywgJzIwMCcsICctbWV0YWxfYmluZGluZycsICctaW1hZScsICc8aW5maWxlLm1hZT4nLCAnLW9tYWUnLCAnPG91dGZpbGUubWFlPic=

> <r_lp_tautomer_probability>
1

> <r_epik_Ionization_Penalty>
0.00659207

> <r_epik_Ionization_Penalty_Charging>
0.00656881

> <r_epik_Ionization_Penalty_Neutral>
2.32662e-05

> <r_epik_State_Penalty>
0.0048654

> <r_epik_Charging_Adjusted_Penalty>
0.0114342

> <i_epik_Tot_Q>
1

> <i_epik_Tot_abs_Q>
1

> <r_epik_Metal_State_Penalty>
-0

> <b_epik_Metal_Only>
0

> <s_lp_Force_Field>
OPLS_2005

> <r_lp_Energy>
18.0263

> <b_lp_Chiralities_Consistent>
1

> <s_lp_Variant>
AV-unprocessed.smi:3249-1

> <Gold.Version>
5.8.1

> <Gold.Id.Protein>
6NUR|6NUR_protein|mol2

> <Gold.PLP.Fitness>
42.8449

> <Gold.PLP.PLP>
-38.1859

> <Gold.PLP.part.hbond>
-1.0000

> <Gold.PLP.part.metal>
0.0000

> <Gold.PLP.part.buried>
-5.8218

> <Gold.PLP.part.nonpolar>
-32.4158

> <Gold.PLP.part.repulsive>
0.1736

> <Gold.PLP.ligand.clash>
0.0000

> <Gold.PLP.ligand.torsion>
0.6909

> <Gold.PLP.Chemscore.Hbond>
0.9920

> <Gold.PLP.Chemscore.CHOScore>
1.0000

> <Gold.PLP.Chemscore.Metal>
0.0000

> <Gold.Chemscore.Hbonds>
donor molecule, donor type, donor heavy atom, donor atom, acceptor molecule, acceptor atom, score
      L1  H    10    31       P1 10747  0.86

> <Gold.PLP.Chemscore.Internal.Correction>
0.0647

> <Gold.Rescore>
     Score         DG    S(hbond)    S(metal)    S(lipo)     H(rot)  DE(clash)    DE(int)     intcor
     14.97     -15.77       0.97        0.00      93.82       1.53       0.07       0.73       ----

> <Gold.Chemscore.Fitness>
14.9734

> <Gold.Chemscore.DG>
-15.7691

> <Gold.Chemscore.ZeroCoef>
-5.4800

> <Gold.Chemscore.Hbond>
0.9693

> <Gold.Chemscore.Metal>
0.0000

> <Gold.Chemscore.Lipo>
93.8190

> <Gold.Chemscore.Internal_Hbond>
0.0000

> <Gold.Chemscore.DEClash>
0.0695

> <Gold.Chemscore.DEInternal>
0.7262

> <Gold.Chemscore.Rot>
1.5333

> <Gold.Chemscore.Internal.Correction>
   9.000000E+99

> <Gold.Chemscore.Hbonds>
donor molecule, donor type, donor heavy atom, donor atom, acceptor molecule, acceptor atom, score
      L1  H    10    31       P1 10747  0.85

> <Gold.Chemscore.Hbond.Weighted>
-3.2375

> <Gold.Chemscore.Metal.Weighted>
-0.0000

> <Gold.Chemscore.Lipo.Weighted>
-10.9768

> <Gold.Chemscore.Internal_Hbond.Weighted>
0.0000

> <Gold.Chemscore.DEClash.Weighted>
0.0695

> <Gold.Chemscore.DEInternal.Weighted>
0.7262

> <Gold.Chemscore.Rot.Weighted>
3.9252

> <Gold.Chemscore.Internal.Correction.Weighted>
   9.000000E+99

> <Gold.Protein.RotatedTorsions>
[ 6907 6896 6895 6894 ] final -148.17 input  -60.11 | X-H torsion
[ 7974 7965 7964 7962 ] final   -7.29 input  175.53 | X-H torsion
[ 8008 7997 7996 7995 ] final  161.45 input   59.86 | X-H torsion
[ 10167 10162 10161 10158 ] final  -33.05 input  -65.29 | X-H torsion
[ 10718 10713 10712 10709 ] final  -42.85 input   66.30 | X-H torsion
[ 10763 10752 10751 10750 ] final   75.48 input  -60.55 | X-H torsion
[ 11005 11000 10999 10996 ] final  -67.19 input  -57.11 | X-H torsion

> <Gold.Protein.ActiveResidues>
 VAL166  LYS551  ARG553  GLY616  TRP617  ASP618  TYR619  PRO620  LYS621  CYS622 
 ASP623  PHE694  ASN695  SER759  ASP760  ASP761  ALA762  ILE779  LEU786  VAL792 
 PHE793  MET794  SER795  GLU796  ALA797  LYS798  CYS799  TRP800  GLU811  SER814 

> <Gold.Protein.RotatedAtoms>
  151.1660  133.4814  159.2593 H   0  0  0  0  0  0  0  0  0  0  0  0  # atno 6907 bound_to 6896
  151.1404  135.0176  159.8633 H   0  0  0  0  0  0  0  0  0  0  0  0  # atno 6908 bound_to 6896
  152.5462  134.1555  159.8589 H   0  0  0  0  0  0  0  0  0  0  0  0  # atno 6909 bound_to 6896
  146.2310  140.2297  142.8340 H   0  0  0  0  0  0  0  0  0  0  0  0  # atno 7974 bound_to 7965
  156.2102  140.1777  156.7711 H   0  0  0  0  0  0  0  0  0  0  0  0  # atno 8008 bound_to 7997
  154.5712  140.0682  156.8996 H   0  0  0  0  0  0  0  0  0  0  0  0  # atno 8009 bound_to 7997
  155.2670  140.3340  155.4271 H   0  0  0  0  0  0  0  0  0  0  0  0  # atno 8010 bound_to 7997
  140.7211  143.3649  151.1890 H   0  0  0  0  0  0  0  0  0  0  0  0  # atno 10167 bound_to 10162
  156.2552  130.4191  149.8604 H   0  0  0  0  0  0  0  0  0  0  0  0  # atno 10718 bound_to 10713
  153.0658  135.4987  154.8196 H   0  0  0  0  0  0  0  0  0  0  0  0  # atno 10763 bound_to 10752
  154.6951  135.2991  154.9426 H   0  0  0  0  0  0  0  0  0  0  0  0  # atno 10764 bound_to 10752
  154.0168  135.6747  153.4822 H   0  0  0  0  0  0  0  0  0  0  0  0  # atno 10765 bound_to 10752
  141.1501  133.6714  156.6254 H   0  0  0  0  0  0  0  0  0  0  0  0  # atno 11005 bound_to 11000
  144.9568  140.8234  143.5538 LP  0  0  0  0  0  0  0  0  0  0  0  0  # atno 17320 bound_to 7965
  145.2263  139.2135  143.5066 LP  0  0  0  0  0  0  0  0  0  0  0  0  # atno 17321 bound_to 7965
  139.7209  143.9225  152.2985 LP  0  0  0  0  0  0  0  0  0  0  0  0  # atno 17342 bound_to 10162
  139.8982  144.6927  150.8695 LP  0  0  0  0  0  0  0  0  0  0  0  0  # atno 17343 bound_to 10162
  156.6139  130.8598  151.3460 LP  0  0  0  0  0  0  0  0  0  0  0  0  # atno 17370 bound_to 10713
  157.7230  130.9583  150.1515 LP  0  0  0  0  0  0  0  0  0  0  0  0  # atno 17371 bound_to 10713
  140.3508  134.7770  157.4465 LP  0  0  0  0  0  0  0  0  0  0  0  0  # atno 17394 bound_to 11000
  140.0862  134.5663  155.8489 LP  0  0  0  0  0  0  0  0  0  0  0  0  # atno 17395 bound_to 11000

$$$$
