AV-unprocessed.smi:2107|AV-procd|sdf|8600|dock1
  -GOLD-   2272011333D 1   1.00000     0.00000
 Structure written by MMmdl.
 46 47  0  0  0  0  0  0  0  0  1 V2000
  145.6534  133.8450  162.0591 C   0  0  0  0  0  0  0  0  0  0  0  0
  147.0020  134.2835  161.4727 C   0  0  0  0  0  0  0  0  0  0  0  0
  146.9015  135.5907  160.7917 N   0  0  0  0  0  0  0  0  0  0  0  0
  146.2985  136.6701  161.5951 C   0  0  0  0  0  0  0  0  0  0  0  0
  144.8046  136.8450  161.2860 C   0  0  0  0  0  0  0  0  0  0  0  0
  148.1145  136.0182  159.6219 S   0  0  0  0  0  0  0  0  0  0  0  0
  148.9228  137.1228  160.1622 O   0  0  0  0  0  0  0  0  0  0  0  0
  148.7409  134.7799  159.1346 O   0  0  0  0  0  0  0  0  0  0  0  0
  147.0906  136.6422  158.3803 N   0  0  0  0  0  0  0  0  0  0  0  0
  147.6711  137.1129  157.1206 C   0  0  0  0  0  0  0  0  0  0  0  0
  147.3514  138.5684  156.7756 C   0  0  0  0  0  0  0  0  0  0  0  0
  146.0095  138.9953  156.6486 C   0  0  0  0  0  0  0  0  0  0  0  0
  145.7361  140.3322  156.3097 C   0  0  0  0  0  0  0  0  0  0  0  0
  146.8213  141.2002  156.0989 C   0  0  0  0  0  0  0  0  0  0  0  0
  148.1075  140.8103  156.2046 N   0  0  0  0  0  0  0  0  0  0  0  0
  148.3764  139.5225  156.5329 C   0  0  0  0  0  0  0  0  0  0  0  0
  149.7298  139.1603  156.6488 N   0  0  0  0  0  0  0  0  0  0  0  0
  150.3642  139.7185  157.8360 C   0  0  0  0  0  0  0  0  0  0  0  0
  151.7683  139.1161  158.0129 C   0  0  0  0  0  0  0  0  0  0  0  0
  152.5355  139.3319  156.8314 O   0  0  0  0  0  0  0  0  0  0  0  0
  151.9431  138.7211  155.6881 C   0  0  0  0  0  0  0  0  0  0  0  0
  150.5463  139.3197  155.4503 C   0  0  0  0  0  0  0  0  0  0  0  0
  145.7675  132.9286  162.6382 H   0  0  0  0  0  0  0  0  0  0  0  0
  144.9208  133.6431  161.2792 H   0  0  0  0  0  0  0  0  0  0  0  0
  145.2391  134.6045  162.7222 H   0  0  0  0  0  0  0  0  0  0  0  0
  147.7495  134.3280  162.2655 H   0  0  0  0  0  0  0  0  0  0  0  0
  147.3591  133.5302  160.7704 H   0  0  0  0  0  0  0  0  0  0  0  0
  146.4552  136.4671  162.6551 H   0  0  0  0  0  0  0  0  0  0  0  0
  146.8039  137.6121  161.3857 H   0  0  0  0  0  0  0  0  0  0  0  0
  144.3968  137.6946  161.8338 H   0  0  0  0  0  0  0  0  0  0  0  0
  144.2236  135.9674  161.5690 H   0  0  0  0  0  0  0  0  0  0  0  0
  144.6430  137.0281  160.2233 H   0  0  0  0  0  0  0  0  0  0  0  0
  146.2324  136.1050  158.2582 H   0  0  0  0  0  0  0  0  0  0  0  0
  148.7448  136.9322  157.1557 H   0  0  0  0  0  0  0  0  0  0  0  0
  147.2828  136.4915  156.3139 H   0  0  0  0  0  0  0  0  0  0  0  0
  145.1895  138.3127  156.8049 H   0  0  0  0  0  0  0  0  0  0  0  0
  144.7192  140.6816  156.2109 H   0  0  0  0  0  0  0  0  0  0  0  0
  146.6528  142.2337  155.8355 H   0  0  0  0  0  0  0  0  0  0  0  0
  150.4324  140.8023  157.7327 H   0  0  0  0  0  0  0  0  0  0  0  0
  149.7593  139.5196  158.7204 H   0  0  0  0  0  0  0  0  0  0  0  0
  152.2747  139.5841  158.8571 H   0  0  0  0  0  0  0  0  0  0  0  0
  151.7077  138.0481  158.2291 H   0  0  0  0  0  0  0  0  0  0  0  0
  152.5798  138.8962  154.8208 H   0  0  0  0  0  0  0  0  0  0  0  0
  151.8848  137.6407  155.8292 H   0  0  0  0  0  0  0  0  0  0  0  0
  150.0636  138.8262  154.6058 H   0  0  0  0  0  0  0  0  0  0  0  0
  150.6391  140.3775  155.2001 H   0  0  0  0  0  0  0  0  0  0  0  0
  1  2  1  0  0  0  0
  1 23  1  0  0  0  0
  1 24  1  0  0  0  0
  1 25  1  0  0  0  0
  2  3  1  0  0  0  0
  2 26  1  0  0  0  0
  2 27  1  0  0  0  0
  3  4  1  0  0  0  0
  3  6  1  0  0  0  0
  4  5  1  0  0  0  0
  4 28  1  0  0  0  0
  4 29  1  0  0  0  0
  5 30  1  0  0  0  0
  5 31  1  0  0  0  0
  5 32  1  0  0  0  0
  6  7  2  0  0  0  0
  6  8  2  0  0  0  0
  6  9  1  0  0  0  0
  9 10  1  0  0  0  0
  9 33  1  0  0  0  0
 10 11  1  0  0  0  0
 10 34  1  0  0  0  0
 10 35  1  0  0  0  0
 11 16  1  0  0  0  0
 11 12  2  0  0  0  0
 12 13  1  0  0  0  0
 12 36  1  0  0  0  0
 13 14  2  0  0  0  0
 13 37  1  0  0  0  0
 14 15  1  0  0  0  0
 14 38  1  0  0  0  0
 15 16  2  0  0  0  0
 16 17  1  0  0  0  0
 17 22  1  0  0  0  0
 17 18  1  0  0  0  0
 18 19  1  0  0  0  0
 18 39  1  0  0  0  0
 18 40  1  0  0  0  0
 19 20  1  0  0  0  0
 19 41  1  0  0  0  0
 19 42  1  0  0  0  0
 20 21  1  0  0  0  0
 21 22  1  0  0  0  0
 21 43  1  0  0  0  0
 21 44  1  0  0  0  0
 22 45  1  0  0  0  0
 22 46  1  0  0  0  0
M  END
> <s_m_source_file>
AV-unprocessed.smi

> <i_m_source_file_index>
2107

> <i_lp_mmshare_version>
43012

> <i_f3d_flags>
0

> <s_epik_input>
W0NIM11bQ0gyXU4oW0NIMl1bQ0gzXSlTKD1PKSg9TylbTkhdW0NIMl1jMVtjSF1bY0hdW2NIXW5jMU4yW0NIMl1bQ0gyXU9bQ0gyXVtDSDJdMg==

> <s_epik_cmdline>
J2VwaWtfcHl0aG9uJywgJy1waCcsICc3LjAnLCAnLXRuJywgJzgnLCAnLW1hJywgJzIwMCcsICctbWV0YWxfYmluZGluZycsICctaW1hZScsICc8aW5maWxlLm1hZT4nLCAnLW9tYWUnLCAnPG91dGZpbGUubWFlPic=

> <r_lp_tautomer_probability>
1

> <r_epik_Ionization_Penalty>
0.0173886

> <r_epik_Ionization_Penalty_Charging>
0

> <r_epik_Ionization_Penalty_Neutral>
0.0173886

> <r_epik_State_Penalty>
0.0135122

> <r_epik_Charging_Adjusted_Penalty>
0.0135122

> <i_epik_Tot_Q>
0

> <i_epik_Tot_abs_Q>
0

> <r_epik_Metal_State_Penalty>
0.283451

> <b_epik_Metal_Only>
0

> <s_lp_Force_Field>
OPLS_2005

> <r_lp_Energy>
23.0208

> <b_lp_Chiralities_Consistent>
1

> <s_lp_Variant>
AV-unprocessed.smi:2107-1

> <Gold.Version>
5.8.1

> <Gold.Id.Protein>
6NUR|6NUR_protein|mol2

> <Gold.PLP.Fitness>
38.9195

> <Gold.PLP.PLP>
-31.5701

> <Gold.PLP.part.hbond>
-3.0000

> <Gold.PLP.part.metal>
0.0000

> <Gold.PLP.part.buried>
-4.4459

> <Gold.PLP.part.nonpolar>
-24.3968

> <Gold.PLP.part.repulsive>
0.0934

> <Gold.PLP.ligand.clash>
0.0000

> <Gold.PLP.ligand.torsion>
1.9810

> <Gold.PLP.Chemscore.Hbond>
2.4320

> <Gold.PLP.Chemscore.CHOScore>
0.3085

> <Gold.PLP.Chemscore.Metal>
0.0000

> <Gold.Chemscore.Hbonds>
donor molecule, donor type, donor heavy atom, donor atom, acceptor molecule, acceptor atom, score
      P1  H  6896  6908       L1     8  1.00
      P1  H  6931  6943       L1     7  0.52
      P1  H  7997  8010       L1    20  0.89

> <Gold.PLP.Chemscore.Internal.Correction>
3.0900

> <Gold.Rescore>
     Score         DG    S(hbond)    S(metal)    S(lipo)     H(rot)  DE(clash)    DE(int)     intcor
     13.47     -15.46       2.49        0.00      56.45       1.93       0.03       1.96       ----

> <Gold.Chemscore.Fitness>
13.4694

> <Gold.Chemscore.DG>
-15.4591

> <Gold.Chemscore.ZeroCoef>
-5.4800

> <Gold.Chemscore.Hbond>
2.4894

> <Gold.Chemscore.Metal>
0.0000

> <Gold.Chemscore.Lipo>
56.4450

> <Gold.Chemscore.Internal_Hbond>
0.0000

> <Gold.Chemscore.DEClash>
0.0310

> <Gold.Chemscore.DEInternal>
1.9588

> <Gold.Chemscore.Rot>
1.9295

> <Gold.Chemscore.Internal.Correction>
   9.000000E+99

> <Gold.Chemscore.Hbonds>
donor molecule, donor type, donor heavy atom, donor atom, acceptor molecule, acceptor atom, score
      P1  H  6896  6908       L1     8  0.96
      P1  H  6931  6943       L1     7  0.50
      P1  H  7997  8010       L1    20  0.51

> <Gold.Chemscore.Hbond.Weighted>
-8.3146

> <Gold.Chemscore.Metal.Weighted>
-0.0000

> <Gold.Chemscore.Lipo.Weighted>
-6.6041

> <Gold.Chemscore.Internal_Hbond.Weighted>
0.0000

> <Gold.Chemscore.DEClash.Weighted>
0.0310

> <Gold.Chemscore.DEInternal.Weighted>
1.9588

> <Gold.Chemscore.Rot.Weighted>
4.9395

> <Gold.Chemscore.Internal.Correction.Weighted>
   9.000000E+99

> <Gold.Protein.RotatedTorsions>
[ 6907 6896 6895 6894 ] final  147.95 input  -60.11 | X-H torsion
[ 7974 7965 7964 7962 ] final   79.17 input  175.53 | X-H torsion
[ 8008 7997 7996 7995 ] final   84.99 input   59.86 | X-H torsion
[ 10167 10162 10161 10158 ] final -159.90 input  -65.29 | X-H torsion
[ 10718 10713 10712 10709 ] final  -48.15 input   66.30 | X-H torsion
[ 10763 10752 10751 10750 ] final  -33.08 input  -60.55 | X-H torsion
[ 11005 11000 10999 10996 ] final   89.88 input  -57.11 | X-H torsion

> <Gold.Protein.ActiveResidues>
 VAL166  LYS551  ARG553  GLY616  TRP617  ASP618  TYR619  PRO620  LYS621  CYS622 
 ASP623  PHE694  ASN695  SER759  ASP760  ASP761  ALA762  ILE779  LEU786  VAL792 
 PHE793  MET794  SER795  GLU796  ALA797  LYS798  CYS799  TRP800  GLU811  SER814 

> <Gold.Protein.RotatedAtoms>
  152.1480  133.4504  159.4799 H   0  0  0  0  0  0  0  0  0  0  0  0  # atno 6907 bound_to 6896
  150.6892  134.2224  159.4411 H   0  0  0  0  0  0  0  0  0  0  0  0  # atno 6908 bound_to 6896
  152.0119  134.9871  160.0619 H   0  0  0  0  0  0  0  0  0  0  0  0  # atno 6909 bound_to 6896
  145.6677  139.2488  143.1886 H   0  0  0  0  0  0  0  0  0  0  0  0  # atno 7974 bound_to 7965
  155.9442  140.3406  155.6353 H   0  0  0  0  0  0  0  0  0  0  0  0  # atno 8008 bound_to 7997
  155.7001  140.0759  157.2432 H   0  0  0  0  0  0  0  0  0  0  0  0  # atno 8009 bound_to 7997
  154.4108  140.1641  156.2169 H   0  0  0  0  0  0  0  0  0  0  0  0  # atno 8010 bound_to 7997
  139.6580  143.9964  152.2206 H   0  0  0  0  0  0  0  0  0  0  0  0  # atno 10167 bound_to 10162
  156.2016  130.4156  149.9234 H   0  0  0  0  0  0  0  0  0  0  0  0  # atno 10718 bound_to 10713
  153.8243  135.6871  153.4823 H   0  0  0  0  0  0  0  0  0  0  0  0  # atno 10763 bound_to 10752
  153.1550  135.4603  154.9689 H   0  0  0  0  0  0  0  0  0  0  0  0  # atno 10764 bound_to 10752
  154.7914  135.3303  154.7712 H   0  0  0  0  0  0  0  0  0  0  0  0  # atno 10765 bound_to 10752
  139.8866  134.8579  156.3205 H   0  0  0  0  0  0  0  0  0  0  0  0  # atno 11005 bound_to 11000
  146.1072  140.7473  142.9521 LP  0  0  0  0  0  0  0  0  0  0  0  0  # atno 17320 bound_to 7965
  144.7067  140.3880  143.7112 LP  0  0  0  0  0  0  0  0  0  0  0  0  # atno 17321 bound_to 7965
  139.9695  144.6503  150.8002 LP  0  0  0  0  0  0  0  0  0  0  0  0  # atno 17342 bound_to 10162
  140.7567  143.3072  151.2932 LP  0  0  0  0  0  0  0  0  0  0  0  0  # atno 17343 bound_to 10162
  156.6941  130.8907  151.3592 LP  0  0  0  0  0  0  0  0  0  0  0  0  # atno 17370 bound_to 10713
  157.6989  130.9311  150.0725 LP  0  0  0  0  0  0  0  0  0  0  0  0  # atno 17371 bound_to 10713
  140.9790  133.7279  156.0644 LP  0  0  0  0  0  0  0  0  0  0  0  0  # atno 17394 bound_to 11000
  140.7774  134.3764  157.5495 LP  0  0  0  0  0  0  0  0  0  0  0  0  # atno 17395 bound_to 11000

$$$$
