AV-unprocessed.smi:1809|AV-procd|sdf|7319|dock10
  -GOLD-   22720 8573D 1   1.00000     0.00000
 Structure written by MMmdl.
 39 41  0  0  0  0  0  0  0  0  1 V2000
  146.9806  134.2768  162.4772 C   0  0  0  0  0  0  0  0  0  0  0  0
  147.4214  135.3600  161.5530 C   0  0  0  0  0  0  0  0  0  0  0  0
  147.1671  136.6549  161.7785 N   0  0  0  0  0  0  0  0  0  0  0  0
  147.6713  137.4724  160.7768 N   0  0  0  0  0  0  0  0  0  0  0  0
  148.2920  136.7672  159.8211 C   0  0  0  0  0  0  0  0  0  0  0  0
  148.8991  137.3507  158.6777 N   0  0  0  0  0  0  0  0  0  0  0  0
  149.6526  136.7533  157.7377 C   0  0  0  0  0  0  0  0  0  0  0  0
  149.9473  135.5581  157.7164 O   0  0  0  0  0  0  0  0  0  0  0  0
  150.0557  137.6338  156.8107 N   0  0  0  0  0  0  0  0  0  0  0  0
  150.9207  137.3307  155.6751 C   0  0  0  0  0  0  0  0  0  0  0  0
  151.5255  138.6157  155.0715 C   0  0  2  0  0  0  0  0  0  0  0  0
  152.2450  139.4945  156.1229 C   0  0  0  0  0  0  0  0  0  0  0  0
  151.2848  140.2072  156.9442 N   0  0  0  0  0  0  0  0  0  0  0  0
  151.8201  141.1407  157.9082 C   0  0  0  0  0  0  0  0  0  0  0  0
  150.6137  142.0075  158.3074 C   0  0  0  0  0  0  0  0  0  0  0  0
  149.6119  141.8309  157.1451 C   0  0  0  0  0  0  0  0  0  0  0  0
  150.4070  141.0046  156.1321 C   0  0  2  0  0  0  0  0  0  0  0  0
  149.6126  140.1182  155.1646 C   0  0  0  0  0  0  0  0  0  0  0  0
  150.5413  139.3838  154.3599 O   0  0  0  0  0  0  0  0  0  0  0  0
  148.3147  135.0302  160.0735 S   0  0  0  0  0  0  0  0  0  0  0  0
  146.6203  134.6955  163.4175 H   0  0  0  0  0  0  0  0  0  0  0  0
  147.8128  133.6060  162.6907 H   0  0  0  0  0  0  0  0  0  0  0  0
  146.1756  133.7023  162.0187 H   0  0  0  0  0  0  0  0  0  0  0  0
  148.7491  138.3424  158.5671 H   0  0  0  0  0  0  0  0  0  0  0  0
  149.7616  138.5943  156.9098 H   0  0  0  0  0  0  0  0  0  0  0  0
  151.6962  136.6131  155.9465 H   0  0  0  0  0  0  0  0  0  0  0  0
  150.3054  136.8340  154.9247 H   0  0  0  0  0  0  0  0  0  0  0  0
  152.2712  138.3087  154.3374 H   0  0  0  0  0  0  0  0  0  0  0  0
  152.8980  138.8858  156.7490 H   0  0  0  0  0  0  0  0  0  0  0  0
  152.8869  140.2112  155.6085 H   0  0  0  0  0  0  0  0  0  0  0  0
  152.2697  140.6281  158.7590 H   0  0  0  0  0  0  0  0  0  0  0  0
  152.5865  141.7639  157.4440 H   0  0  0  0  0  0  0  0  0  0  0  0
  150.1742  141.6569  159.2419 H   0  0  0  0  0  0  0  0  0  0  0  0
  150.9052  143.0492  158.4439 H   0  0  0  0  0  0  0  0  0  0  0  0
  148.7326  141.2832  157.4872 H   0  0  0  0  0  0  0  0  0  0  0  0
  149.2790  142.7820  156.7284 H   0  0  0  0  0  0  0  0  0  0  0  0
  151.0078  141.6974  155.5388 H   0  0  0  0  0  0  0  0  0  0  0  0
  148.9554  139.4392  155.7077 H   0  0  0  0  0  0  0  0  0  0  0  0
  148.9805  140.7253  154.5166 H   0  0  0  0  0  0  0  0  0  0  0  0
  1  2  1  0  0  0  0
  1 21  1  0  0  0  0
  1 22  1  0  0  0  0
  1 23  1  0  0  0  0
  2 20  1  0  0  0  0
  2  3  2  0  0  0  0
  3  4  1  0  0  0  0
  4  5  2  0  0  0  0
  5  6  1  0  0  0  0
  5 20  1  0  0  0  0
  6  7  1  0  0  0  0
  6 24  1  0  0  0  0
  7  8  2  0  0  0  0
  7  9  1  0  0  0  0
  9 10  1  0  0  0  0
  9 25  1  0  0  0  0
 10 11  1  0  0  0  0
 10 26  1  0  0  0  0
 10 27  1  0  0  0  0
 11 19  1  0  0  0  0
 11 12  1  0  0  0  0
 11 28  1  0  0  0  0
 12 13  1  0  0  0  0
 12 29  1  0  0  0  0
 12 30  1  0  0  0  0
 13 17  1  0  0  0  0
 13 14  1  0  0  0  0
 14 15  1  0  0  0  0
 14 31  1  0  0  0  0
 14 32  1  0  0  0  0
 15 16  1  0  0  0  0
 15 33  1  0  0  0  0
 15 34  1  0  0  0  0
 16 17  1  0  0  0  0
 16 35  1  0  0  0  0
 16 36  1  0  0  0  0
 17 18  1  0  0  0  0
 17 37  1  0  0  0  0
 18 19  1  0  0  0  0
 18 38  1  0  0  0  0
 18 39  1  0  0  0  0
M  END
> <s_m_source_file>
AV-unprocessed.smi

> <i_m_source_file_index>
1809

> <i_lp_mmshare_version>
43012

> <i_f3d_flags>
0

> <s_epik_input>
W0NIM11jMW5uYyhzMSlbTkhdQyg9TylbTkhdW0NIMl1bQ0BIXShbQ0gyXTIpT1tDSDJdW0NAQEhdKE4yMylbQ0gyXVtDSDJdW0NIMl0z

> <s_epik_cmdline>
J2VwaWtfcHl0aG9uJywgJy1waCcsICc3LjAnLCAnLXRuJywgJzgnLCAnLW1hJywgJzIwMCcsICctbWV0YWxfYmluZGluZycsICctaW1hZScsICc8aW5maWxlLm1hZT4nLCAnLW9tYWUnLCAnPG91dGZpbGUubWFlPic=

> <r_lp_tautomer_probability>
1

> <r_epik_Ionization_Penalty>
1.05954

> <r_epik_Ionization_Penalty_Charging>
0

> <r_epik_Ionization_Penalty_Neutral>
1.05954

> <r_epik_State_Penalty>
1.4238

> <r_epik_Charging_Adjusted_Penalty>
1.4238

> <i_epik_Tot_Q>
0

> <i_epik_Tot_abs_Q>
0

> <r_epik_Metal_State_Penalty>
1.7901

> <b_epik_Metal_Only>
0

> <s_lp_Force_Field>
OPLS_2005

> <r_lp_Energy>
48.8115

> <b_lp_Chiralities_Consistent>
1

> <s_lp_Variant>
AV-unprocessed.smi:1809-11

> <Gold.Version>
5.8.1

> <Gold.Id.Protein>
6NUR|6NUR_protein|mol2

> <Gold.PLP.Fitness>
38.4988

> <Gold.PLP.PLP>
-30.0479

> <Gold.PLP.part.hbond>
-3.8339

> <Gold.PLP.part.metal>
0.0000

> <Gold.PLP.part.buried>
-3.8222

> <Gold.PLP.part.nonpolar>
-23.4541

> <Gold.PLP.part.repulsive>
0.3084

> <Gold.PLP.ligand.clash>
0.0000

> <Gold.PLP.ligand.torsion>
0.1759

> <Gold.PLP.Chemscore.Hbond>
2.9315

> <Gold.PLP.Chemscore.CHOScore>
0.0000

> <Gold.PLP.Chemscore.Metal>
0.0000

> <Gold.Chemscore.Hbonds>
donor molecule, donor type, donor heavy atom, donor atom, acceptor molecule, acceptor atom, score
      P1  H  6896  6908       L1     8  0.51
      P1  H  6931  6943       L1     4  0.52
      P1  H  6934  6947       L1     4  0.88
      P1  H  7989  7998       L1    19  1.00

> <Gold.PLP.Chemscore.Internal.Correction>
0.0083

> <Gold.Rescore>
     Score         DG    S(hbond)    S(metal)    S(lipo)     H(rot)  DE(clash)    DE(int)     intcor
     15.37     -19.05       2.76        0.00      65.94       1.32       0.04       3.63       ----

> <Gold.Chemscore.Fitness>
15.3711

> <Gold.Chemscore.DG>
-19.0457

> <Gold.Chemscore.ZeroCoef>
-5.4800

> <Gold.Chemscore.Hbond>
2.7632

> <Gold.Chemscore.Metal>
0.0000

> <Gold.Chemscore.Lipo>
65.9393

> <Gold.Chemscore.Internal_Hbond>
0.0000

> <Gold.Chemscore.DEClash>
0.0434

> <Gold.Chemscore.DEInternal>
3.6312

> <Gold.Chemscore.Rot>
1.3196

> <Gold.Chemscore.Internal.Correction>
   9.000000E+99

> <Gold.Chemscore.Hbonds>
donor molecule, donor type, donor heavy atom, donor atom, acceptor molecule, acceptor atom, score
      P1  H  6896  6908       L1     8  0.51
      P1  H  6931  6943       L1     4  0.04
      P1  H  6934  6947       L1     4  0.73
      P1  H  7989  7998       L1    19  0.17

> <Gold.Chemscore.Hbond.Weighted>
-9.2291

> <Gold.Chemscore.Metal.Weighted>
-0.0000

> <Gold.Chemscore.Lipo.Weighted>
-7.7149

> <Gold.Chemscore.Internal_Hbond.Weighted>
0.0000

> <Gold.Chemscore.DEClash.Weighted>
0.0434

> <Gold.Chemscore.DEInternal.Weighted>
3.6312

> <Gold.Chemscore.Rot.Weighted>
3.3783

> <Gold.Chemscore.Internal.Correction.Weighted>
   9.000000E+99

> <Gold.Protein.RotatedTorsions>
[ 6907 6896 6895 6894 ] final  165.98 input  -60.11 | X-H torsion
[ 7974 7965 7964 7962 ] final  -22.75 input  175.53 | X-H torsion
[ 8008 7997 7996 7995 ] final   76.82 input   59.86 | X-H torsion
[ 10167 10162 10161 10158 ] final -168.33 input  -65.29 | X-H torsion
[ 10718 10713 10712 10709 ] final -128.84 input   66.30 | X-H torsion
[ 10763 10752 10751 10750 ] final -111.54 input  -60.55 | X-H torsion
[ 11005 11000 10999 10996 ] final  -52.67 input  -57.11 | X-H torsion

> <Gold.Protein.ActiveResidues>
 VAL166  LYS551  ARG553  GLY616  TRP617  ASP618  TYR619  PRO620  LYS621  CYS622 
 ASP623  PHE694  ASN695  SER759  ASP760  ASP761  ALA762  ILE779  LEU786  VAL792 
 PHE793  MET794  SER795  GLU796  ALA797  LYS798  CYS799  TRP800  GLU811  SER814 

> <Gold.Protein.RotatedAtoms>
  151.8861  133.3506  159.3782 H   0  0  0  0  0  0  0  0  0  0  0  0  # atno 6907 bound_to 6896
  150.7115  134.4970  159.5552 H   0  0  0  0  0  0  0  0  0  0  0  0  # atno 6908 bound_to 6896
  152.2531  134.8112  160.0493 H   0  0  0  0  0  0  0  0  0  0  0  0  # atno 6909 bound_to 6896
  146.1657  140.4522  142.8553 H   0  0  0  0  0  0  0  0  0  0  0  0  # atno 7974 bound_to 7965
  155.8328  140.3465  155.5583 H   0  0  0  0  0  0  0  0  0  0  0  0  # atno 8008 bound_to 7997
  155.8224  140.0915  157.1861 H   0  0  0  0  0  0  0  0  0  0  0  0  # atno 8009 bound_to 7997
  154.4004  140.1427  156.3503 H   0  0  0  0  0  0  0  0  0  0  0  0  # atno 8010 bound_to 7997
  139.5992  144.1047  152.1723 H   0  0  0  0  0  0  0  0  0  0  0  0  # atno 10167 bound_to 10162
  156.1989  130.6844  151.0515 H   0  0  0  0  0  0  0  0  0  0  0  0  # atno 10718 bound_to 10713
  154.8305  135.4523  154.1055 H   0  0  0  0  0  0  0  0  0  0  0  0  # atno 10763 bound_to 10752
  153.2332  135.6908  153.7872 H   0  0  0  0  0  0  0  0  0  0  0  0  # atno 10764 bound_to 10752
  153.7247  135.3336  155.3250 H   0  0  0  0  0  0  0  0  0  0  0  0  # atno 10765 bound_to 10752
  141.0936  133.6628  156.4059 H   0  0  0  0  0  0  0  0  0  0  0  0  # atno 11005 bound_to 11000
  144.8089  140.6350  143.6428 LP  0  0  0  0  0  0  0  0  0  0  0  0  # atno 17320 bound_to 7965
  145.4473  139.1528  143.3937 LP  0  0  0  0  0  0  0  0  0  0  0  0  # atno 17321 bound_to 7965
  140.0639  144.5834  150.7242 LP  0  0  0  0  0  0  0  0  0  0  0  0  # atno 17342 bound_to 10162
  140.7236  143.2613  151.4196 LP  0  0  0  0  0  0  0  0  0  0  0  0  # atno 17343 bound_to 10162
  157.6974  131.0789  150.6927 LP  0  0  0  0  0  0  0  0  0  0  0  0  # atno 17370 bound_to 10713
  156.6984  130.4616  149.5580 LP  0  0  0  0  0  0  0  0  0  0  0  0  # atno 17371 bound_to 10713
  140.5192  134.6320  157.5312 LP  0  0  0  0  0  0  0  0  0  0  0  0  # atno 17394 bound_to 11000
  139.9768  134.7202  155.9935 LP  0  0  0  0  0  0  0  0  0  0  0  0  # atno 17395 bound_to 11000

$$$$
