AV-unprocessed.smi:1741|AV-procd|sdf|7019|dock4
  -GOLD-   22720 8233D 1   1.00000     0.00000
 Structure written by MMmdl.
 38 39  0  0  0  0  0  0  0  0  1 V2000
  137.8357  137.2746  155.8771 C   0  0  0  0  0  0  0  0  0  0  0  0
  137.9783  137.4268  154.3583 C   0  0  0  0  0  0  0  0  0  0  0  0
  139.2976  137.9019  153.9903 N   0  0  0  0  0  0  0  0  0  0  0  0
  140.2794  137.2348  153.2848 C   0  0  0  0  0  0  0  0  0  0  0  0
  141.3245  138.1036  153.1911 C   0  0  0  0  0  0  0  0  0  0  0  0
  142.5500  137.8272  152.5350 N   0  0  0  0  0  0  0  0  0  0  0  0
  143.2915  136.7123  152.6343 C   0  0  0  0  0  0  0  0  0  0  0  0
  142.9925  135.7217  153.3008 O   0  0  0  0  0  0  0  0  0  0  0  0
  144.4138  136.8115  151.9079 N   0  0  0  0  0  0  0  0  0  0  0  0
  145.4556  135.7917  151.8022 C   0  0  1  0  0  0  0  0  0  0  0  0
  145.7703  135.2376  153.2001 C   0  0  0  0  0  0  0  0  0  0  0  0
  145.0076  134.6862  150.8264 C   0  0  1  0  0  0  0  0  0  0  0  0
  146.0052  133.5354  150.6695 C   0  0  0  0  0  0  0  0  0  0  0  0
  145.1038  132.4013  150.2409 C   0  0  0  0  0  0  0  0  0  0  0  0
  143.8651  132.6562  151.0928 C   0  0  0  0  0  0  0  0  0  0  0  0
  143.8069  134.0671  151.2857 O   0  0  0  0  0  0  0  0  0  0  0  0
  140.9079  139.2873  153.8633 C   0  0  0  0  0  0  0  0  0  0  0  0
  139.6800  139.1542  154.3419 N   0  0  0  0  0  0  0  0  0  0  0  0
  136.8378  136.9232  156.1396 H   0  0  0  0  0  0  0  0  0  0  0  0
  137.9988  138.2257  156.3851 H   0  0  0  0  0  0  0  0  0  0  0  0
  138.5554  136.5562  156.2709 H   0  0  0  0  0  0  0  0  0  0  0  0
  137.7954  136.4726  153.8619 H   0  0  0  0  0  0  0  0  0  0  0  0
  137.2360  138.1292  153.9777 H   0  0  0  0  0  0  0  0  0  0  0  0
  140.1488  136.2269  152.9191 H   0  0  0  0  0  0  0  0  0  0  0  0
  142.9068  138.5605  151.9401 H   0  0  0  0  0  0  0  0  0  0  0  0
  144.5674  137.6650  151.3916 H   0  0  0  0  0  0  0  0  0  0  0  0
  146.3681  136.2364  151.4007 H   0  0  0  0  0  0  0  0  0  0  0  0
  146.5620  134.4891  153.1576 H   0  0  0  0  0  0  0  0  0  0  0  0
  144.8938  134.7692  153.6488 H   0  0  0  0  0  0  0  0  0  0  0  0
  146.1055  136.0299  153.8703 H   0  0  0  0  0  0  0  0  0  0  0  0
  144.8029  135.1115  149.8422 H   0  0  0  0  0  0  0  0  0  0  0  0
  146.7940  133.7495  149.9481 H   0  0  0  0  0  0  0  0  0  0  0  0
  146.4728  133.2974  151.6264 H   0  0  0  0  0  0  0  0  0  0  0  0
  144.8599  132.4960  149.1820 H   0  0  0  0  0  0  0  0  0  0  0  0
  145.5410  131.4164  150.4064 H   0  0  0  0  0  0  0  0  0  0  0  0
  142.9547  132.2786  150.6266 H   0  0  0  0  0  0  0  0  0  0  0  0
  143.9692  132.1785  152.0678 H   0  0  0  0  0  0  0  0  0  0  0  0
  141.4310  140.2190  154.0195 H   0  0  0  0  0  0  0  0  0  0  0  0
  1  2  1  0  0  0  0
  1 19  1  0  0  0  0
  1 20  1  0  0  0  0
  1 21  1  0  0  0  0
  2  3  1  0  0  0  0
  2 22  1  0  0  0  0
  2 23  1  0  0  0  0
  3 18  1  0  0  0  0
  3  4  1  0  0  0  0
  4  5  2  0  0  0  0
  4 24  1  0  0  0  0
  5  6  1  0  0  0  0
  5 17  1  0  0  0  0
  6  7  1  0  0  0  0
  6 25  1  0  0  0  0
  7  8  2  0  0  0  0
  7  9  1  0  0  0  0
  9 10  1  0  0  0  0
  9 26  1  0  0  0  0
 10 11  1  0  0  0  0
 10 12  1  0  0  0  0
 10 27  1  0  0  0  0
 11 28  1  0  0  0  0
 11 29  1  0  0  0  0
 11 30  1  0  0  0  0
 12 16  1  0  0  0  0
 12 13  1  0  0  0  0
 12 31  1  0  0  0  0
 13 14  1  0  0  0  0
 13 32  1  0  0  0  0
 13 33  1  0  0  0  0
 14 15  1  0  0  0  0
 14 34  1  0  0  0  0
 14 35  1  0  0  0  0
 15 16  1  0  0  0  0
 15 36  1  0  0  0  0
 15 37  1  0  0  0  0
 17 18  2  0  0  0  0
 17 38  1  0  0  0  0
M  END
> <s_m_source_file>
AV-unprocessed.smi

> <i_m_source_file_index>
1741

> <i_lp_mmshare_version>
43012

> <i_f3d_flags>
0

> <s_epik_input>
W0NIM11bQ0gyXW4xW2NIXWMoW2NIXW4xKVtOSF1DKD1PKVtOSF1bQ0BIXShbQ0gzXSlbQ0BASF0yW0NIMl1bQ0gyXVtDSDJdTzI=

> <s_epik_cmdline>
J2VwaWtfcHl0aG9uJywgJy1waCcsICc3LjAnLCAnLXRuJywgJzgnLCAnLW1hJywgJzIwMCcsICctbWV0YWxfYmluZGluZycsICctaW1hZScsICc8aW5maWxlLm1hZT4nLCAnLW9tYWUnLCAnPG91dGZpbGUubWFlPic=

> <r_lp_tautomer_probability>
1

> <r_epik_Ionization_Penalty>
0.000179292

> <r_epik_Ionization_Penalty_Charging>
0

> <r_epik_Ionization_Penalty_Neutral>
0.000179292

> <r_epik_State_Penalty>
-0

> <r_epik_Charging_Adjusted_Penalty>
0

> <i_epik_Tot_Q>
0

> <i_epik_Tot_abs_Q>
0

> <r_epik_Metal_State_Penalty>
-0

> <b_epik_Metal_Only>
0

> <s_lp_Force_Field>
OPLS_2005

> <r_lp_Energy>
21.0752

> <b_lp_Chiralities_Consistent>
1

> <s_lp_Variant>
AV-unprocessed.smi:1741-4

> <Gold.Version>
5.8.1

> <Gold.Id.Protein>
6NUR|6NUR_protein|mol2

> <Gold.PLP.Fitness>
38.1270

> <Gold.PLP.PLP>
-32.0923

> <Gold.PLP.part.hbond>
-2.7961

> <Gold.PLP.part.metal>
0.0000

> <Gold.PLP.part.buried>
-5.3123

> <Gold.PLP.part.nonpolar>
-25.0985

> <Gold.PLP.part.repulsive>
0.4659

> <Gold.PLP.ligand.clash>
0.0000

> <Gold.PLP.ligand.torsion>
0.6451

> <Gold.PLP.Chemscore.Hbond>
1.3760

> <Gold.PLP.Chemscore.CHOScore>
1.0607

> <Gold.PLP.Chemscore.Metal>
0.0000

> <Gold.Chemscore.Hbonds>
donor molecule, donor type, donor heavy atom, donor atom, acceptor molecule, acceptor atom, score
      L1  H     6    25       P1 10175  0.55
      L1  H     9    26       P1 10171  0.78
      L1  C     4    24       P1 10187  0.62
      L1  C    17    38       P1 10175  0.47

> <Gold.PLP.Chemscore.Internal.Correction>
0.0149

> <Gold.Rescore>
     Score         DG    S(hbond)    S(metal)    S(lipo)     H(rot)  DE(clash)    DE(int)     intcor
     10.83     -14.51       1.34        0.00      69.07       1.38       0.10       3.57       ----

> <Gold.Chemscore.Fitness>
10.8340

> <Gold.Chemscore.DG>
-14.5087

> <Gold.Chemscore.ZeroCoef>
-5.4800

> <Gold.Chemscore.Hbond>
1.3405

> <Gold.Chemscore.Metal>
0.0000

> <Gold.Chemscore.Lipo>
69.0741

> <Gold.Chemscore.Internal_Hbond>
0.0000

> <Gold.Chemscore.DEClash>
0.0997

> <Gold.Chemscore.DEInternal>
3.5750

> <Gold.Chemscore.Rot>
1.3790

> <Gold.Chemscore.Internal.Correction>
   9.000000E+99

> <Gold.Chemscore.Hbonds>
donor molecule, donor type, donor heavy atom, donor atom, acceptor molecule, acceptor atom, score
      L1  H     6    25       P1 10175  0.52
      L1  H     9    26       P1 10171  0.77

> <Gold.Chemscore.Hbond.Weighted>
-4.4772

> <Gold.Chemscore.Metal.Weighted>
-0.0000

> <Gold.Chemscore.Lipo.Weighted>
-8.0817

> <Gold.Chemscore.Internal_Hbond.Weighted>
0.0000

> <Gold.Chemscore.DEClash.Weighted>
0.0997

> <Gold.Chemscore.DEInternal.Weighted>
3.5750

> <Gold.Chemscore.Rot.Weighted>
3.5302

> <Gold.Chemscore.Internal.Correction.Weighted>
   9.000000E+99

> <Gold.Protein.RotatedTorsions>
[ 6907 6896 6895 6894 ] final  161.06 input  -60.11 | X-H torsion
[ 7974 7965 7964 7962 ] final   47.17 input  175.53 | X-H torsion
[ 8008 7997 7996 7995 ] final   40.67 input   59.86 | X-H torsion
[ 10167 10162 10161 10158 ] final  -79.04 input  -65.29 | X-H torsion
[ 10718 10713 10712 10709 ] final   20.27 input   66.30 | X-H torsion
[ 10763 10752 10751 10750 ] final  128.49 input  -60.55 | X-H torsion
[ 11005 11000 10999 10996 ] final -135.26 input  -57.11 | X-H torsion

> <Gold.Protein.ActiveResidues>
 VAL166  LYS551  ARG553  GLY616  TRP617  ASP618  TYR619  PRO620  LYS621  CYS622 
 ASP623  PHE694  ASN695  SER759  ASP760  ASP761  ALA762  ILE779  LEU786  VAL792 
 PHE793  MET794  SER795  GLU796  ALA797  LYS798  CYS799  TRP800  GLU811  SER814 

> <Gold.Protein.RotatedAtoms>
  151.9613  133.3696  159.4035 H   0  0  0  0  0  0  0  0  0  0  0  0  # atno 6907 bound_to 6896
  150.6964  134.4238  159.5226 H   0  0  0  0  0  0  0  0  0  0  0  0  # atno 6908 bound_to 6896
  152.1927  134.8658  160.0566 H   0  0  0  0  0  0  0  0  0  0  0  0  # atno 6909 bound_to 6896
  146.0322  139.4778  142.9830 H   0  0  0  0  0  0  0  0  0  0  0  0  # atno 7974 bound_to 7965
  155.2570  140.3356  155.4276 H   0  0  0  0  0  0  0  0  0  0  0  0  # atno 8008 bound_to 7997
  156.2191  140.1801  156.7563 H   0  0  0  0  0  0  0  0  0  0  0  0  # atno 8009 bound_to 7997
  154.5798  140.0655  156.9072 H   0  0  0  0  0  0  0  0  0  0  0  0  # atno 8010 bound_to 7997
  140.4629  143.2448  151.8322 H   0  0  0  0  0  0  0  0  0  0  0  0  # atno 10167 bound_to 10162
  157.1221  130.6554  149.5927 H   0  0  0  0  0  0  0  0  0  0  0  0  # atno 10718 bound_to 10713
  153.7264  135.3245  155.3277 H   0  0  0  0  0  0  0  0  0  0  0  0  # atno 10763 bound_to 10752
  154.8340  135.4512  154.1165 H   0  0  0  0  0  0  0  0  0  0  0  0  # atno 10764 bound_to 10752
  153.2300  135.6959  153.7981 H   0  0  0  0  0  0  0  0  0  0  0  0  # atno 10765 bound_to 10752
  140.8915  134.1806  157.4524 H   0  0  0  0  0  0  0  0  0  0  0  0  # atno 11005 bound_to 11000
  145.7021  141.0132  143.1498 LP  0  0  0  0  0  0  0  0  0  0  0  0  # atno 17320 bound_to 7965
  144.7036  139.8657  143.7437 LP  0  0  0  0  0  0  0  0  0  0  0  0  # atno 17321 bound_to 7965
  139.4808  144.4986  151.9090 LP  0  0  0  0  0  0  0  0  0  0  0  0  # atno 17342 bound_to 10162
  140.4072  144.2416  150.5890 LP  0  0  0  0  0  0  0  0  0  0  0  0  # atno 17343 bound_to 10162
  155.9826  130.4841  150.6891 LP  0  0  0  0  0  0  0  0  0  0  0  0  # atno 17370 bound_to 10713
  157.4467  131.0868  151.0888 LP  0  0  0  0  0  0  0  0  0  0  0  0  # atno 17371 bound_to 10713
  139.8730  134.9860  156.5307 LP  0  0  0  0  0  0  0  0  0  0  0  0  # atno 17394 bound_to 11000
  140.8341  133.8256  155.9012 LP  0  0  0  0  0  0  0  0  0  0  0  0  # atno 17395 bound_to 11000

$$$$
