AV-unprocessed.smi:703|AV-procd|sdf|3430|dock3
  -GOLD-   22720 0413D 1   1.00000     0.00000
 Structure written by MMmdl.
 38 39  0  0  0  0  0  0  0  0  2 V2000
  146.7464  132.1150  152.2618 C   0  0  0  0  0  0  0  0  0  0  0  0
  147.9853  132.5578  153.0516 C   0  0  0  0  0  0  0  0  0  0  0  0
  147.9430  133.9974  153.3991 N   0  3  1  0  0  0  0  0  0  0  0  0
  146.6165  134.5115  153.7892 C   0  0  0  0  0  0  0  0  0  0  0  0
  146.9003  135.8589  154.4570 C   0  0  1  0  0  0  0  0  0  0  0  0
  145.8200  136.2919  155.4571 C   0  0  0  0  0  0  0  0  0  0  0  0
  148.2982  135.6880  155.0805 C   0  0  2  0  0  0  0  0  0  0  0  0
  149.1552  136.8263  154.7346 N   0  0  0  0  0  0  0  0  0  0  0  0
  150.6456  137.0159  155.5799 S   0  0  0  0  0  0  0  0  0  0  0  0
  150.3233  137.2952  156.9876 O   0  0  0  0  0  0  0  0  0  0  0  0
  151.4934  135.8646  155.2351 O   0  0  0  0  0  0  0  0  0  0  0  0
  151.3501  138.5397  154.8202 C   0  0  0  0  0  0  0  0  0  0  0  0
  150.5003  139.7238  155.1843 C   0  0  0  0  0  0  0  0  0  0  0  0
  149.6715  140.5119  154.3385 C   0  0  0  0  0  0  0  0  0  0  0  0
  149.1395  141.4389  155.1877 C   0  0  0  0  0  0  0  0  0  0  0  0
  149.5934  141.2418  156.4512 O   0  0  0  0  0  0  0  0  0  0  0  0
  150.4607  140.1434  156.4390 N   0  0  0  0  0  0  0  0  0  0  0  0
  148.8588  134.3829  154.4915 C   0  0  0  0  0  0  0  0  0  0  0  0
  146.8355  131.0711  151.9603 H   0  0  0  0  0  0  0  0  0  0  0  0
  146.6209  132.7106  151.3570 H   0  0  0  0  0  0  0  0  0  0  0  0
  145.8359  132.2064  152.8543 H   0  0  0  0  0  0  0  0  0  0  0  0
  148.0960  131.9559  153.9547 H   0  0  0  0  0  0  0  0  0  0  0  0
  148.8714  132.3750  152.4423 H   0  0  0  0  0  0  0  0  0  0  0  0
  145.9488  134.6110  152.9331 H   0  0  0  0  0  0  0  0  0  0  0  0
  146.1553  133.8245  154.5011 H   0  0  0  0  0  0  0  0  0  0  0  0
  146.9505  136.6073  153.6638 H   0  0  0  0  0  0  0  0  0  0  0  0
  145.7154  135.5710  156.2687 H   0  0  0  0  0  0  0  0  0  0  0  0
  144.8500  136.3876  154.9687 H   0  0  0  0  0  0  0  0  0  0  0  0
  146.0653  137.2577  155.8998 H   0  0  0  0  0  0  0  0  0  0  0  0
  148.2338  135.5923  156.1659 H   0  0  0  0  0  0  0  0  0  0  0  0
  149.2916  136.9003  153.7267 H   0  0  0  0  0  0  0  0  0  0  0  0
  152.3715  138.6661  155.1781 H   0  0  0  0  0  0  0  0  0  0  0  0
  151.3899  138.3968  153.7399 H   0  0  0  0  0  0  0  0  0  0  0  0
  149.4984  140.4148  153.2770 H   0  0  0  0  0  0  0  0  0  0  0  0
  148.4553  142.2634  155.0526 H   0  0  0  0  0  0  0  0  0  0  0  0
  148.8506  133.6097  155.2619 H   0  0  0  0  0  0  0  0  0  0  0  0
  149.8843  134.4741  154.1309 H   0  0  0  0  0  0  0  0  0  0  0  0
  148.2322  134.5212  152.5854 H   0  0  0  0  0  0  0  0  0  0  0  0
  1  2  1  0  0  0  0
  1 19  1  0  0  0  0
  1 20  1  0  0  0  0
  1 21  1  0  0  0  0
  2  3  1  0  0  0  0
  2 22  1  0  0  0  0
  2 23  1  0  0  0  0
  3 18  1  0  0  0  0
  3  4  1  0  0  0  0
  3 38  1  0  0  0  0
  4  5  1  0  0  0  0
  4 24  1  0  0  0  0
  4 25  1  0  0  0  0
  5  6  1  0  0  0  0
  5  7  1  0  0  0  0
  5 26  1  0  0  0  0
  6 27  1  0  0  0  0
  6 28  1  0  0  0  0
  6 29  1  0  0  0  0
  7  8  1  0  0  0  0
  7 18  1  0  0  0  0
  7 30  1  0  0  0  0
  8  9  1  0  0  0  0
  8 31  1  0  0  0  0
  9 10  2  0  0  0  0
  9 11  2  0  0  0  0
  9 12  1  0  0  0  0
 12 13  1  0  0  0  0
 12 32  1  0  0  0  0
 12 33  1  0  0  0  0
 13 17  2  0  0  0  0
 13 14  1  0  0  0  0
 14 15  2  0  0  0  0
 14 34  1  0  0  0  0
 15 16  1  0  0  0  0
 15 35  1  0  0  0  0
 16 17  1  0  0  0  0
 18 36  1  0  0  0  0
 18 37  1  0  0  0  0
M  CHG  1   3   1
M  END
> <s_m_source_file>
AV-unprocessed.smi

> <i_m_source_file_index>
703

> <i_lp_mmshare_version>
43012

> <i_f3d_flags>
0

> <s_epik_input>
W0NIM11bQ0gyXU4xW0NIMl1bQ0BASF0oW0NIM10pW0NASF0oW0NIMl0xKVtOSF1TKD1PKSg9TylbQ0gyXWMyW2NIXVtjSF1vbjI=

> <s_epik_cmdline>
J2VwaWtfcHl0aG9uJywgJy1waCcsICc3LjAnLCAnLXRuJywgJzgnLCAnLW1hJywgJzIwMCcsICctbWV0YWxfYmluZGluZycsICctaW1hZScsICc8aW5maWxlLm1hZT4nLCAnLW9tYWUnLCAnPG91dGZpbGUubWFlPic=

> <r_epik_Ionization_Penalty>
0.00324529

> <r_epik_Ionization_Penalty_Charging>
0.0019384

> <r_epik_Ionization_Penalty_Neutral>
0.00130689

> <r_epik_State_Penalty>
0.00218682

> <r_epik_Charging_Adjusted_Penalty>
0.00412522

> <i_epik_Tot_Q>
1

> <i_epik_Tot_abs_Q>
1

> <r_epik_Metal_State_Penalty>
0.310831

> <b_epik_Metal_Only>
0

> <s_lp_Force_Field>
OPLS_2005

> <r_lp_Energy>
19.0456

> <b_lp_Chiralities_Consistent>
1

> <s_lp_Variant>
AV-unprocessed.smi:703-5

> <Gold.Version>
5.8.1

> <Gold.Id.Protein>
6NUR|6NUR_protein|mol2

> <Gold.PLP.Fitness>
35.8660

> <Gold.PLP.PLP>
-21.7046

> <Gold.PLP.part.hbond>
-3.0000

> <Gold.PLP.part.metal>
0.0000

> <Gold.PLP.part.buried>
0.7336

> <Gold.PLP.part.nonpolar>
-19.9504

> <Gold.PLP.part.repulsive>
0.1711

> <Gold.PLP.ligand.clash>
0.0000

> <Gold.PLP.ligand.torsion>
0.4737

> <Gold.PLP.Chemscore.Hbond>
3.9840

> <Gold.PLP.Chemscore.CHOScore>
0.9989

> <Gold.PLP.Chemscore.Metal>
0.0000

> <Gold.Chemscore.Hbonds>
donor molecule, donor type, donor heavy atom, donor atom, acceptor molecule, acceptor atom, score
      L1  H     3    38       P1  7948  1.95
      L1  H     8    31       P1  7948  1.00
      P1  H 10752 10764       L1    11  1.00
      L1  C    15    35       P1  8028  0.90

> <Gold.PLP.Chemscore.Internal.Correction>
0.1602

> <Gold.Rescore>
     Score         DG    S(hbond)    S(metal)    S(lipo)     H(rot)  DE(clash)    DE(int)     intcor
     13.21     -15.17       2.69        0.00      48.43       1.94       0.12       1.84       ----

> <Gold.Chemscore.Fitness>
13.2076

> <Gold.Chemscore.DG>
-15.1692

> <Gold.Chemscore.ZeroCoef>
-5.4800

> <Gold.Chemscore.Hbond>
2.6915

> <Gold.Chemscore.Metal>
0.0000

> <Gold.Chemscore.Lipo>
48.4287

> <Gold.Chemscore.Internal_Hbond>
0.0000

> <Gold.Chemscore.DEClash>
0.1227

> <Gold.Chemscore.DEInternal>
1.8389

> <Gold.Chemscore.Rot>
1.9400

> <Gold.Chemscore.Internal.Correction>
   9.000000E+99

> <Gold.Chemscore.Hbonds>
donor molecule, donor type, donor heavy atom, donor atom, acceptor molecule, acceptor atom, score
      L1  H     3    38       P1  7948  0.28
      L1  H     8    31       P1  7948  0.91
      P1  H 10752 10764       L1    11  0.98

> <Gold.Chemscore.Hbond.Weighted>
-8.9895

> <Gold.Chemscore.Metal.Weighted>
-0.0000

> <Gold.Chemscore.Lipo.Weighted>
-5.6662

> <Gold.Chemscore.Internal_Hbond.Weighted>
0.0000

> <Gold.Chemscore.DEClash.Weighted>
0.1227

> <Gold.Chemscore.DEInternal.Weighted>
1.8389

> <Gold.Chemscore.Rot.Weighted>
4.9665

> <Gold.Chemscore.Internal.Correction.Weighted>
   9.000000E+99

> <Gold.Protein.RotatedTorsions>
[ 6907 6896 6895 6894 ] final  159.63 input  -60.11 | X-H torsion
[ 7974 7965 7964 7962 ] final -126.06 input  175.53 | X-H torsion
[ 8008 7997 7996 7995 ] final   64.62 input   59.86 | X-H torsion
[ 10167 10162 10161 10158 ] final   67.28 input  -65.29 | X-H torsion
[ 10718 10713 10712 10709 ] final  -42.44 input   66.30 | X-H torsion
[ 10763 10752 10751 10750 ] final  -52.82 input  -60.55 | X-H torsion
[ 11005 11000 10999 10996 ] final  158.99 input  -57.11 | X-H torsion

> <Gold.Protein.ActiveResidues>
 VAL166  LYS551  ARG553  GLY616  TRP617  ASP618  TYR619  PRO620  LYS621  CYS622 
 ASP623  PHE694  ASN695  SER759  ASP760  ASP761  ALA762  ILE779  LEU786  VAL792 
 PHE793  MET794  SER795  GLU796  ALA797  LYS798  CYS799  TRP800  GLU811  SER814 

> <Gold.Protein.RotatedAtoms>
  151.9827  133.3763  159.4113 H   0  0  0  0  0  0  0  0  0  0  0  0  # atno 6907 bound_to 6896
  150.6932  134.4022  159.5133 H   0  0  0  0  0  0  0  0  0  0  0  0  # atno 6908 bound_to 6896
  152.1743  134.8807  160.0582 H   0  0  0  0  0  0  0  0  0  0  0  0  # atno 6909 bound_to 6896
  144.9911  140.7733  143.4553 H   0  0  0  0  0  0  0  0  0  0  0  0  # atno 7974 bound_to 7965
  155.6489  140.3497  155.4741 H   0  0  0  0  0  0  0  0  0  0  0  0  # atno 8008 bound_to 7997
  155.9864  140.1185  157.0702 H   0  0  0  0  0  0  0  0  0  0  0  0  # atno 8009 bound_to 7997
  154.4206  140.1128  156.5491 H   0  0  0  0  0  0  0  0  0  0  0  0  # atno 8010 bound_to 7997
  140.0912  144.4986  150.7097 H   0  0  0  0  0  0  0  0  0  0  0  0  # atno 10167 bound_to 10162
  156.2595  130.4195  149.8558 H   0  0  0  0  0  0  0  0  0  0  0  0  # atno 10718 bound_to 10713
  154.1489  135.6493  153.4959 H   0  0  0  0  0  0  0  0  0  0  0  0  # atno 10763 bound_to 10752
  153.0144  135.5333  154.6829 H   0  0  0  0  0  0  0  0  0  0  0  0  # atno 10764 bound_to 10752
  154.6111  135.2954  155.0402 H   0  0  0  0  0  0  0  0  0  0  0  0  # atno 10765 bound_to 10752
  140.1918  134.8402  157.2920 H   0  0  0  0  0  0  0  0  0  0  0  0  # atno 11005 bound_to 11000
  145.2284  139.2126  143.5056 LP  0  0  0  0  0  0  0  0  0  0  0  0  # atno 17320 bound_to 7965
  146.3431  140.2156  142.8590 LP  0  0  0  0  0  0  0  0  0  0  0  0  # atno 17321 bound_to 7965
  140.7027  143.2446  151.4817 LP  0  0  0  0  0  0  0  0  0  0  0  0  # atno 17342 bound_to 10162
  139.5723  144.1899  152.1854 LP  0  0  0  0  0  0  0  0  0  0  0  0  # atno 17343 bound_to 10162
  156.6078  130.8574  151.3447 LP  0  0  0  0  0  0  0  0  0  0  0  0  # atno 17370 bound_to 10713
  157.7245  130.9604  150.1577 LP  0  0  0  0  0  0  0  0  0  0  0  0  # atno 17371 bound_to 10713
  140.2151  134.4091  155.7593 LP  0  0  0  0  0  0  0  0  0  0  0  0  # atno 17394 bound_to 11000
  141.2226  133.7138  156.8401 LP  0  0  0  0  0  0  0  0  0  0  0  0  # atno 17395 bound_to 11000

$$$$
