AV-unprocessed.smi:2752|AV-procd|sdf|10608|dock6
  -GOLD-   2272015 63D 1   1.00000     0.00000
 Structure written by MMmdl.
 34 35  0  0  0  0  0  0  0  0  1 V2000
  152.8323  140.6732  159.0719 C   0  0  0  0  0  0  0  0  0  0  0  0
  152.4028  141.8900  158.4826 O   0  0  0  0  0  0  0  0  0  0  0  0
  151.7420  142.7630  159.3887 C   0  0  1  0  0  0  0  0  0  0  0  0
  152.6634  143.2132  160.5309 C   0  0  0  0  0  0  0  0  0  0  0  0
  152.1727  144.6114  160.8878 C   0  0  0  0  0  0  0  0  0  0  0  0
  151.8071  145.2258  159.5380 C   0  0  0  0  0  0  0  0  0  0  0  0
  151.3121  144.0567  158.6630 C   0  0  2  0  0  0  0  0  0  0  0  0
  149.8609  144.0961  158.4997 N   0  0  0  0  0  0  0  0  0  0  0  0
  148.9727  144.1477  159.5025 C   0  0  0  0  0  0  0  0  0  0  0  0
  149.2919  144.1589  160.6917 O   0  0  0  0  0  0  0  0  0  0  0  0
  147.7130  144.1836  159.0336 N   0  0  0  0  0  0  0  0  0  0  0  0
  146.5011  144.2223  159.7732 C   0  0  0  0  0  0  0  0  0  0  0  0
  146.6014  143.7726  161.1096 C   0  0  0  0  0  0  0  0  0  0  0  0
  145.4556  143.7733  161.9290 C   0  0  0  0  0  0  0  0  0  0  0  0
  144.2390  144.2257  161.3888 C   0  0  0  0  0  0  0  0  0  0  0  0
  143.1111  144.2448  162.1381 F   0  0  0  0  0  0  0  0  0  0  0  0
  144.2238  144.6574  160.0498 C   0  0  0  0  0  0  0  0  0  0  0  0
  145.3211  144.6564  159.2631 N   0  0  0  0  0  0  0  0  0  0  0  0
  153.3149  140.0538  158.3162 H   0  0  0  0  0  0  0  0  0  0  0  0
  151.9888  140.1119  159.4754 H   0  0  0  0  0  0  0  0  0  0  0  0
  153.5534  140.8450  159.8716 H   0  0  0  0  0  0  0  0  0  0  0  0
  150.8639  142.2701  159.8121 H   0  0  0  0  0  0  0  0  0  0  0  0
  152.6433  142.5318  161.3819 H   0  0  0  0  0  0  0  0  0  0  0  0
  153.6936  143.2734  160.1765 H   0  0  0  0  0  0  0  0  0  0  0  0
  151.2833  144.5415  161.5152 H   0  0  0  0  0  0  0  0  0  0  0  0
  152.9191  145.1952  161.4268 H   0  0  0  0  0  0  0  0  0  0  0  0
  151.0830  146.0353  159.6390 H   0  0  0  0  0  0  0  0  0  0  0  0
  152.7027  145.6545  159.0865 H   0  0  0  0  0  0  0  0  0  0  0  0
  151.7899  144.1127  157.6827 H   0  0  0  0  0  0  0  0  0  0  0  0
  149.5116  144.0908  157.5529 H   0  0  0  0  0  0  0  0  0  0  0  0
  147.6089  144.1773  158.0299 H   0  0  0  0  0  0  0  0  0  0  0  0
  147.5452  143.4290  161.5074 H   0  0  0  0  0  0  0  0  0  0  0  0
  145.5109  143.4334  162.9526 H   0  0  0  0  0  0  0  0  0  0  0  0
  143.3096  145.0127  159.5978 H   0  0  0  0  0  0  0  0  0  0  0  0
  1  2  1  0  0  0  0
  1 19  1  0  0  0  0
  1 20  1  0  0  0  0
  1 21  1  0  0  0  0
  2  3  1  0  0  0  0
  3  7  1  0  0  0  0
  3  4  1  0  0  0  0
  3 22  1  0  0  0  0
  4  5  1  0  0  0  0
  4 23  1  0  0  0  0
  4 24  1  0  0  0  0
  5  6  1  0  0  0  0
  5 25  1  0  0  0  0
  5 26  1  0  0  0  0
  6  7  1  0  0  0  0
  6 27  1  0  0  0  0
  6 28  1  0  0  0  0
  7  8  1  0  0  0  0
  7 29  1  0  0  0  0
  8  9  1  0  0  0  0
  8 30  1  0  0  0  0
  9 10  2  0  0  0  0
  9 11  1  0  0  0  0
 11 12  1  0  0  0  0
 11 31  1  0  0  0  0
 12 18  1  0  0  0  0
 12 13  2  0  0  0  0
 13 14  1  0  0  0  0
 13 32  1  0  0  0  0
 14 15  2  0  0  0  0
 14 33  1  0  0  0  0
 15 16  1  0  0  0  0
 15 17  1  0  0  0  0
 17 18  2  0  0  0  0
 17 34  1  0  0  0  0
M  END
> <s_m_source_file>
AV-unprocessed.smi

> <i_m_source_file_index>
2752

> <i_lp_mmshare_version>
43012

> <i_f3d_flags>
0

> <s_epik_input>
W0NIM11PW0NAQEhdMVtDSDJdW0NIMl1bQ0gyXVtDQEhdMVtOSF1DKD1PKVtOSF1jMltjSF1bY0hdYyhGKVtjSF1uMg==

> <s_epik_cmdline>
J2VwaWtfcHl0aG9uJywgJy1waCcsICc3LjAnLCAnLXRuJywgJzgnLCAnLW1hJywgJzIwMCcsICctbWV0YWxfYmluZGluZycsICctaW1hZScsICc8aW5maWxlLm1hZT4nLCAnLW9tYWUnLCAnPG91dGZpbGUubWFlPic=

> <r_lp_tautomer_probability>
1

> <r_epik_Ionization_Penalty>
3.49853e-05

> <r_epik_Ionization_Penalty_Charging>
0

> <r_epik_Ionization_Penalty_Neutral>
3.49853e-05

> <r_epik_State_Penalty>
-0

> <r_epik_Charging_Adjusted_Penalty>
0

> <i_epik_Tot_Q>
0

> <i_epik_Tot_abs_Q>
0

> <r_epik_Metal_State_Penalty>
-0

> <b_epik_Metal_Only>
0

> <s_lp_Force_Field>
OPLS_2005

> <r_lp_Energy>
21.736

> <b_lp_Chiralities_Consistent>
1

> <s_lp_Variant>
AV-unprocessed.smi:2752-4

> <Gold.Version>
5.8.1

> <Gold.Id.Protein>
6NUR|6NUR_protein|mol2

> <Gold.PLP.Fitness>
41.3951

> <Gold.PLP.PLP>
-36.6933

> <Gold.PLP.part.hbond>
-3.8967

> <Gold.PLP.part.metal>
0.0000

> <Gold.PLP.part.buried>
-3.3845

> <Gold.PLP.part.nonpolar>
-29.4712

> <Gold.PLP.part.repulsive>
0.4650

> <Gold.PLP.ligand.clash>
0.0000

> <Gold.PLP.ligand.torsion>
0.1219

> <Gold.PLP.Chemscore.Hbond>
1.6469

> <Gold.PLP.Chemscore.CHOScore>
0.0000

> <Gold.PLP.Chemscore.Metal>
0.0000

> <Gold.Chemscore.Hbonds>
donor molecule, donor type, donor heavy atom, donor atom, acceptor molecule, acceptor atom, score
      L1  H     8    30       P1  8028  0.82
      L1  H    11    31       P1  8029  0.26
      P1  H  6933  6944       L1    10  0.44

> <Gold.PLP.Chemscore.Internal.Correction>
0.0050

> <Gold.Rescore>
     Score         DG    S(hbond)    S(metal)    S(lipo)     H(rot)  DE(clash)    DE(int)     intcor
     15.32     -19.44       2.01        0.00      89.96       1.28       0.17       3.95       ----

> <Gold.Chemscore.Fitness>
15.3202

> <Gold.Chemscore.DG>
-19.4393

> <Gold.Chemscore.ZeroCoef>
-5.4800

> <Gold.Chemscore.Hbond>
2.0107

> <Gold.Chemscore.Metal>
0.0000

> <Gold.Chemscore.Lipo>
89.9625

> <Gold.Chemscore.Internal_Hbond>
0.0000

> <Gold.Chemscore.DEClash>
0.1671

> <Gold.Chemscore.DEInternal>
3.9520

> <Gold.Chemscore.Rot>
1.2821

> <Gold.Chemscore.Internal.Correction>
   9.000000E+99

> <Gold.Chemscore.Hbonds>
donor molecule, donor type, donor heavy atom, donor atom, acceptor molecule, acceptor atom, score
      L1  H     8    30       P1  8028  0.16
      L1  H    11    31       P1  8029  0.06
      P1  H  6933  6944       L1    10  0.22

> <Gold.Chemscore.Hbond.Weighted>
-6.7159

> <Gold.Chemscore.Metal.Weighted>
-0.0000

> <Gold.Chemscore.Lipo.Weighted>
-10.5256

> <Gold.Chemscore.Internal_Hbond.Weighted>
0.0000

> <Gold.Chemscore.DEClash.Weighted>
0.1671

> <Gold.Chemscore.DEInternal.Weighted>
3.9520

> <Gold.Chemscore.Rot.Weighted>
3.2822

> <Gold.Chemscore.Internal.Correction.Weighted>
   9.000000E+99

> <Gold.Protein.RotatedTorsions>
[ 6907 6896 6895 6894 ] final  -79.39 input  -60.11 | X-H torsion
[ 7974 7965 7964 7962 ] final  -14.82 input  175.53 | X-H torsion
[ 8008 7997 7996 7995 ] final   50.06 input   59.86 | X-H torsion
[ 10167 10162 10161 10158 ] final   98.72 input  -65.29 | X-H torsion
[ 10718 10713 10712 10709 ] final  -93.26 input   66.30 | X-H torsion
[ 10763 10752 10751 10750 ] final   80.34 input  -60.55 | X-H torsion
[ 11005 11000 10999 10996 ] final -165.58 input  -57.11 | X-H torsion

> <Gold.Protein.ActiveResidues>
 VAL166  LYS551  ARG553  GLY616  TRP617  ASP618  TYR619  PRO620  LYS621  CYS622 
 ASP623  PHE694  ASN695  SER759  ASP760  ASP761  ALA762  ILE779  LEU786  VAL792 
 PHE793  MET794  SER795  GLU796  ALA797  LYS798  CYS799  TRP800  GLU811  SER814 

> <Gold.Protein.RotatedAtoms>
  150.6951  134.4129  159.5169 H   0  0  0  0  0  0  0  0  0  0  0  0  # atno 6907 bound_to 6896
  152.1884  134.8691  160.0529 H   0  0  0  0  0  0  0  0  0  0  0  0  # atno 6908 bound_to 6896
  151.9655  133.3674  159.4088 H   0  0  0  0  0  0  0  0  0  0  0  0  # atno 6909 bound_to 6896
  146.2058  140.3403  142.8407 H   0  0  0  0  0  0  0  0  0  0  0  0  # atno 7974 bound_to 7965
  155.4125  140.3443  155.4265 H   0  0  0  0  0  0  0  0  0  0  0  0  # atno 8008 bound_to 7997
  156.1440  140.1551  156.8907 H   0  0  0  0  0  0  0  0  0  0  0  0  # atno 8009 bound_to 7997
  154.4995  140.0818  156.7749 H   0  0  0  0  0  0  0  0  0  0  0  0  # atno 8010 bound_to 7997
  139.7683  144.6931  151.0193 H   0  0  0  0  0  0  0  0  0  0  0  0  # atno 10167 bound_to 10162
  156.0011  130.5020  150.5749 H   0  0  0  0  0  0  0  0  0  0  0  0  # atno 10718 bound_to 10713
  153.1025  135.4806  154.8893 H   0  0  0  0  0  0  0  0  0  0  0  0  # atno 10763 bound_to 10752
  154.7395  135.3079  154.8756 H   0  0  0  0  0  0  0  0  0  0  0  0  # atno 10764 bound_to 10752
  153.9368  135.6838  153.4798 H   0  0  0  0  0  0  0  0  0  0  0  0  # atno 10765 bound_to 10752
  140.5741  134.5208  157.5167 H   0  0  0  0  0  0  0  0  0  0  0  0  # atno 11005 bound_to 11000
  144.8790  140.7375  143.5999 LP  0  0  0  0  0  0  0  0  0  0  0  0  # atno 17320 bound_to 7965
  145.3323  139.1756  143.4530 LP  0  0  0  0  0  0  0  0  0  0  0  0  # atno 17321 bound_to 7965
  140.7812  143.4617  151.0268 LP  0  0  0  0  0  0  0  0  0  0  0  0  # atno 17342 bound_to 10162
  139.8302  143.7701  152.3179 LP  0  0  0  0  0  0  0  0  0  0  0  0  # atno 17343 bound_to 10162
  157.3638  131.0754  151.1614 LP  0  0  0  0  0  0  0  0  0  0  0  0  # atno 17370 bound_to 10713
  157.2390  130.6560  149.5882 LP  0  0  0  0  0  0  0  0  0  0  0  0  # atno 17371 bound_to 10713
  139.9348  134.7896  156.0833 LP  0  0  0  0  0  0  0  0  0  0  0  0  # atno 17394 bound_to 11000
  141.1038  133.6667  156.2815 LP  0  0  0  0  0  0  0  0  0  0  0  0  # atno 17395 bound_to 11000

$$$$
