AV-unprocessed.smi:718|AV-procd|sdf|3492|dock2
  -GOLD-   22720 0483D 1   1.00000     0.00000
 Structure written by MMmdl.
 27 28  0  0  0  0  0  0  0  0  1 V2000
  152.8635  139.8601  158.0689 O   0  0  0  0  0  0  0  0  0  0  0  0
  152.1959  140.8242  157.6922 C   0  0  0  0  0  0  0  0  0  0  0  0
  151.9734  141.9282  158.4309 N   0  0  0  0  0  0  0  0  0  0  0  0
  152.4061  142.2067  159.7544 C   0  0  0  0  0  0  0  0  0  0  0  0
  153.3370  141.2860  160.2850 C   0  0  0  0  0  0  0  0  0  0  0  0
  153.8319  141.4727  161.5906 C   0  0  0  0  0  0  0  0  0  0  0  0
  154.9709  140.3526  162.2478 Cl  0  0  0  0  0  0  0  0  0  0  0  0
  153.3801  142.5815  162.3342 C   0  0  0  0  0  0  0  0  0  0  0  0
  153.9376  142.8840  163.9411 Cl  0  0  0  0  0  0  0  0  0  0  0  0
  152.4519  143.4495  161.7296 C   0  0  0  0  0  0  0  0  0  0  0  0
  151.9777  143.2704  160.4789 N   0  0  0  0  0  0  0  0  0  0  0  0
  151.5770  140.8332  156.2868 C   0  0  1  0  0  0  0  0  0  0  0  0
  151.6626  139.4624  155.5757 C   0  0  0  0  0  0  0  0  0  0  0  0
  151.0329  139.5525  154.3041 O   0  0  0  0  0  0  0  0  0  0  0  0
  149.6655  139.9178  154.4280 C   0  0  0  0  0  0  0  0  0  0  0  0
  149.5768  141.2859  155.1233 C   0  0  0  0  0  0  0  0  0  0  0  0
  150.2036  141.2005  156.3960 O   0  0  0  0  0  0  0  0  0  0  0  0
  151.4189  142.6489  157.9924 H   0  0  0  0  0  0  0  0  0  0  0  0
  153.6713  140.4420  159.6988 H   0  0  0  0  0  0  0  0  0  0  0  0
  152.0788  144.3117  162.2625 H   0  0  0  0  0  0  0  0  0  0  0  0
  152.1054  141.5853  155.6983 H   0  0  0  0  0  0  0  0  0  0  0  0
  152.7026  139.1717  155.4233 H   0  0  0  0  0  0  0  0  0  0  0  0
  151.1918  138.6765  156.1693 H   0  0  0  0  0  0  0  0  0  0  0  0
  149.2181  139.9671  153.4351 H   0  0  0  0  0  0  0  0  0  0  0  0
  149.1201  139.1579  154.9900 H   0  0  0  0  0  0  0  0  0  0  0  0
  150.0515  142.0612  154.5200 H   0  0  0  0  0  0  0  0  0  0  0  0
  148.5346  141.5757  155.2584 H   0  0  0  0  0  0  0  0  0  0  0  0
  1  2  2  0  0  0  0
  2  3  1  0  0  0  0
  2 12  1  0  0  0  0
  3  4  1  0  0  0  0
  3 18  1  0  0  0  0
  4 11  1  0  0  0  0
  4  5  2  0  0  0  0
  5  6  1  0  0  0  0
  5 19  1  0  0  0  0
  6  7  1  0  0  0  0
  6  8  2  0  0  0  0
  8  9  1  0  0  0  0
  8 10  1  0  0  0  0
 10 11  2  0  0  0  0
 10 20  1  0  0  0  0
 12 17  1  0  0  0  0
 12 13  1  0  0  0  0
 12 21  1  0  0  0  0
 13 14  1  0  0  0  0
 13 22  1  0  0  0  0
 13 23  1  0  0  0  0
 14 15  1  0  0  0  0
 15 16  1  0  0  0  0
 15 24  1  0  0  0  0
 15 25  1  0  0  0  0
 16 17  1  0  0  0  0
 16 26  1  0  0  0  0
 16 27  1  0  0  0  0
M  END
> <s_m_source_file>
AV-unprocessed.smi

> <i_m_source_file_index>
718

> <i_lp_mmshare_version>
43012

> <i_f3d_flags>
0

> <s_epik_input>
TzFbQ0gyXVtDSDJdT1tDSDJdW0NASF0xQyg9TylbTkhdYzJbY0hdYyhDbCljKENsKVtjSF1uMg==

> <s_epik_cmdline>
J2VwaWtfcHl0aG9uJywgJy1waCcsICc3LjAnLCAnLXRuJywgJzgnLCAnLW1hJywgJzIwMCcsICctbWV0YWxfYmluZGluZycsICctaW1hZScsICc8aW5maWxlLm1hZT4nLCAnLW9tYWUnLCAnPG91dGZpbGUubWFlPic=

> <r_lp_tautomer_probability>
1

> <r_epik_Ionization_Penalty>
4.81693e-06

> <r_epik_Ionization_Penalty_Charging>
0

> <r_epik_Ionization_Penalty_Neutral>
4.81693e-06

> <r_epik_State_Penalty>
-0

> <r_epik_Charging_Adjusted_Penalty>
0

> <i_epik_Tot_Q>
0

> <i_epik_Tot_abs_Q>
0

> <r_epik_Metal_State_Penalty>
-0

> <b_epik_Metal_Only>
0

> <s_lp_Force_Field>
OPLS_2005

> <r_lp_Energy>
11.7042

> <b_lp_Chiralities_Consistent>
1

> <s_lp_Variant>
AV-unprocessed.smi:718-2

> <Gold.Version>
5.8.1

> <Gold.Id.Protein>
6NUR|6NUR_protein|mol2

> <Gold.PLP.Fitness>
43.6785

> <Gold.PLP.PLP>
-40.7156

> <Gold.PLP.part.hbond>
-2.0000

> <Gold.PLP.part.metal>
0.0000

> <Gold.PLP.part.buried>
-4.1855

> <Gold.PLP.part.nonpolar>
-32.5529

> <Gold.PLP.part.repulsive>
0.3336

> <Gold.PLP.ligand.clash>
2.6034

> <Gold.PLP.ligand.torsion>
0.2177

> <Gold.PLP.Chemscore.Hbond>
2.0000

> <Gold.PLP.Chemscore.CHOScore>
0.0000

> <Gold.PLP.Chemscore.Metal>
0.0000

> <Gold.Chemscore.Hbonds>
donor molecule, donor type, donor heavy atom, donor atom, acceptor molecule, acceptor atom, score
      P1  H  7989  7998       L1    14  1.00
      P1  H  7997  8010       L1     1  1.00

> <Gold.PLP.Chemscore.Internal.Correction>
0.0017

> <Gold.Rescore>
     Score         DG    S(hbond)    S(metal)    S(lipo)     H(rot)  DE(clash)    DE(int)     intcor
     16.66     -18.51       1.68        0.00      85.29       1.00       0.22       1.63       ----

> <Gold.Chemscore.Fitness>
16.6649

> <Gold.Chemscore.DG>
-18.5075

> <Gold.Chemscore.ZeroCoef>
-5.4800

> <Gold.Chemscore.Hbond>
1.6793

> <Gold.Chemscore.Metal>
0.0000

> <Gold.Chemscore.Lipo>
85.2861

> <Gold.Chemscore.Internal_Hbond>
0.0000

> <Gold.Chemscore.DEClash>
0.2155

> <Gold.Chemscore.DEInternal>
1.6270

> <Gold.Chemscore.Rot>
1.0000

> <Gold.Chemscore.Internal.Correction>
   9.000000E+99

> <Gold.Chemscore.Hbonds>
donor molecule, donor type, donor heavy atom, donor atom, acceptor molecule, acceptor atom, score
      P1  H  7989  7998       L1    14  0.21
      P1  H  7997  8010       L1     1  0.37

> <Gold.Chemscore.Hbond.Weighted>
-5.6090

> <Gold.Chemscore.Metal.Weighted>
-0.0000

> <Gold.Chemscore.Lipo.Weighted>
-9.9785

> <Gold.Chemscore.Internal_Hbond.Weighted>
0.0000

> <Gold.Chemscore.DEClash.Weighted>
0.2155

> <Gold.Chemscore.DEInternal.Weighted>
1.6270

> <Gold.Chemscore.Rot.Weighted>
2.5600

> <Gold.Chemscore.Internal.Correction.Weighted>
   9.000000E+99

> <Gold.Protein.RotatedTorsions>
[ 6907 6896 6895 6894 ] final   11.09 input  -60.11 | X-H torsion
[ 7974 7965 7964 7962 ] final   49.44 input  175.53 | X-H torsion
[ 8008 7997 7996 7995 ] final   34.48 input   59.86 | X-H torsion
[ 10167 10162 10161 10158 ] final  119.40 input  -65.29 | X-H torsion
[ 10718 10713 10712 10709 ] final  -56.87 input   66.30 | X-H torsion
[ 10763 10752 10751 10750 ] final -163.75 input  -60.55 | X-H torsion
[ 11005 11000 10999 10996 ] final  -51.81 input  -57.11 | X-H torsion

> <Gold.Protein.ActiveResidues>
 VAL166  LYS551  ARG553  GLY616  TRP617  ASP618  TYR619  PRO620  LYS621  CYS622 
 ASP623  PHE694  ASN695  SER759  ASP760  ASP761  ALA762  ILE779  LEU786  VAL792 
 PHE793  MET794  SER795  GLU796  ALA797  LYS798  CYS799  TRP800  GLU811  SER814 

> <Gold.Protein.RotatedAtoms>
  151.7488  135.0837  160.0327 H   0  0  0  0  0  0  0  0  0  0  0  0  # atno 6907 bound_to 6896
  152.3430  133.6085  159.5899 H   0  0  0  0  0  0  0  0  0  0  0  0  # atno 6908 bound_to 6896
  150.7491  133.9608  159.3556 H   0  0  0  0  0  0  0  0  0  0  0  0  # atno 6909 bound_to 6896
  146.0108  139.4541  142.9957 H   0  0  0  0  0  0  0  0  0  0  0  0  # atno 7974 bound_to 7965
  155.1555  140.3278  155.4422 H   0  0  0  0  0  0  0  0  0  0  0  0  # atno 8008 bound_to 7997
  156.2560  140.1969  156.6615 H   0  0  0  0  0  0  0  0  0  0  0  0  # atno 8009 bound_to 7997
  154.6442  140.0566  156.9867 H   0  0  0  0  0  0  0  0  0  0  0  0  # atno 8010 bound_to 7997
  139.6049  144.7067  151.2977 H   0  0  0  0  0  0  0  0  0  0  0  0  # atno 10167 bound_to 10162
  156.1255  130.4163  150.0363 H   0  0  0  0  0  0  0  0  0  0  0  0  # atno 10718 bound_to 10713
  154.7094  135.3003  154.9221 H   0  0  0  0  0  0  0  0  0  0  0  0  # atno 10763 bound_to 10752
  154.0128  135.6692  153.4770 H   0  0  0  0  0  0  0  0  0  0  0  0  # atno 10764 bound_to 10752
  153.0743  135.5044  154.8283 H   0  0  0  0  0  0  0  0  0  0  0  0  # atno 10765 bound_to 10752
  141.0891  133.6636  156.3932 H   0  0  0  0  0  0  0  0  0  0  0  0  # atno 11005 bound_to 11000
  145.7344  141.0030  143.1334 LP  0  0  0  0  0  0  0  0  0  0  0  0  # atno 17320 bound_to 7965
  144.6952  139.9024  143.7459 LP  0  0  0  0  0  0  0  0  0  0  0  0  # atno 17321 bound_to 7965
  140.7277  143.6955  150.7887 LP  0  0  0  0  0  0  0  0  0  0  0  0  # atno 17342 bound_to 10162
  140.0539  143.5222  152.2660 LP  0  0  0  0  0  0  0  0  0  0  0  0  # atno 17343 bound_to 10162
  156.8290  130.9385  151.3638 LP  0  0  0  0  0  0  0  0  0  0  0  0  # atno 17370 bound_to 10713
  157.6437  130.8826  149.9496 LP  0  0  0  0  0  0  0  0  0  0  0  0  # atno 17371 bound_to 10713
  140.5294  134.6227  157.5345 LP  0  0  0  0  0  0  0  0  0  0  0  0  # atno 17394 bound_to 11000
  139.9714  134.7287  156.0035 LP  0  0  0  0  0  0  0  0  0  0  0  0  # atno 17395 bound_to 11000

$$$$
