AV-unprocessed.smi:469|AV-procd|sdf|2653|dock4
  -GOLD-   2262023 63D 1   1.00000     0.00000
 Structure written by MMmdl.
 37 38  0  0  0  0  0  0  0  0  1 V2000
  150.2261  135.2249  155.2878 C   0  0  0  0  0  0  0  0  0  0  0  0
  149.9801  136.1325  156.3980 N   0  0  0  0  0  0  0  0  0  0  0  0
  149.6568  135.7384  157.6378 C   0  0  0  0  0  0  0  0  0  0  0  0
  149.5407  134.5543  157.9572 O   0  0  0  0  0  0  0  0  0  0  0  0
  149.4482  136.8621  158.6637 C   0  0  0  0  0  0  0  0  0  0  0  0
  150.5178  137.8740  158.6580 N   0  0  0  0  0  0  0  0  0  0  0  0
  150.1441  139.1931  158.3366 C   0  0  0  0  0  0  0  0  0  0  0  0
  151.0318  140.2008  158.3385 C   0  0  0  0  0  0  0  0  0  0  0  0
  150.5433  141.8521  157.7757 S   0  0  0  0  0  0  0  0  0  0  0  0
  151.0089  142.0086  156.3889 O   0  0  0  0  0  0  0  0  0  0  0  0
  149.1178  142.0335  158.0930 O   0  0  0  0  0  0  0  0  0  0  0  0
  151.4378  142.9648  158.7519 N   0  0  0  0  0  0  0  0  0  0  0  0
  151.3510  144.3943  158.4245 C   0  0  0  0  0  0  0  0  0  0  0  0
  150.9301  145.0893  159.7186 C   0  0  0  0  0  0  0  0  0  0  0  0
  151.5359  144.2034  160.7966 C   0  0  0  0  0  0  0  0  0  0  0  0
  151.3918  142.7985  160.2121 C   0  0  0  0  0  0  0  0  0  0  0  0
  152.4181  139.8929  158.6043 C   0  0  0  0  0  0  0  0  0  0  0  0
  152.7894  138.6276  158.8836 C   0  0  0  0  0  0  0  0  0  0  0  0
  151.8148  137.5309  158.9303 C   0  0  0  0  0  0  0  0  0  0  0  0
  152.1444  136.3747  159.1961 O   0  0  0  0  0  0  0  0  0  0  0  0
  150.5082  135.7910  154.3999 H   0  0  0  0  0  0  0  0  0  0  0  0
  149.3311  134.6466  155.0545 H   0  0  0  0  0  0  0  0  0  0  0  0
  151.0367  134.5334  155.5226 H   0  0  0  0  0  0  0  0  0  0  0  0
  150.0609  137.1220  156.2132 H   0  0  0  0  0  0  0  0  0  0  0  0
  148.4852  137.3342  158.4631 H   0  0  0  0  0  0  0  0  0  0  0  0
  149.3469  136.4225  159.6578 H   0  0  0  0  0  0  0  0  0  0  0  0
  149.1028  139.3233  158.0793 H   0  0  0  0  0  0  0  0  0  0  0  0
  152.3334  144.7394  158.1011 H   0  0  0  0  0  0  0  0  0  0  0  0
  150.6436  144.5785  157.6152 H   0  0  0  0  0  0  0  0  0  0  0  0
  151.2730  146.1227  159.7755 H   0  0  0  0  0  0  0  0  0  0  0  0
  149.8424  145.0881  159.8047 H   0  0  0  0  0  0  0  0  0  0  0  0
  152.5914  144.4460  160.9266 H   0  0  0  0  0  0  0  0  0  0  0  0
  151.0419  144.3122  161.7626 H   0  0  0  0  0  0  0  0  0  0  0  0
  150.4294  142.3739  160.5008 H   0  0  0  0  0  0  0  0  0  0  0  0
  152.1764  142.1214  160.5505 H   0  0  0  0  0  0  0  0  0  0  0  0
  153.1613  140.6761  158.5798 H   0  0  0  0  0  0  0  0  0  0  0  0
  153.8299  138.4140  159.0798 H   0  0  0  0  0  0  0  0  0  0  0  0
  1  2  1  0  0  0  0
  1 21  1  0  0  0  0
  1 22  1  0  0  0  0
  1 23  1  0  0  0  0
  2  3  1  0  0  0  0
  2 24  1  0  0  0  0
  3  4  2  0  0  0  0
  3  5  1  0  0  0  0
  5  6  1  0  0  0  0
  5 25  1  0  0  0  0
  5 26  1  0  0  0  0
  6 19  1  0  0  0  0
  6  7  1  0  0  0  0
  7  8  2  0  0  0  0
  7 27  1  0  0  0  0
  8  9  1  0  0  0  0
  8 17  1  0  0  0  0
  9 10  2  0  0  0  0
  9 11  2  0  0  0  0
  9 12  1  0  0  0  0
 12 16  1  0  0  0  0
 12 13  1  0  0  0  0
 13 14  1  0  0  0  0
 13 28  1  0  0  0  0
 13 29  1  0  0  0  0
 14 15  1  0  0  0  0
 14 30  1  0  0  0  0
 14 31  1  0  0  0  0
 15 16  1  0  0  0  0
 15 32  1  0  0  0  0
 15 33  1  0  0  0  0
 16 34  1  0  0  0  0
 16 35  1  0  0  0  0
 17 18  2  0  0  0  0
 17 36  1  0  0  0  0
 18 19  1  0  0  0  0
 18 37  1  0  0  0  0
 19 20  2  0  0  0  0
M  END
> <s_m_source_file>
AV-unprocessed.smi

> <i_m_source_file_index>
469

> <i_lp_mmshare_version>
43012

> <i_f3d_flags>
0

> <s_epik_input>
W0NIM11bTkhdQyg9TylbQ0gyXW4xW2NIXWMoW2NIXVtjSF1jMT1PKVMoPU8pKD1PKU4yW0NIMl1bQ0gyXVtDSDJdW0NIMl0y

> <s_epik_cmdline>
J2VwaWtfcHl0aG9uJywgJy1waCcsICc3LjAnLCAnLXRuJywgJzgnLCAnLW1hJywgJzIwMCcsICctbWV0YWxfYmluZGluZycsICctaW1hZScsICc8aW5maWxlLm1hZT4nLCAnLW9tYWUnLCAnPG91dGZpbGUubWFlPic=

> <r_lp_tautomer_probability>
1

> <r_epik_Ionization_Penalty>
2.91909e-08

> <r_epik_Ionization_Penalty_Charging>
9.91299e-09

> <r_epik_Ionization_Penalty_Neutral>
1.92779e-08

> <r_epik_State_Penalty>
-0

> <r_epik_Charging_Adjusted_Penalty>
9.91299e-09

> <i_epik_Tot_Q>
0

> <i_epik_Tot_abs_Q>
0

> <r_epik_Metal_State_Penalty>
-0

> <b_epik_Metal_Only>
0

> <s_lp_Force_Field>
OPLS_2005

> <r_lp_Energy>
18.9882

> <b_lp_Chiralities_Consistent>
1

> <s_lp_Variant>
AV-unprocessed.smi:469-1

> <Gold.Version>
5.8.1

> <Gold.Id.Protein>
6NUR|6NUR_protein|mol2

> <Gold.PLP.Fitness>
38.1397

> <Gold.PLP.PLP>
-33.1620

> <Gold.PLP.part.hbond>
-2.0000

> <Gold.PLP.part.metal>
0.0000

> <Gold.PLP.part.buried>
-4.5180

> <Gold.PLP.part.nonpolar>
-26.0954

> <Gold.PLP.part.repulsive>
0.3012

> <Gold.PLP.ligand.clash>
0.0000

> <Gold.PLP.ligand.torsion>
1.4870

> <Gold.PLP.Chemscore.Hbond>
1.8320

> <Gold.PLP.Chemscore.CHOScore>
0.0000

> <Gold.PLP.Chemscore.Metal>
0.0000

> <Gold.Chemscore.Hbonds>
donor molecule, donor type, donor heavy atom, donor atom, acceptor molecule, acceptor atom, score
      P1  H  6896  6908       L1     4  1.00
      P1  H  6896  6909       L1    20  0.80

> <Gold.PLP.Chemscore.Internal.Correction>
2.4556

> <Gold.Rescore>
     Score         DG    S(hbond)    S(metal)    S(lipo)     H(rot)  DE(clash)    DE(int)     intcor
     14.71     -16.32       1.87        0.00      74.92       1.62       0.10       1.51       ----

> <Gold.Chemscore.Fitness>
14.7140

> <Gold.Chemscore.DG>
-16.3216

> <Gold.Chemscore.ZeroCoef>
-5.4800

> <Gold.Chemscore.Hbond>
1.8653

> <Gold.Chemscore.Metal>
0.0000

> <Gold.Chemscore.Lipo>
74.9177

> <Gold.Chemscore.Internal_Hbond>
0.0000

> <Gold.Chemscore.DEClash>
0.0965

> <Gold.Chemscore.DEInternal>
1.5111

> <Gold.Chemscore.Rot>
1.6226

> <Gold.Chemscore.Internal.Correction>
   9.000000E+99

> <Gold.Chemscore.Hbonds>
donor molecule, donor type, donor heavy atom, donor atom, acceptor molecule, acceptor atom, score
      P1  H  6896  6908       L1     4  0.74
      P1  H  6896  6909       L1    20  0.76

> <Gold.Chemscore.Hbond.Weighted>
-6.2301

> <Gold.Chemscore.Metal.Weighted>
-0.0000

> <Gold.Chemscore.Lipo.Weighted>
-8.7654

> <Gold.Chemscore.Internal_Hbond.Weighted>
0.0000

> <Gold.Chemscore.DEClash.Weighted>
0.0965

> <Gold.Chemscore.DEInternal.Weighted>
1.5111

> <Gold.Chemscore.Rot.Weighted>
4.1539

> <Gold.Chemscore.Internal.Correction.Weighted>
   9.000000E+99

> <Gold.Protein.RotatedTorsions>
[ 6907 6896 6895 6894 ] final  143.08 input  -60.11 | X-H torsion
[ 7974 7965 7964 7962 ] final -166.57 input  175.53 | X-H torsion
[ 8008 7997 7996 7995 ] final   44.79 input   59.86 | X-H torsion
[ 10167 10162 10161 10158 ] final -178.66 input  -65.29 | X-H torsion
[ 10718 10713 10712 10709 ] final  148.37 input   66.30 | X-H torsion
[ 10763 10752 10751 10750 ] final  135.81 input  -60.55 | X-H torsion
[ 11005 11000 10999 10996 ] final   25.00 input  -57.11 | X-H torsion

> <Gold.Protein.ActiveResidues>
 VAL166  LYS551  ARG553  GLY616  TRP617  ASP618  TYR619  PRO620  LYS621  CYS622 
 ASP623  PHE694  ASN695  SER759  ASP760  ASP761  ALA762  ILE779  LEU786  VAL792 
 PHE793  MET794  SER795  GLU796  ALA797  LYS798  CYS799  TRP800  GLU811  SER814 

> <Gold.Protein.RotatedAtoms>
  152.2108  133.4909  159.5108 H   0  0  0  0  0  0  0  0  0  0  0  0  # atno 6907 bound_to 6896
  150.6990  134.1470  159.4135 H   0  0  0  0  0  0  0  0  0  0  0  0  # atno 6908 bound_to 6896
  151.9389  135.0222  160.0585 H   0  0  0  0  0  0  0  0  0  0  0  0  # atno 6909 bound_to 6896
  144.7242  140.2646  143.6260 H   0  0  0  0  0  0  0  0  0  0  0  0  # atno 7974 bound_to 7965
  155.3252  140.3399  155.4240 H   0  0  0  0  0  0  0  0  0  0  0  0  # atno 8008 bound_to 7997
  156.1889  140.1690  156.8167 H   0  0  0  0  0  0  0  0  0  0  0  0  # atno 8009 bound_to 7997
  154.5419  140.0723  156.8507 H   0  0  0  0  0  0  0  0  0  0  0  0  # atno 8010 bound_to 7997
  139.5422  144.2332  152.0918 H   0  0  0  0  0  0  0  0  0  0  0  0  # atno 10167 bound_to 10162
  157.3095  131.0885  151.1328 H   0  0  0  0  0  0  0  0  0  0  0  0  # atno 10718 bound_to 10713
  153.8462  135.3085  155.3429 H   0  0  0  0  0  0  0  0  0  0  0  0  # atno 10763 bound_to 10752
  154.7911  135.4782  154.0058 H   0  0  0  0  0  0  0  0  0  0  0  0  # atno 10764 bound_to 10752
  153.1546  135.6849  153.8924 H   0  0  0  0  0  0  0  0  0  0  0  0  # atno 10765 bound_to 10752
  140.3526  134.2213  155.7678 H   0  0  0  0  0  0  0  0  0  0  0  0  # atno 11005 bound_to 11000
  145.8102  139.2000  143.1997 LP  0  0  0  0  0  0  0  0  0  0  0  0  # atno 17320 bound_to 7965
  146.0602  140.7978  142.9738 LP  0  0  0  0  0  0  0  0  0  0  0  0  # atno 17321 bound_to 7965
  140.1813  144.4842  150.6527 LP  0  0  0  0  0  0  0  0  0  0  0  0  # atno 17342 bound_to 10162
  140.6656  143.2267  151.5750 LP  0  0  0  0  0  0  0  0  0  0  0  0  # atno 17343 bound_to 10162
  157.2655  130.6679  149.5995 LP  0  0  0  0  0  0  0  0  0  0  0  0  # atno 17370 bound_to 10713
  155.9677  130.4495  150.5661 LP  0  0  0  0  0  0  0  0  0  0  0  0  # atno 17371 bound_to 10713
  141.2008  133.7979  157.0473 LP  0  0  0  0  0  0  0  0  0  0  0  0  # atno 17394 bound_to 11000
  140.0691  134.9712  157.1437 LP  0  0  0  0  0  0  0  0  0  0  0  0  # atno 17395 bound_to 11000

$$$$
