AV-unprocessed.smi:407|AV-procd|sdf|2501|dock2
  -GOLD-   2262022443D 1   1.00000     0.00000
 Structure written by MMmdl.
 45 47  0  0  0  0  0  0  0  0  1 V2000
  152.8586  132.8105  164.8218 C   0  0  0  0  0  0  0  0  0  0  0  0
  153.8055  132.7262  163.6257 C   0  0  0  0  0  0  0  0  0  0  0  0
  154.2308  131.6226  163.2855 O   0  0  0  0  0  0  0  0  0  0  0  0
  154.1673  133.9962  162.9342 C   0  0  0  0  0  0  0  0  0  0  0  0
  153.8592  135.2322  163.5448 C   0  0  0  0  0  0  0  0  0  0  0  0
  154.1892  136.4458  162.9124 C   0  0  0  0  0  0  0  0  0  0  0  0
  154.8328  136.4564  161.6596 C   0  0  0  0  0  0  0  0  0  0  0  0
  155.1155  137.6888  161.1111 O   0  0  0  0  0  0  0  0  0  0  0  0
  155.2368  137.7865  159.6979 C   0  0  0  0  0  0  0  0  0  0  0  0
  154.7719  139.1845  159.2574 C   0  0  2  0  0  0  0  0  0  0  0  0
  155.9067  140.0280  159.2709 O   0  0  0  0  0  0  0  0  0  0  0  0
  153.7337  139.7778  160.2314 C   0  0  0  0  0  0  0  0  0  0  0  0
  153.0215  140.9112  159.6420 N   0  0  0  0  0  0  0  0  0  0  0  0
  152.5620  141.0011  158.3710 C   0  0  0  0  0  0  0  0  0  0  0  0
  152.6674  140.1348  157.5032 O   0  0  0  0  0  0  0  0  0  0  0  0
  151.9700  142.2093  158.2236 N   0  0  0  0  0  0  0  0  0  0  0  0
  151.3371  142.7347  157.0201 C   0  0  0  0  0  0  0  0  0  0  0  0
  152.0488  142.9107  159.4332 C   0  0  0  0  0  0  0  0  0  0  0  0
  151.5871  144.1893  159.7895 C   0  0  0  0  0  0  0  0  0  0  0  0
  151.8333  144.6186  161.1147 C   0  0  0  0  0  0  0  0  0  0  0  0
  152.5194  143.7827  162.0338 C   0  0  0  0  0  0  0  0  0  0  0  0
  152.9723  142.4992  161.6483 C   0  0  0  0  0  0  0  0  0  0  0  0
  152.7125  142.0960  160.3265 C   0  0  0  0  0  0  0  0  0  0  0  0
  155.1471  135.2184  161.0470 C   0  0  0  0  0  0  0  0  0  0  0  0
  154.8177  134.0031  161.6783 C   0  0  0  0  0  0  0  0  0  0  0  0
  153.2752  133.4570  165.5943 H   0  0  0  0  0  0  0  0  0  0  0  0
  152.7017  131.8220  165.2541 H   0  0  0  0  0  0  0  0  0  0  0  0
  151.8898  133.2058  164.5155 H   0  0  0  0  0  0  0  0  0  0  0  0
  153.3643  135.2642  164.5049 H   0  0  0  0  0  0  0  0  0  0  0  0
  153.9432  137.3804  163.3949 H   0  0  0  0  0  0  0  0  0  0  0  0
  156.2882  137.6530  159.4382 H   0  0  0  0  0  0  0  0  0  0  0  0
  154.6659  137.0090  159.1866 H   0  0  0  0  0  0  0  0  0  0  0  0
  154.3576  139.1295  158.2496 H   0  0  0  0  0  0  0  0  0  0  0  0
  156.5745  139.6399  158.7267 H   0  0  0  0  0  0  0  0  0  0  0  0
  152.9902  139.0197  160.4823 H   0  0  0  0  0  0  0  0  0  0  0  0
  154.1969  140.0552  161.1789 H   0  0  0  0  0  0  0  0  0  0  0  0
  151.6904  143.7457  156.8155 H   0  0  0  0  0  0  0  0  0  0  0  0
  150.2552  142.7697  157.1502 H   0  0  0  0  0  0  0  0  0  0  0  0
  151.5546  142.1226  156.1439 H   0  0  0  0  0  0  0  0  0  0  0  0
  151.0670  144.8199  159.0836 H   0  0  0  0  0  0  0  0  0  0  0  0
  151.4960  145.5948  161.4308 H   0  0  0  0  0  0  0  0  0  0  0  0
  152.6981  144.1310  163.0404 H   0  0  0  0  0  0  0  0  0  0  0  0
  153.4962  141.8613  162.3445 H   0  0  0  0  0  0  0  0  0  0  0  0
  155.6428  135.1724  160.0894 H   0  0  0  0  0  0  0  0  0  0  0  0
  155.0762  133.0829  161.1762 H   0  0  0  0  0  0  0  0  0  0  0  0
  1  2  1  0  0  0  0
  1 26  1  0  0  0  0
  1 27  1  0  0  0  0
  1 28  1  0  0  0  0
  2  3  2  0  0  0  0
  2  4  1  0  0  0  0
  4 25  1  0  0  0  0
  4  5  2  0  0  0  0
  5  6  1  0  0  0  0
  5 29  1  0  0  0  0
  6  7  2  0  0  0  0
  6 30  1  0  0  0  0
  7  8  1  0  0  0  0
  7 24  1  0  0  0  0
  8  9  1  0  0  0  0
  9 10  1  0  0  0  0
  9 31  1  0  0  0  0
  9 32  1  0  0  0  0
 10 11  1  0  0  0  0
 10 12  1  0  0  0  0
 10 33  1  0  0  0  0
 11 34  1  0  0  0  0
 12 13  1  0  0  0  0
 12 35  1  0  0  0  0
 12 36  1  0  0  0  0
 13 23  1  0  0  0  0
 13 14  1  0  0  0  0
 14 15  2  0  0  0  0
 14 16  1  0  0  0  0
 16 17  1  0  0  0  0
 16 18  1  0  0  0  0
 17 37  1  0  0  0  0
 17 38  1  0  0  0  0
 17 39  1  0  0  0  0
 18 23  2  0  0  0  0
 18 19  1  0  0  0  0
 19 20  2  0  0  0  0
 19 40  1  0  0  0  0
 20 21  1  0  0  0  0
 20 41  1  0  0  0  0
 21 22  2  0  0  0  0
 21 42  1  0  0  0  0
 22 23  1  0  0  0  0
 22 43  1  0  0  0  0
 24 25  2  0  0  0  0
 24 44  1  0  0  0  0
 25 45  1  0  0  0  0
M  END
> <s_m_source_file>
AV-unprocessed.smi

> <i_m_source_file_index>
407

> <i_lp_mmshare_version>
43012

> <i_f3d_flags>
0

> <s_epik_input>
W0NIM11DKD1PKWMxW2NIXVtjSF1jKFtjSF1bY0hdMSlPW0NIMl1bQ0BIXShbT0hdKVtDSDJdbihjKD1PKW4yW0NIM10pYyhjMjMpW2NIXVtjSF1bY0hdW2NIXTM=

> <s_epik_cmdline>
J2VwaWtfcHl0aG9uJywgJy1waCcsICc3LjAnLCAnLXRuJywgJzgnLCAnLW1hJywgJzIwMCcsICctbWV0YWxfYmluZGluZycsICctaW1hZScsICc8aW5maWxlLm1hZT4nLCAnLW9tYWUnLCAnPG91dGZpbGUubWFlPic=

> <r_lp_tautomer_probability>
1

> <r_epik_Ionization_Penalty>
2.40123e-06

> <r_epik_Ionization_Penalty_Charging>
1.9356e-09

> <r_epik_Ionization_Penalty_Neutral>
2.3993e-06

> <r_epik_State_Penalty>
-0

> <r_epik_Charging_Adjusted_Penalty>
1.9356e-09

> <i_epik_Tot_Q>
0

> <i_epik_Tot_abs_Q>
0

> <r_epik_Metal_State_Penalty>
-0

> <b_epik_Metal_Only>
0

> <s_lp_Force_Field>
OPLS_2005

> <r_lp_Energy>
53.6429

> <b_lp_Chiralities_Consistent>
1

> <s_lp_Variant>
AV-unprocessed.smi:407-1

> <Gold.Version>
5.8.1

> <Gold.Id.Protein>
6NUR|6NUR_protein|mol2

> <Gold.PLP.Fitness>
52.4210

> <Gold.PLP.PLP>
-52.1789

> <Gold.PLP.part.hbond>
-2.0000

> <Gold.PLP.part.metal>
0.0000

> <Gold.PLP.part.buried>
-5.3654

> <Gold.PLP.part.nonpolar>
-44.9649

> <Gold.PLP.part.repulsive>
0.0000

> <Gold.PLP.ligand.clash>
0.0000

> <Gold.PLP.ligand.torsion>
1.4236

> <Gold.PLP.Chemscore.Hbond>
1.0000

> <Gold.PLP.Chemscore.CHOScore>
0.0000

> <Gold.PLP.Chemscore.Metal>
0.0000

> <Gold.Chemscore.Hbonds>
donor molecule, donor type, donor heavy atom, donor atom, acceptor molecule, acceptor atom, score
      P1  H  7997  8010       L1    15  0.96

> <Gold.PLP.Chemscore.Internal.Correction>
0.0893

> <Gold.Rescore>
     Score         DG    S(hbond)    S(metal)    S(lipo)     H(rot)  DE(clash)    DE(int)     intcor
     16.54     -19.74       0.88        0.00     146.94       2.30       0.57       2.63       ----

> <Gold.Chemscore.Fitness>
16.5393

> <Gold.Chemscore.DG>
-19.7407

> <Gold.Chemscore.ZeroCoef>
-5.4800

> <Gold.Chemscore.Hbond>
0.8838

> <Gold.Chemscore.Metal>
0.0000

> <Gold.Chemscore.Lipo>
146.9447

> <Gold.Chemscore.Internal_Hbond>
0.0000

> <Gold.Chemscore.DEClash>
0.5682

> <Gold.Chemscore.DEInternal>
2.6332

> <Gold.Chemscore.Rot>
2.2984

> <Gold.Chemscore.Internal.Correction>
   9.000000E+99

> <Gold.Chemscore.Hbonds>
donor molecule, donor type, donor heavy atom, donor atom, acceptor molecule, acceptor atom, score
      P1  H  7997  8010       L1    15  0.64

> <Gold.Chemscore.Hbond.Weighted>
-2.9520

> <Gold.Chemscore.Metal.Weighted>
-0.0000

> <Gold.Chemscore.Lipo.Weighted>
-17.1925

> <Gold.Chemscore.Internal_Hbond.Weighted>
0.0000

> <Gold.Chemscore.DEClash.Weighted>
0.5682

> <Gold.Chemscore.DEInternal.Weighted>
2.6332

> <Gold.Chemscore.Rot.Weighted>
5.8839

> <Gold.Chemscore.Internal.Correction.Weighted>
   9.000000E+99

> <Gold.Protein.RotatedTorsions>
[ 6907 6896 6895 6894 ] final  101.49 input  -60.11 | X-H torsion
[ 7974 7965 7964 7962 ] final  -45.13 input  175.53 | X-H torsion
[ 8008 7997 7996 7995 ] final   42.23 input   59.86 | X-H torsion
[ 10167 10162 10161 10158 ] final  -92.57 input  -65.29 | X-H torsion
[ 10718 10713 10712 10709 ] final -126.47 input   66.30 | X-H torsion
[ 10763 10752 10751 10750 ] final  -43.82 input  -60.55 | X-H torsion
[ 11005 11000 10999 10996 ] final -160.24 input  -57.11 | X-H torsion

> <Gold.Protein.ActiveResidues>
 VAL166  LYS551  ARG553  GLY616  TRP617  ASP618  TYR619  PRO620  LYS621  CYS622 
 ASP623  PHE694  ASN695  SER759  ASP760  ASP761  ALA762  ILE779  LEU786  VAL792 
 PHE793  MET794  SER795  GLU796  ALA797  LYS798  CYS799  TRP800  GLU811  SER814 

> <Gold.Protein.RotatedAtoms>
  152.5348  134.0118  159.7941 H   0  0  0  0  0  0  0  0  0  0  0  0  # atno 6907 bound_to 6896
  151.0319  133.5774  159.2667 H   0  0  0  0  0  0  0  0  0  0  0  0  # atno 6908 bound_to 6896
  151.2776  135.0711  159.9211 H   0  0  0  0  0  0  0  0  0  0  0  0  # atno 6909 bound_to 6896
  145.9851  140.7242  142.9344 H   0  0  0  0  0  0  0  0  0  0  0  0  # atno 7974 bound_to 7965
  155.2827  140.3373  155.4257 H   0  0  0  0  0  0  0  0  0  0  0  0  # atno 8008 bound_to 7997
  156.2082  140.1759  156.7794 H   0  0  0  0  0  0  0  0  0  0  0  0  # atno 8009 bound_to 7997
  154.5650  140.0680  156.8862 H   0  0  0  0  0  0  0  0  0  0  0  0  # atno 8010 bound_to 7997
  140.3334  143.2982  151.9916 H   0  0  0  0  0  0  0  0  0  0  0  0  # atno 10167 bound_to 10162
  156.1768  130.6705  151.0252 H   0  0  0  0  0  0  0  0  0  0  0  0  # atno 10718 bound_to 10713
  154.0019  135.6692  153.4760 H   0  0  0  0  0  0  0  0  0  0  0  0  # atno 10763 bound_to 10752
  153.0658  135.5001  154.8194 H   0  0  0  0  0  0  0  0  0  0  0  0  # atno 10764 bound_to 10752
  154.7047  135.3085  154.9251 H   0  0  0  0  0  0  0  0  0  0  0  0  # atno 10765 bound_to 10752
  140.6337  134.4625  157.5230 H   0  0  0  0  0  0  0  0  0  0  0  0  # atno 11005 bound_to 11000
  144.6872  140.2974  143.7268 LP  0  0  0  0  0  0  0  0  0  0  0  0  # atno 17320 bound_to 7965
  145.7713  139.1858  143.2211 LP  0  0  0  0  0  0  0  0  0  0  0  0  # atno 17321 bound_to 7965
  139.4852  144.6216  151.7244 LP  0  0  0  0  0  0  0  0  0  0  0  0  # atno 17342 bound_to 10162
  140.5376  144.0631  150.6076 LP  0  0  0  0  0  0  0  0  0  0  0  0  # atno 17343 bound_to 10162
  157.6841  131.0830  150.7291 LP  0  0  0  0  0  0  0  0  0  0  0  0  # atno 17370 bound_to 10713
  156.7349  130.4721  149.5491 LP  0  0  0  0  0  0  0  0  0  0  0  0  # atno 17371 bound_to 10713
  139.9106  134.8352  156.1541 LP  0  0  0  0  0  0  0  0  0  0  0  0  # atno 17394 bound_to 11000
  141.0657  133.6820  156.2040 LP  0  0  0  0  0  0  0  0  0  0  0  0  # atno 17395 bound_to 11000

$$$$
