AV-unprocessed.smi:3250|AV-procd|sdf|12425|dock4
  -GOLD-   2272018313D 1   1.00000     0.00000
 Structure written by MMmdl.
 39 40  0  0  0  0  0  0  0  0  2 V2000
  144.3442  133.3693  149.9007 C   0  0  0  0  0  0  0  0  0  0  0  0
  143.7374  133.5690  151.2970 C   0  0  0  0  0  0  0  0  0  0  0  0
  143.6873  134.9965  151.7004 N   0  3  1  0  0  0  0  0  0  0  0  0
  142.8580  135.2089  152.9105 C   0  0  0  0  0  0  0  0  0  0  0  0
  142.7980  136.7023  153.2703 C   0  0  0  0  0  0  0  0  0  0  0  0
  144.1179  137.2030  153.4418 O   0  0  0  0  0  0  0  0  0  0  0  0
  144.8894  137.1031  152.2504 C   0  0  1  0  0  0  0  0  0  0  0  0
  146.2466  137.7808  152.5131 C   0  0  0  0  0  0  0  0  0  0  0  0
  146.1114  139.1667  152.9445 N   0  0  0  0  0  0  0  0  0  0  0  0
  147.1042  139.8964  153.5735 C   0  0  0  0  0  0  0  0  0  0  0  0
  146.7517  141.1189  153.9758 N   0  0  0  0  0  0  0  0  0  0  0  0
  147.6965  141.8549  154.6011 C   0  0  0  0  0  0  0  0  0  0  0  0
  148.9966  141.3594  154.8250 C   0  0  0  0  0  0  0  0  0  0  0  0
  149.2616  140.0561  154.3591 C   0  0  0  0  0  0  0  0  0  0  0  0
  150.5131  139.5069  154.5461 O   0  0  0  0  0  0  0  0  0  0  0  0
  150.7470  138.1903  154.0577 C   0  0  0  0  0  0  0  0  0  0  0  0
  148.3047  139.3279  153.7318 N   0  0  0  0  0  0  0  0  0  0  0  0
  145.0256  135.6130  151.8751 C   0  0  0  0  0  0  0  0  0  0  0  0
  144.2642  132.3257  149.5955 H   0  0  0  0  0  0  0  0  0  0  0  0
  145.4013  133.6321  149.8717 H   0  0  0  0  0  0  0  0  0  0  0  0
  143.8251  133.9715  149.1546 H   0  0  0  0  0  0  0  0  0  0  0  0
  142.7216  133.1718  151.2794 H   0  0  0  0  0  0  0  0  0  0  0  0
  144.2841  132.9877  152.0408 H   0  0  0  0  0  0  0  0  0  0  0  0
  141.8482  134.8342  152.7386 H   0  0  0  0  0  0  0  0  0  0  0  0
  143.2752  134.6411  153.7437 H   0  0  0  0  0  0  0  0  0  0  0  0
  142.2761  137.2702  152.4984 H   0  0  0  0  0  0  0  0  0  0  0  0
  142.2431  136.8433  154.1980 H   0  0  0  0  0  0  0  0  0  0  0  0
  144.3664  137.6360  151.4544 H   0  0  0  0  0  0  0  0  0  0  0  0
  146.7986  137.2276  153.2741 H   0  0  0  0  0  0  0  0  0  0  0  0
  146.8591  137.7548  151.6117 H   0  0  0  0  0  0  0  0  0  0  0  0
  145.2123  139.6135  152.8361 H   0  0  0  0  0  0  0  0  0  0  0  0
  147.4128  142.8447  154.9271 H   0  0  0  0  0  0  0  0  0  0  0  0
  149.7500  141.9487  155.3267 H   0  0  0  0  0  0  0  0  0  0  0  0
  151.7737  137.8996  154.2799 H   0  0  0  0  0  0  0  0  0  0  0  0
  150.6146  138.1358  152.9760 H   0  0  0  0  0  0  0  0  0  0  0  0
  150.0865  137.4650  154.5351 H   0  0  0  0  0  0  0  0  0  0  0  0
  145.5784  135.0777  152.6489 H   0  0  0  0  0  0  0  0  0  0  0  0
  145.5992  135.5243  150.9530 H   0  0  0  0  0  0  0  0  0  0  0  0
  143.2282  135.4947  150.9509 H   0  0  0  0  0  0  0  0  0  0  0  0
  1  2  1  0  0  0  0
  1 19  1  0  0  0  0
  1 20  1  0  0  0  0
  1 21  1  0  0  0  0
  2  3  1  0  0  0  0
  2 22  1  0  0  0  0
  2 23  1  0  0  0  0
  3 18  1  0  0  0  0
  3  4  1  0  0  0  0
  3 39  1  0  0  0  0
  4  5  1  0  0  0  0
  4 24  1  0  0  0  0
  4 25  1  0  0  0  0
  5  6  1  0  0  0  0
  5 26  1  0  0  0  0
  5 27  1  0  0  0  0
  6  7  1  0  0  0  0
  7  8  1  0  0  0  0
  7 18  1  0  0  0  0
  7 28  1  0  0  0  0
  8  9  1  0  0  0  0
  8 29  1  0  0  0  0
  8 30  1  0  0  0  0
  9 10  1  0  0  0  0
  9 31  1  0  0  0  0
 10 17  1  0  0  0  0
 10 11  2  0  0  0  0
 11 12  1  0  0  0  0
 12 13  2  0  0  0  0
 12 32  1  0  0  0  0
 13 14  1  0  0  0  0
 13 33  1  0  0  0  0
 14 15  1  0  0  0  0
 14 17  2  0  0  0  0
 15 16  1  0  0  0  0
 16 34  1  0  0  0  0
 16 35  1  0  0  0  0
 16 36  1  0  0  0  0
 18 37  1  0  0  0  0
 18 38  1  0  0  0  0
M  CHG  1   3   1
M  END
> <s_m_source_file>
AV-unprocessed.smi

> <i_m_source_file_index>
3250

> <i_lp_mmshare_version>
43012

> <i_f3d_flags>
0

> <s_epik_input>
W0NIM11bQ0gyXU4xW0NIMl1bQ0gyXU9bQ0BIXShbQ0gyXTEpW0NIMl1bTkhdYzJuW2NIXVtjSF1jKG4yKU9bQ0gzXQ==

> <s_epik_cmdline>
J2VwaWtfcHl0aG9uJywgJy1waCcsICc3LjAnLCAnLXRuJywgJzgnLCAnLW1hJywgJzIwMCcsICctbWV0YWxfYmluZGluZycsICctaW1hZScsICc8aW5maWxlLm1hZT4nLCAnLW9tYWUnLCAnPG91dGZpbGUubWFlPic=

> <r_lp_tautomer_probability>
1

> <r_epik_Ionization_Penalty>
0.19684

> <r_epik_Ionization_Penalty_Charging>
0.178504

> <r_epik_Ionization_Penalty_Neutral>
0.0183356

> <r_epik_State_Penalty>
0.162939

> <r_epik_Charging_Adjusted_Penalty>
0.341443

> <i_epik_Tot_Q>
1

> <i_epik_Tot_abs_Q>
1

> <r_epik_Metal_State_Penalty>
0.1608

> <b_epik_Metal_Only>
0

> <s_lp_Force_Field>
OPLS_2005

> <r_lp_Energy>
7.38775

> <b_lp_Chiralities_Consistent>
1

> <s_lp_Variant>
AV-unprocessed.smi:3250-1

> <Gold.Version>
5.8.1

> <Gold.Id.Protein>
6NUR|6NUR_protein|mol2

> <Gold.PLP.Fitness>
39.2640

> <Gold.PLP.PLP>
-30.7187

> <Gold.PLP.part.hbond>
-2.0000

> <Gold.PLP.part.metal>
0.0000

> <Gold.PLP.part.buried>
-4.1466

> <Gold.PLP.part.nonpolar>
-26.6729

> <Gold.PLP.part.repulsive>
2.0025

> <Gold.PLP.ligand.clash>
0.0000

> <Gold.PLP.ligand.torsion>
0.1719

> <Gold.PLP.Chemscore.Hbond>
2.0000

> <Gold.PLP.Chemscore.CHOScore>
0.9496

> <Gold.PLP.Chemscore.Metal>
0.0000

> <Gold.Chemscore.Hbonds>
donor molecule, donor type, donor heavy atom, donor atom, acceptor molecule, acceptor atom, score
      L1  H     9    31       P1 10175  1.00
      P1  H  7989  7998       L1    15  0.91
      L1  C    12    32       P1  8028  0.99

> <Gold.PLP.Chemscore.Internal.Correction>
0.0403

> <Gold.Rescore>
     Score         DG    S(hbond)    S(metal)    S(lipo)     H(rot)  DE(clash)    DE(int)     intcor
     11.91     -12.78       1.36        0.00      61.05       1.71       0.64       0.23       ----

> <Gold.Chemscore.Fitness>
11.9096

> <Gold.Chemscore.DG>
-12.7809

> <Gold.Chemscore.ZeroCoef>
-5.4800

> <Gold.Chemscore.Hbond>
1.3601

> <Gold.Chemscore.Metal>
0.0000

> <Gold.Chemscore.Lipo>
61.0482

> <Gold.Chemscore.Internal_Hbond>
0.0000

> <Gold.Chemscore.DEClash>
0.6395

> <Gold.Chemscore.DEInternal>
0.2318

> <Gold.Chemscore.Rot>
1.7127

> <Gold.Chemscore.Internal.Correction>
   9.000000E+99

> <Gold.Chemscore.Hbonds>
donor molecule, donor type, donor heavy atom, donor atom, acceptor molecule, acceptor atom, score
      L1  H     9    31       P1 10175  1.00
      P1  H  7989  7998       L1    15  0.15

> <Gold.Chemscore.Hbond.Weighted>
-4.5429

> <Gold.Chemscore.Metal.Weighted>
-0.0000

> <Gold.Chemscore.Lipo.Weighted>
-7.1426

> <Gold.Chemscore.Internal_Hbond.Weighted>
0.0000

> <Gold.Chemscore.DEClash.Weighted>
0.6395

> <Gold.Chemscore.DEInternal.Weighted>
0.2318

> <Gold.Chemscore.Rot.Weighted>
4.3846

> <Gold.Chemscore.Internal.Correction.Weighted>
   9.000000E+99

> <Gold.Protein.RotatedTorsions>
[ 6907 6896 6895 6894 ] final -153.54 input  -60.11 | X-H torsion
[ 7974 7965 7964 7962 ] final  -28.17 input  175.53 | X-H torsion
[ 8008 7997 7996 7995 ] final  -48.76 input   59.86 | X-H torsion
[ 10167 10162 10161 10158 ] final  -29.31 input  -65.29 | X-H torsion
[ 10718 10713 10712 10709 ] final  -28.99 input   66.30 | X-H torsion
[ 10763 10752 10751 10750 ] final  -24.11 input  -60.55 | X-H torsion
[ 11005 11000 10999 10996 ] final -177.53 input  -57.11 | X-H torsion

> <Gold.Protein.ActiveResidues>
 VAL166  LYS551  ARG553  GLY616  TRP617  ASP618  TYR619  PRO620  LYS621  CYS622 
 ASP623  PHE694  ASN695  SER759  ASP760  ASP761  ALA762  ILE779  LEU786  VAL792 
 PHE793  MET794  SER795  GLU796  ALA797  LYS798  CYS799  TRP800  GLU811  SER814 

> <Gold.Protein.RotatedAtoms>
  151.2441  133.4384  159.2608 H   0  0  0  0  0  0  0  0  0  0  0  0  # atno 6907 bound_to 6896
  151.0678  134.9779  159.8303 H   0  0  0  0  0  0  0  0  0  0  0  0  # atno 6908 bound_to 6896
  152.5408  134.2388  159.8906 H   0  0  0  0  0  0  0  0  0  0  0  0  # atno 6909 bound_to 6896
  146.1307  140.5247  142.8694 H   0  0  0  0  0  0  0  0  0  0  0  0  # atno 7974 bound_to 7965
  154.4033  140.1313  156.4391 H   0  0  0  0  0  0  0  0  0  0  0  0  # atno 8008 bound_to 7997
  155.7476  140.3488  155.5114 H   0  0  0  0  0  0  0  0  0  0  0  0  # atno 8009 bound_to 7997
  155.8980  140.1014  157.1361 H   0  0  0  0  0  0  0  0  0  0  0  0  # atno 8010 bound_to 7997
  140.7262  143.3939  151.1381 H   0  0  0  0  0  0  0  0  0  0  0  0  # atno 10167 bound_to 10162
  156.4182  130.4421  149.7203 H   0  0  0  0  0  0  0  0  0  0  0  0  # atno 10718 bound_to 10713
  153.6786  135.6968  153.5125 H   0  0  0  0  0  0  0  0  0  0  0  0  # atno 10763 bound_to 10752
  153.2502  135.4277  155.0789 H   0  0  0  0  0  0  0  0  0  0  0  0  # atno 10764 bound_to 10752
  154.8406  135.3529  154.6329 H   0  0  0  0  0  0  0  0  0  0  0  0  # atno 10765 bound_to 10752
  140.4399  134.6441  157.4752 H   0  0  0  0  0  0  0  0  0  0  0  0  # atno 11005 bound_to 11000
  144.7688  140.5590  143.6685 LP  0  0  0  0  0  0  0  0  0  0  0  0  # atno 17320 bound_to 7965
  145.5267  139.1476  143.3522 LP  0  0  0  0  0  0  0  0  0  0  0  0  # atno 17321 bound_to 7965
  139.7548  143.8723  152.3086 LP  0  0  0  0  0  0  0  0  0  0  0  0  # atno 17342 bound_to 10162
  139.8589  144.7127  150.9123 LP  0  0  0  0  0  0  0  0  0  0  0  0  # atno 17343 bound_to 10162
  156.4154  130.7743  151.2758 LP  0  0  0  0  0  0  0  0  0  0  0  0  # atno 17370 bound_to 10713
  157.7508  131.0199  150.3685 LP  0  0  0  0  0  0  0  0  0  0  0  0  # atno 17371 bound_to 10713
  140.0077  134.6738  155.9429 LP  0  0  0  0  0  0  0  0  0  0  0  0  # atno 17394 bound_to 11000
  141.1710  133.6537  156.4652 LP  0  0  0  0  0  0  0  0  0  0  0  0  # atno 17395 bound_to 11000

$$$$
