#       Name:                AV-unprocessed.smi:837
#       Creating user name   scv26
#       Creation time:       Fri Mar 27 01:36:18 2020


#       File generated by GOLD software.
#

@<TRIPOS>MOLECULE
AV-unprocessed.smi:837
    56    58     1
SMALL
NO_CHARGES


@<TRIPOS>ATOM
      1 ****        -0.5562   2.9601  -0.6330 C.3            1 S1                 0.0000
      2 ****        -2.0918   3.1225  -0.5823 C.3            1 S1                 0.0000
      3 ****        -2.4851   4.0252   0.6086 C.3            1 S1                 0.0000
      4 ****        -3.9982   4.2804   0.6616 C.3            1 S1                 0.0000
      5 ****        -4.7822   2.9635   0.7168 C.3            1 S1                 0.0000
      6 ****        -4.4165   2.0547  -0.4694 C.3            1 S1                 0.0000
      7 ****        -2.8936   1.7773  -0.5899 C.3            1 S1                 0.0000
      8 ****        -2.6543   1.0546  -1.8273 N.pl3          1 S1                -1.0000
      9 ****        -2.1278  -0.1580  -1.5388 C.2            1 S1                 0.0000
     10 ****        -1.7919  -1.0247  -2.3454 O.2            1 S1                 0.0000
     11 ****        -1.9978  -0.3246  -0.2093 N.am           1 S1                 0.0000
     12 ****        -1.4299  -1.5156   0.4372 C.3            1 S1                 0.0000
     13 ****         0.1014  -1.4781   0.5460 C.2            1 S1                 0.0000
     14 ****         0.7201  -0.4155   0.4642 O.2            1 S1                 0.0000
     15 ****         0.7014  -2.6608   0.7487 N.am           1 S1                 0.0000
     16 ****         2.1392  -2.8586   0.8863 C.3            1 S1                 0.0000
     17 ****         2.8443  -2.8632  -0.4798 C.3            1 S1                 0.0000
     18 ****         4.3368  -3.0967  -0.3494 C.ar           1 S1                 0.0000
     19 ****         5.2278  -2.0129  -0.2082 C.ar           1 S1                 0.0000
     20 ****         6.6053  -2.2793  -0.0856 C.ar           1 S1                 0.0000
     21 ****         7.0334  -3.6219  -0.1088 C.ar           1 S1                 0.0000
     22 ****         6.1890  -4.6674  -0.2432 N.ar           1 S1                 0.0000
     23 ****         4.8699  -4.4033  -0.3609 C.ar           1 S1                 0.0000
     24 ****        -2.4184   0.7618   0.4478 C.2            1 S1                 0.0000
     25 ****        -2.4206   0.9382   1.6669 O.2            1 S1                 0.0000
     26 ****        -0.1691   2.4702   0.2609 H              1 S1                 0.0000
     27 ****        -0.0662   3.9309  -0.7087 H              1 S1                 0.0000
     28 ****        -0.2409   2.3740  -1.4965 H              1 S1                 0.0000
     29 ****        -2.3713   3.6640  -1.4880 H              1 S1                 0.0000
     30 ****        -2.1565   3.5786   1.5471 H              1 S1                 0.0000
     31 ****        -1.9657   4.9809   0.5332 H              1 S1                 0.0000
     32 ****        -4.2417   4.8941   1.5293 H              1 S1                 0.0000
     33 ****        -4.3031   4.8509  -0.2167 H              1 S1                 0.0000
     34 ****        -4.5851   2.4548   1.6603 H              1 S1                 0.0000
     35 ****        -5.8523   3.1715   0.7031 H              1 S1                 0.0000
     36 ****        -4.9699   1.1178  -0.3853 H              1 S1                 0.0000
     37 ****        -4.7724   2.5260  -1.3871 H              1 S1                 0.0000
     38 ****        -1.8432  -1.6335   1.4401 H              1 S1                 0.0000
     39 ****        -1.7308  -2.4094  -0.1121 H              1 S1                 0.0000
     40 ****         0.1184  -3.4832   0.8085 H              1 S1                 0.0000
     41 ****         2.5618  -2.0883   1.5335 H              1 S1                 0.0000
     42 ****         2.3008  -3.8115   1.3908 H              1 S1                 0.0000
     43 ****         2.4177  -3.6369  -1.1196 H              1 S1                 0.0000
     44 ****         2.6806  -1.9152  -0.9941 H              1 S1                 0.0000
     45 ****         4.8636  -0.9958  -0.1928 H              1 S1                 0.0000
     46 ****         7.3168  -1.4741   0.0242 H              1 S1                 0.0000
     47 ****         8.0822  -3.8623  -0.0170 H              1 S1                 0.0000
     48 ****         4.2209  -5.2606  -0.4640 H              1 S1                 0.0000
     49 ****        -2.8479   1.3986  -2.7461 LP             1 S1                 0.0000
     50 ****        -1.8995  -0.8634  -3.3265 LP             1 S1                 0.0000
     51 ****        -1.4113  -1.8902  -2.0198 LP             1 S1                 0.0000
     52 ****         0.2249   0.4420   0.3246 LP             1 S1                 0.0000
     53 ****         1.7174  -0.4107   0.5374 LP             1 S1                 0.0000
     54 ****         6.5299  -5.6074  -0.2552 LP             1 S1                 0.0000
     55 ****        -2.7522   1.8018   2.0465 LP             1 S1                 0.0000
     56 ****        -2.0907   0.2178   2.2769 LP             1 S1                 0.0000
@<TRIPOS>BOND
    1    1    2 1     
    2    1   26 1     
    3    1   27 1     
    4    1   28 1     
    5    2    7 1     
    6    2    3 1     
    7    2   29 1     
    8    3    4 1     
    9    3   30 1     
   10    3   31 1     
   11    4    5 1     
   12    4   32 1     
   13    4   33 1     
   14    5    6 1     
   15    5   34 1     
   16    5   35 1     
   17    6    7 1     
   18    6   36 1     
   19    6   37 1     
   20    7   24 1     
   21    7    8 1     
   22    8    9 1     
   23    9   10 2     
   24    9   11 am    
   25   11   12 1     
   26   11   24 am    
   27   12   13 1     
   28   12   38 1     
   29   12   39 1     
   30   13   14 2     
   31   13   15 am    
   32   15   16 1     
   33   15   40 1     
   34   16   17 1     
   35   16   41 1     
   36   16   42 1     
   37   17   18 1     
   38   17   43 1     
   39   17   44 1     
   40   18   23 ar    
   41   18   19 ar    
   42   19   20 ar    
   43   19   45 1     
   44   20   21 ar    
   45   20   46 1     
   46   21   22 ar    
   47   21   47 1     
   48   22   23 ar    
   49   23   48 1     
   50   24   25 2     
   51    8   49 1     
   52   10   50 1     
   53   10   51 1     
   54   14   52 1     
   55   14   53 1     
   56   22   54 1     
   57   25   55 1     
   58   25   56 1     
@<TRIPOS>SUBSTRUCTURE
      1 S1             1
@<TRIPOS>SET
LONE_PAIRS      STATIC     ATOMS    <user>   **** ""
8 49 50 51 52 53 54 55 56
DONOR_HYDROGENS      STATIC     ATOMS    <user>   **** ""
1 40
ATOM$BLUE        STATIC     ATOMS    COLORGROUP SYSTEM
8 49 50 51 52 53 54 55 56
ATOM$RED        STATIC     ATOMS    COLORGROUP SYSTEM
1 40
