AV-unprocessed.smi:34|AV-procd|sdf|238|dock5
  -GOLD-   2262015583D 1   1.00000     0.00000
 Structure written by MMmdl.
 54 58  0  0  0  0  0  0  0  0  2 V2000
  154.3457  140.1915  159.2552 O   0  0  0  0  0  0  0  0  0  0  0  0
  153.1177  140.2978  159.2278 C   0  0  0  0  0  0  0  0  0  0  0  0
  152.1944  139.3040  159.2643 N   0  5  0  0  0  0  0  0  0  0  0  0
  152.3616  138.2045  158.5139 C   0  0  0  0  0  0  0  0  0  0  0  0
  153.6070  137.8053  158.1512 N   0  0  0  0  0  0  0  0  0  0  0  0
  153.7727  136.7158  157.3930 C   0  0  0  0  0  0  0  0  0  0  0  0
  152.8467  135.8946  156.8895 N   0  0  0  0  0  0  0  0  0  0  0  0
  151.5875  136.2872  157.2403 C   0  0  0  0  0  0  0  0  0  0  0  0
  151.2712  137.4232  158.0421 C   0  0  0  0  0  0  0  0  0  0  0  0
  149.8999  137.5418  158.2108 N   0  0  0  0  0  0  0  0  0  0  0  0
  149.4539  136.4945  157.5220 C   0  0  0  0  0  0  0  0  0  0  0  0
  150.3682  135.7051  156.9235 N   0  0  0  0  0  0  0  0  0  0  0  0
  150.0904  134.4829  156.1001 C   0  0  1  0  0  0  0  0  0  0  0  0
  148.7661  134.0788  156.2946 O   0  0  0  0  0  0  0  0  0  0  0  0
  148.0486  134.1490  155.0659 C   0  0  2  0  0  0  0  0  0  0  0  0
  146.9119  133.1200  155.0414 C   0  0  0  0  0  0  0  0  0  0  0  0
  146.5789  132.8155  153.6963 O   0  0  0  0  0  0  0  0  0  0  0  0
  146.1738  133.7946  152.8639 C   0  0  0  0  0  0  0  0  0  0  0  0
  146.1962  134.9919  153.1565 O   0  0  0  0  0  0  0  0  0  0  0  0
  145.6880  133.2771  151.5523 C   0  0  0  0  0  0  0  0  0  0  0  0
  145.7465  131.8881  151.2911 C   0  0  0  0  0  0  0  0  0  0  0  0
  145.2976  131.3696  150.0609 C   0  0  0  0  0  0  0  0  0  0  0  0
  144.7825  132.2338  149.0771 C   0  0  0  0  0  0  0  0  0  0  0  0
  144.7174  133.6174  149.3251 C   0  0  0  0  0  0  0  0  0  0  0  0
  145.1675  134.1379  150.5544 C   0  0  0  0  0  0  0  0  0  0  0  0
  149.1217  133.9612  153.9924 C   0  0  2  0  0  0  0  0  0  0  0  0
  149.4302  132.6702  153.8516 F   0  0  0  0  0  0  0  0  0  0  0  0
  150.3077  134.6984  154.5872 C   0  0  1  0  0  0  0  0  0  0  0  0
  150.3197  136.0542  154.1771 O   0  0  0  0  0  0  0  0  0  0  0  0
  152.5107  141.6670  159.0742 C   0  0  0  0  0  0  0  0  0  0  0  0
  151.6510  141.9344  157.9842 C   0  0  0  0  0  0  0  0  0  0  0  0
  151.0936  143.2161  157.8091 C   0  0  0  0  0  0  0  0  0  0  0  0
  151.3970  144.2476  158.7174 C   0  0  0  0  0  0  0  0  0  0  0  0
  152.2625  143.9974  159.7985 C   0  0  0  0  0  0  0  0  0  0  0  0
  152.8204  142.7160  159.9744 C   0  0  0  0  0  0  0  0  0  0  0  0
  154.7959  136.4662  157.1545 H   0  0  0  0  0  0  0  0  0  0  0  0
  148.3962  136.2882  157.4490 H   0  0  0  0  0  0  0  0  0  0  0  0
  150.7494  133.7183  156.5134 H   0  0  0  0  0  0  0  0  0  0  0  0
  147.6278  135.1501  154.9736 H   0  0  0  0  0  0  0  0  0  0  0  0
  147.2051  132.2181  155.5805 H   0  0  0  0  0  0  0  0  0  0  0  0
  146.0319  133.5263  155.5413 H   0  0  0  0  0  0  0  0  0  0  0  0
  146.1395  131.2051  152.0307 H   0  0  0  0  0  0  0  0  0  0  0  0
  145.3492  130.3072  149.8726 H   0  0  0  0  0  0  0  0  0  0  0  0
  144.4376  131.8361  148.1339 H   0  0  0  0  0  0  0  0  0  0  0  0
  144.3213  134.2818  148.5712 H   0  0  0  0  0  0  0  0  0  0  0  0
  145.1022  135.2046  150.7128 H   0  0  0  0  0  0  0  0  0  0  0  0
  148.8200  134.3298  153.0111 H   0  0  0  0  0  0  0  0  0  0  0  0
  151.2556  134.2491  154.2887 H   0  0  0  0  0  0  0  0  0  0  0  0
  149.8336  136.1289  153.3699 H   0  0  0  0  0  0  0  0  0  0  0  0
  151.4091  141.1540  157.2769 H   0  0  0  0  0  0  0  0  0  0  0  0
  150.4338  143.4078  156.9758 H   0  0  0  0  0  0  0  0  0  0  0  0
  150.9700  145.2302  158.5828 H   0  0  0  0  0  0  0  0  0  0  0  0
  152.5018  144.7892  160.4928 H   0  0  0  0  0  0  0  0  0  0  0  0
  153.4911  142.5484  160.8049 H   0  0  0  0  0  0  0  0  0  0  0  0
  1  2  2  0  0  0  0
  2  3  1  0  0  0  0
  2 30  1  0  0  0  0
  3  4  1  0  0  0  0
  4  9  1  0  0  0  0
  4  5  2  0  0  0  0
  5  6  1  0  0  0  0
  6  7  2  0  0  0  0
  6 36  1  0  0  0  0
  7  8  1  0  0  0  0
  8 12  1  0  0  0  0
  8  9  2  0  0  0  0
  9 10  1  0  0  0  0
 10 11  2  0  0  0  0
 11 12  1  0  0  0  0
 11 37  1  0  0  0  0
 12 13  1  0  0  0  0
 13 28  1  0  0  0  0
 13 14  1  0  0  0  0
 13 38  1  0  0  0  0
 14 15  1  0  0  0  0
 15 16  1  0  0  0  0
 15 26  1  0  0  0  0
 15 39  1  0  0  0  0
 16 17  1  0  0  0  0
 16 40  1  0  0  0  0
 16 41  1  0  0  0  0
 17 18  1  0  0  0  0
 18 19  2  0  0  0  0
 18 20  1  0  0  0  0
 20 25  1  0  0  0  0
 20 21  2  0  0  0  0
 21 22  1  0  0  0  0
 21 42  1  0  0  0  0
 22 23  2  0  0  0  0
 22 43  1  0  0  0  0
 23 24  1  0  0  0  0
 23 44  1  0  0  0  0
 24 25  2  0  0  0  0
 24 45  1  0  0  0  0
 25 46  1  0  0  0  0
 26 27  1  0  0  0  0
 26 28  1  0  0  0  0
 26 47  1  0  0  0  0
 28 29  1  0  0  0  0
 28 48  1  0  0  0  0
 29 49  1  0  0  0  0
 30 35  1  0  0  0  0
 30 31  2  0  0  0  0
 31 32  1  0  0  0  0
 31 50  1  0  0  0  0
 32 33  2  0  0  0  0
 32 51  1  0  0  0  0
 33 34  1  0  0  0  0
 33 52  1  0  0  0  0
 34 35  2  0  0  0  0
 34 53  1  0  0  0  0
 35 54  1  0  0  0  0
M  CHG  1   3  -1
M  END
> <s_m_source_file>
AV-unprocessed.smi

> <i_m_source_file_index>
34

> <i_lp_mmshare_version>
43012

> <i_f3d_flags>
0

> <s_epik_input>
W2NIXTFbY0hdW2NIXVtjSF1bY0hdYzFDKD1PKVtOSF1jKG5bY0hdbjIpYyhjMjMpbltjSF1uM1tDQEBIXTRPW0NASF0oW0NAQEhdKEYpW0NASF00W09IXSlbQ0gyXU9DKD1PKWM1W2NIXVtjSF1bY0hdW2NIXVtjSF01

> <s_epik_cmdline>
J2VwaWtfcHl0aG9uJywgJy1waCcsICc3LjAnLCAnLXRuJywgJzgnLCAnLW1hJywgJzIwMCcsICctbWV0YWxfYmluZGluZycsICctaW1hZScsICc8aW5maWxlLm1hZT4nLCAnLW9tYWUnLCAnPG91dGZpbGUubWFlPic=

> <r_lp_tautomer_probability>
1

> <r_epik_Ionization_Penalty>
4.33227

> <r_epik_Ionization_Penalty_Charging>
3.41027

> <r_epik_Ionization_Penalty_Neutral>
0.922001

> <r_epik_State_Penalty>
3.41358

> <r_epik_Charging_Adjusted_Penalty>
6.82385

> <i_epik_Tot_Q>
-1

> <i_epik_Tot_abs_Q>
1

> <r_epik_Metal_State_Penalty>
0.496292

> <b_epik_Metal_Only>
1

> <s_epik_Chemistry_Notes>
This compound has an ester and may undergo hydrolysis at high or low pH. This compound contains an acetal/aminal-like group ( X-CH(R)-Y where X, Y are N, S, or O) that may be acid/base labile, releasing an aldehyde.

> <s_lp_Force_Field>
OPLS_2005

> <r_lp_Energy>
49.908

> <b_lp_Chiralities_Consistent>
1

> <s_lp_Variant>
AV-unprocessed.smi:34-24

> <Gold.Version>
5.8.1

> <Gold.Id.Protein>
6NUR|6NUR_protein|mol2

> <Gold.PLP.Fitness>
58.2804

> <Gold.PLP.PLP>
-53.4159

> <Gold.PLP.part.hbond>
-3.9541

> <Gold.PLP.part.metal>
0.0000

> <Gold.PLP.part.buried>
-6.1180

> <Gold.PLP.part.nonpolar>
-43.8361

> <Gold.PLP.part.repulsive>
0.1524

> <Gold.PLP.ligand.clash>
0.0000

> <Gold.PLP.ligand.torsion>
2.1759

> <Gold.PLP.Chemscore.Hbond>
2.9120

> <Gold.PLP.Chemscore.CHOScore>
0.0000

> <Gold.PLP.Chemscore.Metal>
0.0000

> <Gold.Chemscore.Hbonds>
donor molecule, donor type, donor heavy atom, donor atom, acceptor molecule, acceptor atom, score
      L1  H    29    49       P1  7948  0.70
      P1  H  7997  8009       L1     1  0.86
      P1  H 10752 10763       L1     7  1.00

> <Gold.PLP.Chemscore.Internal.Correction>
0.4803

> <Gold.Rescore>
     Score         DG    S(hbond)    S(metal)    S(lipo)     H(rot)  DE(clash)    DE(int)     intcor
     14.57     -20.83       2.01        0.00     132.70       2.69       0.15       6.11       ----

> <Gold.Chemscore.Fitness>
14.5677

> <Gold.Chemscore.DG>
-20.8333

> <Gold.Chemscore.ZeroCoef>
-5.4800

> <Gold.Chemscore.Hbond>
2.0133

> <Gold.Chemscore.Metal>
0.0000

> <Gold.Chemscore.Lipo>
132.7033

> <Gold.Chemscore.Internal_Hbond>
0.0000

> <Gold.Chemscore.DEClash>
0.1530

> <Gold.Chemscore.DEInternal>
6.1126

> <Gold.Chemscore.Rot>
2.6944

> <Gold.Chemscore.Internal.Correction>
   9.000000E+99

> <Gold.Chemscore.Hbonds>
donor molecule, donor type, donor heavy atom, donor atom, acceptor molecule, acceptor atom, score
      L1  H    29    49       P1  7948  0.07
      P1  H  7997  8009       L1     1  0.60
      P1  H 10752 10763       L1     7  0.35

> <Gold.Chemscore.Hbond.Weighted>
-6.7246

> <Gold.Chemscore.Metal.Weighted>
-0.0000

> <Gold.Chemscore.Lipo.Weighted>
-15.5263

> <Gold.Chemscore.Internal_Hbond.Weighted>
0.0000

> <Gold.Chemscore.DEClash.Weighted>
0.1530

> <Gold.Chemscore.DEInternal.Weighted>
6.1126

> <Gold.Chemscore.Rot.Weighted>
6.8975

> <Gold.Chemscore.Internal.Correction.Weighted>
   9.000000E+99

> <Gold.Protein.RotatedTorsions>
[ 6907 6896 6895 6894 ] final  -26.70 input  -60.11 | X-H torsion
[ 7974 7965 7964 7962 ] final   54.39 input  175.53 | X-H torsion
[ 8008 7997 7996 7995 ] final  121.57 input   59.86 | X-H torsion
[ 10167 10162 10161 10158 ] final -144.95 input  -65.29 | X-H torsion
[ 10718 10713 10712 10709 ] final   92.25 input   66.30 | X-H torsion
[ 10763 10752 10751 10750 ] final  122.86 input  -60.55 | X-H torsion
[ 11005 11000 10999 10996 ] final  155.14 input  -57.11 | X-H torsion

> <Gold.Protein.ActiveResidues>
 VAL166  LYS551  ARG553  GLY616  TRP617  ASP618  TYR619  PRO620  LYS621  CYS622 
 ASP623  PHE694  ASN695  SER759  ASP760  ASP761  ALA762  ILE779  LEU786  VAL792 
 PHE793  MET794  SER795  GLU796  ALA797  LYS798  CYS799  TRP800  GLU811  SER814 

> <Gold.Protein.RotatedAtoms>
  151.1573  135.0256  159.8694 H   0  0  0  0  0  0  0  0  0  0  0  0  # atno 6907 bound_to 6896
  152.5452  134.1320  159.8453 H   0  0  0  0  0  0  0  0  0  0  0  0  # atno 6908 bound_to 6896
  151.1411  133.4924  159.2629 H   0  0  0  0  0  0  0  0  0  0  0  0  # atno 6909 bound_to 6896
  145.9613  139.4062  143.0246 H   0  0  0  0  0  0  0  0  0  0  0  0  # atno 7974 bound_to 7965
  156.2692  140.2805  156.1329 H   0  0  0  0  0  0  0  0  0  0  0  0  # atno 8008 bound_to 7997
  155.1035  140.0390  157.2721 H   0  0  0  0  0  0  0  0  0  0  0  0  # atno 8009 bound_to 7997
  154.6797  140.2606  155.6927 H   0  0  0  0  0  0  0  0  0  0  0  0  # atno 8010 bound_to 7997
  139.7851  143.8045  152.2643 H   0  0  0  0  0  0  0  0  0  0  0  0  # atno 10167 bound_to 10162
  157.6959  131.0436  150.3853 H   0  0  0  0  0  0  0  0  0  0  0  0  # atno 10718 bound_to 10713
  153.6364  135.3387  155.3058 H   0  0  0  0  0  0  0  0  0  0  0  0  # atno 10763 bound_to 10752
  154.8569  135.4308  154.2051 H   0  0  0  0  0  0  0  0  0  0  0  0  # atno 10764 bound_to 10752
  153.2959  135.7021  153.7322 H   0  0  0  0  0  0  0  0  0  0  0  0  # atno 10765 bound_to 10752
  140.1553  134.8646  157.2507 H   0  0  0  0  0  0  0  0  0  0  0  0  # atno 11005 bound_to 11000
  145.8036  140.9759  143.0986 LP  0  0  0  0  0  0  0  0  0  0  0  0  # atno 17320 bound_to 7965
  144.6816  139.9832  143.7483 LP  0  0  0  0  0  0  0  0  0  0  0  0  # atno 17321 bound_to 7965
  139.8120  144.7332  150.9685 LP  0  0  0  0  0  0  0  0  0  0  0  0  # atno 17342 bound_to 10162
  140.7819  143.4242  151.0794 LP  0  0  0  0  0  0  0  0  0  0  0  0  # atno 17343 bound_to 10162
  156.4262  130.3963  149.6791 LP  0  0  0  0  0  0  0  0  0  0  0  0  # atno 17370 bound_to 10713
  156.4024  130.7681  151.2690 LP  0  0  0  0  0  0  0  0  0  0  0  0  # atno 17371 bound_to 10713
  140.2554  134.3633  155.7426 LP  0  0  0  0  0  0  0  0  0  0  0  0  # atno 17394 bound_to 11000
  141.2204  133.7340  156.9000 LP  0  0  0  0  0  0  0  0  0  0  0  0  # atno 17395 bound_to 11000

$$$$
