AV-unprocessed.smi:2447|AV-procd|sdf|9650|dock8
  -GOLD-   2272013283D 1   1.00000     0.00000
 Structure written by MMmdl.
 29 30  0  0  0  0  0  0  0  0  2 V2000
  149.7661  138.5292  153.2054 N   0  0  0  0  0  0  0  0  0  0  0  0
  150.3298  138.6850  154.4027 C   0  0  0  0  0  0  0  0  0  0  0  0
  150.4639  137.6885  155.1125 O   0  0  0  0  0  0  0  0  0  0  0  0
  150.6883  139.9639  154.6794 N   0  5  0  0  0  0  0  0  0  0  0  0
  150.9803  140.4323  155.9103 C   0  0  0  0  0  0  0  0  0  0  0  0
  150.6885  139.6273  156.9796 N   0  0  0  0  0  0  0  0  0  0  0  0
  151.0977  140.3900  157.9819 C   0  0  0  0  0  0  0  0  0  0  0  0
  151.5986  141.5596  157.5944 N   0  0  0  0  0  0  0  0  0  0  0  0
  152.1442  142.6570  158.3780 C   0  0  0  0  0  0  0  0  0  0  0  0
  152.1149  142.3432  159.8883 C   0  0  0  0  0  0  0  0  0  0  0  0
  152.7028  143.5020  160.7099 C   0  0  0  0  0  0  0  0  0  0  0  0
  151.9775  144.8232  160.4062 C   0  0  0  0  0  0  0  0  0  0  0  0
  152.0033  145.1407  158.9023 C   0  0  0  0  0  0  0  0  0  0  0  0
  151.4147  143.9831  158.0793 C   0  0  0  0  0  0  0  0  0  0  0  0
  151.5312  141.6080  156.2437 N   0  0  0  0  0  0  0  0  0  0  0  0
  149.4646  137.6137  152.9075 H   0  0  0  0  0  0  0  0  0  0  0  0
  149.6457  139.3323  152.6062 H   0  0  0  0  0  0  0  0  0  0  0  0
  151.0301  140.0882  159.0166 H   0  0  0  0  0  0  0  0  0  0  0  0
  153.1874  142.7722  158.0788 H   0  0  0  0  0  0  0  0  0  0  0  0
  151.0898  142.1581  160.2129 H   0  0  0  0  0  0  0  0  0  0  0  0
  152.6725  141.4281  160.0904 H   0  0  0  0  0  0  0  0  0  0  0  0
  152.6326  143.2751  161.7739 H   0  0  0  0  0  0  0  0  0  0  0  0
  153.7651  143.6075  160.4855 H   0  0  0  0  0  0  0  0  0  0  0  0
  150.9434  144.7572  160.7468 H   0  0  0  0  0  0  0  0  0  0  0  0
  152.4369  145.6377  160.9669 H   0  0  0  0  0  0  0  0  0  0  0  0
  151.4450  146.0565  158.7059 H   0  0  0  0  0  0  0  0  0  0  0  0
  153.0296  145.3300  158.5855 H   0  0  0  0  0  0  0  0  0  0  0  0
  151.4827  144.2153  157.0159 H   0  0  0  0  0  0  0  0  0  0  0  0
  150.3521  143.8860  158.3069 H   0  0  0  0  0  0  0  0  0  0  0  0
  1  2  1  0  0  0  0
  1 16  1  0  0  0  0
  1 17  1  0  0  0  0
  2  3  2  0  0  0  0
  2  4  1  0  0  0  0
  4  5  1  0  0  0  0
  5 15  2  0  0  0  0
  5  6  1  0  0  0  0
  6  7  2  0  0  0  0
  7  8  1  0  0  0  0
  7 18  1  0  0  0  0
  8  9  1  0  0  0  0
  8 15  1  0  0  0  0
  9 14  1  0  0  0  0
  9 10  1  0  0  0  0
  9 19  1  0  0  0  0
 10 11  1  0  0  0  0
 10 20  1  0  0  0  0
 10 21  1  0  0  0  0
 11 12  1  0  0  0  0
 11 22  1  0  0  0  0
 11 23  1  0  0  0  0
 12 13  1  0  0  0  0
 12 24  1  0  0  0  0
 12 25  1  0  0  0  0
 13 14  1  0  0  0  0
 13 26  1  0  0  0  0
 13 27  1  0  0  0  0
 14 28  1  0  0  0  0
 14 29  1  0  0  0  0
M  CHG  1   4  -1
M  END
> <s_m_source_file>
AV-unprocessed.smi

> <i_m_source_file_index>
2447

> <i_lp_mmshare_version>
43012

> <i_f3d_flags>
0

> <s_epik_input>
W05IMl1DKD1PKVtOSF1jMW5bY0hdbihuMSlbQ0hdMltDSDJdW0NIMl1bQ0gyXVtDSDJdW0NIMl0y

> <s_epik_cmdline>
J2VwaWtfcHl0aG9uJywgJy1waCcsICc3LjAnLCAnLXRuJywgJzgnLCAnLW1hJywgJzIwMCcsICctbWV0YWxfYmluZGluZycsICctaW1hZScsICc8aW5maWxlLm1hZT4nLCAnLW9tYWUnLCAnPG91dGZpbGUubWFlPic=

> <r_epik_Ionization_Penalty>
6.34251

> <r_epik_Ionization_Penalty_Charging>
2.59949

> <r_epik_Ionization_Penalty_Neutral>
3.74302

> <r_epik_State_Penalty>
2.59208

> <r_epik_Charging_Adjusted_Penalty>
5.19156

> <i_epik_Tot_Q>
-1

> <i_epik_Tot_abs_Q>
1

> <r_epik_Metal_State_Penalty>
0.11953

> <b_epik_Metal_Only>
1

> <s_lp_Force_Field>
OPLS_2005

> <r_lp_Energy>
9.7345

> <b_lp_Chiralities_Consistent>
1

> <s_lp_Variant>
AV-unprocessed.smi:2447-2

> <Gold.Version>
5.8.1

> <Gold.Id.Protein>
6NUR|6NUR_protein|mol2

> <Gold.PLP.Fitness>
41.6844

> <Gold.PLP.PLP>
-32.8688

> <Gold.PLP.part.hbond>
-3.0000

> <Gold.PLP.part.metal>
0.0000

> <Gold.PLP.part.buried>
-2.0075

> <Gold.PLP.part.nonpolar>
-26.8175

> <Gold.PLP.part.repulsive>
0.3460

> <Gold.PLP.ligand.clash>
0.0000

> <Gold.PLP.ligand.torsion>
0.1027

> <Gold.PLP.Chemscore.Hbond>
3.0000

> <Gold.PLP.Chemscore.CHOScore>
0.0000

> <Gold.PLP.Chemscore.Metal>
0.0000

> <Gold.Chemscore.Hbonds>
donor molecule, donor type, donor heavy atom, donor atom, acceptor molecule, acceptor atom, score
      L1  H     1    16       P1  7948  1.00
      L1  H     1    17       P1  7957  1.00
      P1  H  7989  7998       L1     4  1.00

> <Gold.PLP.Chemscore.Internal.Correction>
0.0211

> <Gold.Rescore>
     Score         DG    S(hbond)    S(metal)    S(lipo)     H(rot)  DE(clash)    DE(int)     intcor
     17.76     -19.74       2.64        0.00      68.50       1.00       0.36       1.63       ----

> <Gold.Chemscore.Fitness>
17.7614

> <Gold.Chemscore.DG>
-19.7425

> <Gold.Chemscore.ZeroCoef>
-5.4800

> <Gold.Chemscore.Hbond>
2.6373

> <Gold.Chemscore.Metal>
0.0000

> <Gold.Chemscore.Lipo>
68.4954

> <Gold.Chemscore.Internal_Hbond>
0.0000

> <Gold.Chemscore.DEClash>
0.3559

> <Gold.Chemscore.DEInternal>
1.6252

> <Gold.Chemscore.Rot>
1.0000

> <Gold.Chemscore.Internal.Correction>
   9.000000E+99

> <Gold.Chemscore.Hbonds>
donor molecule, donor type, donor heavy atom, donor atom, acceptor molecule, acceptor atom, score
      L1  H     1    16       P1  7948  0.85
      L1  H     1    17       P1  7957  0.93
      P1  H  7989  7998       L1     4  0.68

> <Gold.Chemscore.Hbond.Weighted>
-8.8085

> <Gold.Chemscore.Metal.Weighted>
-0.0000

> <Gold.Chemscore.Lipo.Weighted>
-8.0140

> <Gold.Chemscore.Internal_Hbond.Weighted>
0.0000

> <Gold.Chemscore.DEClash.Weighted>
0.3559

> <Gold.Chemscore.DEInternal.Weighted>
1.6252

> <Gold.Chemscore.Rot.Weighted>
2.5600

> <Gold.Chemscore.Internal.Correction.Weighted>
   9.000000E+99

> <Gold.Protein.RotatedTorsions>
[ 6907 6896 6895 6894 ] final   40.67 input  -60.11 | X-H torsion
[ 7974 7965 7964 7962 ] final -155.11 input  175.53 | X-H torsion
[ 8008 7997 7996 7995 ] final   87.44 input   59.86 | X-H torsion
[ 10167 10162 10161 10158 ] final   69.73 input  -65.29 | X-H torsion
[ 10718 10713 10712 10709 ] final   94.92 input   66.30 | X-H torsion
[ 10763 10752 10751 10750 ] final   12.06 input  -60.55 | X-H torsion
[ 11005 11000 10999 10996 ] final   72.52 input  -57.11 | X-H torsion

> <Gold.Protein.ActiveResidues>
 VAL166  LYS551  ARG553  GLY616  TRP617  ASP618  TYR619  PRO620  LYS621  CYS622 
 ASP623  PHE694  ASN695  SER759  ASP760  ASP761  ALA762  ILE779  LEU786  VAL792 
 PHE793  MET794  SER795  GLU796  ALA797  LYS798  CYS799  TRP800  GLU811  SER814 

> <Gold.Protein.RotatedAtoms>
  152.1854  134.8718  160.0522 H   0  0  0  0  0  0  0  0  0  0  0  0  # atno 6907 bound_to 6896
  151.9626  133.3695  159.4049 H   0  0  0  0  0  0  0  0  0  0  0  0  # atno 6908 bound_to 6896
  150.6925  134.4148  159.5222 H   0  0  0  0  0  0  0  0  0  0  0  0  # atno 6909 bound_to 6896
  144.7656  140.4295  143.5944 H   0  0  0  0  0  0  0  0  0  0  0  0  # atno 7974 bound_to 7965
  155.9754  140.3382  155.6614 H   0  0  0  0  0  0  0  0  0  0  0  0  # atno 8008 bound_to 7997
  155.6619  140.0717  157.2569 H   0  0  0  0  0  0  0  0  0  0  0  0  # atno 8009 bound_to 7997
  154.4177  140.1707  156.1774 H   0  0  0  0  0  0  0  0  0  0  0  0  # atno 8010 bound_to 7997
  140.0646  144.5204  150.7270 H   0  0  0  0  0  0  0  0  0  0  0  0  # atno 10167 bound_to 10162
  157.6944  131.0528  150.4260 H   0  0  0  0  0  0  0  0  0  0  0  0  # atno 10718 bound_to 10713
  153.1862  135.6835  153.8413 H   0  0  0  0  0  0  0  0  0  0  0  0  # atno 10763 bound_to 10752
  153.7728  135.3193  155.3355 H   0  0  0  0  0  0  0  0  0  0  0  0  # atno 10764 bound_to 10752
  154.8090  135.4730  154.0562 H   0  0  0  0  0  0  0  0  0  0  0  0  # atno 10765 bound_to 10752
  139.9487  134.7266  156.0916 H   0  0  0  0  0  0  0  0  0  0  0  0  # atno 11005 bound_to 11000
  145.6481  139.1560  143.2878 LP  0  0  0  0  0  0  0  0  0  0  0  0  # atno 17320 bound_to 7965
  146.1760  140.6572  142.9211 LP  0  0  0  0  0  0  0  0  0  0  0  0  # atno 17321 bound_to 7965
  140.7155  143.2541  151.4447 LP  0  0  0  0  0  0  0  0  0  0  0  0  # atno 17342 bound_to 10162
  139.5873  144.1577  152.2045 LP  0  0  0  0  0  0  0  0  0  0  0  0  # atno 17343 bound_to 10162
  156.4631  130.4036  149.6564 LP  0  0  0  0  0  0  0  0  0  0  0  0  # atno 17370 bound_to 10713
  156.3672  130.7512  151.2491 LP  0  0  0  0  0  0  0  0  0  0  0  0  # atno 17371 bound_to 10713
  141.1144  133.6632  156.3058 LP  0  0  0  0  0  0  0  0  0  0  0  0  # atno 17394 bound_to 11000
  140.5772  134.5781  157.5471 LP  0  0  0  0  0  0  0  0  0  0  0  0  # atno 17395 bound_to 11000

$$$$
