AV-unprocessed.smi:1389|AV-procd|sdf|5649|dock4
  -GOLD-   22720 5273D 1   1.00000     0.00000
 Structure written by MMmdl.
 52 54  0  0  0  0  0  0  0  0  2 V2000
  147.8053  136.8659  162.5493 C   0  0  0  0  0  0  0  0  0  0  0  0
  147.0738  136.5823  161.2145 C   0  0  1  0  0  0  0  0  0  0  0  0
  148.0469  135.9257  160.1988 C   0  0  0  0  0  0  0  0  0  0  0  0
  148.3151  136.7805  159.0474 N   0  0  0  0  0  0  0  0  0  0  0  0
  149.5277  136.9595  158.5083 C   0  0  0  0  0  0  0  0  0  0  0  0
  150.5443  136.4079  158.9300 O   0  0  0  0  0  0  0  0  0  0  0  0
  149.4756  137.7928  157.4556 N   0  0  0  0  0  0  0  0  0  0  0  0
  150.5410  138.1870  156.5975 C   0  0  0  0  0  0  0  0  0  0  0  0
  151.8685  137.7447  156.8176 C   0  0  0  0  0  0  0  0  0  0  0  0
  152.8996  138.2140  155.9861 C   0  0  0  0  0  0  0  0  0  0  0  0
  152.5701  139.1251  154.9694 C   0  0  0  0  0  0  0  0  0  0  0  0
  151.3149  139.5677  154.7561 N   0  0  0  0  0  0  0  0  0  0  0  0
  150.3064  139.1137  155.5407 C   0  0  0  0  0  0  0  0  0  0  0  0
  149.0101  139.6041  155.2594 N   0  0  0  0  0  0  0  0  0  0  0  0
  148.3611  139.1732  154.0245 C   0  0  0  0  0  0  0  0  0  0  0  0
  147.5629  140.3761  153.5104 C   0  0  0  0  0  0  0  0  0  0  0  0
  147.3760  141.2420  154.7521 C   0  0  0  0  0  0  0  0  0  0  0  0
  148.6760  141.0016  155.5139 C   0  0  0  0  0  0  0  0  0  0  0  0
  145.8344  135.7658  161.4447 N   0  3  0  0  0  0  0  0  0  0  0  0
  146.1115  134.4494  162.0854 C   0  0  0  0  0  0  0  0  0  0  0  0
  144.8240  133.6291  162.2670 C   0  0  0  0  0  0  0  0  0  0  0  0
  143.8946  134.3684  163.0426 O   0  0  0  0  0  0  0  0  0  0  0  0
  143.5222  135.5707  162.3882 C   0  0  0  0  0  0  0  0  0  0  0  0
  144.7571  136.4686  162.1975 C   0  0  0  0  0  0  0  0  0  0  0  0
  148.7393  137.4074  162.4016 H   0  0  0  0  0  0  0  0  0  0  0  0
  148.0459  135.9389  163.0708 H   0  0  0  0  0  0  0  0  0  0  0  0
  147.2192  137.4888  163.2227 H   0  0  0  0  0  0  0  0  0  0  0  0
  146.7620  137.5383  160.7904 H   0  0  0  0  0  0  0  0  0  0  0  0
  148.9865  135.6708  160.6926 H   0  0  0  0  0  0  0  0  0  0  0  0
  147.6293  135.0044  159.7927 H   0  0  0  0  0  0  0  0  0  0  0  0
  147.5300  137.2656  158.6376 H   0  0  0  0  0  0  0  0  0  0  0  0
  148.5560  138.0941  157.1675 H   0  0  0  0  0  0  0  0  0  0  0  0
  152.1165  137.0722  157.6247 H   0  0  0  0  0  0  0  0  0  0  0  0
  153.9202  137.8928  156.1330 H   0  0  0  0  0  0  0  0  0  0  0  0
  153.3348  139.5146  154.3138 H   0  0  0  0  0  0  0  0  0  0  0  0
  149.0797  138.8247  153.2812 H   0  0  0  0  0  0  0  0  0  0  0  0
  147.6834  138.3506  154.2532 H   0  0  0  0  0  0  0  0  0  0  0  0
  148.1535  140.9194  152.7717 H   0  0  0  0  0  0  0  0  0  0  0  0
  146.6203  140.0907  153.0429 H   0  0  0  0  0  0  0  0  0  0  0  0
  147.2066  142.2939  154.5205 H   0  0  0  0  0  0  0  0  0  0  0  0
  146.5282  140.8799  155.3354 H   0  0  0  0  0  0  0  0  0  0  0  0
  148.5634  141.1964  156.5808 H   0  0  0  0  0  0  0  0  0  0  0  0
  149.4514  141.6622  155.1234 H   0  0  0  0  0  0  0  0  0  0  0  0
  146.7951  133.8535  161.4845 H   0  0  0  0  0  0  0  0  0  0  0  0
  146.5892  134.6076  163.0535 H   0  0  0  0  0  0  0  0  0  0  0  0
  144.3888  133.3644  161.3018 H   0  0  0  0  0  0  0  0  0  0  0  0
  145.0454  132.6939  162.7819 H   0  0  0  0  0  0  0  0  0  0  0  0
  143.0501  135.3479  161.4298 H   0  0  0  0  0  0  0  0  0  0  0  0
  142.7768  136.0845  162.9956 H   0  0  0  0  0  0  0  0  0  0  0  0
  145.1390  136.7918  163.1671 H   0  0  0  0  0  0  0  0  0  0  0  0
  144.4220  137.3562  161.6634 H   0  0  0  0  0  0  0  0  0  0  0  0
  145.4507  135.5678  160.5315 H   0  0  0  0  0  0  0  0  0  0  0  0
  1  2  1  0  0  0  0
  1 25  1  0  0  0  0
  1 26  1  0  0  0  0
  1 27  1  0  0  0  0
  2  3  1  0  0  0  0
  2 19  1  0  0  0  0
  2 28  1  0  0  0  0
  3  4  1  0  0  0  0
  3 29  1  0  0  0  0
  3 30  1  0  0  0  0
  4  5  1  0  0  0  0
  4 31  1  0  0  0  0
  5  6  2  0  0  0  0
  5  7  1  0  0  0  0
  7  8  1  0  0  0  0
  7 32  1  0  0  0  0
  8 13  1  0  0  0  0
  8  9  2  0  0  0  0
  9 10  1  0  0  0  0
  9 33  1  0  0  0  0
 10 11  2  0  0  0  0
 10 34  1  0  0  0  0
 11 12  1  0  0  0  0
 11 35  1  0  0  0  0
 12 13  2  0  0  0  0
 13 14  1  0  0  0  0
 14 18  1  0  0  0  0
 14 15  1  0  0  0  0
 15 16  1  0  0  0  0
 15 36  1  0  0  0  0
 15 37  1  0  0  0  0
 16 17  1  0  0  0  0
 16 38  1  0  0  0  0
 16 39  1  0  0  0  0
 17 18  1  0  0  0  0
 17 40  1  0  0  0  0
 17 41  1  0  0  0  0
 18 42  1  0  0  0  0
 18 43  1  0  0  0  0
 19 24  1  0  0  0  0
 19 20  1  0  0  0  0
 19 52  1  0  0  0  0
 20 21  1  0  0  0  0
 20 44  1  0  0  0  0
 20 45  1  0  0  0  0
 21 22  1  0  0  0  0
 21 46  1  0  0  0  0
 21 47  1  0  0  0  0
 22 23  1  0  0  0  0
 23 24  1  0  0  0  0
 23 48  1  0  0  0  0
 23 49  1  0  0  0  0
 24 50  1  0  0  0  0
 24 51  1  0  0  0  0
M  CHG  1  19   1
M  END
> <s_m_source_file>
AV-unprocessed.smi

> <i_m_source_file_index>
1389

> <i_lp_mmshare_version>
43012

> <i_f3d_flags>
0

> <s_epik_input>
W0NIMl0xW0NIMl1PW0NIMl1bQ0gyXU4xW0NASF0oW0NIM10pW0NIMl1bTkhdQyg9TylbTkhdYzJbY0hdW2NIXVtjSF1uYzJOM1tDSDJdW0NIMl1bQ0gyXVtDSDJdMw==

> <s_epik_cmdline>
J2VwaWtfcHl0aG9uJywgJy1waCcsICc3LjAnLCAnLXRuJywgJzgnLCAnLW1hJywgJzIwMCcsICctbWV0YWxfYmluZGluZycsICctaW1hZScsICc8aW5maWxlLm1hZT4nLCAnLW9tYWUnLCAnPG91dGZpbGUubWFlPic=

> <r_lp_tautomer_probability>
1

> <r_epik_Ionization_Penalty>
0.686

> <r_epik_Ionization_Penalty_Charging>
0.602531

> <r_epik_Ionization_Penalty_Neutral>
0.08347

> <r_epik_State_Penalty>
0.679975

> <r_epik_Charging_Adjusted_Penalty>
1.28251

> <i_epik_Tot_Q>
1

> <i_epik_Tot_abs_Q>
1

> <r_epik_Metal_State_Penalty>
0.679055

> <b_epik_Metal_Only>
0

> <s_lp_Force_Field>
OPLS_2005

> <r_lp_Energy>
49.8528

> <b_lp_Chiralities_Consistent>
1

> <s_lp_Variant>
AV-unprocessed.smi:1389-4

> <Gold.Version>
5.8.1

> <Gold.Id.Protein>
6NUR|6NUR_protein|mol2

> <Gold.PLP.Fitness>
39.6386

> <Gold.PLP.PLP>
-35.4041

> <Gold.PLP.part.hbond>
-2.0000

> <Gold.PLP.part.metal>
0.0000

> <Gold.PLP.part.buried>
-5.1880

> <Gold.PLP.part.nonpolar>
-29.6779

> <Gold.PLP.part.repulsive>
0.4202

> <Gold.PLP.ligand.clash>
0.0000

> <Gold.PLP.ligand.torsion>
1.0690

> <Gold.PLP.Chemscore.Hbond>
2.0000

> <Gold.PLP.Chemscore.CHOScore>
0.0000

> <Gold.PLP.Chemscore.Metal>
0.0000

> <Gold.Chemscore.Hbonds>
donor molecule, donor type, donor heavy atom, donor atom, acceptor molecule, acceptor atom, score
      P1  H  6896  6909       L1     6  1.00
      P1  H  7989  7998       L1    12  1.00

> <Gold.PLP.Chemscore.Internal.Correction>
0.3725

> <Gold.Rescore>
     Score         DG    S(hbond)    S(metal)    S(lipo)     H(rot)  DE(clash)    DE(int)     intcor
     15.73     -18.05       1.76        0.00      92.77       1.63       0.04       2.28       ----

> <Gold.Chemscore.Fitness>
15.7264

> <Gold.Chemscore.DG>
-18.0485

> <Gold.Chemscore.ZeroCoef>
-5.4800

> <Gold.Chemscore.Hbond>
1.7631

> <Gold.Chemscore.Metal>
0.0000

> <Gold.Chemscore.Lipo>
92.7712

> <Gold.Chemscore.Internal_Hbond>
0.0000

> <Gold.Chemscore.DEClash>
0.0387

> <Gold.Chemscore.DEInternal>
2.2833

> <Gold.Chemscore.Rot>
1.6307

> <Gold.Chemscore.Internal.Correction>
   9.000000E+99

> <Gold.Chemscore.Hbonds>
donor molecule, donor type, donor heavy atom, donor atom, acceptor molecule, acceptor atom, score
      P1  H  6896  6909       L1     6  0.95
      P1  H  7989  7998       L1    12  0.26

> <Gold.Chemscore.Hbond.Weighted>
-5.8888

> <Gold.Chemscore.Metal.Weighted>
-0.0000

> <Gold.Chemscore.Lipo.Weighted>
-10.8542

> <Gold.Chemscore.Internal_Hbond.Weighted>
0.0000

> <Gold.Chemscore.DEClash.Weighted>
0.0387

> <Gold.Chemscore.DEInternal.Weighted>
2.2833

> <Gold.Chemscore.Rot.Weighted>
4.1746

> <Gold.Chemscore.Internal.Correction.Weighted>
   9.000000E+99

> <Gold.Protein.RotatedTorsions>
[ 6907 6896 6895 6894 ] final   73.58 input  -60.11 | X-H torsion
[ 7974 7965 7964 7962 ] final   94.35 input  175.53 | X-H torsion
[ 8008 7997 7996 7995 ] final   61.44 input   59.86 | X-H torsion
[ 10167 10162 10161 10158 ] final -114.60 input  -65.29 | X-H torsion
[ 10718 10713 10712 10709 ] final -144.87 input   66.30 | X-H torsion
[ 10763 10752 10751 10750 ] final  -54.82 input  -60.55 | X-H torsion
[ 11005 11000 10999 10996 ] final -141.08 input  -57.11 | X-H torsion

> <Gold.Protein.ActiveResidues>
 VAL166  LYS551  ARG553  GLY616  TRP617  ASP618  TYR619  PRO620  LYS621  CYS622 
 ASP623  PHE694  ASN695  SER759  ASP760  ASP761  ALA762  ILE779  LEU786  VAL792 
 PHE793  MET794  SER795  GLU796  ALA797  LYS798  CYS799  TRP800  GLU811  SER814 

> <Gold.Protein.RotatedAtoms>
  152.4931  134.4400  159.9540 H   0  0  0  0  0  0  0  0  0  0  0  0  # atno 6907 bound_to 6896
  151.4384  133.3644  159.2786 H   0  0  0  0  0  0  0  0  0  0  0  0  # atno 6908 bound_to 6896
  150.9105  134.8545  159.7482 H   0  0  0  0  0  0  0  0  0  0  0  0  # atno 6909 bound_to 6896
  145.4668  139.2284  143.2957 H   0  0  0  0  0  0  0  0  0  0  0  0  # atno 7974 bound_to 7965
  155.5985  140.3493  155.4587 H   0  0  0  0  0  0  0  0  0  0  0  0  # atno 8008 bound_to 7997
  156.0247  140.1261  157.0346 H   0  0  0  0  0  0  0  0  0  0  0  0  # atno 8009 bound_to 7997
  154.4328  140.1055  156.5999 H   0  0  0  0  0  0  0  0  0  0  0  0  # atno 8010 bound_to 7997
  140.0992  143.4628  152.1822 H   0  0  0  0  0  0  0  0  0  0  0  0  # atno 10167 bound_to 10162
  156.3754  130.7809  151.1995 H   0  0  0  0  0  0  0  0  0  0  0  0  # atno 10718 bound_to 10713
  154.1810  135.6443  153.5034 H   0  0  0  0  0  0  0  0  0  0  0  0  # atno 10763 bound_to 10752
  153.0059  135.5406  154.6514 H   0  0  0  0  0  0  0  0  0  0  0  0  # atno 10764 bound_to 10752
  154.5878  135.2931  155.0639 H   0  0  0  0  0  0  0  0  0  0  0  0  # atno 10765 bound_to 10752
  140.8360  134.2460  157.4834 H   0  0  0  0  0  0  0  0  0  0  0  0  # atno 11005 bound_to 11000
  146.2420  140.5442  142.8930 LP  0  0  0  0  0  0  0  0  0  0  0  0  # atno 17320 bound_to 7965
  144.7969  140.6140  143.6504 LP  0  0  0  0  0  0  0  0  0  0  0  0  # atno 17321 bound_to 7965
  139.5681  144.7447  151.3967 LP  0  0  0  0  0  0  0  0  0  0  0  0  # atno 17342 bound_to 10162
  140.6987  143.7686  150.7367 LP  0  0  0  0  0  0  0  0  0  0  0  0  # atno 17343 bound_to 10162
  157.7488  131.0360  150.4388 LP  0  0  0  0  0  0  0  0  0  0  0  0  # atno 17370 bound_to 10713
  156.4623  130.4034  149.6569 LP  0  0  0  0  0  0  0  0  0  0  0  0  # atno 17371 bound_to 10713
  139.8704  134.9610  156.4384 LP  0  0  0  0  0  0  0  0  0  0  0  0  # atno 17394 bound_to 11000
  140.8947  133.7822  155.9612 LP  0  0  0  0  0  0  0  0  0  0  0  0  # atno 17395 bound_to 11000

$$$$
