AV-unprocessed.smi:672|AV-procd|sdf|3292|dock6
  -GOLD-   22720 0253D 1   1.00000     0.00000
 Structure written by MMmdl.
 36 37  0  0  0  0  0  0  0  0  1 V2000
  152.6925  132.1616  156.9319 C   0  0  0  0  0  0  0  0  0  0  0  0
  151.2122  132.5554  156.9707 C   0  0  0  0  0  0  0  0  0  0  0  0
  150.4699  132.1232  155.7502 C   0  0  0  0  0  0  0  0  0  0  0  0
  150.3343  130.8372  155.4035 N   0  0  0  0  0  0  0  0  0  0  0  0
  149.5864  130.6804  154.2451 N   0  0  0  0  0  0  0  0  0  0  0  0
  149.1653  131.8561  153.7588 C   0  0  0  0  0  0  0  0  0  0  0  0
  148.3793  131.9879  152.5834 N   0  0  0  0  0  0  0  0  0  0  0  0
  147.2184  132.6482  152.4272 C   0  0  0  0  0  0  0  0  0  0  0  0
  146.6286  133.2716  153.3102 O   0  0  0  0  0  0  0  0  0  0  0  0
  146.7653  132.5423  151.1696 N   0  0  0  0  0  0  0  0  0  0  0  0
  145.5287  133.1398  150.6704 C   0  0  1  0  0  0  0  0  0  0  0  0
  144.3025  132.3259  151.1263 C   0  0  0  0  0  0  0  0  0  0  0  0
  143.3165  133.3367  151.7150 C   0  0  0  0  0  0  0  0  0  0  0  0
  144.2022  134.4566  152.2579 C   0  0  2  0  0  0  0  0  0  0  0  0
  143.3158  136.0246  152.4897 S   0  0  0  0  0  0  0  0  0  0  0  0
  141.9135  135.4589  153.4883 C   0  0  0  0  0  0  0  0  0  0  0  0
  145.3244  134.5647  151.2230 C   0  0  0  0  0  0  0  0  0  0  0  0
  149.6503  133.2634  154.6891 S   0  0  0  0  0  0  0  0  0  0  0  0
  153.2050  132.4918  157.8356 H   0  0  0  0  0  0  0  0  0  0  0  0
  153.1977  132.6139  156.0779 H   0  0  0  0  0  0  0  0  0  0  0  0
  152.8103  131.0802  156.8577 H   0  0  0  0  0  0  0  0  0  0  0  0
  150.7333  132.1136  157.8448 H   0  0  0  0  0  0  0  0  0  0  0  0
  151.1177  133.6366  157.0769 H   0  0  0  0  0  0  0  0  0  0  0  0
  148.7407  131.5180  151.7667 H   0  0  0  0  0  0  0  0  0  0  0  0
  147.3130  132.0113  150.5086 H   0  0  0  0  0  0  0  0  0  0  0  0
  145.5558  133.1731  149.5795 H   0  0  0  0  0  0  0  0  0  0  0  0
  143.8592  131.7579  150.3078 H   0  0  0  0  0  0  0  0  0  0  0  0
  144.5804  131.6091  151.9006 H   0  0  0  0  0  0  0  0  0  0  0  0
  142.6722  133.7215  150.9232 H   0  0  0  0  0  0  0  0  0  0  0  0
  142.6770  132.8950  152.4796 H   0  0  0  0  0  0  0  0  0  0  0  0
  144.6322  134.1477  153.2119 H   0  0  0  0  0  0  0  0  0  0  0  0
  141.2823  136.3052  153.7592 H   0  0  0  0  0  0  0  0  0  0  0  0
  142.2643  134.9825  154.4038 H   0  0  0  0  0  0  0  0  0  0  0  0
  141.3084  134.7436  152.9315 H   0  0  0  0  0  0  0  0  0  0  0  0
  146.2295  135.0023  151.6468 H   0  0  0  0  0  0  0  0  0  0  0  0
  145.0099  135.2163  150.4063 H   0  0  0  0  0  0  0  0  0  0  0  0
  1  2  1  0  0  0  0
  1 19  1  0  0  0  0
  1 20  1  0  0  0  0
  1 21  1  0  0  0  0
  2  3  1  0  0  0  0
  2 22  1  0  0  0  0
  2 23  1  0  0  0  0
  3 18  1  0  0  0  0
  3  4  2  0  0  0  0
  4  5  1  0  0  0  0
  5  6  2  0  0  0  0
  6  7  1  0  0  0  0
  6 18  1  0  0  0  0
  7  8  1  0  0  0  0
  7 24  1  0  0  0  0
  8  9  2  0  0  0  0
  8 10  1  0  0  0  0
 10 11  1  0  0  0  0
 10 25  1  0  0  0  0
 11 17  1  0  0  0  0
 11 12  1  0  0  0  0
 11 26  1  0  0  0  0
 12 13  1  0  0  0  0
 12 27  1  0  0  0  0
 12 28  1  0  0  0  0
 13 14  1  0  0  0  0
 13 29  1  0  0  0  0
 13 30  1  0  0  0  0
 14 15  1  0  0  0  0
 14 17  1  0  0  0  0
 14 31  1  0  0  0  0
 15 16  1  0  0  0  0
 16 32  1  0  0  0  0
 16 33  1  0  0  0  0
 16 34  1  0  0  0  0
 17 35  1  0  0  0  0
 17 36  1  0  0  0  0
M  END
> <s_m_source_file>
AV-unprocessed.smi

> <i_m_source_file_index>
672

> <i_lp_mmshare_version>
43012

> <i_f3d_flags>
0

> <s_epik_input>
W0NIM11bQ0gyXWMxbm5jKHMxKVtOSF1DKD1PKVtOSF1bQ0BASF0yW0NIMl1bQ0gyXVtDQEhdKFtDSDJdMilTW0NIM10=

> <s_epik_cmdline>
J2VwaWtfcHl0aG9uJywgJy1waCcsICc3LjAnLCAnLXRuJywgJzgnLCAnLW1hJywgJzIwMCcsICctbWV0YWxfYmluZGluZycsICctaW1hZScsICc8aW5maWxlLm1hZT4nLCAnLW9tYWUnLCAnPG91dGZpbGUubWFlPic=

> <r_lp_tautomer_probability>
1

> <r_epik_Ionization_Penalty>
0.000422169

> <r_epik_Ionization_Penalty_Charging>
0

> <r_epik_Ionization_Penalty_Neutral>
0.000422169

> <r_epik_State_Penalty>
-0

> <r_epik_Charging_Adjusted_Penalty>
0

> <i_epik_Tot_Q>
0

> <i_epik_Tot_abs_Q>
0

> <r_epik_Metal_State_Penalty>
0.200061

> <b_epik_Metal_Only>
0

> <s_lp_Force_Field>
OPLS_2005

> <r_lp_Energy>
11.6788

> <b_lp_Chiralities_Consistent>
1

> <s_lp_Variant>
AV-unprocessed.smi:672-4

> <Gold.Version>
5.8.1

> <Gold.Id.Protein>
6NUR|6NUR_protein|mol2

> <Gold.PLP.Fitness>
36.8185

> <Gold.PLP.PLP>
-32.5831

> <Gold.PLP.part.hbond>
-2.0000

> <Gold.PLP.part.metal>
0.0000

> <Gold.PLP.part.buried>
-6.9923

> <Gold.PLP.part.nonpolar>
-25.1143

> <Gold.PLP.part.repulsive>
0.2274

> <Gold.PLP.ligand.clash>
0.0000

> <Gold.PLP.ligand.torsion>
0.7578

> <Gold.PLP.Chemscore.Hbond>
1.9120

> <Gold.PLP.Chemscore.CHOScore>
0.0000

> <Gold.PLP.Chemscore.Metal>
0.0000

> <Gold.Chemscore.Hbonds>
donor molecule, donor type, donor heavy atom, donor atom, acceptor molecule, acceptor atom, score
      L1  H     7    24       P1 10747  1.00
      L1  H    10    25       P1 10747  0.90

> <Gold.PLP.Chemscore.Internal.Correction>
0.0151

> <Gold.Rescore>
     Score         DG    S(hbond)    S(metal)    S(lipo)     H(rot)  DE(clash)    DE(int)     intcor
     12.64     -15.99       1.84        0.00      67.29       1.37       0.06       3.29       ----

> <Gold.Chemscore.Fitness>
12.6381

> <Gold.Chemscore.DG>
-15.9893

> <Gold.Chemscore.ZeroCoef>
-5.4800

> <Gold.Chemscore.Hbond>
1.8371

> <Gold.Chemscore.Metal>
0.0000

> <Gold.Chemscore.Lipo>
67.2881

> <Gold.Chemscore.Internal_Hbond>
0.0000

> <Gold.Chemscore.DEClash>
0.0593

> <Gold.Chemscore.DEInternal>
3.2919

> <Gold.Chemscore.Rot>
1.3669

> <Gold.Chemscore.Internal.Correction>
   9.000000E+99

> <Gold.Chemscore.Hbonds>
donor molecule, donor type, donor heavy atom, donor atom, acceptor molecule, acceptor atom, score
      L1  H     7    24       P1 10747  0.96
      L1  H    10    25       P1 10747  0.81

> <Gold.Chemscore.Hbond.Weighted>
-6.1358

> <Gold.Chemscore.Metal.Weighted>
-0.0000

> <Gold.Chemscore.Lipo.Weighted>
-7.8727

> <Gold.Chemscore.Internal_Hbond.Weighted>
0.0000

> <Gold.Chemscore.DEClash.Weighted>
0.0593

> <Gold.Chemscore.DEInternal.Weighted>
3.2919

> <Gold.Chemscore.Rot.Weighted>
3.4992

> <Gold.Chemscore.Internal.Correction.Weighted>
   9.000000E+99

> <Gold.Protein.RotatedTorsions>
[ 6907 6896 6895 6894 ] final -175.01 input  -60.11 | X-H torsion
[ 7974 7965 7964 7962 ] final  143.43 input  175.53 | X-H torsion
[ 8008 7997 7996 7995 ] final -118.73 input   59.86 | X-H torsion
[ 10167 10162 10161 10158 ] final  174.47 input  -65.29 | X-H torsion
[ 10718 10713 10712 10709 ] final -173.52 input   66.30 | X-H torsion
[ 10763 10752 10751 10750 ] final  -14.45 input  -60.55 | X-H torsion
[ 11005 11000 10999 10996 ] final   62.49 input  -57.11 | X-H torsion

> <Gold.Protein.ActiveResidues>
 VAL166  LYS551  ARG553  GLY616  TRP617  ASP618  TYR619  PRO620  LYS621  CYS622 
 ASP623  PHE694  ASN695  SER759  ASP760  ASP761  ALA762  ILE779  LEU786  VAL792 
 PHE793  MET794  SER795  GLU796  ALA797  LYS798  CYS799  TRP800  GLU811  SER814 

> <Gold.Protein.RotatedAtoms>
  151.5816  133.3377  159.3009 H   0  0  0  0  0  0  0  0  0  0  0  0  # atno 6907 bound_to 6896
  150.8310  134.7566  159.6865 H   0  0  0  0  0  0  0  0  0  0  0  0  # atno 6908 bound_to 6896
  152.4394  134.5628  159.9950 H   0  0  0  0  0  0  0  0  0  0  0  0  # atno 6909 bound_to 6896
  144.8921  139.5543  143.5793 H   0  0  0  0  0  0  0  0  0  0  0  0  # atno 7974 bound_to 7965
  155.1044  140.0396  157.2706 H   0  0  0  0  0  0  0  0  0  0  0  0  # atno 8008 bound_to 7997
  154.6733  140.2617  155.6958 H   0  0  0  0  0  0  0  0  0  0  0  0  # atno 8009 bound_to 7997
  156.2667  140.2793  156.1250 H   0  0  0  0  0  0  0  0  0  0  0  0  # atno 8010 bound_to 7997
  139.5143  144.3142  152.0263 H   0  0  0  0  0  0  0  0  0  0  0  0  # atno 10167 bound_to 10162
  156.7715  130.9450  151.3120 H   0  0  0  0  0  0  0  0  0  0  0  0  # atno 10718 bound_to 10713
  153.5284  135.7015  153.5695 H   0  0  0  0  0  0  0  0  0  0  0  0  # atno 10763 bound_to 10752
  153.3714  135.3944  155.1791 H   0  0  0  0  0  0  0  0  0  0  0  0  # atno 10764 bound_to 10752
  154.8687  135.3813  154.4779 H   0  0  0  0  0  0  0  0  0  0  0  0  # atno 10765 bound_to 10752
  140.0089  134.6327  155.9812 H   0  0  0  0  0  0  0  0  0  0  0  0  # atno 11005 bound_to 11000
  146.3060  139.7581  142.9056 LP  0  0  0  0  0  0  0  0  0  0  0  0  # atno 17320 bound_to 7965
  145.3764  141.0351  143.3202 LP  0  0  0  0  0  0  0  0  0  0  0  0  # atno 17321 bound_to 7965
  140.2586  144.4092  150.6194 LP  0  0  0  0  0  0  0  0  0  0  0  0  # atno 17342 bound_to 10162
  140.6173  143.2173  151.6765 LP  0  0  0  0  0  0  0  0  0  0  0  0  # atno 17343 bound_to 10162
  157.6689  130.9033  149.9994 LP  0  0  0  0  0  0  0  0  0  0  0  0  # atno 17370 bound_to 10713
  156.1275  130.3644  149.9786 LP  0  0  0  0  0  0  0  0  0  0  0  0  # atno 17371 bound_to 10713
  141.1697  133.6537  156.4605 LP  0  0  0  0  0  0  0  0  0  0  0  0  # atno 17394 bound_to 11000
  140.4591  134.6858  157.5076 LP  0  0  0  0  0  0  0  0  0  0  0  0  # atno 17395 bound_to 11000

$$$$
