AV-unprocessed.smi:3152|AV-procd|sdf|12018|dock2
  -GOLD-   2272017433D 1   1.00000     0.00000
 Structure written by MMmdl.
 40 41  0  0  0  0  0  0  0  0  1 V2000
  153.0440  143.2343  162.5831 C   0  0  0  0  0  0  0  0  0  0  0  0
  152.8742  142.8077  161.1532 C   0  0  0  0  0  0  0  0  0  0  0  0
  153.5699  141.7764  160.4602 C   0  0  0  0  0  0  0  0  0  0  0  0
  153.1811  141.6488  159.2020 N   0  0  0  0  0  0  0  0  0  0  0  0
  152.2273  142.5913  159.0470 N   0  0  0  0  0  0  0  0  0  0  0  0
  151.5624  142.7395  157.7671 C   0  0  0  0  0  0  0  0  0  0  0  0
  150.0808  142.3493  157.8534 C   0  0  0  0  0  0  0  0  0  0  0  0
  149.5160  142.1497  156.5238 N   0  0  0  0  0  0  0  0  0  0  0  0
  150.3803  141.3742  155.6358 C   0  0  0  0  0  0  0  0  0  0  0  0
  149.5827  140.4198  154.7123 C   0  0  0  0  0  0  0  0  0  0  0  0
  149.4685  141.0640  153.4570 O   0  0  0  0  0  0  0  0  0  0  0  0
  150.3655  139.1100  154.4561 C   0  0  0  0  0  0  0  0  0  0  0  0
  150.3947  138.1843  155.6867 C   0  0  0  0  0  0  0  0  0  0  0  0
  148.9770  137.8842  156.1975 C   0  0  0  0  0  0  0  0  0  0  0  0
  148.1954  139.1783  156.4723 C   0  0  0  0  0  0  0  0  0  0  0  0
  148.1616  140.0799  155.2264 C   0  0  0  0  0  0  0  0  0  0  0  0
  152.0207  143.3042  160.2086 C   0  0  0  0  0  0  0  0  0  0  0  0
  154.0433  143.0097  162.9565 H   0  0  0  0  0  0  0  0  0  0  0  0
  152.3346  142.7290  163.2387 H   0  0  0  0  0  0  0  0  0  0  0  0
  152.8899  144.3064  162.7063 H   0  0  0  0  0  0  0  0  0  0  0  0
  154.3412  141.1191  160.8335 H   0  0  0  0  0  0  0  0  0  0  0  0
  151.6647  143.7755  157.4417 H   0  0  0  0  0  0  0  0  0  0  0  0
  152.0804  142.1233  157.0305 H   0  0  0  0  0  0  0  0  0  0  0  0
  149.9793  141.4352  158.4400 H   0  0  0  0  0  0  0  0  0  0  0  0
  149.5260  143.1254  158.3819 H   0  0  0  0  0  0  0  0  0  0  0  0
  149.3177  143.0493  156.0969 H   0  0  0  0  0  0  0  0  0  0  0  0
  150.9817  142.0480  155.0241 H   0  0  0  0  0  0  0  0  0  0  0  0
  151.0868  140.8053  156.2397 H   0  0  0  0  0  0  0  0  0  0  0  0
  149.2467  140.4156  152.8064 H   0  0  0  0  0  0  0  0  0  0  0  0
  149.9048  138.5657  153.6299 H   0  0  0  0  0  0  0  0  0  0  0  0
  151.3848  139.3331  154.1378 H   0  0  0  0  0  0  0  0  0  0  0  0
  150.8988  137.2516  155.4322 H   0  0  0  0  0  0  0  0  0  0  0  0
  150.9838  138.6378  156.4839 H   0  0  0  0  0  0  0  0  0  0  0  0
  148.4429  137.2873  155.4570 H   0  0  0  0  0  0  0  0  0  0  0  0
  149.0274  137.2794  157.1033 H   0  0  0  0  0  0  0  0  0  0  0  0
  147.1778  138.9358  156.7796 H   0  0  0  0  0  0  0  0  0  0  0  0
  148.6480  139.7145  157.3071 H   0  0  0  0  0  0  0  0  0  0  0  0
  147.5910  140.9846  155.4373 H   0  0  0  0  0  0  0  0  0  0  0  0
  147.6086  139.5609  154.4419 H   0  0  0  0  0  0  0  0  0  0  0  0
  151.2893  144.0970  160.2667 H   0  0  0  0  0  0  0  0  0  0  0  0
  1  2  1  0  0  0  0
  1 18  1  0  0  0  0
  1 19  1  0  0  0  0
  1 20  1  0  0  0  0
  2 17  2  0  0  0  0
  2  3  1  0  0  0  0
  3  4  2  0  0  0  0
  3 21  1  0  0  0  0
  4  5  1  0  0  0  0
  5  6  1  0  0  0  0
  5 17  1  0  0  0  0
  6  7  1  0  0  0  0
  6 22  1  0  0  0  0
  6 23  1  0  0  0  0
  7  8  1  0  0  0  0
  7 24  1  0  0  0  0
  7 25  1  0  0  0  0
  8  9  1  0  0  0  0
  8 26  1  0  0  0  0
  9 10  1  0  0  0  0
  9 27  1  0  0  0  0
  9 28  1  0  0  0  0
 10 16  1  0  0  0  0
 10 11  1  0  0  0  0
 10 12  1  0  0  0  0
 11 29  1  0  0  0  0
 12 13  1  0  0  0  0
 12 30  1  0  0  0  0
 12 31  1  0  0  0  0
 13 14  1  0  0  0  0
 13 32  1  0  0  0  0
 13 33  1  0  0  0  0
 14 15  1  0  0  0  0
 14 34  1  0  0  0  0
 14 35  1  0  0  0  0
 15 16  1  0  0  0  0
 15 36  1  0  0  0  0
 15 37  1  0  0  0  0
 16 38  1  0  0  0  0
 16 39  1  0  0  0  0
 17 40  1  0  0  0  0
M  END
> <s_m_source_file>
AV-unprocessed.smi

> <i_m_source_file_index>
3152

> <i_lp_mmshare_version>
43012

> <i_f3d_flags>
0

> <s_epik_input>
W0NIM11jMVtjSF1ubihbY0hdMSlbQ0gyXVtDSDJdW05IXVtDSDJdQzIoW09IXSlbQ0gyXVtDSDJdW0NIMl1bQ0gyXVtDSDJdMg==

> <s_epik_cmdline>
J2VwaWtfcHl0aG9uJywgJy1waCcsICc3LjAnLCAnLXRuJywgJzgnLCAnLW1hJywgJzIwMCcsICctbWV0YWxfYmluZGluZycsICctaW1hZScsICc8aW5maWxlLm1hZT4nLCAnLW9tYWUnLCAnPG91dGZpbGUubWFlPic=

> <r_lp_tautomer_probability>
1

> <r_epik_Ionization_Penalty>
1.91403

> <r_epik_Ionization_Penalty_Charging>
0

> <r_epik_Ionization_Penalty_Neutral>
1.91403

> <r_epik_State_Penalty>
2.0334

> <r_epik_Charging_Adjusted_Penalty>
2.0334

> <i_epik_Tot_Q>
0

> <i_epik_Tot_abs_Q>
0

> <r_epik_Metal_State_Penalty>
2.03082

> <b_epik_Metal_Only>
0

> <s_lp_Force_Field>
OPLS_2005

> <r_lp_Energy>
20.9393

> <b_lp_Chiralities_Consistent>
1

> <s_lp_Variant>
AV-unprocessed.smi:3152-2

> <Gold.Version>
5.8.1

> <Gold.Id.Protein>
6NUR|6NUR_protein|mol2

> <Gold.PLP.Fitness>
43.5999

> <Gold.PLP.PLP>
-37.9590

> <Gold.PLP.part.hbond>
-3.9289

> <Gold.PLP.part.metal>
0.0000

> <Gold.PLP.part.buried>
-4.0675

> <Gold.PLP.part.nonpolar>
-28.1643

> <Gold.PLP.part.repulsive>
0.0000

> <Gold.PLP.ligand.clash>
0.0000

> <Gold.PLP.ligand.torsion>
1.1911

> <Gold.PLP.Chemscore.Hbond>
2.6484

> <Gold.PLP.Chemscore.CHOScore>
0.0000

> <Gold.PLP.Chemscore.Metal>
0.0000

> <Gold.Chemscore.Hbonds>
donor molecule, donor type, donor heavy atom, donor atom, acceptor molecule, acceptor atom, score
      L1  H     8    26       P1  8028  1.00
      L1  H    11    29       P1  7957  0.77
      P1  H  7989  7998       L1    11  0.03
      P1  H  8011  8017       L1    11  0.85

> <Gold.PLP.Chemscore.Internal.Correction>
0.0777

> <Gold.Rescore>
     Score         DG    S(hbond)    S(metal)    S(lipo)     H(rot)  DE(clash)    DE(int)     intcor
     16.81     -17.93       1.95        0.00      96.45       2.09       0.08       1.04       ----

> <Gold.Chemscore.Fitness>
16.8129

> <Gold.Chemscore.DG>
-17.9289

> <Gold.Chemscore.ZeroCoef>
-5.4800

> <Gold.Chemscore.Hbond>
1.9493

> <Gold.Chemscore.Metal>
0.0000

> <Gold.Chemscore.Lipo>
96.4481

> <Gold.Chemscore.Internal_Hbond>
0.0000

> <Gold.Chemscore.DEClash>
0.0764

> <Gold.Chemscore.DEInternal>
1.0396

> <Gold.Chemscore.Rot>
2.0883

> <Gold.Chemscore.Internal.Correction>
   9.000000E+99

> <Gold.Chemscore.Hbonds>
donor molecule, donor type, donor heavy atom, donor atom, acceptor molecule, acceptor atom, score
      L1  H     8    26       P1  8028  1.00
      L1  H    11    29       P1  7957  0.78
      P1  H  8011  8017       L1    11  0.14

> <Gold.Chemscore.Hbond.Weighted>
-6.5106

> <Gold.Chemscore.Metal.Weighted>
-0.0000

> <Gold.Chemscore.Lipo.Weighted>
-11.2844

> <Gold.Chemscore.Internal_Hbond.Weighted>
0.0000

> <Gold.Chemscore.DEClash.Weighted>
0.0764

> <Gold.Chemscore.DEInternal.Weighted>
1.0396

> <Gold.Chemscore.Rot.Weighted>
5.3461

> <Gold.Chemscore.Internal.Correction.Weighted>
   9.000000E+99

> <Gold.Protein.RotatedTorsions>
[ 6907 6896 6895 6894 ] final -105.44 input  -60.11 | X-H torsion
[ 7974 7965 7964 7962 ] final   -9.25 input  175.53 | X-H torsion
[ 8008 7997 7996 7995 ] final  -45.14 input   59.86 | X-H torsion
[ 10167 10162 10161 10158 ] final   99.63 input  -65.29 | X-H torsion
[ 10718 10713 10712 10709 ] final   32.00 input   66.30 | X-H torsion
[ 10763 10752 10751 10750 ] final -136.09 input  -60.55 | X-H torsion
[ 11005 11000 10999 10996 ] final -105.63 input  -57.11 | X-H torsion

> <Gold.Protein.ActiveResidues>
 VAL166  LYS551  ARG553  GLY616  TRP617  ASP618  TYR619  PRO620  LYS621  CYS622 
 ASP623  PHE694  ASN695  SER759  ASP760  ASP761  ALA762  ILE779  LEU786  VAL792 
 PHE793  MET794  SER795  GLU796  ALA797  LYS798  CYS799  TRP800  GLU811  SER814 

> <Gold.Protein.RotatedAtoms>
  150.7337  134.0126  159.3674 H   0  0  0  0  0  0  0  0  0  0  0  0  # atno 6907 bound_to 6896
  151.8087  135.0685  160.0419 H   0  0  0  0  0  0  0  0  0  0  0  0  # atno 6908 bound_to 6896
  152.3088  133.5695  159.5703 H   0  0  0  0  0  0  0  0  0  0  0  0  # atno 6909 bound_to 6896
  146.2257  140.2588  142.8351 H   0  0  0  0  0  0  0  0  0  0  0  0  # atno 7974 bound_to 7965
  154.4000  140.1404  156.3799 H   0  0  0  0  0  0  0  0  0  0  0  0  # atno 8008 bound_to 7997
  155.8014  140.3476  155.5384 H   0  0  0  0  0  0  0  0  0  0  0  0  # atno 8009 bound_to 7997
  155.8480  140.0937  157.1683 H   0  0  0  0  0  0  0  0  0  0  0  0  # atno 8010 bound_to 7997
  139.7599  144.6957  151.0307 H   0  0  0  0  0  0  0  0  0  0  0  0  # atno 10167 bound_to 10162
  157.2797  130.7249  149.6549 H   0  0  0  0  0  0  0  0  0  0  0  0  # atno 10718 bound_to 10713
  154.8691  135.3683  154.5004 H   0  0  0  0  0  0  0  0  0  0  0  0  # atno 10763 bound_to 10752
  153.5645  135.7022  153.5537 H   0  0  0  0  0  0  0  0  0  0  0  0  # atno 10764 bound_to 10752
  153.3598  135.4049  155.1673 H   0  0  0  0  0  0  0  0  0  0  0  0  # atno 10765 bound_to 10752
  141.1044  133.8824  157.1757 H   0  0  0  0  0  0  0  0  0  0  0  0  # atno 11005 bound_to 11000
  144.9355  140.8022  143.5662 LP  0  0  0  0  0  0  0  0  0  0  0  0  # atno 17320 bound_to 7965
  145.2535  139.2022  143.4930 LP  0  0  0  0  0  0  0  0  0  0  0  0  # atno 17321 bound_to 7965
  140.7806  143.4709  151.0148 LP  0  0  0  0  0  0  0  0  0  0  0  0  # atno 17342 bound_to 10162
  139.8395  143.7583  152.3180 LP  0  0  0  0  0  0  0  0  0  0  0  0  # atno 17343 bound_to 10162
  155.9664  130.4342  150.5038 LP  0  0  0  0  0  0  0  0  0  0  0  0  # atno 17370 bound_to 10713
  157.2980  131.0639  151.2088 LP  0  0  0  0  0  0  0  0  0  0  0  0  # atno 17371 bound_to 10713
  139.9908  135.0065  156.9971 LP  0  0  0  0  0  0  0  0  0  0  0  0  # atno 17394 bound_to 11000
  140.4940  134.1165  155.7238 LP  0  0  0  0  0  0  0  0  0  0  0  0  # atno 17395 bound_to 11000

$$$$
