AV-unprocessed.smi:2822|AV-procd|sdf|10866|dock2
  -GOLD-   2272015313D 1   1.00000     0.00000
 Structure written by MMmdl.
 41 43  0  0  0  0  0  0  0  0  3 V2000
  150.2461  138.8972  154.3541 Cl  0  0  0  0  0  0  0  0  0  0  0  0
  149.0204  140.1119  154.2460 C   0  0  0  0  0  0  0  0  0  0  0  0
  149.1558  141.2964  154.9990 C   0  0  0  0  0  0  0  0  0  0  0  0
  148.2076  142.2545  154.9273 N   0  3  0  0  0  0  0  0  0  0  0  0
  147.1088  142.1358  154.1526 C   0  0  0  0  0  0  0  0  0  0  0  0
  146.9166  140.9743  153.3765 C   0  0  0  0  0  0  0  0  0  0  0  0
  147.8833  139.9386  153.4185 C   0  0  0  0  0  0  0  0  0  0  0  0
  147.7521  138.7576  152.6719 N   0  0  0  0  0  0  0  0  0  0  0  0
  146.5008  138.4056  152.0186 C   0  0  0  0  0  0  0  0  0  0  0  0
  145.5786  137.6139  152.9682 C   0  0  2  0  0  0  0  0  0  0  0  0
  146.3349  136.6111  153.8604 C   0  0  0  0  0  0  0  0  0  0  0  0
  146.8123  135.4426  153.0836 N   0  3  1  0  0  0  0  0  0  0  0  0
  147.5664  134.4810  153.9280 C   0  0  0  0  0  0  0  0  0  0  0  0
  148.1258  133.3219  153.0880 C   0  0  0  0  0  0  0  0  0  0  0  0
  147.0020  132.6147  152.3208 C   0  0  0  0  0  0  0  0  0  0  0  0
  146.2254  133.6320  151.4748 C   0  0  0  0  0  0  0  0  0  0  0  0
  145.6984  134.7961  152.3383 C   0  0  2  0  0  0  0  0  0  0  0  0
  144.9671  135.8391  151.4725 C   0  0  0  0  0  0  0  0  0  0  0  0
  144.5337  136.9345  152.2720 O   0  0  0  0  0  0  0  0  0  0  0  0
  149.9908  141.5037  155.6526 H   0  0  0  0  0  0  0  0  0  0  0  0
  146.4211  142.9689  154.1750 H   0  0  0  0  0  0  0  0  0  0  0  0
  146.0335  140.8996  152.7598 H   0  0  0  0  0  0  0  0  0  0  0  0
  148.4744  138.0532  152.7366 H   0  0  0  0  0  0  0  0  0  0  0  0
  146.0062  139.3034  151.6486 H   0  0  0  0  0  0  0  0  0  0  0  0
  146.7322  137.7922  151.1470 H   0  0  0  0  0  0  0  0  0  0  0  0
  145.0942  138.3352  153.6280 H   0  0  0  0  0  0  0  0  0  0  0  0
  147.1765  137.1036  154.3491 H   0  0  0  0  0  0  0  0  0  0  0  0
  145.6721  136.2614  154.6539 H   0  0  0  0  0  0  0  0  0  0  0  0
  148.3872  134.9985  154.4258 H   0  0  0  0  0  0  0  0  0  0  0  0
  146.9142  134.0929  154.7121 H   0  0  0  0  0  0  0  0  0  0  0  0
  148.8700  133.7009  152.3863 H   0  0  0  0  0  0  0  0  0  0  0  0
  148.6417  132.6098  153.7326 H   0  0  0  0  0  0  0  0  0  0  0  0
  147.4148  131.8314  151.6842 H   0  0  0  0  0  0  0  0  0  0  0  0
  146.3262  132.1240  153.0225 H   0  0  0  0  0  0  0  0  0  0  0  0
  146.8749  134.0191  150.6882 H   0  0  0  0  0  0  0  0  0  0  0  0
  145.3961  133.1334  150.9716 H   0  0  0  0  0  0  0  0  0  0  0  0
  144.9904  134.3979  153.0678 H   0  0  0  0  0  0  0  0  0  0  0  0
  145.5986  136.1870  150.6549 H   0  0  0  0  0  0  0  0  0  0  0  0
  144.0893  135.3881  151.0091 H   0  0  0  0  0  0  0  0  0  0  0  0
  147.4599  135.7931  152.3924 H   0  0  0  0  0  0  0  0  0  0  0  0
  148.3274  143.1040  155.4806 H   0  0  0  0  0  0  0  0  0  0  0  0
  1  2  1  0  0  0  0
  2  7  1  0  0  0  0
  2  3  2  0  0  0  0
  3  4  1  0  0  0  0
  3 20  1  0  0  0  0
  4  5  2  0  0  0  0
  4 41  1  0  0  0  0
  5  6  1  0  0  0  0
  5 21  1  0  0  0  0
  6  7  2  0  0  0  0
  6 22  1  0  0  0  0
  7  8  1  0  0  0  0
  8  9  1  0  0  0  0
  8 23  1  0  0  0  0
  9 10  1  0  0  0  0
  9 24  1  0  0  0  0
  9 25  1  0  0  0  0
 10 19  1  0  0  0  0
 10 11  1  0  0  0  0
 10 26  1  0  0  0  0
 11 12  1  0  0  0  0
 11 27  1  0  0  0  0
 11 28  1  0  0  0  0
 12 17  1  0  0  0  0
 12 13  1  0  0  0  0
 12 40  1  0  0  0  0
 13 14  1  0  0  0  0
 13 29  1  0  0  0  0
 13 30  1  0  0  0  0
 14 15  1  0  0  0  0
 14 31  1  0  0  0  0
 14 32  1  0  0  0  0
 15 16  1  0  0  0  0
 15 33  1  0  0  0  0
 15 34  1  0  0  0  0
 16 17  1  0  0  0  0
 16 35  1  0  0  0  0
 16 36  1  0  0  0  0
 17 18  1  0  0  0  0
 17 37  1  0  0  0  0
 18 19  1  0  0  0  0
 18 38  1  0  0  0  0
 18 39  1  0  0  0  0
M  CHG  1   4   1
M  CHG  1  12   1
M  END
> <s_m_source_file>
AV-unprocessed.smi

> <i_m_source_file_index>
2822

> <i_lp_mmshare_version>
43012

> <i_f3d_flags>
0

> <s_epik_input>
Q2xjMVtjSF1uW2NIXVtjSF1jMVtOSF1bQ0gyXVtDQEhdKFtDSDJdMilPW0NIMl1bQ0BASF0oTjIzKVtDSDJdW0NIMl1bQ0gyXVtDSDJdMw==

> <s_epik_cmdline>
J2VwaWtfcHl0aG9uJywgJy1waCcsICc3LjAnLCAnLXRuJywgJzgnLCAnLW1hJywgJzIwMCcsICctbWV0YWxfYmluZGluZycsICctaW1hZScsICc8aW5maWxlLm1hZT4nLCAnLW9tYWUnLCAnPG91dGZpbGUubWFlPic=

> <r_lp_tautomer_probability>
1

> <r_epik_Ionization_Penalty>
0.254999

> <r_epik_Ionization_Penalty_Charging>
0.254956

> <r_epik_Ionization_Penalty_Neutral>
4.33524e-05

> <r_epik_State_Penalty>
0.230978

> <r_epik_Charging_Adjusted_Penalty>
0.485934

> <i_epik_Tot_Q>
2

> <i_epik_Tot_abs_Q>
2

> <r_epik_Metal_State_Penalty>
3.47007

> <b_epik_Metal_Only>
0

> <s_lp_Force_Field>
OPLS_2005

> <r_lp_Energy>
41.9654

> <b_lp_Chiralities_Consistent>
1

> <s_lp_Variant>
AV-unprocessed.smi:2822-7

> <Gold.Version>
5.8.1

> <Gold.Id.Protein>
6NUR|6NUR_protein|mol2

> <Gold.PLP.Fitness>
49.7297

> <Gold.PLP.PLP>
-36.1558

> <Gold.PLP.part.hbond>
-4.0000

> <Gold.PLP.part.metal>
0.0000

> <Gold.PLP.part.buried>
-0.1941

> <Gold.PLP.part.nonpolar>
-33.3098

> <Gold.PLP.part.repulsive>
1.0409

> <Gold.PLP.ligand.clash>
0.0000

> <Gold.PLP.ligand.torsion>
0.3925

> <Gold.PLP.Chemscore.Hbond>
4.7840

> <Gold.PLP.Chemscore.CHOScore>
0.0000

> <Gold.PLP.Chemscore.Metal>
0.0000

> <Gold.Chemscore.Hbonds>
donor molecule, donor type, donor heavy atom, donor atom, acceptor molecule, acceptor atom, score
      L1  H     4    41       P1  8028  2.00
      L1  H     8    23       P1  7948  0.72
      L1  H    12    40       P1  7948  2.00

> <Gold.PLP.Chemscore.Internal.Correction>
0.0068

> <Gold.Rescore>
     Score         DG    S(hbond)    S(metal)    S(lipo)     H(rot)  DE(clash)    DE(int)     intcor
     20.12     -22.19       2.82        0.00      88.53       1.20       1.66       0.42       ----

> <Gold.Chemscore.Fitness>
20.1181

> <Gold.Chemscore.DG>
-22.1916

> <Gold.Chemscore.ZeroCoef>
-5.4800

> <Gold.Chemscore.Hbond>
2.8192

> <Gold.Chemscore.Metal>
0.0000

> <Gold.Chemscore.Lipo>
88.5270

> <Gold.Chemscore.Internal_Hbond>
0.0000

> <Gold.Chemscore.DEClash>
1.6553

> <Gold.Chemscore.DEInternal>
0.4182

> <Gold.Chemscore.Rot>
1.1962

> <Gold.Chemscore.Internal.Correction>
   9.000000E+99

> <Gold.Chemscore.Hbonds>
donor molecule, donor type, donor heavy atom, donor atom, acceptor molecule, acceptor atom, score
      L1  H     4    41       P1  8028  0.93
      L1  H     8    23       P1  7948  0.70
      L1  H    12    40       P1  7948  0.97

> <Gold.Chemscore.Hbond.Weighted>
-9.4163

> <Gold.Chemscore.Metal.Weighted>
-0.0000

> <Gold.Chemscore.Lipo.Weighted>
-10.3577

> <Gold.Chemscore.Internal_Hbond.Weighted>
0.0000

> <Gold.Chemscore.DEClash.Weighted>
1.6553

> <Gold.Chemscore.DEInternal.Weighted>
0.4182

> <Gold.Chemscore.Rot.Weighted>
3.0623

> <Gold.Chemscore.Internal.Correction.Weighted>
   9.000000E+99

> <Gold.Protein.RotatedTorsions>
[ 6907 6896 6895 6894 ] final -112.17 input  -60.11 | X-H torsion
[ 7974 7965 7964 7962 ] final  -74.74 input  175.53 | X-H torsion
[ 8008 7997 7996 7995 ] final   22.02 input   59.86 | X-H torsion
[ 10167 10162 10161 10158 ] final  109.44 input  -65.29 | X-H torsion
[ 10718 10713 10712 10709 ] final    0.79 input   66.30 | X-H torsion
[ 10763 10752 10751 10750 ] final   43.86 input  -60.55 | X-H torsion
[ 11005 11000 10999 10996 ] final -118.52 input  -57.11 | X-H torsion

> <Gold.Protein.ActiveResidues>
 VAL166  LYS551  ARG553  GLY616  TRP617  ASP618  TYR619  PRO620  LYS621  CYS622 
 ASP623  PHE694  ASN695  SER759  ASP760  ASP761  ALA762  ILE779  LEU786  VAL792 
 PHE793  MET794  SER795  GLU796  ALA797  LYS798  CYS799  TRP800  GLU811  SER814 

> <Gold.Protein.RotatedAtoms>
  150.7740  133.9128  159.3374 H   0  0  0  0  0  0  0  0  0  0  0  0  # atno 6907 bound_to 6896
  151.7008  135.0928  160.0260 H   0  0  0  0  0  0  0  0  0  0  0  0  # atno 6908 bound_to 6896
  152.3769  133.6455  159.6166 H   0  0  0  0  0  0  0  0  0  0  0  0  # atno 6909 bound_to 6896
  145.6352  140.9326  143.1065 H   0  0  0  0  0  0  0  0  0  0  0  0  # atno 7974 bound_to 7965
  154.9593  140.3076  155.5038 H   0  0  0  0  0  0  0  0  0  0  0  0  # atno 8008 bound_to 7997
  156.2979  140.2304  156.4616 H   0  0  0  0  0  0  0  0  0  0  0  0  # atno 8009 bound_to 7997
  154.7980  140.0436  157.1239 H   0  0  0  0  0  0  0  0  0  0  0  0  # atno 8010 bound_to 7997
  139.6767  144.7121  151.1590 H   0  0  0  0  0  0  0  0  0  0  0  0  # atno 10167 bound_to 10162
  156.8386  130.5513  149.5680 H   0  0  0  0  0  0  0  0  0  0  0  0  # atno 10718 bound_to 10713
  152.9852  135.6088  154.3179 H   0  0  0  0  0  0  0  0  0  0  0  0  # atno 10763 bound_to 10752
  154.2891  135.2775  155.2665 H   0  0  0  0  0  0  0  0  0  0  0  0  # atno 10764 bound_to 10752
  154.4968  135.5877  153.6557 H   0  0  0  0  0  0  0  0  0  0  0  0  # atno 10765 bound_to 10752
  141.0280  134.0024  157.3186 H   0  0  0  0  0  0  0  0  0  0  0  0  # atno 11005 bound_to 11000
  144.7178  139.8134  143.7392 LP  0  0  0  0  0  0  0  0  0  0  0  0  # atno 17320 bound_to 7965
  146.1325  139.4363  143.0160 LP  0  0  0  0  0  0  0  0  0  0  0  0  # atno 17321 bound_to 7965
  140.7638  143.5761  150.8943 LP  0  0  0  0  0  0  0  0  0  0  0  0  # atno 17342 bound_to 10162
  139.9431  143.6359  152.3049 LP  0  0  0  0  0  0  0  0  0  0  0  0  # atno 17343 bound_to 10162
  156.0893  130.5883  150.9705 LP  0  0  0  0  0  0  0  0  0  0  0  0  # atno 17370 bound_to 10713
  157.6368  131.0915  150.8332 LP  0  0  0  0  0  0  0  0  0  0  0  0  # atno 17371 bound_to 10713
  139.9189  135.0199  156.7987 LP  0  0  0  0  0  0  0  0  0  0  0  0  # atno 17394 bound_to 11000
  140.6457  133.9777  155.7730 LP  0  0  0  0  0  0  0  0  0  0  0  0  # atno 17395 bound_to 11000

$$$$
