AV-unprocessed.smi:1560|AV-procd|sdf|6280|dock2
  -GOLD-   22720 6473D 1   1.00000     0.00000
 Structure written by MMmdl.
 46 47  0  0  0  0  0  0  0  0  2 V2000
  146.8861  131.1546  154.2430 C   0  0  0  0  0  0  0  0  0  0  0  0
  146.4703  132.5370  154.7777 C   0  0  0  0  0  0  0  0  0  0  0  0
  146.9337  133.7627  153.9264 C   0  0  2  0  0  0  0  0  0  0  0  0
  148.4721  133.6244  153.7675 C   0  0  0  0  0  0  0  0  0  0  0  0
  146.6444  135.0748  154.7271 C   0  0  0  0  0  0  0  0  0  0  0  0
  147.2018  136.2757  154.1066 N   0  0  0  0  0  0  0  0  0  0  0  0
  147.3783  137.4607  154.7099 C   0  0  0  0  0  0  0  0  0  0  0  0
  147.0213  137.6966  155.8645 O   0  0  0  0  0  0  0  0  0  0  0  0
  148.0637  138.5492  153.8771 C   0  0  0  0  0  0  0  0  0  0  0  0
  149.4481  138.7771  154.3187 N   0  0  0  0  0  0  0  0  0  0  0  0
  150.3149  137.6710  154.3593 C   0  0  0  0  0  0  0  0  0  0  0  0
  151.6022  137.7916  154.7361 C   0  0  0  0  0  0  0  0  0  0  0  0
  152.0920  139.1132  155.1083 C   0  0  0  0  0  0  0  0  0  0  0  0
  153.2639  139.2417  155.4573 O   0  0  0  0  0  0  0  0  0  0  0  0
  151.2127  140.1558  155.0499 N   0  5  0  0  0  0  0  0  0  0  0  0
  149.9069  140.0191  154.6623 C   0  0  0  0  0  0  0  0  0  0  0  0
  149.1314  140.9748  154.6117 O   0  0  0  0  0  0  0  0  0  0  0  0
  146.2683  133.7655  152.5924 N   0  0  0  0  0  0  0  0  0  0  0  0
  144.8012  133.7855  152.6235 C   0  0  0  0  0  0  0  0  0  0  0  0
  144.1968  133.9337  151.2166 C   0  0  0  0  0  0  0  0  0  0  0  0
  144.6669  132.8851  150.3779 O   0  0  0  0  0  0  0  0  0  0  0  0
  146.0858  132.8661  150.2763 C   0  0  0  0  0  0  0  0  0  0  0  0
  146.7017  132.7034  151.6761 C   0  0  0  0  0  0  0  0  0  0  0  0
  146.5146  130.3675  154.8995 H   0  0  0  0  0  0  0  0  0  0  0  0
  147.9696  131.0494  154.1947 H   0  0  0  0  0  0  0  0  0  0  0  0
  146.4842  130.9636  153.2483 H   0  0  0  0  0  0  0  0  0  0  0  0
  145.3881  132.5544  154.9070 H   0  0  0  0  0  0  0  0  0  0  0  0
  146.8651  132.6160  155.7907 H   0  0  0  0  0  0  0  0  0  0  0  0
  148.9616  133.3829  154.7120 H   0  0  0  0  0  0  0  0  0  0  0  0
  148.9307  134.5471  153.4116 H   0  0  0  0  0  0  0  0  0  0  0  0
  148.7353  132.8370  153.0607 H   0  0  0  0  0  0  0  0  0  0  0  0
  145.5718  135.2492  154.8001 H   0  0  0  0  0  0  0  0  0  0  0  0
  147.0003  134.9929  155.7542 H   0  0  0  0  0  0  0  0  0  0  0  0
  147.5327  136.1814  153.1573 H   0  0  0  0  0  0  0  0  0  0  0  0
  148.0423  138.2903  152.8165 H   0  0  0  0  0  0  0  0  0  0  0  0
  147.4767  139.4649  153.9612 H   0  0  0  0  0  0  0  0  0  0  0  0
  149.8755  136.7306  154.0606 H   0  0  0  0  0  0  0  0  0  0  0  0
  152.2565  136.9324  154.7583 H   0  0  0  0  0  0  0  0  0  0  0  0
  144.4188  132.8680  153.0707 H   0  0  0  0  0  0  0  0  0  0  0  0
  144.4353  134.6110  153.2313 H   0  0  0  0  0  0  0  0  0  0  0  0
  143.1086  133.8884  151.2656 H   0  0  0  0  0  0  0  0  0  0  0  0
  144.4580  134.9007  150.7841 H   0  0  0  0  0  0  0  0  0  0  0  0
  146.3857  132.0394  149.6322 H   0  0  0  0  0  0  0  0  0  0  0  0
  146.4377  133.7847  149.8039 H   0  0  0  0  0  0  0  0  0  0  0  0
  147.7842  132.6994  151.5648 H   0  0  0  0  0  0  0  0  0  0  0  0
  146.4208  131.7265  152.0685 H   0  0  0  0  0  0  0  0  0  0  0  0
  1  2  1  0  0  0  0
  1 24  1  0  0  0  0
  1 25  1  0  0  0  0
  1 26  1  0  0  0  0
  2  3  1  0  0  0  0
  2 27  1  0  0  0  0
  2 28  1  0  0  0  0
  3  4  1  0  0  0  0
  3  5  1  0  0  0  0
  3 18  1  0  0  0  0
  4 29  1  0  0  0  0
  4 30  1  0  0  0  0
  4 31  1  0  0  0  0
  5  6  1  0  0  0  0
  5 32  1  0  0  0  0
  5 33  1  0  0  0  0
  6  7  1  0  0  0  0
  6 34  1  0  0  0  0
  7  8  2  0  0  0  0
  7  9  1  0  0  0  0
  9 10  1  0  0  0  0
  9 35  1  0  0  0  0
  9 36  1  0  0  0  0
 10 16  1  0  0  0  0
 10 11  1  0  0  0  0
 11 12  2  0  0  0  0
 11 37  1  0  0  0  0
 12 13  1  0  0  0  0
 12 38  1  0  0  0  0
 13 14  2  0  0  0  0
 13 15  1  0  0  0  0
 15 16  1  0  0  0  0
 16 17  2  0  0  0  0
 18 23  1  0  0  0  0
 18 19  1  0  0  0  0
 19 20  1  0  0  0  0
 19 39  1  0  0  0  0
 19 40  1  0  0  0  0
 20 21  1  0  0  0  0
 20 41  1  0  0  0  0
 20 42  1  0  0  0  0
 21 22  1  0  0  0  0
 22 23  1  0  0  0  0
 22 43  1  0  0  0  0
 22 44  1  0  0  0  0
 23 45  1  0  0  0  0
 23 46  1  0  0  0  0
M  CHG  1  15  -1
M  END
> <s_m_source_file>
AV-unprocessed.smi

> <i_m_source_file_index>
1560

> <i_lp_mmshare_version>
43012

> <i_f3d_flags>
0

> <s_epik_input>
W0NIMl0xW0NIMl1PW0NIMl1bQ0gyXU4xW0NAQF0oW0NIM10pKFtDSDJdW0NIM10pW0NIMl1bTkhdQyg9TylbQ0gyXW4yW2NIXVtjSF1jKD1PKVtuSF1jMj1P

> <s_epik_cmdline>
J2VwaWtfcHl0aG9uJywgJy1waCcsICc3LjAnLCAnLXRuJywgJzgnLCAnLW1hJywgJzIwMCcsICctbWV0YWxfYmluZGluZycsICctaW1hZScsICc8aW5maWxlLm1hZT4nLCAnLW9tYWUnLCAnPG91dGZpbGUubWFlPic=

> <r_lp_tautomer_probability>
0.999537

> <r_epik_Ionization_Penalty>
3.35108

> <r_epik_Ionization_Penalty_Charging>
2.65778e-08

> <r_epik_Ionization_Penalty_Neutral>
3.35108

> <r_epik_State_Penalty>
3.36199

> <r_epik_Charging_Adjusted_Penalty>
3.36199

> <i_epik_Tot_Q>
-1

> <i_epik_Tot_abs_Q>
1

> <r_epik_Metal_State_Penalty>
0.748914

> <b_epik_Metal_Only>
1

> <s_lp_Force_Field>
OPLS_2005

> <r_lp_Energy>
50.983

> <b_lp_Chiralities_Consistent>
1

> <s_lp_Variant>
AV-unprocessed.smi:1560-6

> <Gold.Version>
5.8.1

> <Gold.Id.Protein>
6NUR|6NUR_protein|mol2

> <Gold.PLP.Fitness>
41.9125

> <Gold.PLP.PLP>
-31.8889

> <Gold.PLP.part.hbond>
-3.0000

> <Gold.PLP.part.metal>
0.0000

> <Gold.PLP.part.buried>
-2.6347

> <Gold.PLP.part.nonpolar>
-26.8086

> <Gold.PLP.part.repulsive>
0.4465

> <Gold.PLP.ligand.clash>
0.0000

> <Gold.PLP.ligand.torsion>
0.4745

> <Gold.PLP.Chemscore.Hbond>
2.7000

> <Gold.PLP.Chemscore.CHOScore>
0.9147

> <Gold.PLP.Chemscore.Metal>
0.0000

> <Gold.Chemscore.Hbonds>
donor molecule, donor type, donor heavy atom, donor atom, acceptor molecule, acceptor atom, score
      L1  H     6    34       P1  7948  1.00
      P1  H  7989  7998       L1    15  0.60
      P1  H  7997  8008       L1    14  1.00
      L1  C    11    37       P1  7948  0.91

> <Gold.PLP.Chemscore.Internal.Correction>
0.1285

> <Gold.Rescore>
     Score         DG    S(hbond)    S(metal)    S(lipo)     H(rot)  DE(clash)    DE(int)     intcor
     12.42     -13.00       1.97        0.00      61.03       2.42       0.02       0.55       ----

> <Gold.Chemscore.Fitness>
12.4230

> <Gold.Chemscore.DG>
-12.9991

> <Gold.Chemscore.ZeroCoef>
-5.4800

> <Gold.Chemscore.Hbond>
1.9679

> <Gold.Chemscore.Metal>
0.0000

> <Gold.Chemscore.Lipo>
61.0307

> <Gold.Chemscore.Internal_Hbond>
0.0000

> <Gold.Chemscore.DEClash>
0.0211

> <Gold.Chemscore.DEInternal>
0.5550

> <Gold.Chemscore.Rot>
2.4197

> <Gold.Chemscore.Internal.Correction>
   9.000000E+99

> <Gold.Chemscore.Hbonds>
donor molecule, donor type, donor heavy atom, donor atom, acceptor molecule, acceptor atom, score
      L1  H     6    34       P1  7948  0.95
      P1  H  7989  7998       L1    15  0.01
      P1  H  7997  8008       L1    14  0.97

> <Gold.Chemscore.Hbond.Weighted>
-6.5729

> <Gold.Chemscore.Metal.Weighted>
-0.0000

> <Gold.Chemscore.Lipo.Weighted>
-7.1406

> <Gold.Chemscore.Internal_Hbond.Weighted>
0.0000

> <Gold.Chemscore.DEClash.Weighted>
0.0211

> <Gold.Chemscore.DEInternal.Weighted>
0.5550

> <Gold.Chemscore.Rot.Weighted>
6.1943

> <Gold.Chemscore.Internal.Correction.Weighted>
   9.000000E+99

> <Gold.Protein.RotatedTorsions>
[ 6907 6896 6895 6894 ] final -109.32 input  -60.11 | X-H torsion
[ 7974 7965 7964 7962 ] final -166.74 input  175.53 | X-H torsion
[ 8008 7997 7996 7995 ] final  -32.15 input   59.86 | X-H torsion
[ 10167 10162 10161 10158 ] final   12.20 input  -65.29 | X-H torsion
[ 10718 10713 10712 10709 ] final  -91.69 input   66.30 | X-H torsion
[ 10763 10752 10751 10750 ] final  155.85 input  -60.55 | X-H torsion
[ 11005 11000 10999 10996 ] final   97.62 input  -57.11 | X-H torsion

> <Gold.Protein.ActiveResidues>
 VAL166  LYS551  ARG553  GLY616  TRP617  ASP618  TYR619  PRO620  LYS621  CYS622 
 ASP623  PHE694  ASN695  SER759  ASP760  ASP761  ALA762  ILE779  LEU786  VAL792 
 PHE793  MET794  SER795  GLU796  ALA797  LYS798  CYS799  TRP800  GLU811  SER814 

> <Gold.Protein.RotatedAtoms>
  150.7555  133.9547  159.3496 H   0  0  0  0  0  0  0  0  0  0  0  0  # atno 6907 bound_to 6896
  151.7467  135.0840  160.0334 H   0  0  0  0  0  0  0  0  0  0  0  0  # atno 6908 bound_to 6896
  152.3493  133.6123  159.5969 H   0  0  0  0  0  0  0  0  0  0  0  0  # atno 6909 bound_to 6896
  144.7238  140.2621  143.6263 H   0  0  0  0  0  0  0  0  0  0  0  0  # atno 7974 bound_to 7965
  154.4189  140.1745  156.1681 H   0  0  0  0  0  0  0  0  0  0  0  0  # atno 8008 bound_to 7997
  155.9783  140.3380  155.6615 H   0  0  0  0  0  0  0  0  0  0  0  0  # atno 8009 bound_to 7997
  155.6534  140.0693  157.2570 H   0  0  0  0  0  0  0  0  0  0  0  0  # atno 8010 bound_to 7997
  140.6083  143.8461  150.7038 H   0  0  0  0  0  0  0  0  0  0  0  0  # atno 10167 bound_to 10162
  155.9996  130.4958  150.5513 H   0  0  0  0  0  0  0  0  0  0  0  0  # atno 10718 bound_to 10713
  154.1749  135.2802  155.3070 H   0  0  0  0  0  0  0  0  0  0  0  0  # atno 10763 bound_to 10752
  154.6047  135.5518  153.7414 H   0  0  0  0  0  0  0  0  0  0  0  0  # atno 10764 bound_to 10752
  153.0154  135.6400  154.1889 H   0  0  0  0  0  0  0  0  0  0  0  0  # atno 10765 bound_to 10752
  139.8775  134.9010  156.4335 H   0  0  0  0  0  0  0  0  0  0  0  0  # atno 11005 bound_to 11000
  145.8125  139.2009  143.1984 LP  0  0  0  0  0  0  0  0  0  0  0  0  # atno 17320 bound_to 7965
  146.0583  140.7997  142.9747 LP  0  0  0  0  0  0  0  0  0  0  0  0  # atno 17321 bound_to 7965
  140.2023  143.3949  152.1782 LP  0  0  0  0  0  0  0  0  0  0  0  0  # atno 17342 bound_to 10162
  139.5342  144.7191  151.4951 LP  0  0  0  0  0  0  0  0  0  0  0  0  # atno 17343 bound_to 10162
  157.3436  131.0721  151.1769 LP  0  0  0  0  0  0  0  0  0  0  0  0  # atno 17370 bound_to 10713
  157.2609  130.6658  149.5974 LP  0  0  0  0  0  0  0  0  0  0  0  0  # atno 17371 bound_to 10713
  140.9050  133.7752  155.9724 LP  0  0  0  0  0  0  0  0  0  0  0  0  # atno 17394 bound_to 11000
  140.8609  134.2841  157.5235 LP  0  0  0  0  0  0  0  0  0  0  0  0  # atno 17395 bound_to 11000

$$$$
