AV-unprocessed.smi:224|AV-procd|sdf|1708|dock10
  -GOLD-   2262020173D 1   1.00000     0.00000
 Structure written by MMmdl.
 56 59  0  0  0  0  0  0  0  0  2 V2000
  145.0862  135.7881  152.7718 C   0  0  0  0  0  0  0  0  0  0  0  0
  145.3912  137.2837  152.6166 C   0  0  1  0  0  0  0  0  0  0  0  0
  144.3140  137.8844  151.9264 O   0  0  0  0  0  0  0  0  0  0  0  0
  145.5699  137.9856  153.9759 C   0  0  0  0  0  0  0  0  0  0  0  0
  146.1759  139.3382  153.8208 N   0  3  2  0  0  0  0  0  0  0  0  0
  147.4986  139.2528  153.1393 C   0  0  0  0  0  0  0  0  0  0  0  0
  148.1239  140.6353  152.9135 C   0  0  0  0  0  0  0  0  0  0  0  0
  148.2269  141.3494  154.1780 N   0  0  0  0  0  0  0  0  0  0  0  0
  149.3506  141.1249  154.9102 C   0  0  0  0  0  0  0  0  0  0  0  0
  150.3966  140.4550  154.3566 N   0  0  0  0  0  0  0  0  0  0  0  0
  151.5117  140.2384  155.0598 C   0  0  0  0  0  0  0  0  0  0  0  0
  151.7874  140.5948  156.3150 N   0  0  0  0  0  0  0  0  0  0  0  0
  150.7385  141.2540  156.8841 C   0  0  0  0  0  0  0  0  0  0  0  0
  149.4964  141.5605  156.2586 C   0  0  0  0  0  0  0  0  0  0  0  0
  148.6725  142.2330  157.1535 N   0  0  0  0  0  0  0  0  0  0  0  0
  149.3880  142.3249  158.2411 C   0  0  0  0  0  0  0  0  0  0  0  0
  150.6401  141.7578  158.1696 N   0  0  0  0  0  0  0  0  0  0  0  0
  151.6352  141.7112  159.2302 C   0  0  0  0  0  0  0  0  0  0  0  0
  152.1510  143.1075  159.6489 C   0  0  1  0  0  0  0  0  0  0  0  0
  153.4079  142.9612  160.2875 O   0  0  0  0  0  0  0  0  0  0  0  0
  152.3068  144.0890  158.4907 C   0  0  0  0  0  0  0  0  0  0  0  0
  152.0150  145.4326  159.1434 C   0  0  0  0  0  0  0  0  0  0  0  0
  150.9478  145.1225  160.0226 O   0  0  0  0  0  0  0  0  0  0  0  0
  151.2007  143.8499  160.6099 C   0  0  0  0  0  0  0  0  0  0  0  0
  146.9452  141.4990  154.8603 C   0  0  0  0  0  0  0  0  0  0  0  0
  146.2176  140.1486  155.0800 C   0  0  1  0  0  0  0  0  0  0  0  0
  144.8104  140.4561  155.6332 C   0  0  0  0  0  0  0  0  0  0  0  0
  145.9014  135.2743  153.2817 H   0  0  0  0  0  0  0  0  0  0  0  0
  144.9549  135.3105  151.8002 H   0  0  0  0  0  0  0  0  0  0  0  0
  144.1760  135.6233  153.3498 H   0  0  0  0  0  0  0  0  0  0  0  0
  146.2895  137.3933  152.0092 H   0  0  0  0  0  0  0  0  0  0  0  0
  144.6336  138.2334  151.1079 H   0  0  0  0  0  0  0  0  0  0  0  0
  144.6036  138.0184  154.4734 H   0  0  0  0  0  0  0  0  0  0  0  0
  146.1991  137.3812  154.6315 H   0  0  0  0  0  0  0  0  0  0  0  0
  148.1770  138.6445  153.7403 H   0  0  0  0  0  0  0  0  0  0  0  0
  147.3938  138.7483  152.1790 H   0  0  0  0  0  0  0  0  0  0  0  0
  149.0914  140.5257  152.4257 H   0  0  0  0  0  0  0  0  0  0  0  0
  147.5026  141.2189  152.2333 H   0  0  0  0  0  0  0  0  0  0  0  0
  152.2946  139.7026  154.5434 H   0  0  0  0  0  0  0  0  0  0  0  0
  149.0176  142.8053  159.1353 H   0  0  0  0  0  0  0  0  0  0  0  0
  151.1963  141.2008  160.0885 H   0  0  0  0  0  0  0  0  0  0  0  0
  152.4647  141.0865  158.8957 H   0  0  0  0  0  0  0  0  0  0  0  0
  154.0400  142.6806  159.6433 H   0  0  0  0  0  0  0  0  0  0  0  0
  153.2818  144.0466  158.0031 H   0  0  0  0  0  0  0  0  0  0  0  0
  151.5469  143.9005  157.7316 H   0  0  0  0  0  0  0  0  0  0  0  0
  152.8739  145.7883  159.7146 H   0  0  0  0  0  0  0  0  0  0  0  0
  151.7339  146.2010  158.4228 H   0  0  0  0  0  0  0  0  0  0  0  0
  150.2535  143.3266  160.7443 H   0  0  0  0  0  0  0  0  0  0  0  0
  151.6404  143.9858  161.5993 H   0  0  0  0  0  0  0  0  0  0  0  0
  147.0744  142.0269  155.8064 H   0  0  0  0  0  0  0  0  0  0  0  0
  146.3245  142.1489  154.2419 H   0  0  0  0  0  0  0  0  0  0  0  0
  146.7660  139.5725  155.8262 H   0  0  0  0  0  0  0  0  0  0  0  0
  144.8700  141.1518  156.4708 H   0  0  0  0  0  0  0  0  0  0  0  0
  144.2940  139.5755  156.0103 H   0  0  0  0  0  0  0  0  0  0  0  0
  144.1788  140.9158  154.8723 H   0  0  0  0  0  0  0  0  0  0  0  0
  145.5657  139.8476  153.1974 H   0  0  0  0  0  0  0  0  0  0  0  0
  1  2  1  0  0  0  0
  1 28  1  0  0  0  0
  1 29  1  0  0  0  0
  1 30  1  0  0  0  0
  2  3  1  0  0  0  0
  2  4  1  0  0  0  0
  2 31  1  0  0  0  0
  3 32  1  0  0  0  0
  4  5  1  0  0  0  0
  4 33  1  0  0  0  0
  4 34  1  0  0  0  0
  5 26  1  0  0  0  0
  5  6  1  0  0  0  0
  5 56  1  0  0  0  0
  6  7  1  0  0  0  0
  6 35  1  0  0  0  0
  6 36  1  0  0  0  0
  7  8  1  0  0  0  0
  7 37  1  0  0  0  0
  7 38  1  0  0  0  0
  8  9  1  0  0  0  0
  8 25  1  0  0  0  0
  9 14  1  0  0  0  0
  9 10  2  0  0  0  0
 10 11  1  0  0  0  0
 11 12  2  0  0  0  0
 11 39  1  0  0  0  0
 12 13  1  0  0  0  0
 13 17  1  0  0  0  0
 13 14  2  0  0  0  0
 14 15  1  0  0  0  0
 15 16  2  0  0  0  0
 16 17  1  0  0  0  0
 16 40  1  0  0  0  0
 17 18  1  0  0  0  0
 18 19  1  0  0  0  0
 18 41  1  0  0  0  0
 18 42  1  0  0  0  0
 19 24  1  0  0  0  0
 19 20  1  0  0  0  0
 19 21  1  0  0  0  0
 20 43  1  0  0  0  0
 21 22  1  0  0  0  0
 21 44  1  0  0  0  0
 21 45  1  0  0  0  0
 22 23  1  0  0  0  0
 22 46  1  0  0  0  0
 22 47  1  0  0  0  0
 23 24  1  0  0  0  0
 24 48  1  0  0  0  0
 24 49  1  0  0  0  0
 25 26  1  0  0  0  0
 25 50  1  0  0  0  0
 25 51  1  0  0  0  0
 26 27  1  0  0  0  0
 26 52  1  0  0  0  0
 27 53  1  0  0  0  0
 27 54  1  0  0  0  0
 27 55  1  0  0  0  0
M  CHG  1   5   1
M  END
> <s_m_source_file>
AV-unprocessed.smi

> <i_m_source_file_index>
224

> <i_lp_mmshare_version>
43012

> <i_f3d_flags>
0

> <s_epik_input>
W0NIM11bQ0BIXShbT0hdKVtDSDJdTjFbQ0gyXVtDSDJdTihbQ0gyXVtDQEhdMVtDSDNdKWMobltjSF1uMiljKGMyMyluW2NIXW4zW0NIMl1bQ0BAXTQoW09IXSlbQ0gyXVtDSDJdT1tDSDJdNA==

> <s_epik_cmdline>
J2VwaWtfcHl0aG9uJywgJy1waCcsICc3LjAnLCAnLXRuJywgJzgnLCAnLW1hJywgJzIwMCcsICctbWV0YWxfYmluZGluZycsICctaW1hZScsICc8aW5maWxlLm1hZT4nLCAnLW9tYWUnLCAnPG91dGZpbGUubWFlPic=

> <r_lp_tautomer_probability>
1

> <r_epik_Ionization_Penalty>
0.00516958

> <r_epik_Ionization_Penalty_Charging>
0.00509693

> <r_epik_Ionization_Penalty_Neutral>
7.26542e-05

> <r_epik_State_Penalty>
-0

> <r_epik_Charging_Adjusted_Penalty>
0.00509693

> <i_epik_Tot_Q>
1

> <i_epik_Tot_abs_Q>
1

> <r_epik_Metal_State_Penalty>
-0

> <b_epik_Metal_Only>
0

> <s_lp_Force_Field>
OPLS_2005

> <r_lp_Energy>
48.4109

> <b_lp_Chiralities_Consistent>
1

> <s_lp_Variant>
AV-unprocessed.smi:224-2

> <Gold.Version>
5.8.1

> <Gold.Id.Protein>
6NUR|6NUR_protein|mol2

> <Gold.PLP.Fitness>
49.0032

> <Gold.PLP.PLP>
-41.3258

> <Gold.PLP.part.hbond>
-3.8947

> <Gold.PLP.part.metal>
0.0000

> <Gold.PLP.part.buried>
-3.8887

> <Gold.PLP.part.nonpolar>
-36.3107

> <Gold.PLP.part.repulsive>
1.9629

> <Gold.PLP.ligand.clash>
0.0000

> <Gold.PLP.ligand.torsion>
0.9218

> <Gold.PLP.Chemscore.Hbond>
3.0000

> <Gold.PLP.Chemscore.CHOScore>
0.0000

> <Gold.PLP.Chemscore.Metal>
0.0000

> <Gold.Chemscore.Hbonds>
donor molecule, donor type, donor heavy atom, donor atom, acceptor molecule, acceptor atom, score
      L1  H     3    32       P1 10171  0.61
      L1  H     5    56       P1 10175  1.59

> <Gold.PLP.Chemscore.Internal.Correction>
0.5210

> <Gold.Rescore>
     Score         DG    S(hbond)    S(metal)    S(lipo)     H(rot)  DE(clash)    DE(int)     intcor
     10.31     -14.34       1.96        0.00      93.25       3.36       1.80       2.23       ----

> <Gold.Chemscore.Fitness>
10.3135

> <Gold.Chemscore.DG>
-14.3444

> <Gold.Chemscore.ZeroCoef>
-5.4800

> <Gold.Chemscore.Hbond>
1.9638

> <Gold.Chemscore.Metal>
0.0000

> <Gold.Chemscore.Lipo>
93.2479

> <Gold.Chemscore.Internal_Hbond>
0.0000

> <Gold.Chemscore.DEClash>
1.8046

> <Gold.Chemscore.DEInternal>
2.2264

> <Gold.Chemscore.Rot>
3.3611

> <Gold.Chemscore.Internal.Correction>
   9.000000E+99

> <Gold.Chemscore.Hbonds>
donor molecule, donor type, donor heavy atom, donor atom, acceptor molecule, acceptor atom, score
      L1  H     3    32       P1 10171  0.57
      L1  H     5    56       P1 10175  0.77

> <Gold.Chemscore.Hbond.Weighted>
-6.5589

> <Gold.Chemscore.Metal.Weighted>
-0.0000

> <Gold.Chemscore.Lipo.Weighted>
-10.9100

> <Gold.Chemscore.Internal_Hbond.Weighted>
0.0000

> <Gold.Chemscore.DEClash.Weighted>
1.8046

> <Gold.Chemscore.DEInternal.Weighted>
2.2264

> <Gold.Chemscore.Rot.Weighted>
8.6045

> <Gold.Chemscore.Internal.Correction.Weighted>
   9.000000E+99

> <Gold.Protein.RotatedTorsions>
[ 6907 6896 6895 6894 ] final -123.28 input  -60.11 | X-H torsion
[ 7974 7965 7964 7962 ] final  114.23 input  175.53 | X-H torsion
[ 8008 7997 7996 7995 ] final  -63.26 input   59.86 | X-H torsion
[ 10167 10162 10161 10158 ] final  139.92 input  -65.29 | X-H torsion
[ 10718 10713 10712 10709 ] final  -76.51 input   66.30 | X-H torsion
[ 10763 10752 10751 10750 ] final  -13.75 input  -60.55 | X-H torsion
[ 11005 11000 10999 10996 ] final -115.26 input  -57.11 | X-H torsion

> <Gold.Protein.ActiveResidues>
 VAL166  LYS551  ARG553  GLY616  TRP617  ASP618  TYR619  PRO620  LYS621  CYS622 
 ASP623  PHE694  ASN695  SER759  ASP760  ASP761  ALA762  ILE779  LEU786  VAL792 
 PHE793  MET794  SER795  GLU796  ALA797  LYS798  CYS799  TRP800  GLU811  SER814 

> <Gold.Protein.RotatedAtoms>
  150.8655  133.7580  159.2977 H   0  0  0  0  0  0  0  0  0  0  0  0  # atno 6907 bound_to 6896
  151.5209  135.1065  159.9888 H   0  0  0  0  0  0  0  0  0  0  0  0  # atno 6908 bound_to 6896
  152.4658  133.7875  159.6940 H   0  0  0  0  0  0  0  0  0  0  0  0  # atno 6909 bound_to 6896
  145.2070  139.2924  143.4288 H   0  0  0  0  0  0  0  0  0  0  0  0  # atno 7974 bound_to 7965
  154.4545  140.0978  156.6715 H   0  0  0  0  0  0  0  0  0  0  0  0  # atno 8008 bound_to 7997
  155.5182  140.3478  155.4383 H   0  0  0  0  0  0  0  0  0  0  0  0  # atno 8009 bound_to 7997
  156.0749  140.1358  156.9773 H   0  0  0  0  0  0  0  0  0  0  0  0  # atno 8010 bound_to 7997
  139.5064  144.6265  151.5923 H   0  0  0  0  0  0  0  0  0  0  0  0  # atno 10167 bound_to 10162
  156.0173  130.4467  150.3204 H   0  0  0  0  0  0  0  0  0  0  0  0  # atno 10718 bound_to 10713
  153.5180  135.7016  153.5746 H   0  0  0  0  0  0  0  0  0  0  0  0  # atno 10763 bound_to 10752
  153.3808  135.3921  155.1855 H   0  0  0  0  0  0  0  0  0  0  0  0  # atno 10764 bound_to 10752
  154.8697  135.3834  154.4666 H   0  0  0  0  0  0  0  0  0  0  0  0  # atno 10765 bound_to 10752
  141.0499  133.9703  157.2854 H   0  0  0  0  0  0  0  0  0  0  0  0  # atno 11005 bound_to 11000
  146.3405  140.2334  142.8594 LP  0  0  0  0  0  0  0  0  0  0  0  0  # atno 17320 bound_to 7965
  144.9892  140.8531  143.5350 LP  0  0  0  0  0  0  0  0  0  0  0  0  # atno 17321 bound_to 7965
  140.5984  143.9654  150.6370 LP  0  0  0  0  0  0  0  0  0  0  0  0  # atno 17342 bound_to 10162
  140.2858  143.3358  152.1109 LP  0  0  0  0  0  0  0  0  0  0  0  0  # atno 17343 bound_to 10162
  157.1304  131.0270  151.2971 LP  0  0  0  0  0  0  0  0  0  0  0  0  # atno 17370 bound_to 10713
  157.4555  130.7623  149.7189 LP  0  0  0  0  0  0  0  0  0  0  0  0  # atno 17371 bound_to 10713
  139.9342  135.0198  156.8501 LP  0  0  0  0  0  0  0  0  0  0  0  0  # atno 17394 bound_to 11000
  140.6075  134.0114  155.7562 LP  0  0  0  0  0  0  0  0  0  0  0  0  # atno 17395 bound_to 11000

$$$$
