AV-unprocessed.smi:2627|AV-procd|sdf|10240|dock4
  -GOLD-   2272014243D 1   1.00000     0.00000
 Structure written by MMmdl.
 39 41  0  0  0  0  0  0  0  0  1 V2000
  153.9103  137.5937  160.0793 C   0  0  0  0  0  0  0  0  0  0  0  0
  154.5460  138.8165  159.4024 C   0  0  1  0  0  0  0  0  0  0  0  0
  154.3471  138.7127  158.0082 O   0  0  0  0  0  0  0  0  0  0  0  0
  154.0042  140.1095  159.9487 C   0  0  0  0  0  0  0  0  0  0  0  0
  153.4270  141.0077  159.1464 N   0  0  0  0  0  0  0  0  0  0  0  0
  153.0703  142.0167  160.0173 C   0  0  0  0  0  0  0  0  0  0  0  0
  152.4097  143.2433  159.7802 C   0  0  0  0  0  0  0  0  0  0  0  0
  152.1470  144.1298  160.8448 C   0  0  0  0  0  0  0  0  0  0  0  0
  152.5407  143.8031  162.1586 C   0  0  0  0  0  0  0  0  0  0  0  0
  153.2020  142.5867  162.4155 C   0  0  0  0  0  0  0  0  0  0  0  0
  153.4618  141.7047  161.3490 C   0  0  0  0  0  0  0  0  0  0  0  0
  154.0817  140.4613  161.2608 N   0  0  0  0  0  0  0  0  0  0  0  0
  154.6762  139.7406  162.3795 C   0  0  0  0  0  0  0  0  0  0  0  0
  155.9597  140.4076  162.8936 C   0  0  0  0  0  0  0  0  0  0  0  0
  155.6364  141.5676  163.6482 O   0  0  0  0  0  0  0  0  0  0  0  0
  155.5640  141.4535  165.0203 C   0  0  0  0  0  0  0  0  0  0  0  0
  155.2155  142.6134  165.7434 C   0  0  0  0  0  0  0  0  0  0  0  0
  155.1197  142.5871  167.1481 C   0  0  0  0  0  0  0  0  0  0  0  0
  155.3717  141.3928  167.8479 C   0  0  0  0  0  0  0  0  0  0  0  0
  155.7190  140.2272  167.1399 C   0  0  0  0  0  0  0  0  0  0  0  0
  155.8164  140.2543  165.7347 C   0  0  0  0  0  0  0  0  0  0  0  0
  154.0497  137.6288  161.1594 H   0  0  0  0  0  0  0  0  0  0  0  0
  154.3566  136.6672  159.7173 H   0  0  0  0  0  0  0  0  0  0  0  0
  152.8378  137.5429  159.8889 H   0  0  0  0  0  0  0  0  0  0  0  0
  155.6193  138.7584  159.5665 H   0  0  0  0  0  0  0  0  0  0  0  0
  153.9436  137.8769  157.8291 H   0  0  0  0  0  0  0  0  0  0  0  0
  152.1038  143.5021  158.7772 H   0  0  0  0  0  0  0  0  0  0  0  0
  151.6407  145.0644  160.6527 H   0  0  0  0  0  0  0  0  0  0  0  0
  152.3353  144.4870  162.9689 H   0  0  0  0  0  0  0  0  0  0  0  0
  153.5041  142.3349  163.4210 H   0  0  0  0  0  0  0  0  0  0  0  0
  153.9460  139.6203  163.1785 H   0  0  0  0  0  0  0  0  0  0  0  0
  154.9077  138.7287  162.0459 H   0  0  0  0  0  0  0  0  0  0  0  0
  156.5046  139.6984  163.5184 H   0  0  0  0  0  0  0  0  0  0  0  0
  156.5977  140.6701  162.0481 H   0  0  0  0  0  0  0  0  0  0  0  0
  155.0150  143.5344  165.2161 H   0  0  0  0  0  0  0  0  0  0  0  0
  154.8513  143.4832  167.6881 H   0  0  0  0  0  0  0  0  0  0  0  0
  155.2979  141.3705  168.9252 H   0  0  0  0  0  0  0  0  0  0  0  0
  155.9119  139.3096  167.6757 H   0  0  0  0  0  0  0  0  0  0  0  0
  156.0877  139.3406  165.2283 H   0  0  0  0  0  0  0  0  0  0  0  0
  1  2  1  0  0  0  0
  1 22  1  0  0  0  0
  1 23  1  0  0  0  0
  1 24  1  0  0  0  0
  2  3  1  0  0  0  0
  2  4  1  0  0  0  0
  2 25  1  0  0  0  0
  3 26  1  0  0  0  0
  4 12  1  0  0  0  0
  4  5  2  0  0  0  0
  5  6  1  0  0  0  0
  6 11  2  0  0  0  0
  6  7  1  0  0  0  0
  7  8  2  0  0  0  0
  7 27  1  0  0  0  0
  8  9  1  0  0  0  0
  8 28  1  0  0  0  0
  9 10  2  0  0  0  0
  9 29  1  0  0  0  0
 10 11  1  0  0  0  0
 10 30  1  0  0  0  0
 11 12  1  0  0  0  0
 12 13  1  0  0  0  0
 13 14  1  0  0  0  0
 13 31  1  0  0  0  0
 13 32  1  0  0  0  0
 14 15  1  0  0  0  0
 14 33  1  0  0  0  0
 14 34  1  0  0  0  0
 15 16  1  0  0  0  0
 16 21  1  0  0  0  0
 16 17  2  0  0  0  0
 17 18  1  0  0  0  0
 17 35  1  0  0  0  0
 18 19  2  0  0  0  0
 18 36  1  0  0  0  0
 19 20  1  0  0  0  0
 19 37  1  0  0  0  0
 20 21  2  0  0  0  0
 20 38  1  0  0  0  0
 21 39  1  0  0  0  0
M  END
> <s_m_source_file>
AV-unprocessed.smi

> <i_m_source_file_index>
2627

> <i_lp_mmshare_version>
43012

> <i_f3d_flags>
0

> <s_epik_input>
W2NIXTFbY0hdW2NIXVtjSF1jKGMxMiluKGMobjIpW0NASF0oW0NIM10pW09IXSlbQ0gyXVtDSDJdT2MzW2NIXVtjSF1bY0hdW2NIXVtjSF0z

> <s_epik_cmdline>
J2VwaWtfcHl0aG9uJywgJy1waCcsICc3LjAnLCAnLXRuJywgJzgnLCAnLW1hJywgJzIwMCcsICctbWV0YWxfYmluZGluZycsICctaW1hZScsICc8aW5maWxlLm1hZT4nLCAnLW9tYWUnLCAnPG91dGZpbGUubWFlPic=

> <r_lp_tautomer_probability>
1

> <r_epik_Ionization_Penalty>
0.0472514

> <r_epik_Ionization_Penalty_Charging>
0

> <r_epik_Ionization_Penalty_Neutral>
0.0472514

> <r_epik_State_Penalty>
0.040225

> <r_epik_Charging_Adjusted_Penalty>
0.040225

> <i_epik_Tot_Q>
0

> <i_epik_Tot_abs_Q>
0

> <r_epik_Metal_State_Penalty>
4.16204e-05

> <b_epik_Metal_Only>
0

> <s_lp_Force_Field>
OPLS_2005

> <r_lp_Energy>
14.021

> <b_lp_Chiralities_Consistent>
1

> <s_lp_Variant>
AV-unprocessed.smi:2627-2

> <Gold.Version>
5.8.1

> <Gold.Id.Protein>
6NUR|6NUR_protein|mol2

> <Gold.PLP.Fitness>
51.6983

> <Gold.PLP.PLP>
-49.4581

> <Gold.PLP.part.hbond>
-1.6177

> <Gold.PLP.part.metal>
0.0000

> <Gold.PLP.part.buried>
-3.7092

> <Gold.PLP.part.nonpolar>
-42.8185

> <Gold.PLP.part.repulsive>
0.0000

> <Gold.PLP.ligand.clash>
0.0000

> <Gold.PLP.ligand.torsion>
0.4104

> <Gold.PLP.Chemscore.Hbond>
1.0000

> <Gold.PLP.Chemscore.CHOScore>
0.0000

> <Gold.PLP.Chemscore.Metal>
0.0000

> <Gold.Chemscore.Hbonds>
donor molecule, donor type, donor heavy atom, donor atom, acceptor molecule, acceptor atom, score
      P1  H  7997  8009       L1     3  1.00

> <Gold.PLP.Chemscore.Internal.Correction>
0.0610

> <Gold.Rescore>
     Score         DG    S(hbond)    S(metal)    S(lipo)     H(rot)  DE(clash)    DE(int)     intcor
     15.19     -18.40       0.92        0.00     129.30       2.06       1.51       1.70       ----

> <Gold.Chemscore.Fitness>
15.1869

> <Gold.Chemscore.DG>
-18.4001

> <Gold.Chemscore.ZeroCoef>
-5.4800

> <Gold.Chemscore.Hbond>
0.9162

> <Gold.Chemscore.Metal>
0.0000

> <Gold.Chemscore.Lipo>
129.2974

> <Gold.Chemscore.Internal_Hbond>
0.0000

> <Gold.Chemscore.DEClash>
1.5112

> <Gold.Chemscore.DEInternal>
1.7021

> <Gold.Chemscore.Rot>
2.0577

> <Gold.Chemscore.Internal.Correction>
   9.000000E+99

> <Gold.Chemscore.Hbonds>
donor molecule, donor type, donor heavy atom, donor atom, acceptor molecule, acceptor atom, score
      P1  H  7997  8009       L1     3  0.71

> <Gold.Chemscore.Hbond.Weighted>
-3.0602

> <Gold.Chemscore.Metal.Weighted>
-0.0000

> <Gold.Chemscore.Lipo.Weighted>
-15.1278

> <Gold.Chemscore.Internal_Hbond.Weighted>
0.0000

> <Gold.Chemscore.DEClash.Weighted>
1.5112

> <Gold.Chemscore.DEInternal.Weighted>
1.7021

> <Gold.Chemscore.Rot.Weighted>
5.2678

> <Gold.Chemscore.Internal.Correction.Weighted>
   9.000000E+99

> <Gold.Protein.RotatedTorsions>
[ 6907 6896 6895 6894 ] final  -95.97 input  -60.11 | X-H torsion
[ 7974 7965 7964 7962 ] final  -58.63 input  175.53 | X-H torsion
[ 8008 7997 7996 7995 ] final  129.20 input   59.86 | X-H torsion
[ 10167 10162 10161 10158 ] final  -13.23 input  -65.29 | X-H torsion
[ 10718 10713 10712 10709 ] final -105.51 input   66.30 | X-H torsion
[ 10763 10752 10751 10750 ] final  167.98 input  -60.55 | X-H torsion
[ 11005 11000 10999 10996 ] final   17.03 input  -57.11 | X-H torsion

> <Gold.Protein.ActiveResidues>
 VAL166  LYS551  ARG553  GLY616  TRP617  ASP618  TYR619  PRO620  LYS621  CYS622 
 ASP623  PHE694  ASN695  SER759  ASP760  ASP761  ALA762  ILE779  LEU786  VAL792 
 PHE793  MET794  SER795  GLU796  ALA797  LYS798  CYS799  TRP800  GLU811  SER814 

> <Gold.Protein.RotatedAtoms>
  150.6977  134.1575  159.4163 H   0  0  0  0  0  0  0  0  0  0  0  0  # atno 6907 bound_to 6896
  151.9557  135.0145  160.0554 H   0  0  0  0  0  0  0  0  0  0  0  0  # atno 6908 bound_to 6896
  152.1972  133.4780  159.5076 H   0  0  0  0  0  0  0  0  0  0  0  0  # atno 6909 bound_to 6896
  145.8371  140.8442  143.0054 H   0  0  0  0  0  0  0  0  0  0  0  0  # atno 7974 bound_to 7965
  156.2931  140.2626  156.2560 H   0  0  0  0  0  0  0  0  0  0  0  0  # atno 8008 bound_to 7997
  154.9835  140.0389  157.2307 H   0  0  0  0  0  0  0  0  0  0  0  0  # atno 8009 bound_to 7997
  154.7750  140.2785  155.6113 H   0  0  0  0  0  0  0  0  0  0  0  0  # atno 8010 bound_to 7997
  140.7178  143.5448  150.9368 H   0  0  0  0  0  0  0  0  0  0  0  0  # atno 10167 bound_to 10162
  156.0349  130.5567  150.7549 H   0  0  0  0  0  0  0  0  0  0  0  0  # atno 10718 bound_to 10713
  154.3618  135.2753  155.2316 H   0  0  0  0  0  0  0  0  0  0  0  0  # atno 10763 bound_to 10752
  154.4501  135.5933  153.6189 H   0  0  0  0  0  0  0  0  0  0  0  0  # atno 10764 bound_to 10752
  152.9843  135.6039  154.3839 H   0  0  0  0  0  0  0  0  0  0  0  0  # atno 10765 bound_to 10752
  140.4405  134.1326  155.7690 H   0  0  0  0  0  0  0  0  0  0  0  0  # atno 11005 bound_to 11000
  144.6736  140.0757  143.7471 LP  0  0  0  0  0  0  0  0  0  0  0  0  # atno 17320 bound_to 7965
  145.9507  139.2731  143.1214 LP  0  0  0  0  0  0  0  0  0  0  0  0  # atno 17321 bound_to 7965
  139.9171  143.6650  152.3104 LP  0  0  0  0  0  0  0  0  0  0  0  0  # atno 17342 bound_to 10162
  139.7054  144.7629  151.1203 LP  0  0  0  0  0  0  0  0  0  0  0  0  # atno 17343 bound_to 10162
  157.5084  131.0924  151.0229 LP  0  0  0  0  0  0  0  0  0  0  0  0  # atno 17370 bound_to 10713
  157.0591  130.5818  149.5383 LP  0  0  0  0  0  0  0  0  0  0  0  0  # atno 17371 bound_to 10713
  141.1707  133.8614  157.1578 LP  0  0  0  0  0  0  0  0  0  0  0  0  # atno 17394 bound_to 11000
  140.0073  135.0003  157.0319 LP  0  0  0  0  0  0  0  0  0  0  0  0  # atno 17395 bound_to 11000

$$$$
