#       Name:                AV-unprocessed.smi:2866
#       Creating user name   scv26
#       Creation time:       Fri Mar 27 15:48:15 2020


#       File generated by GOLD software.
#

@<TRIPOS>MOLECULE
AV-unprocessed.smi:2866
    45    47     1
SMALL
NO_CHARGES


@<TRIPOS>ATOM
      1 ****        -1.9671   4.6843   3.3267 C.3            1 S1                 0.0000
      2 ****        -1.5581   3.5382   2.4185 C.ar           1 S1                 0.0000
      3 ****        -1.5843   3.7281   1.0185 C.ar           1 S1                 0.0000
      4 ****        -1.2056   2.6898   0.1396 C.ar           1 S1                 0.0000
      5 ****        -1.1503   2.6581  -1.2434 N.2            1 S1                 0.0000
      6 ****        -0.7196   1.4198  -1.4661 C.2            1 S1                 0.0000
      7 ****        -0.4896   0.6439  -0.3896 N.pl3          1 S1                 0.0000
      8 ****        -0.0167  -0.7289  -0.3899 C.3            1 S1                 0.0000
      9 ****         1.5230  -0.8206  -0.4514 C.3            1 S1                 0.0000
     10 ****         2.0907  -0.1556   0.6598 O.3            1 S1                 0.0000
     11 ****         2.0538  -2.2679  -0.4656 C.3            1 S1                 0.0000
     12 ****         1.5259  -3.0554  -1.5654 N.pl3          1 S1                 0.0000
     13 ****         0.7277  -4.1773  -1.5109 C.2            1 S1                 0.0000
     14 ****         0.4998  -4.5753  -2.7967 C.2            1 S1                 0.0000
     15 ****         1.2146  -3.6276  -3.5856 C.2            1 S1                 0.0000
     16 ****         1.3316  -3.5587  -5.0856 C.3            1 S1                 0.0000
     17 ****         0.6497  -4.5561  -5.6487 F              1 S1                 0.0000
     18 ****         0.8400  -2.4008  -5.5265 F              1 S1                 0.0000
     19 ****         2.6108  -3.6548  -5.4481 F              1 S1                 0.0000
     20 ****         1.8305  -2.7218  -2.8377 N.2            1 S1                 0.0000
     21 ****        -0.7999   1.4452   0.7039 C.ar           1 S1                 0.0000
     22 ****        -0.7725   1.2431   2.0950 C.ar           1 S1                 0.0000
     23 ****        -1.1507   2.2920   2.9591 C.ar           1 S1                 0.0000
     24 ****        -1.1115   2.0656   4.4600 C.3            1 S1                 0.0000
     25 ****        -2.2618   5.5622   2.7511 H              1 S1                 0.0000
     26 ****        -1.1389   4.9715   3.9749 H              1 S1                 0.0000
     27 ****        -2.8125   4.3951   3.9514 H              1 S1                 0.0000
     28 ****        -1.8938   4.6771   0.6059 H              1 S1                 0.0000
     29 ****        -0.5590   1.0548  -2.4702 H              1 S1                 0.0000
     30 ****        -0.3952  -1.2296   0.5021 H              1 S1                 0.0000
     31 ****        -0.4662  -1.2367  -1.2440 H              1 S1                 0.0000
     32 ****         1.8715  -0.3074  -1.3486 H              1 S1                 0.0000
     33 ****         1.8043   0.7452   0.6480 H              1 S1                 0.0000
     34 ****         3.1426  -2.2721  -0.5356 H              1 S1                 0.0000
     35 ****         1.7992  -2.7704   0.4687 H              1 S1                 0.0000
     36 ****         0.3905  -4.5935  -0.5729 H              1 S1                 0.0000
     37 ****        -0.0881  -5.4193  -3.1259 H              1 S1                 0.0000
     38 ****        -0.4582   0.2896   2.4932 H              1 S1                 0.0000
     39 ****        -0.7758   1.0567   4.7018 H              1 S1                 0.0000
     40 ****        -2.1026   2.2010   4.8937 H              1 S1                 0.0000
     41 ****        -0.4265   2.7686   4.9345 H              1 S1                 0.0000
     42 ****        -1.3750   3.3768  -1.9013 LP             1 S1                 0.0000
     43 ****         3.0883  -0.1933   0.6022 LP             1 S1                 0.0000
     44 ****         1.7889  -0.5946   1.5061 LP             1 S1                 0.0000
     45 ****         2.3968  -1.9584  -3.1483 LP             1 S1                 0.0000
@<TRIPOS>BOND
    1    1    2 1     
    2    1   25 1     
    3    1   26 1     
    4    1   27 1     
    5    2   23 ar    
    6    2    3 ar    
    7    3    4 ar    
    8    3   28 1     
    9    4   21 ar    
   10    4    5 1     
   11    5    6 2     
   12    6    7 1     
   13    6   29 1     
   14    7    8 1     
   15    7   21 1     
   16    8    9 1     
   17    8   30 1     
   18    8   31 1     
   19    9   10 1     
   20    9   11 1     
   21    9   32 1     
   22   10   33 1     
   23   11   12 1     
   24   11   34 1     
   25   11   35 1     
   26   12   20 1     
   27   12   13 1     
   28   13   14 2     
   29   13   36 1     
   30   14   15 1     
   31   14   37 1     
   32   15   16 1     
   33   15   20 2     
   34   16   17 1     
   35   16   18 1     
   36   16   19 1     
   37   21   22 ar    
   38   22   23 ar    
   39   22   38 1     
   40   23   24 1     
   41   24   39 1     
   42   24   40 1     
   43   24   41 1     
   44    5   42 1     
   45   10   43 1     
   46   10   44 1     
   47   20   45 1     
@<TRIPOS>SUBSTRUCTURE
      1 S1             1
@<TRIPOS>SET
LONE_PAIRS      STATIC     ATOMS    <user>   **** ""
4 42 43 44 45
DONOR_HYDROGENS      STATIC     ATOMS    <user>   **** ""
1 33
ATOM$BLUE        STATIC     ATOMS    COLORGROUP SYSTEM
4 42 43 44 45
ATOM$RED        STATIC     ATOMS    COLORGROUP SYSTEM
1 33
