AV-unprocessed.smi:339|AV-procd|sdf|2379|dock8
  -GOLD-   2262022303D 1   1.00000     0.00000
 Structure written by MMmdl.
 45 46  0  0  0  0  0  0  0  0  1 V2000
  151.4345  142.5424  157.9513 C   0  0  0  0  0  0  0  0  0  0  0  0
  151.7235  143.0417  159.3546 C   0  0  0  0  0  0  0  0  0  0  0  0
  151.3313  144.3453  159.7224 C   0  0  0  0  0  0  0  0  0  0  0  0
  151.5997  144.8278  161.0167 C   0  0  0  0  0  0  0  0  0  0  0  0
  152.2687  144.0116  161.9474 C   0  0  0  0  0  0  0  0  0  0  0  0
  152.6660  142.7065  161.5906 C   0  0  0  0  0  0  0  0  0  0  0  0
  153.3981  141.8439  162.6023 C   0  0  0  0  0  0  0  0  0  0  0  0
  152.3795  142.2134  160.2956 C   0  0  0  0  0  0  0  0  0  0  0  0
  152.7581  140.9427  159.9473 O   0  0  0  0  0  0  0  0  0  0  0  0
  154.1658  140.7708  159.8739 C   0  0  0  0  0  0  0  0  0  0  0  0
  154.4709  139.3356  159.4169 C   0  0  1  0  0  0  0  0  0  0  0  0
  153.5858  139.0401  158.3539 O   0  0  0  0  0  0  0  0  0  0  0  0
  155.9151  139.1971  158.8856 C   0  0  0  0  0  0  0  0  0  0  0  0
  156.0309  138.1401  157.8739 N   0  0  0  0  0  0  0  0  0  0  0  0
  156.4966  138.5834  156.6523 N   0  0  0  0  0  0  0  0  0  0  0  0
  156.6404  137.7761  155.6533 C   0  0  0  0  0  0  0  0  0  0  0  0
  157.1559  138.3731  154.3718 C   0  0  0  0  0  0  0  0  0  0  0  0
  156.3063  136.3640  155.8108 C   0  0  0  0  0  0  0  0  0  0  0  0
  156.4951  135.4587  154.6013 C   0  0  0  0  0  0  0  0  0  0  0  0
  155.8587  135.9392  157.0190 C   0  0  0  0  0  0  0  0  0  0  0  0
  155.5197  134.5758  157.2706 C   0  0  0  0  0  0  0  0  0  0  0  0
  155.2443  133.4665  157.4541 N   0  0  0  0  0  0  0  0  0  0  0  0
  155.6906  136.8495  158.1540 C   0  0  0  0  0  0  0  0  0  0  0  0
  155.2779  136.4981  159.2603 O   0  0  0  0  0  0  0  0  0  0  0  0
  151.2771  143.3737  157.2637 H   0  0  0  0  0  0  0  0  0  0  0  0
  150.5378  141.9231  157.9476 H   0  0  0  0  0  0  0  0  0  0  0  0
  152.2658  141.9485  157.5706 H   0  0  0  0  0  0  0  0  0  0  0  0
  150.8234  144.9811  159.0119 H   0  0  0  0  0  0  0  0  0  0  0  0
  151.2970  145.8267  161.2941 H   0  0  0  0  0  0  0  0  0  0  0  0
  152.4775  144.3924  162.9362 H   0  0  0  0  0  0  0  0  0  0  0  0
  154.2093  141.2918  162.1266 H   0  0  0  0  0  0  0  0  0  0  0  0
  152.7131  141.1272  163.0552 H   0  0  0  0  0  0  0  0  0  0  0  0
  153.8299  142.4519  163.3976 H   0  0  0  0  0  0  0  0  0  0  0  0
  154.6377  141.5033  159.2160 H   0  0  0  0  0  0  0  0  0  0  0  0
  154.5729  140.9350  160.8721 H   0  0  0  0  0  0  0  0  0  0  0  0
  154.3006  138.6473  160.2459 H   0  0  0  0  0  0  0  0  0  0  0  0
  153.6747  138.1254  158.1342 H   0  0  0  0  0  0  0  0  0  0  0  0
  156.2743  140.1523  158.4969 H   0  0  0  0  0  0  0  0  0  0  0  0
  156.5932  138.9616  159.7081 H   0  0  0  0  0  0  0  0  0  0  0  0
  158.0248  137.8237  154.0094 H   0  0  0  0  0  0  0  0  0  0  0  0
  157.4567  139.4140  154.5002 H   0  0  0  0  0  0  0  0  0  0  0  0
  156.3891  138.3441  153.5972 H   0  0  0  0  0  0  0  0  0  0  0  0
  156.0758  134.4659  154.7616 H   0  0  0  0  0  0  0  0  0  0  0  0
  157.5559  135.3392  154.3798 H   0  0  0  0  0  0  0  0  0  0  0  0
  156.0042  135.8766  153.7218 H   0  0  0  0  0  0  0  0  0  0  0  0
  1  2  1  0  0  0  0
  1 25  1  0  0  0  0
  1 26  1  0  0  0  0
  1 27  1  0  0  0  0
  2  8  1  0  0  0  0
  2  3  2  0  0  0  0
  3  4  1  0  0  0  0
  3 28  1  0  0  0  0
  4  5  2  0  0  0  0
  4 29  1  0  0  0  0
  5  6  1  0  0  0  0
  5 30  1  0  0  0  0
  6  7  1  0  0  0  0
  6  8  2  0  0  0  0
  7 31  1  0  0  0  0
  7 32  1  0  0  0  0
  7 33  1  0  0  0  0
  8  9  1  0  0  0  0
  9 10  1  0  0  0  0
 10 11  1  0  0  0  0
 10 34  1  0  0  0  0
 10 35  1  0  0  0  0
 11 12  1  0  0  0  0
 11 13  1  0  0  0  0
 11 36  1  0  0  0  0
 12 37  1  0  0  0  0
 13 14  1  0  0  0  0
 13 38  1  0  0  0  0
 13 39  1  0  0  0  0
 14 23  1  0  0  0  0
 14 15  1  0  0  0  0
 15 16  2  0  0  0  0
 16 17  1  0  0  0  0
 16 18  1  0  0  0  0
 17 40  1  0  0  0  0
 17 41  1  0  0  0  0
 17 42  1  0  0  0  0
 18 19  1  0  0  0  0
 18 20  2  0  0  0  0
 19 43  1  0  0  0  0
 19 44  1  0  0  0  0
 19 45  1  0  0  0  0
 20 21  1  0  0  0  0
 20 23  1  0  0  0  0
 21 22  3  0  0  0  0
 23 24  2  0  0  0  0
M  END
> <s_m_source_file>
AV-unprocessed.smi

> <i_m_source_file_index>
339

> <i_lp_mmshare_version>
43012

> <i_f3d_flags>
0

> <s_epik_input>
W0NIM11jMVtjSF1bY0hdW2NIXWMoW0NIM10pYzFPW0NIMl1bQ0BIXShbT0hdKVtDSDJdbjJuYyhbQ0gzXSljKFtDSDNdKWMoQyNOKWMyPU8=

> <s_epik_cmdline>
J2VwaWtfcHl0aG9uJywgJy1waCcsICc3LjAnLCAnLXRuJywgJzgnLCAnLW1hJywgJzIwMCcsICctbWV0YWxfYmluZGluZycsICctaW1hZScsICc8aW5maWxlLm1hZT4nLCAnLW9tYWUnLCAnPG91dGZpbGUubWFlPic=

> <r_lp_tautomer_probability>
1

> <r_epik_Ionization_Penalty>
1.17331e-07

> <r_epik_Ionization_Penalty_Charging>
1.57223e-10

> <r_epik_Ionization_Penalty_Neutral>
1.17174e-07

> <r_epik_State_Penalty>
-0

> <r_epik_Charging_Adjusted_Penalty>
1.57223e-10

> <i_epik_Tot_Q>
0

> <i_epik_Tot_abs_Q>
0

> <r_epik_Metal_State_Penalty>
-0

> <b_epik_Metal_Only>
0

> <s_lp_Force_Field>
OPLS_2005

> <r_lp_Energy>
35.8185

> <b_lp_Chiralities_Consistent>
1

> <s_lp_Variant>
AV-unprocessed.smi:339-2

> <Gold.Version>
5.8.1

> <Gold.Id.Protein>
6NUR|6NUR_protein|mol2

> <Gold.PLP.Fitness>
44.9607

> <Gold.PLP.PLP>
-41.1028

> <Gold.PLP.part.hbond>
-2.0000

> <Gold.PLP.part.metal>
0.0000

> <Gold.PLP.part.buried>
-4.3570

> <Gold.PLP.part.nonpolar>
-34.6291

> <Gold.PLP.part.repulsive>
0.1873

> <Gold.PLP.ligand.clash>
0.0000

> <Gold.PLP.ligand.torsion>
0.5267

> <Gold.PLP.Chemscore.Hbond>
1.6080

> <Gold.PLP.Chemscore.CHOScore>
0.0000

> <Gold.PLP.Chemscore.Metal>
0.0000

> <Gold.Chemscore.Hbonds>
donor molecule, donor type, donor heavy atom, donor atom, acceptor molecule, acceptor atom, score
      P1  H  7997  8009       L1    15  0.30
      P1  H  7997  8010       L1    12  0.50

> <Gold.PLP.Chemscore.Internal.Correction>
0.0874

> <Gold.Rescore>
     Score         DG    S(hbond)    S(metal)    S(lipo)     H(rot)  DE(clash)    DE(int)     intcor
     15.34     -17.63       0.68        0.00     134.65       2.29       0.35       1.94       ----

> <Gold.Chemscore.Fitness>
15.3411

> <Gold.Chemscore.DG>
-17.6303

> <Gold.Chemscore.ZeroCoef>
-5.4800

> <Gold.Chemscore.Hbond>
0.6766

> <Gold.Chemscore.Metal>
0.0000

> <Gold.Chemscore.Lipo>
134.6490

> <Gold.Chemscore.Internal_Hbond>
0.0000

> <Gold.Chemscore.DEClash>
0.3506

> <Gold.Chemscore.DEInternal>
1.9386

> <Gold.Chemscore.Rot>
2.2905

> <Gold.Chemscore.Internal.Correction>
   9.000000E+99

> <Gold.Chemscore.Hbonds>
donor molecule, donor type, donor heavy atom, donor atom, acceptor molecule, acceptor atom, score
      P1  H  7997  8009       L1    15  0.23
      P1  H  7997  8010       L1    12  0.01

> <Gold.Chemscore.Hbond.Weighted>
-2.2599

> <Gold.Chemscore.Metal.Weighted>
-0.0000

> <Gold.Chemscore.Lipo.Weighted>
-15.7539

> <Gold.Chemscore.Internal_Hbond.Weighted>
0.0000

> <Gold.Chemscore.DEClash.Weighted>
0.3506

> <Gold.Chemscore.DEInternal.Weighted>
1.9386

> <Gold.Chemscore.Rot.Weighted>
5.8636

> <Gold.Chemscore.Internal.Correction.Weighted>
   9.000000E+99

> <Gold.Protein.RotatedTorsions>
[ 6907 6896 6895 6894 ] final -128.56 input  -60.11 | X-H torsion
[ 7974 7965 7964 7962 ] final -147.82 input  175.53 | X-H torsion
[ 8008 7997 7996 7995 ] final   25.08 input   59.86 | X-H torsion
[ 10167 10162 10161 10158 ] final -142.24 input  -65.29 | X-H torsion
[ 10718 10713 10712 10709 ] final  -16.05 input   66.30 | X-H torsion
[ 10763 10752 10751 10750 ] final   83.35 input  -60.55 | X-H torsion
[ 11005 11000 10999 10996 ] final -155.89 input  -57.11 | X-H torsion

> <Gold.Protein.ActiveResidues>
 VAL166  LYS551  ARG553  GLY616  TRP617  ASP618  TYR619  PRO620  LYS621  CYS622 
 ASP623  PHE694  ASN695  SER759  ASP760  ASP761  ALA762  ILE779  LEU786  VAL792 
 PHE793  MET794  SER795  GLU796  ALA797  LYS798  CYS799  TRP800  GLU811  SER814 

> <Gold.Protein.RotatedAtoms>
  150.9192  133.6902  159.2835 H   0  0  0  0  0  0  0  0  0  0  0  0  # atno 6907 bound_to 6896
  151.4362  135.1014  159.9666 H   0  0  0  0  0  0  0  0  0  0  0  0  # atno 6908 bound_to 6896
  152.4970  133.8610  159.7305 H   0  0  0  0  0  0  0  0  0  0  0  0  # atno 6909 bound_to 6896
  144.8069  140.5277  143.5669 H   0  0  0  0  0  0  0  0  0  0  0  0  # atno 7974 bound_to 7965
  155.0062  140.3131  155.4848 H   0  0  0  0  0  0  0  0  0  0  0  0  # atno 8008 bound_to 7997
  156.2917  140.2223  156.5115 H   0  0  0  0  0  0  0  0  0  0  0  0  # atno 8009 bound_to 7997
  154.7575  140.0461  157.0933 H   0  0  0  0  0  0  0  0  0  0  0  0  # atno 8010 bound_to 7997
  139.8107  143.7707  152.2663 H   0  0  0  0  0  0  0  0  0  0  0  0  # atno 10167 bound_to 10162
  156.5931  130.4804  149.6271 H   0  0  0  0  0  0  0  0  0  0  0  0  # atno 10718 bound_to 10713
  153.1283  135.4694  154.9308 H   0  0  0  0  0  0  0  0  0  0  0  0  # atno 10763 bound_to 10752
  154.7641  135.3139  154.8324 H   0  0  0  0  0  0  0  0  0  0  0  0  # atno 10764 bound_to 10752
  153.8872  135.6888  153.4817 H   0  0  0  0  0  0  0  0  0  0  0  0  # atno 10765 bound_to 10752
  140.6815  134.4139  157.5226 H   0  0  0  0  0  0  0  0  0  0  0  0  # atno 11005 bound_to 11000
  145.5418  139.1475  143.3443 LP  0  0  0  0  0  0  0  0  0  0  0  0  # atno 17320 bound_to 7965
  146.2361  140.5557  142.8954 LP  0  0  0  0  0  0  0  0  0  0  0  0  # atno 17321 bound_to 7965
  139.7855  144.7429  151.0028 LP  0  0  0  0  0  0  0  0  0  0  0  0  # atno 17342 bound_to 10162
  140.7818  143.4497  151.0431 LP  0  0  0  0  0  0  0  0  0  0  0  0  # atno 17343 bound_to 10162
  156.2532  130.6919  151.1664 LP  0  0  0  0  0  0  0  0  0  0  0  0  # atno 17370 bound_to 10713
  157.7298  131.0621  150.5754 LP  0  0  0  0  0  0  0  0  0  0  0  0  # atno 17371 bound_to 10713
  139.8950  134.8693  156.2150 LP  0  0  0  0  0  0  0  0  0  0  0  0  # atno 17394 bound_to 11000
  141.0314  133.6987  156.1436 LP  0  0  0  0  0  0  0  0  0  0  0  0  # atno 17395 bound_to 11000

$$$$
