AV-unprocessed.smi:1965|AV-procd|sdf|7939|dock10
  -GOLD-   2272010103D 1   1.00000     0.00000
 Structure written by MMmdl.
 37 39  0  0  0  0  0  0  0  0  2 V2000
  145.3118  137.9440  153.9455 O   0  0  0  0  0  0  0  0  0  0  0  0
  146.2547  137.5720  153.2491 C   0  0  0  0  0  0  0  0  0  0  0  0
  147.3441  138.3509  153.0781 N   0  0  0  0  0  0  0  0  0  0  0  0
  147.6725  139.6418  153.5856 C   0  0  0  0  0  0  0  0  0  0  0  0
  146.8818  140.7213  153.5242 N   0  0  0  0  0  0  0  0  0  0  0  0
  147.4805  141.8481  154.0937 C   0  0  0  0  0  0  0  0  0  0  0  0
  148.7402  141.6108  154.5827 C   0  0  0  0  0  0  0  0  0  0  0  0
  149.2266  139.9537  154.3463 S   0  0  0  0  0  0  0  0  0  0  0  0
  146.2650  136.3872  152.6164 N   0  0  0  0  0  0  0  0  0  0  0  0
  145.2004  135.3902  152.6579 C   0  0  1  0  0  0  0  0  0  0  0  0
  143.8077  136.0069  152.7106 C   0  0  0  0  0  0  0  0  0  0  0  0
  142.9240  134.8484  152.2453 C   0  0  0  0  0  0  0  0  0  0  0  0
  143.7286  134.0934  151.2572 N   0  3  2  0  0  0  0  0  0  0  0  0
  143.5063  132.6268  151.2723 C   0  0  0  0  0  0  0  0  0  0  0  0
  144.3708  131.9334  150.2029 C   0  0  0  0  0  0  0  0  0  0  0  0
  145.8532  132.3589  150.2532 C   0  0  0  0  0  0  0  0  0  0  0  0
  146.1423  133.3441  151.3962 C   0  0  0  0  0  0  0  0  0  0  0  0
  145.1488  134.5281  151.3854 C   0  0  2  0  0  0  0  0  0  0  0  0
  148.0432  137.9585  152.4639 H   0  0  0  0  0  0  0  0  0  0  0  0
  146.9378  142.7818  154.1070 H   0  0  0  0  0  0  0  0  0  0  0  0
  149.4096  142.3080  155.0646 H   0  0  0  0  0  0  0  0  0  0  0  0
  147.0807  136.1621  152.0640 H   0  0  0  0  0  0  0  0  0  0  0  0
  145.3138  134.7496  153.5352 H   0  0  0  0  0  0  0  0  0  0  0  0
  143.5402  136.3716  153.7028 H   0  0  0  0  0  0  0  0  0  0  0  0
  143.7313  136.8402  152.0098 H   0  0  0  0  0  0  0  0  0  0  0  0
  142.6902  134.2109  153.0997 H   0  0  0  0  0  0  0  0  0  0  0  0
  141.9812  135.1879  151.8157 H   0  0  0  0  0  0  0  0  0  0  0  0
  143.7417  132.2287  152.2608 H   0  0  0  0  0  0  0  0  0  0  0  0
  142.4513  132.4170  151.0928 H   0  0  0  0  0  0  0  0  0  0  0  0
  144.2908  130.8518  150.3172 H   0  0  0  0  0  0  0  0  0  0  0  0
  143.9694  132.1594  149.2141 H   0  0  0  0  0  0  0  0  0  0  0  0
  146.4931  131.4812  150.3504 H   0  0  0  0  0  0  0  0  0  0  0  0
  146.1230  132.8251  149.3048 H   0  0  0  0  0  0  0  0  0  0  0  0
  146.0849  132.8157  152.3488 H   0  0  0  0  0  0  0  0  0  0  0  0
  147.1657  133.7116  151.3176 H   0  0  0  0  0  0  0  0  0  0  0  0
  145.3513  135.1544  150.5147 H   0  0  0  0  0  0  0  0  0  0  0  0
  143.4341  134.4123  150.3451 H   0  0  0  0  0  0  0  0  0  0  0  0
  1  2  2  0  0  0  0
  2  3  1  0  0  0  0
  2  9  1  0  0  0  0
  3  4  1  0  0  0  0
  3 19  1  0  0  0  0
  4  8  1  0  0  0  0
  4  5  2  0  0  0  0
  5  6  1  0  0  0  0
  6  7  2  0  0  0  0
  6 20  1  0  0  0  0
  7  8  1  0  0  0  0
  7 21  1  0  0  0  0
  9 10  1  0  0  0  0
  9 22  1  0  0  0  0
 10 18  1  0  0  0  0
 10 11  1  0  0  0  0
 10 23  1  0  0  0  0
 11 12  1  0  0  0  0
 11 24  1  0  0  0  0
 11 25  1  0  0  0  0
 12 13  1  0  0  0  0
 12 26  1  0  0  0  0
 12 27  1  0  0  0  0
 13 18  1  0  0  0  0
 13 14  1  0  0  0  0
 13 37  1  0  0  0  0
 14 15  1  0  0  0  0
 14 28  1  0  0  0  0
 14 29  1  0  0  0  0
 15 16  1  0  0  0  0
 15 30  1  0  0  0  0
 15 31  1  0  0  0  0
 16 17  1  0  0  0  0
 16 32  1  0  0  0  0
 16 33  1  0  0  0  0
 17 18  1  0  0  0  0
 17 34  1  0  0  0  0
 17 35  1  0  0  0  0
 18 36  1  0  0  0  0
M  CHG  1  13   1
M  END
> <s_m_source_file>
AV-unprocessed.smi

> <i_m_source_file_index>
1965

> <i_lp_mmshare_version>
43012

> <i_f3d_flags>
0

> <s_epik_input>
czFbY0hdW2NIXW5jMVtOSF1DKD1PKVtOSF1bQ0BIXShbQ0gyXVtDSDJdMilbQ0BASF0oTjIzKVtDSDJdW0NIMl1bQ0gyXVtDSDJdMw==

> <s_epik_cmdline>
J2VwaWtfcHl0aG9uJywgJy1waCcsICc3LjAnLCAnLXRuJywgJzgnLCAnLW1hJywgJzIwMCcsICctbWV0YWxfYmluZGluZycsICctaW1hZScsICc8aW5maWxlLm1hZT4nLCAnLW9tYWUnLCAnPG91dGZpbGUubWFlPic=

> <r_lp_tautomer_probability>
1

> <r_epik_Ionization_Penalty>
0.00125962

> <r_epik_Ionization_Penalty_Charging>
0.00107044

> <r_epik_Ionization_Penalty_Neutral>
0.000189176

> <r_epik_State_Penalty>
-0

> <r_epik_Charging_Adjusted_Penalty>
0.00107044

> <i_epik_Tot_Q>
1

> <i_epik_Tot_abs_Q>
1

> <r_epik_Metal_State_Penalty>
0.0179285

> <b_epik_Metal_Only>
0

> <s_lp_Force_Field>
OPLS_2005

> <r_lp_Energy>
40.5286

> <b_lp_Chiralities_Consistent>
1

> <s_lp_Variant>
AV-unprocessed.smi:1965-8

> <Gold.Version>
5.8.1

> <Gold.Id.Protein>
6NUR|6NUR_protein|mol2

> <Gold.PLP.Fitness>
39.0539

> <Gold.PLP.PLP>
-32.2408

> <Gold.PLP.part.hbond>
-2.3751

> <Gold.PLP.part.metal>
0.0000

> <Gold.PLP.part.buried>
-5.1231

> <Gold.PLP.part.nonpolar>
-26.7619

> <Gold.PLP.part.repulsive>
0.3654

> <Gold.PLP.ligand.clash>
0.1505

> <Gold.PLP.ligand.torsion>
0.7982

> <Gold.PLP.Chemscore.Hbond>
1.9199

> <Gold.PLP.Chemscore.CHOScore>
0.9308

> <Gold.PLP.Chemscore.Metal>
0.0000

> <Gold.Chemscore.Hbonds>
donor molecule, donor type, donor heavy atom, donor atom, acceptor molecule, acceptor atom, score
      L1  H     3    19       P1  7948  0.93
      L1  H     9    22       P1  7948  0.99
      L1  C     7    21       P1  8028  0.91

> <Gold.PLP.Chemscore.Internal.Correction>
0.0078

> <Gold.Rescore>
     Score         DG    S(hbond)    S(metal)    S(lipo)     H(rot)  DE(clash)    DE(int)     intcor
     15.98     -18.30       1.98        0.00      74.90       1.00       0.01       2.31       ----

> <Gold.Chemscore.Fitness>
15.9752

> <Gold.Chemscore.DG>
-18.2965

> <Gold.Chemscore.ZeroCoef>
-5.4800

> <Gold.Chemscore.Hbond>
1.9799

> <Gold.Chemscore.Metal>
0.0000

> <Gold.Chemscore.Lipo>
74.9018

> <Gold.Chemscore.Internal_Hbond>
0.0000

> <Gold.Chemscore.DEClash>
0.0109

> <Gold.Chemscore.DEInternal>
2.3104

> <Gold.Chemscore.Rot>
1.0000

> <Gold.Chemscore.Internal.Correction>
   9.000000E+99

> <Gold.Chemscore.Hbonds>
donor molecule, donor type, donor heavy atom, donor atom, acceptor molecule, acceptor atom, score
      L1  H     3    19       P1  7948  0.85
      L1  H     9    22       P1  7948  0.94

> <Gold.Chemscore.Hbond.Weighted>
-6.6130

> <Gold.Chemscore.Metal.Weighted>
-0.0000

> <Gold.Chemscore.Lipo.Weighted>
-8.7635

> <Gold.Chemscore.Internal_Hbond.Weighted>
0.0000

> <Gold.Chemscore.DEClash.Weighted>
0.0109

> <Gold.Chemscore.DEInternal.Weighted>
2.3104

> <Gold.Chemscore.Rot.Weighted>
2.5600

> <Gold.Chemscore.Internal.Correction.Weighted>
   9.000000E+99

> <Gold.Protein.RotatedTorsions>
[ 6907 6896 6895 6894 ] final   10.91 input  -60.11 | X-H torsion
[ 7974 7965 7964 7962 ] final   49.82 input  175.53 | X-H torsion
[ 8008 7997 7996 7995 ] final   30.63 input   59.86 | X-H torsion
[ 10167 10162 10161 10158 ] final -154.28 input  -65.29 | X-H torsion
[ 10718 10713 10712 10709 ] final  107.20 input   66.30 | X-H torsion
[ 10763 10752 10751 10750 ] final -165.46 input  -60.55 | X-H torsion
[ 11005 11000 10999 10996 ] final   23.34 input  -57.11 | X-H torsion

> <Gold.Protein.ActiveResidues>
 VAL166  LYS551  ARG553  GLY616  TRP617  ASP618  TYR619  PRO620  LYS621  CYS622 
 ASP623  PHE694  ASN695  SER759  ASP760  ASP761  ALA762  ILE779  LEU786  VAL792 
 PHE793  MET794  SER795  GLU796  ALA797  LYS798  CYS799  TRP800  GLU811  SER814 

> <Gold.Protein.RotatedAtoms>
  151.7459  135.0844  160.0322 H   0  0  0  0  0  0  0  0  0  0  0  0  # atno 6907 bound_to 6896
  152.3449  133.6105  159.5911 H   0  0  0  0  0  0  0  0  0  0  0  0  # atno 6908 bound_to 6896
  150.7502  133.9581  159.3548 H   0  0  0  0  0  0  0  0  0  0  0  0  # atno 6909 bound_to 6896
  146.0072  139.4503  142.9978 H   0  0  0  0  0  0  0  0  0  0  0  0  # atno 7974 bound_to 7965
  155.0935  140.3222  155.4567 H   0  0  0  0  0  0  0  0  0  0  0  0  # atno 8008 bound_to 7997
  156.2736  140.2073  156.6008 H   0  0  0  0  0  0  0  0  0  0  0  0  # atno 8009 bound_to 7997
  154.6885  140.0519  157.0326 H   0  0  0  0  0  0  0  0  0  0  0  0  # atno 8010 bound_to 7997
  139.7027  143.9237  152.2435 H   0  0  0  0  0  0  0  0  0  0  0  0  # atno 10167 bound_to 10162
  157.6638  131.0867  150.6120 H   0  0  0  0  0  0  0  0  0  0  0  0  # atno 10718 bound_to 10713
  154.6930  135.2974  154.9452 H   0  0  0  0  0  0  0  0  0  0  0  0  # atno 10763 bound_to 10752
  154.0409  135.6657  153.4794 H   0  0  0  0  0  0  0  0  0  0  0  0  # atno 10764 bound_to 10752
  153.0625  135.5107  154.8032 H   0  0  0  0  0  0  0  0  0  0  0  0  # atno 10765 bound_to 10752
  140.3707  134.2026  155.7667 H   0  0  0  0  0  0  0  0  0  0  0  0  # atno 11005 bound_to 11000
  145.7398  141.0012  143.1307 LP  0  0  0  0  0  0  0  0  0  0  0  0  # atno 17320 bound_to 7965
  144.6940  139.9085  143.7462 LP  0  0  0  0  0  0  0  0  0  0  0  0  # atno 17321 bound_to 7965
  139.9084  144.6871  150.8589 LP  0  0  0  0  0  0  0  0  0  0  0  0  # atno 17342 bound_to 10162
  140.7714  143.3461  151.2107 LP  0  0  0  0  0  0  0  0  0  0  0  0  # atno 17343 bound_to 10162
  156.6422  130.4461  149.5748 LP  0  0  0  0  0  0  0  0  0  0  0  0  # atno 17370 bound_to 10713
  156.2201  130.6731  151.1359 LP  0  0  0  0  0  0  0  0  0  0  0  0  # atno 17371 bound_to 10713
  141.1955  133.8103  157.0711 LP  0  0  0  0  0  0  0  0  0  0  0  0  # atno 17394 bound_to 11000
  140.0554  134.9783  157.1211 LP  0  0  0  0  0  0  0  0  0  0  0  0  # atno 17395 bound_to 11000

$$$$
