AV-unprocessed.smi:2468|AV-procd|sdf|9729|dock2
  -GOLD-   2272013373D 1   1.00000     0.00000
 Structure written by MMmdl.
 32 33  0  0  0  0  0  0  0  0  1 V2000
  152.2923  143.9390  160.7468 C   0  0  0  0  0  0  0  0  0  0  0  0
  152.5718  142.5584  160.1831 C   0  0  0  0  0  0  0  0  0  0  0  0
  153.4593  141.8125  160.8769 N   0  0  0  0  0  0  0  0  0  0  0  0
  153.7505  140.5796  160.4143 C   0  0  0  0  0  0  0  0  0  0  0  0
  153.1737  140.0315  159.2528 C   0  0  0  0  0  0  0  0  0  0  0  0
  152.2306  140.8037  158.5328 C   0  0  0  0  0  0  0  0  0  0  0  0
  151.6054  140.3568  157.3362 N   0  0  0  0  0  0  0  0  0  0  0  0
  152.0919  139.5454  156.3788 C   0  0  0  0  0  0  0  0  0  0  0  0
  153.2148  139.0412  156.3991 O   0  0  0  0  0  0  0  0  0  0  0  0
  151.1377  139.2586  155.2093 C   0  0  2  0  0  0  0  0  0  0  0  0
  150.6187  140.4864  154.6970 O   0  0  0  0  0  0  0  0  0  0  0  0
  149.2449  140.3385  154.3492 C   0  0  0  0  0  0  0  0  0  0  0  0
  148.9403  138.8486  154.4662 C   0  0  0  0  0  0  0  0  0  0  0  0
  149.9021  138.4108  155.5522 C   0  0  1  0  0  0  0  0  0  0  0  0
  150.1482  136.8938  155.5812 C   0  0  0  0  0  0  0  0  0  0  0  0
  151.9343  142.1040  159.0046 C   0  0  0  0  0  0  0  0  0  0  0  0
  150.8098  143.1169  158.1619 Cl  0  0  0  0  0  0  0  0  0  0  0  0
  151.2348  144.0414  160.9915 H   0  0  0  0  0  0  0  0  0  0  0  0
  152.5543  144.7063  160.0180 H   0  0  0  0  0  0  0  0  0  0  0  0
  152.8680  144.1261  161.6542 H   0  0  0  0  0  0  0  0  0  0  0  0
  154.4728  140.0138  160.9839 H   0  0  0  0  0  0  0  0  0  0  0  0
  153.4738  139.0455  158.9336 H   0  0  0  0  0  0  0  0  0  0  0  0
  150.6365  140.6225  157.2310 H   0  0  0  0  0  0  0  0  0  0  0  0
  151.7020  138.7808  154.4069 H   0  0  0  0  0  0  0  0  0  0  0  0
  148.6465  140.9066  155.0625 H   0  0  0  0  0  0  0  0  0  0  0  0
  149.0413  140.7276  153.3515 H   0  0  0  0  0  0  0  0  0  0  0  0
  147.8967  138.6473  154.7101 H   0  0  0  0  0  0  0  0  0  0  0  0
  149.1737  138.3466  153.5259 H   0  0  0  0  0  0  0  0  0  0  0  0
  149.4975  138.7249  156.5164 H   0  0  0  0  0  0  0  0  0  0  0  0
  150.5575  136.5391  154.6350 H   0  0  0  0  0  0  0  0  0  0  0  0
  149.2194  136.3531  155.7650 H   0  0  0  0  0  0  0  0  0  0  0  0
  150.8489  136.6192  156.3694 H   0  0  0  0  0  0  0  0  0  0  0  0
  1  2  1  0  0  0  0
  1 18  1  0  0  0  0
  1 19  1  0  0  0  0
  1 20  1  0  0  0  0
  2 16  1  0  0  0  0
  2  3  2  0  0  0  0
  3  4  1  0  0  0  0
  4  5  2  0  0  0  0
  4 21  1  0  0  0  0
  5  6  1  0  0  0  0
  5 22  1  0  0  0  0
  6  7  1  0  0  0  0
  6 16  2  0  0  0  0
  7  8  1  0  0  0  0
  7 23  1  0  0  0  0
  8  9  2  0  0  0  0
  8 10  1  0  0  0  0
 10 14  1  0  0  0  0
 10 11  1  0  0  0  0
 10 24  1  0  0  0  0
 11 12  1  0  0  0  0
 12 13  1  0  0  0  0
 12 25  1  0  0  0  0
 12 26  1  0  0  0  0
 13 14  1  0  0  0  0
 13 27  1  0  0  0  0
 13 28  1  0  0  0  0
 14 15  1  0  0  0  0
 14 29  1  0  0  0  0
 15 30  1  0  0  0  0
 15 31  1  0  0  0  0
 15 32  1  0  0  0  0
 16 17  1  0  0  0  0
M  END
> <s_m_source_file>
AV-unprocessed.smi

> <i_m_source_file_index>
2468

> <i_lp_mmshare_version>
43012

> <i_f3d_flags>
0

> <s_epik_input>
W0NIM11jMW5bY0hdW2NIXWMoYzFDbClbTkhdQyg9TylbQ0BASF0yT1tDSDJdW0NIMl1bQ0BIXTJbQ0gzXQ==

> <s_epik_cmdline>
J2VwaWtfcHl0aG9uJywgJy1waCcsICc3LjAnLCAnLXRuJywgJzgnLCAnLW1hJywgJzIwMCcsICctbWV0YWxfYmluZGluZycsICctaW1hZScsICc8aW5maWxlLm1hZT4nLCAnLW9tYWUnLCAnPG91dGZpbGUubWFlPic=

> <r_epik_Ionization_Penalty>
0.000361027

> <r_epik_Ionization_Penalty_Charging>
0

> <r_epik_Ionization_Penalty_Neutral>
0.000361027

> <r_epik_State_Penalty>
0.000217849

> <r_epik_Charging_Adjusted_Penalty>
0.000217849

> <i_epik_Tot_Q>
0

> <i_epik_Tot_abs_Q>
0

> <r_epik_Metal_State_Penalty>
-0

> <b_epik_Metal_Only>
0

> <s_lp_Force_Field>
OPLS_2005

> <r_lp_Energy>
24.8892

> <b_lp_Chiralities_Consistent>
1

> <s_lp_Variant>
AV-unprocessed.smi:2468-1

> <Gold.Version>
5.8.1

> <Gold.Id.Protein>
6NUR|6NUR_protein|mol2

> <Gold.PLP.Fitness>
38.0668

> <Gold.PLP.PLP>
-32.8387

> <Gold.PLP.part.hbond>
-1.7395

> <Gold.PLP.part.metal>
0.0000

> <Gold.PLP.part.buried>
-4.9546

> <Gold.PLP.part.nonpolar>
-26.5015

> <Gold.PLP.part.repulsive>
0.1749

> <Gold.PLP.ligand.clash>
0.0000

> <Gold.PLP.ligand.torsion>
0.3752

> <Gold.PLP.Chemscore.Hbond>
1.9920

> <Gold.PLP.Chemscore.CHOScore>
0.0000

> <Gold.PLP.Chemscore.Metal>
0.0000

> <Gold.Chemscore.Hbonds>
donor molecule, donor type, donor heavy atom, donor atom, acceptor molecule, acceptor atom, score
      P1  H  7989  7998       L1    11  1.00
      P1  H  7997  8010       L1     9  1.00

> <Gold.PLP.Chemscore.Internal.Correction>
0.0025

> <Gold.Rescore>
     Score         DG    S(hbond)    S(metal)    S(lipo)     H(rot)  DE(clash)    DE(int)     intcor
     18.86     -19.85       1.89        0.00      90.82       1.00       0.01       0.98       ----

> <Gold.Chemscore.Fitness>
18.8632

> <Gold.Chemscore.DG>
-19.8520

> <Gold.Chemscore.ZeroCoef>
-5.4800

> <Gold.Chemscore.Hbond>
1.8880

> <Gold.Chemscore.Metal>
0.0000

> <Gold.Chemscore.Lipo>
90.8215

> <Gold.Chemscore.Internal_Hbond>
0.0000

> <Gold.Chemscore.DEClash>
0.0082

> <Gold.Chemscore.DEInternal>
0.9805

> <Gold.Chemscore.Rot>
1.0000

> <Gold.Chemscore.Internal.Correction>
   9.000000E+99

> <Gold.Chemscore.Hbonds>
donor molecule, donor type, donor heavy atom, donor atom, acceptor molecule, acceptor atom, score
      P1  H  7989  7998       L1    11  0.44
      P1  H  7997  8010       L1     9  0.84

> <Gold.Chemscore.Hbond.Weighted>
-6.3059

> <Gold.Chemscore.Metal.Weighted>
-0.0000

> <Gold.Chemscore.Lipo.Weighted>
-10.6261

> <Gold.Chemscore.Internal_Hbond.Weighted>
0.0000

> <Gold.Chemscore.DEClash.Weighted>
0.0082

> <Gold.Chemscore.DEInternal.Weighted>
0.9805

> <Gold.Chemscore.Rot.Weighted>
2.5600

> <Gold.Chemscore.Internal.Correction.Weighted>
   9.000000E+99

> <Gold.Protein.RotatedTorsions>
[ 6907 6896 6895 6894 ] final  173.75 input  -60.11 | X-H torsion
[ 7974 7965 7964 7962 ] final  115.36 input  175.53 | X-H torsion
[ 8008 7997 7996 7995 ] final   55.28 input   59.86 | X-H torsion
[ 10167 10162 10161 10158 ] final -158.53 input  -65.29 | X-H torsion
[ 10718 10713 10712 10709 ] final -150.41 input   66.30 | X-H torsion
[ 10763 10752 10751 10750 ] final  -34.48 input  -60.55 | X-H torsion
[ 11005 11000 10999 10996 ] final  125.85 input  -57.11 | X-H torsion

> <Gold.Protein.ActiveResidues>
 VAL166  LYS551  ARG553  GLY616  TRP617  ASP618  TYR619  PRO620  LYS621  CYS622 
 ASP623  PHE694  ASN695  SER759  ASP760  ASP761  ALA762  ILE779  LEU786  VAL792 
 PHE793  MET794  SER795  GLU796  ALA797  LYS798  CYS799  TRP800  GLU811  SER814 

> <Gold.Protein.RotatedAtoms>
  151.7634  133.3335  159.3423 H   0  0  0  0  0  0  0  0  0  0  0  0  # atno 6907 bound_to 6896
  150.7489  134.6085  159.6083 H   0  0  0  0  0  0  0  0  0  0  0  0  # atno 6908 bound_to 6896
  152.3390  134.7161  160.0320 H   0  0  0  0  0  0  0  0  0  0  0  0  # atno 6909 bound_to 6896
  145.1929  139.2991  143.4358 H   0  0  0  0  0  0  0  0  0  0  0  0  # atno 7974 bound_to 7965
  155.4986  140.3473  155.4367 H   0  0  0  0  0  0  0  0  0  0  0  0  # atno 8008 bound_to 7997
  156.0929  140.1415  156.9597 H   0  0  0  0  0  0  0  0  0  0  0  0  # atno 8009 bound_to 7997
  154.4646  140.0922  156.6962 H   0  0  0  0  0  0  0  0  0  0  0  0  # atno 8010 bound_to 7997
  139.6685  143.9787  152.2269 H   0  0  0  0  0  0  0  0  0  0  0  0  # atno 10167 bound_to 10162
  156.4458  130.8144  151.2374 H   0  0  0  0  0  0  0  0  0  0  0  0  # atno 10718 bound_to 10713
  153.8474  135.6852  153.4796 H   0  0  0  0  0  0  0  0  0  0  0  0  # atno 10763 bound_to 10752
  153.1418  135.4654  154.9504 H   0  0  0  0  0  0  0  0  0  0  0  0  # atno 10764 bound_to 10752
  154.7818  135.3271  154.7921 H   0  0  0  0  0  0  0  0  0  0  0  0  # atno 10765 bound_to 10752
  139.9427  134.9633  156.8619 H   0  0  0  0  0  0  0  0  0  0  0  0  # atno 11005 bound_to 11000
  146.3432  140.2148  142.8590 LP  0  0  0  0  0  0  0  0  0  0  0  0  # atno 17320 bound_to 7965
  145.0023  140.8642  143.5274 LP  0  0  0  0  0  0  0  0  0  0  0  0  # atno 17321 bound_to 7965
  139.9545  144.6598  150.8139 LP  0  0  0  0  0  0  0  0  0  0  0  0  # atno 17342 bound_to 10162
  140.7609  143.3161  151.2730 LP  0  0  0  0  0  0  0  0  0  0  0  0  # atno 17343 bound_to 10162
  157.7505  131.0153  150.3501 LP  0  0  0  0  0  0  0  0  0  0  0  0  # atno 17370 bound_to 10713
  156.3868  130.3890  149.7059 LP  0  0  0  0  0  0  0  0  0  0  0  0  # atno 17371 bound_to 10713
  140.5912  134.0259  155.7500 LP  0  0  0  0  0  0  0  0  0  0  0  0  # atno 17394 bound_to 11000
  141.1066  133.9683  157.2985 LP  0  0  0  0  0  0  0  0  0  0  0  0  # atno 17395 bound_to 11000

$$$$
