#       Name:                AV-unprocessed.smi:846
#       Creating user name   scv26
#       Creation time:       Fri Mar 27 01:39:57 2020


#       File generated by GOLD software.
#

@<TRIPOS>MOLECULE
AV-unprocessed.smi:846
    42    43     1
SMALL
NO_CHARGES


@<TRIPOS>ATOM
      1 ****        -2.2362   2.8472   0.0199 C.3            1 S1                 0.0000
      2 ****        -0.7594   3.2496   0.0473 C.3            1 S1                 0.0000
      3 ****         0.0265   2.0655  -0.0176 O.3            1 S1                 0.0000
      4 ****         1.4036   2.1731   0.0143 C.ar           1 S1                 0.0000
      5 ****         1.9585   3.4083   0.0916 N.ar           1 S1                 0.0000
      6 ****         3.3042   3.5038   0.1225 C.ar           1 S1                 0.0000
      7 ****         4.1586   2.3862   0.0728 C.ar           1 S1                 0.0000
      8 ****         3.5840   1.1040  -0.0081 C.ar           1 S1                 0.0000
      9 ****         2.1739   0.9891  -0.0279 C.ar           1 S1                 0.0000
     10 ****         1.4798  -0.2452  -0.1260 N.am           1 S1                 0.0000
     11 ****         1.8698  -1.4718   0.2674 C.2            1 S1                 0.0000
     12 ****         2.9908  -1.7514   0.6862 O.2            1 S1                 0.0000
     13 ****         0.9032  -2.4039   0.1751 N.am           1 S1                 0.0000
     14 ****         0.9887  -3.8260   0.5176 C.3            1 S1                 0.0000
     15 ****        -0.4114  -4.4593   0.6176 C.3            1 S1                 0.0000
     16 ****        -0.2635  -5.9870   0.6340 C.3            1 S1                 0.0000
     17 ****         1.2574  -6.3663  -0.3182 S.o2           1 S1                 0.0000
     18 ****         2.2092  -7.0599   0.5629 O.2            1 S1                 0.0000
     19 ****         0.8965  -6.9219  -1.6311 O.2            1 S1                 0.0000
     20 ****         1.7856  -4.6266  -0.5264 C.3            1 S1                 0.0000
     21 ****        -2.8808   3.7250   0.0681 H              1 S1                 0.0000
     22 ****        -2.4827   2.2033   0.8648 H              1 S1                 0.0000
     23 ****        -2.4772   2.3042  -0.8945 H              1 S1                 0.0000
     24 ****        -0.5387   3.9004  -0.8002 H              1 S1                 0.0000
     25 ****        -0.5459   3.8008   0.9643 H              1 S1                 0.0000
     26 ****         3.7125   4.5018   0.1830 H              1 S1                 0.0000
     27 ****         5.2314   2.5103   0.0908 H              1 S1                 0.0000
     28 ****         4.2301   0.2419  -0.0676 H              1 S1                 0.0000
     29 ****         0.5128  -0.1665  -0.4051 H              1 S1                 0.0000
     30 ****         0.0080  -2.0888  -0.1704 H              1 S1                 0.0000
     31 ****         1.4679  -3.9419   1.4914 H              1 S1                 0.0000
     32 ****        -0.9571  -4.1017   1.4913 H              1 S1                 0.0000
     33 ****        -0.9962  -4.1765  -0.2591 H              1 S1                 0.0000
     34 ****        -0.1220  -6.3521   1.6516 H              1 S1                 0.0000
     35 ****        -1.1198  -6.5001   0.1963 H              1 S1                 0.0000
     36 ****         1.5270  -4.3185  -1.5401 H              1 S1                 0.0000
     37 ****         2.8661  -4.5494  -0.4036 H              1 S1                 0.0000
     38 ****        -0.2116   1.6022  -0.8712 LP             1 S1                 0.0000
     39 ****        -0.2408   1.4935   0.7579 LP             1 S1                 0.0000
     40 ****         1.3852   4.2270   0.1249 LP             1 S1                 0.0000
     41 ****         3.6910  -1.0407   0.7536 LP             1 S1                 0.0000
     42 ****         3.2028  -2.6897   0.9596 LP             1 S1                 0.0000
@<TRIPOS>BOND
    1    1    2 1     
    2    1   21 1     
    3    1   22 1     
    4    1   23 1     
    5    2    3 1     
    6    2   24 1     
    7    2   25 1     
    8    3    4 1     
    9    4    9 ar    
   10    4    5 ar    
   11    5    6 ar    
   12    6    7 ar    
   13    6   26 1     
   14    7    8 ar    
   15    7   27 1     
   16    8    9 ar    
   17    8   28 1     
   18    9   10 1     
   19   10   11 am    
   20   10   29 1     
   21   11   12 2     
   22   11   13 am    
   23   13   14 1     
   24   13   30 1     
   25   14   20 1     
   26   14   15 1     
   27   14   31 1     
   28   15   16 1     
   29   15   32 1     
   30   15   33 1     
   31   16   17 1     
   32   16   34 1     
   33   16   35 1     
   34   17   18 2     
   35   17   19 2     
   36   17   20 1     
   37   20   36 1     
   38   20   37 1     
   39    3   38 1     
   40    3   39 1     
   41    5   40 1     
   42   12   41 1     
   43   12   42 1     
@<TRIPOS>SUBSTRUCTURE
      1 S1             1
@<TRIPOS>SET
LONE_PAIRS      STATIC     ATOMS    <user>   **** ""
7 38 39 40 41 42 18 19
DONOR_HYDROGENS      STATIC     ATOMS    <user>   **** ""
2 29 30
ATOM$BLUE        STATIC     ATOMS    COLORGROUP SYSTEM
7 38 39 40 41 42 18 19
ATOM$RED        STATIC     ATOMS    COLORGROUP SYSTEM
2 29 30
