#       Name:                AV-unprocessed.smi:92
#       Creating user name   scv26
#       Creation time:       Thu Mar 26 17:28:13 2020


#       File generated by GOLD software.
#

@<TRIPOS>MOLECULE
AV-unprocessed.smi:92
    68    71     1
SMALL
NO_CHARGES


@<TRIPOS>ATOM
      1 ****        -4.1474  -4.6949  -3.8771 C.3            1 S1                 0.0000
      2 ****        -4.4482  -4.2451  -2.4400 C.3            1 S1                 0.0000
      3 ****        -3.6689  -3.0447  -2.0438 N.4            1 S1                 1.0000
      4 ****        -4.1632  -1.7916  -2.6704 C.3            1 S1                 0.0000
      5 ****        -3.2253  -0.6179  -2.3573 C.3            1 S1                 0.0000
      6 ****        -3.0527  -0.4353  -0.8340 C.3            1 S1                 0.0000
      7 ****        -2.2263   0.7325  -0.4895 N.pl3          1 S1                 0.0000
      8 ****        -2.8112   2.0582  -0.6632 C.3            1 S1                 0.0000
      9 ****        -0.8668   0.7116  -0.5336 C.ar           1 S1                 0.0000
     10 ****        -0.2210  -0.0819  -1.4278 N.ar           1 S1                 0.0000
     11 ****         1.1137  -0.0933  -1.4852 C.ar           1 S1                 0.0000
     12 ****         1.9855   0.5980  -0.7498 N.ar           1 S1                 0.0000
     13 ****         1.3476   1.3951   0.1541 C.ar           1 S1                 0.0000
     14 ****        -0.0613   1.5170   0.3217 C.ar           1 S1                 0.0000
     15 ****        -0.3379   2.4297   1.3327 N.2            1 S1                 0.0000
     16 ****         0.8376   2.8330   1.7303 C.2            1 S1                 0.0000
     17 ****         1.9066   2.2396   1.0981 N.pl3          1 S1                 0.0000
     18 ****         3.2955   2.5238   1.3148 C.3            1 S1                 0.0000
     19 ****         4.3386   1.4028   1.3326 C.3            1 S1                 0.0000
     20 ****         5.1192   2.1272   2.4515 C.3            1 S1                 0.0000
     21 ****         5.5561   1.2352   3.6238 C.3            1 S1                 0.0000
     22 ****         6.4731   0.2455   3.2034 O.3            1 S1                 0.0000
     23 ****         6.3518   2.9579   2.0293 C.3            1 S1                 0.0000
     24 ****         6.0806   3.8714   0.9858 O.3            1 S1                 0.0000
     25 ****         3.8154   2.9178   2.7016 C.3            1 S1                 0.0000
     26 ****        -2.6076  -1.7646  -0.1665 C.3            1 S1                 0.0000
     27 ****        -2.5378  -1.6509   1.3667 C.3            1 S1                 0.0000
     28 ****        -3.5666  -2.9042  -0.5685 C.3            1 S1                 0.0000
     29 ****        -4.6578  -5.6325  -4.0984 H              1 S1                 0.0000
     30 ****        -3.0792  -4.8587  -4.0235 H              1 S1                 0.0000
     31 ****        -4.4811  -3.9660  -4.6151 H              1 S1                 0.0000
     32 ****        -5.5153  -4.0609  -2.3080 H              1 S1                 0.0000
     33 ****        -4.1942  -5.0731  -1.7770 H              1 S1                 0.0000
     34 ****        -4.2308  -1.9053  -3.7515 H              1 S1                 0.0000
     35 ****        -5.1709  -1.5745  -2.3126 H              1 S1                 0.0000
     36 ****        -2.2668  -0.7991  -2.8419 H              1 S1                 0.0000
     37 ****        -3.6253   0.2925  -2.8046 H              1 S1                 0.0000
     38 ****        -4.0428  -0.2120  -0.4333 H              1 S1                 0.0000
     39 ****        -2.8762   2.5719   0.2960 H              1 S1                 0.0000
     40 ****        -3.8202   1.9955  -1.0711 H              1 S1                 0.0000
     41 ****        -2.2160   2.6701  -1.3428 H              1 S1                 0.0000
     42 ****         1.5452  -0.7507  -2.2256 H              1 S1                 0.0000
     43 ****         0.9560   3.5738   2.5077 H              1 S1                 0.0000
     44 ****         3.5602   3.2804   0.5754 H              1 S1                 0.0000
     45 ****         3.9155   0.4514   1.6599 H              1 S1                 0.0000
     46 ****         4.8845   1.2835   0.3962 H              1 S1                 0.0000
     47 ****         6.0116   1.8241   4.4207 H              1 S1                 0.0000
     48 ****         4.7000   0.7261   4.0679 H              1 S1                 0.0000
     49 ****         6.0532  -0.2934   2.5500 H              1 S1                 0.0000
     50 ****         6.7392   3.5285   2.8738 H              1 S1                 0.0000
     51 ****         7.1624   2.3115   1.6923 H              1 S1                 0.0000
     52 ****         6.8759   4.3395   0.7820 H              1 S1                 0.0000
     53 ****         3.9485   3.9910   2.8424 H              1 S1                 0.0000
     54 ****         3.2113   2.4946   3.5059 H              1 S1                 0.0000
     55 ****        -1.6177  -2.0459  -0.5235 H              1 S1                 0.0000
     56 ****        -3.5023  -1.3641   1.7869 H              1 S1                 0.0000
     57 ****        -1.8045  -0.9087   1.6825 H              1 S1                 0.0000
     58 ****        -2.2479  -2.6001   1.8180 H              1 S1                 0.0000
     59 ****        -4.5605  -2.7313  -0.1517 H              1 S1                 0.0000
     60 ****        -3.2043  -3.8399  -0.1401 H              1 S1                 0.0000
     61 ****        -2.7273  -3.1923  -2.3784 H              1 S1                 0.0000
     62 ****        -0.7491  -0.6620  -2.0479 LP             1 S1                 0.0000
     63 ****         2.9789   0.5394  -0.8485 LP             1 S1                 0.0000
     64 ****        -1.2332   2.7127   1.6768 LP             1 S1                 0.0000
     65 ****         6.7422  -0.3186   3.9840 LP             1 S1                 0.0000
     66 ****         7.2836   0.6810   2.8117 LP             1 S1                 0.0000
     67 ****         5.3748   4.5169   1.2777 LP             1 S1                 0.0000
     68 ****         5.7646   3.3754   0.1771 LP             1 S1                 0.0000
@<TRIPOS>BOND
    1    1    2 1     
    2    1   29 1     
    3    1   30 1     
    4    1   31 1     
    5    2    3 1     
    6    2   32 1     
    7    2   33 1     
    8    3   28 1     
    9    3    4 1     
   10    3   61 1     
   11    4    5 1     
   12    4   34 1     
   13    4   35 1     
   14    5    6 1     
   15    5   36 1     
   16    5   37 1     
   17    6    7 1     
   18    6   26 1     
   19    6   38 1     
   20    7    8 1     
   21    7    9 1     
   22    8   39 1     
   23    8   40 1     
   24    8   41 1     
   25    9   14 ar    
   26    9   10 ar    
   27   10   11 ar    
   28   11   12 ar    
   29   11   42 1     
   30   12   13 ar    
   31   13   17 1     
   32   13   14 ar    
   33   14   15 1     
   34   15   16 2     
   35   16   17 1     
   36   16   43 1     
   37   17   18 1     
   38   18   25 1     
   39   18   19 1     
   40   18   44 1     
   41   19   20 1     
   42   19   45 1     
   43   19   46 1     
   44   20   21 1     
   45   20   23 1     
   46   20   25 1     
   47   21   22 1     
   48   21   47 1     
   49   21   48 1     
   50   22   49 1     
   51   23   24 1     
   52   23   50 1     
   53   23   51 1     
   54   24   52 1     
   55   25   53 1     
   56   25   54 1     
   57   26   27 1     
   58   26   28 1     
   59   26   55 1     
   60   27   56 1     
   61   27   57 1     
   62   27   58 1     
   63   28   59 1     
   64   28   60 1     
   65   10   62 1     
   66   12   63 1     
   67   15   64 1     
   68   22   65 1     
   69   22   66 1     
   70   24   67 1     
   71   24   68 1     
@<TRIPOS>SUBSTRUCTURE
      1 S1             1
@<TRIPOS>SET
LONE_PAIRS      STATIC     ATOMS    <user>   **** ""
7 62 63 64 65 66 67 68
DONOR_HYDROGENS      STATIC     ATOMS    <user>   **** ""
3 61 49 52
ATOM$BLUE        STATIC     ATOMS    COLORGROUP SYSTEM
7 62 63 64 65 66 67 68
ATOM$RED        STATIC     ATOMS    COLORGROUP SYSTEM
3 61 49 52
