AV-unprocessed.smi:2971|AV-procd|sdf|11333|dock1
  -GOLD-   2272016243D 1   1.00000     0.00000
 Structure written by MMmdl.
 36 38  0  0  0  0  0  0  0  0  1 V2000
  153.1945  139.0886  156.7113 O   0  0  0  0  0  0  0  0  0  0  0  0
  151.9184  139.6824  156.5705 C   0  0  1  0  0  0  0  0  0  0  0  0
  151.9212  141.0253  157.3180 C   0  0  0  0  0  0  0  0  0  0  0  0
  152.6764  140.8849  158.5143 O   0  0  0  0  0  0  0  0  0  0  0  0
  152.5196  141.8335  159.5031 C   0  0  0  0  0  0  0  0  0  0  0  0
  151.7043  142.9874  159.3759 C   0  0  0  0  0  0  0  0  0  0  0  0
  151.6000  143.9081  160.4367 C   0  0  0  0  0  0  0  0  0  0  0  0
  152.3045  143.6897  161.6347 C   0  0  0  0  0  0  0  0  0  0  0  0
  153.1149  142.5476  161.7708 C   0  0  0  0  0  0  0  0  0  0  0  0
  153.2213  141.6267  160.7103 C   0  0  0  0  0  0  0  0  0  0  0  0
  154.0064  140.5323  160.8540 F   0  0  0  0  0  0  0  0  0  0  0  0
  151.6125  139.8618  155.0706 C   0  0  0  0  0  0  0  0  0  0  0  0
  150.2495  139.4927  154.7305 N   0  0  0  0  0  0  0  0  0  0  0  0
  149.7601  138.2456  154.5929 C   0  0  0  0  0  0  0  0  0  0  0  0
  148.4729  138.1263  154.2802 N   0  0  0  0  0  0  0  0  0  0  0  0
  148.0804  139.4518  154.2050 C   0  0  0  0  0  0  0  0  0  0  0  0
  146.8198  140.0194  153.9109 C   0  0  0  0  0  0  0  0  0  0  0  0
  146.6539  141.4200  153.8911 C   0  0  0  0  0  0  0  0  0  0  0  0
  147.7434  142.2730  154.1629 C   0  0  0  0  0  0  0  0  0  0  0  0
  149.0087  141.7308  154.4588 C   0  0  0  0  0  0  0  0  0  0  0  0
  149.1696  140.3330  154.4801 C   0  0  0  0  0  0  0  0  0  0  0  0
  153.0802  138.1554  156.8092 H   0  0  0  0  0  0  0  0  0  0  0  0
  151.1693  139.0212  157.0085 H   0  0  0  0  0  0  0  0  0  0  0  0
  152.3135  141.8215  156.6824 H   0  0  0  0  0  0  0  0  0  0  0  0
  150.8972  141.2885  157.5885 H   0  0  0  0  0  0  0  0  0  0  0  0
  151.1474  143.1902  158.4741 H   0  0  0  0  0  0  0  0  0  0  0  0
  150.9772  144.7842  160.3299 H   0  0  0  0  0  0  0  0  0  0  0  0
  152.2237  144.3964  162.4475 H   0  0  0  0  0  0  0  0  0  0  0  0
  153.6562  142.3769  162.6896 H   0  0  0  0  0  0  0  0  0  0  0  0
  151.7623  140.9018  154.7779 H   0  0  0  0  0  0  0  0  0  0  0  0
  152.2991  139.2680  154.4655 H   0  0  0  0  0  0  0  0  0  0  0  0
  150.3852  137.3755  154.7313 H   0  0  0  0  0  0  0  0  0  0  0  0
  145.9788  139.3757  153.6997 H   0  0  0  0  0  0  0  0  0  0  0  0
  145.6858  141.8422  153.6655 H   0  0  0  0  0  0  0  0  0  0  0  0
  147.6071  143.3445  154.1430 H   0  0  0  0  0  0  0  0  0  0  0  0
  149.8465  142.3806  154.6640 H   0  0  0  0  0  0  0  0  0  0  0  0
  1  2  1  0  0  0  0
  1 22  1  0  0  0  0
  2  3  1  0  0  0  0
  2 12  1  0  0  0  0
  2 23  1  0  0  0  0
  3  4  1  0  0  0  0
  3 24  1  0  0  0  0
  3 25  1  0  0  0  0
  4  5  1  0  0  0  0
  5 10  1  0  0  0  0
  5  6  2  0  0  0  0
  6  7  1  0  0  0  0
  6 26  1  0  0  0  0
  7  8  2  0  0  0  0
  7 27  1  0  0  0  0
  8  9  1  0  0  0  0
  8 28  1  0  0  0  0
  9 10  2  0  0  0  0
  9 29  1  0  0  0  0
 10 11  1  0  0  0  0
 12 13  1  0  0  0  0
 12 30  1  0  0  0  0
 12 31  1  0  0  0  0
 13 21  1  0  0  0  0
 13 14  1  0  0  0  0
 14 15  2  0  0  0  0
 14 32  1  0  0  0  0
 15 16  1  0  0  0  0
 16 21  2  0  0  0  0
 16 17  1  0  0  0  0
 17 18  2  0  0  0  0
 17 33  1  0  0  0  0
 18 19  1  0  0  0  0
 18 34  1  0  0  0  0
 19 20  2  0  0  0  0
 19 35  1  0  0  0  0
 20 21  1  0  0  0  0
 20 36  1  0  0  0  0
M  END
> <s_m_source_file>
AV-unprocessed.smi

> <i_m_source_file_index>
2971

> <i_lp_mmshare_version>
43012

> <i_f3d_flags>
0

> <s_epik_input>
W2NIXTFbY0hdW2NIXVtjSF1jKGMxMiluKFtjSF1uMilbQ0gyXVtDQEhdKFtPSF0pW0NIMl1PYzNbY0hdW2NIXVtjSF1bY0hdYzNG

> <s_epik_cmdline>
J2VwaWtfcHl0aG9uJywgJy1waCcsICc3LjAnLCAnLXRuJywgJzgnLCAnLW1hJywgJzIwMCcsICctbWV0YWxfYmluZGluZycsICctaW1hZScsICc8aW5maWxlLm1hZT4nLCAnLW9tYWUnLCAnPG91dGZpbGUubWFlPic=

> <r_lp_tautomer_probability>
1

> <r_epik_Ionization_Penalty>
0.0600913

> <r_epik_Ionization_Penalty_Charging>
0

> <r_epik_Ionization_Penalty_Neutral>
0.0600913

> <r_epik_State_Penalty>
0.0520726

> <r_epik_Charging_Adjusted_Penalty>
0.0520726

> <i_epik_Tot_Q>
0

> <i_epik_Tot_abs_Q>
0

> <r_epik_Metal_State_Penalty>
5.44269e-05

> <b_epik_Metal_Only>
0

> <s_lp_Force_Field>
OPLS_2005

> <r_lp_Energy>
16.3694

> <b_lp_Chiralities_Consistent>
1

> <s_lp_Variant>
AV-unprocessed.smi:2971-2

> <Gold.Version>
5.8.1

> <Gold.Id.Protein>
6NUR|6NUR_protein|mol2

> <Gold.PLP.Fitness>
49.1060

> <Gold.PLP.PLP>
-48.2785

> <Gold.PLP.part.hbond>
-0.9262

> <Gold.PLP.part.metal>
0.0000

> <Gold.PLP.part.buried>
-2.2084

> <Gold.PLP.part.nonpolar>
-43.9362

> <Gold.PLP.part.repulsive>
0.7853

> <Gold.PLP.ligand.clash>
0.0000

> <Gold.PLP.ligand.torsion>
1.1445

> <Gold.PLP.Chemscore.Hbond>
1.0000

> <Gold.PLP.Chemscore.CHOScore>
0.0000

> <Gold.PLP.Chemscore.Metal>
0.0000

> <Gold.Chemscore.Hbonds>
donor molecule, donor type, donor heavy atom, donor atom, acceptor molecule, acceptor atom, score
      P1  H  7997  8010       L1     1  1.00

> <Gold.PLP.Chemscore.Internal.Correction>
0.1164

> <Gold.Rescore>
     Score         DG    S(hbond)    S(metal)    S(lipo)     H(rot)  DE(clash)    DE(int)     intcor
     15.95     -16.94       0.94        0.00     123.18       2.37       0.02       0.97       ----

> <Gold.Chemscore.Fitness>
15.9526

> <Gold.Chemscore.DG>
-16.9416

> <Gold.Chemscore.ZeroCoef>
-5.4800

> <Gold.Chemscore.Hbond>
0.9359

> <Gold.Chemscore.Metal>
0.0000

> <Gold.Chemscore.Lipo>
123.1783

> <Gold.Chemscore.Internal_Hbond>
0.0000

> <Gold.Chemscore.DEClash>
0.0201

> <Gold.Chemscore.DEInternal>
0.9689

> <Gold.Chemscore.Rot>
2.3735

> <Gold.Chemscore.Internal.Correction>
   9.000000E+99

> <Gold.Chemscore.Hbonds>
donor molecule, donor type, donor heavy atom, donor atom, acceptor molecule, acceptor atom, score
      P1  H  7997  8010       L1     1  0.90

> <Gold.Chemscore.Hbond.Weighted>
-3.1260

> <Gold.Chemscore.Metal.Weighted>
-0.0000

> <Gold.Chemscore.Lipo.Weighted>
-14.4119

> <Gold.Chemscore.Internal_Hbond.Weighted>
0.0000

> <Gold.Chemscore.DEClash.Weighted>
0.0201

> <Gold.Chemscore.DEInternal.Weighted>
0.9689

> <Gold.Chemscore.Rot.Weighted>
6.0762

> <Gold.Chemscore.Internal.Correction.Weighted>
   9.000000E+99

> <Gold.Protein.RotatedTorsions>
[ 6907 6896 6895 6894 ] final -125.67 input  -60.11 | X-H torsion
[ 7974 7965 7964 7962 ] final   84.71 input  175.53 | X-H torsion
[ 8008 7997 7996 7995 ] final   53.21 input   59.86 | X-H torsion
[ 10167 10162 10161 10158 ] final -155.93 input  -65.29 | X-H torsion
[ 10718 10713 10712 10709 ] final  -14.15 input   66.30 | X-H torsion
[ 10763 10752 10751 10750 ] final  100.54 input  -60.55 | X-H torsion
[ 11005 11000 10999 10996 ] final  -73.77 input  -57.11 | X-H torsion

> <Gold.Protein.ActiveResidues>
 VAL166  LYS551  ARG553  GLY616  TRP617  ASP618  TYR619  PRO620  LYS621  CYS622 
 ASP623  PHE694  ASN695  SER759  ASP760  ASP761  ALA762  ILE779  LEU786  VAL792 
 PHE793  MET794  SER795  GLU796  ALA797  LYS798  CYS799  TRP800  GLU811  SER814 

> <Gold.Protein.RotatedAtoms>
  150.8891  133.7268  159.2909 H   0  0  0  0  0  0  0  0  0  0  0  0  # atno 6907 bound_to 6896
  151.4824  135.1051  159.9791 H   0  0  0  0  0  0  0  0  0  0  0  0  # atno 6908 bound_to 6896
  152.4808  133.8204  159.7106 H   0  0  0  0  0  0  0  0  0  0  0  0  # atno 6909 bound_to 6896
  145.5952  139.2344  143.2277 H   0  0  0  0  0  0  0  0  0  0  0  0  # atno 7974 bound_to 7965
  155.4645  140.3463  155.4317 H   0  0  0  0  0  0  0  0  0  0  0  0  # atno 8008 bound_to 7997
  156.1140  140.1468  156.9328 H   0  0  0  0  0  0  0  0  0  0  0  0  # atno 8009 bound_to 7997
  154.4776  140.0880  156.7278 H   0  0  0  0  0  0  0  0  0  0  0  0  # atno 8010 bound_to 7997
  139.6891  143.9450  152.2376 H   0  0  0  0  0  0  0  0  0  0  0  0  # atno 10167 bound_to 10162
  156.6200  130.4873  149.6168 H   0  0  0  0  0  0  0  0  0  0  0  0  # atno 10718 bound_to 10713
  153.3152  135.4075  155.1370 H   0  0  0  0  0  0  0  0  0  0  0  0  # atno 10763 bound_to 10752
  154.8586  135.3574  154.5670 H   0  0  0  0  0  0  0  0  0  0  0  0  # atno 10764 bound_to 10752
  153.6101  135.7068  153.5409 H   0  0  0  0  0  0  0  0  0  0  0  0  # atno 10765 bound_to 10752
  141.1627  133.6889  156.7262 H   0  0  0  0  0  0  0  0  0  0  0  0  # atno 11005 bound_to 11000
  146.1617  140.6777  142.9274 LP  0  0  0  0  0  0  0  0  0  0  0  0  # atno 17320 bound_to 7965
  144.7334  140.4738  143.6921 LP  0  0  0  0  0  0  0  0  0  0  0  0  # atno 17321 bound_to 7965
  139.9261  144.6770  150.8411 LP  0  0  0  0  0  0  0  0  0  0  0  0  # atno 17342 bound_to 10162
  140.7677  143.3341  151.2347 LP  0  0  0  0  0  0  0  0  0  0  0  0  # atno 17343 bound_to 10162
  156.2319  130.6800  151.1472 LP  0  0  0  0  0  0  0  0  0  0  0  0  # atno 17370 bound_to 10713
  157.7230  131.0669  150.6054 LP  0  0  0  0  0  0  0  0  0  0  0  0  # atno 17371 bound_to 10713
  140.2779  134.8340  157.3907 LP  0  0  0  0  0  0  0  0  0  0  0  0  # atno 17394 bound_to 11000
  140.1460  134.4910  155.7996 LP  0  0  0  0  0  0  0  0  0  0  0  0  # atno 17395 bound_to 11000

$$$$
