AV-unprocessed.smi:1718|AV-procd|sdf|6923|dock3
  -GOLD-   22720 8133D 1   1.00000     0.00000
 Structure written by MMmdl.
 40 41  0  0  0  0  0  0  0  0  1 V2000
  151.7248  136.2955  157.3357 C   0  0  0  0  0  0  0  0  0  0  0  0
  150.4756  137.0707  157.7812 C   0  0  1  0  0  0  0  0  0  0  0  0
  149.9833  136.4458  158.9636 O   0  0  0  0  0  0  0  0  0  0  0  0
  148.6586  136.8047  159.3407 C   0  0  0  0  0  0  0  0  0  0  0  0
  148.3453  136.1721  160.7017 C   0  0  2  0  0  0  0  0  0  0  0  0
  147.4099  134.9679  160.6343 C   0  0  0  0  0  0  0  0  0  0  0  0
  146.8712  134.9280  162.0465 C   0  0  0  0  0  0  0  0  0  0  0  0
  146.7539  136.4117  162.3943 C   0  0  0  0  0  0  0  0  0  0  0  0
  147.6643  137.1003  161.5387 O   0  0  0  0  0  0  0  0  0  0  0  0
  150.7983  138.5494  158.0528 C   0  0  0  0  0  0  0  0  0  0  0  0
  151.2272  138.8826  159.1575 O   0  0  0  0  0  0  0  0  0  0  0  0
  150.5791  139.3881  157.0207 N   0  0  0  0  0  0  0  0  0  0  0  0
  150.7187  140.7848  156.9624 C   0  0  0  0  0  0  0  0  0  0  0  0
  151.1512  141.5649  157.9874 C   0  0  0  0  0  0  0  0  0  0  0  0
  151.2568  143.0093  157.8664 C   0  0  0  0  0  0  0  0  0  0  0  0
  151.8181  143.8632  158.9927 C   0  0  0  0  0  0  0  0  0  0  0  0
  152.2742  143.1073  159.9926 F   0  0  0  0  0  0  0  0  0  0  0  0
  152.8278  144.6041  158.5383 F   0  0  0  0  0  0  0  0  0  0  0  0
  150.8876  144.6844  159.4799 F   0  0  0  0  0  0  0  0  0  0  0  0
  150.9102  143.5390  156.6787 C   0  0  0  0  0  0  0  0  0  0  0  0
  150.4430  142.7467  155.6277 N   0  0  0  0  0  0  0  0  0  0  0  0
  150.3188  141.4018  155.6868 C   0  0  0  0  0  0  0  0  0  0  0  0
  149.8960  140.7738  154.7167 O   0  0  0  0  0  0  0  0  0  0  0  0
  150.1866  143.2214  154.7740 H   0  0  0  0  0  0  0  0  0  0  0  0
  152.1615  136.7309  156.4360 H   0  0  0  0  0  0  0  0  0  0  0  0
  151.4752  135.2582  157.1115 H   0  0  0  0  0  0  0  0  0  0  0  0
  152.4912  136.2876  158.1116 H   0  0  0  0  0  0  0  0  0  0  0  0
  149.7256  136.9915  156.9916 H   0  0  0  0  0  0  0  0  0  0  0  0
  148.5625  137.8880  159.4193 H   0  0  0  0  0  0  0  0  0  0  0  0
  147.9414  136.4666  158.5912 H   0  0  0  0  0  0  0  0  0  0  0  0
  149.2715  135.8895  161.2050 H   0  0  0  0  0  0  0  0  0  0  0  0
  146.5978  135.1482  159.9285 H   0  0  0  0  0  0  0  0  0  0  0  0
  147.9200  134.0488  160.3443 H   0  0  0  0  0  0  0  0  0  0  0  0
  145.9243  134.3941  162.1302 H   0  0  0  0  0  0  0  0  0  0  0  0
  147.5942  134.4448  162.7051 H   0  0  0  0  0  0  0  0  0  0  0  0
  145.7462  136.7771  162.1943 H   0  0  0  0  0  0  0  0  0  0  0  0
  146.9796  136.6022  163.4438 H   0  0  0  0  0  0  0  0  0  0  0  0
  150.2988  138.9584  156.1505 H   0  0  0  0  0  0  0  0  0  0  0  0
  151.4101  141.1352  158.9413 H   0  0  0  0  0  0  0  0  0  0  0  0
  150.9664  144.5914  156.4422 H   0  0  0  0  0  0  0  0  0  0  0  0
  1  2  1  0  0  0  0
  1 25  1  0  0  0  0
  1 26  1  0  0  0  0
  1 27  1  0  0  0  0
  2  3  1  0  0  0  0
  2 10  1  0  0  0  0
  2 28  1  0  0  0  0
  3  4  1  0  0  0  0
  4  5  1  0  0  0  0
  4 29  1  0  0  0  0
  4 30  1  0  0  0  0
  5  9  1  0  0  0  0
  5  6  1  0  0  0  0
  5 31  1  0  0  0  0
  6  7  1  0  0  0  0
  6 32  1  0  0  0  0
  6 33  1  0  0  0  0
  7  8  1  0  0  0  0
  7 34  1  0  0  0  0
  7 35  1  0  0  0  0
  8  9  1  0  0  0  0
  8 36  1  0  0  0  0
  8 37  1  0  0  0  0
 10 11  2  0  0  0  0
 10 12  1  0  0  0  0
 12 13  1  0  0  0  0
 12 38  1  0  0  0  0
 13 22  1  0  0  0  0
 13 14  2  0  0  0  0
 14 15  1  0  0  0  0
 14 39  1  0  0  0  0
 15 16  1  0  0  0  0
 15 20  2  0  0  0  0
 16 17  1  0  0  0  0
 16 18  1  0  0  0  0
 16 19  1  0  0  0  0
 20 21  1  0  0  0  0
 20 40  1  0  0  0  0
 21 24  1  0  0  0  0
 21 22  1  0  0  0  0
 22 23  2  0  0  0  0
M  END
> <s_m_source_file>
AV-unprocessed.smi

> <i_m_source_file_index>
1718

> <i_lp_mmshare_version>
43012

> <i_f3d_flags>
0

> <s_epik_input>
TzFbQ0gyXVtDSDJdW0NIMl1bQ0BIXTFbQ0gyXU9bQ0BASF0oW0NIM10pQyg9TylbTkhdYzJbY0hdYyhDKEYpKEYpRilbY0hdW25IXWMyPU8=

> <s_epik_cmdline>
J2VwaWtfcHl0aG9uJywgJy1waCcsICc3LjAnLCAnLXRuJywgJzgnLCAnLW1hJywgJzIwMCcsICctbWV0YWxfYmluZGluZycsICctaW1hZScsICc8aW5maWxlLm1hZT4nLCAnLW9tYWUnLCAnPG91dGZpbGUubWFlPic=

> <r_lp_tautomer_probability>
0.999

> <r_epik_Ionization_Penalty>
0.00894336

> <r_epik_Ionization_Penalty_Charging>
0.00894326

> <r_epik_Ionization_Penalty_Neutral>
1.00145e-07

> <r_epik_State_Penalty>
0.00676626

> <r_epik_Charging_Adjusted_Penalty>
0.0157095

> <i_epik_Tot_Q>
0

> <i_epik_Tot_abs_Q>
0

> <r_epik_Metal_State_Penalty>
0.321145

> <b_epik_Metal_Only>
0

> <s_lp_Force_Field>
OPLS_2005

> <r_lp_Energy>
34.2201

> <b_lp_Chiralities_Consistent>
1

> <s_lp_Variant>
AV-unprocessed.smi:1718-2

> <Gold.Version>
5.8.1

> <Gold.Id.Protein>
6NUR|6NUR_protein|mol2

> <Gold.PLP.Fitness>
51.5831

> <Gold.PLP.PLP>
-43.2475

> <Gold.PLP.part.hbond>
-5.0000

> <Gold.PLP.part.metal>
0.0000

> <Gold.PLP.part.buried>
1.0159

> <Gold.PLP.part.nonpolar>
-38.8421

> <Gold.PLP.part.repulsive>
0.3235

> <Gold.PLP.ligand.clash>
0.0000

> <Gold.PLP.ligand.torsion>
1.5941

> <Gold.PLP.Chemscore.Hbond>
3.4750

> <Gold.PLP.Chemscore.CHOScore>
0.3259

> <Gold.PLP.Chemscore.Metal>
0.0000

> <Gold.Chemscore.Hbonds>
donor molecule, donor type, donor heavy atom, donor atom, acceptor molecule, acceptor atom, score
      P1  H  6896  6907       L1     3  1.00
      P1  H  6931  6943       L1     9  1.00
      P1  H  6934  6947       L1     9  0.73
      P1  H  7989  7998       L1    23  0.57
      L1  C    20    40       P1  8028  0.33

> <Gold.PLP.Chemscore.Internal.Correction>
0.1210

> <Gold.Rescore>
     Score         DG    S(hbond)    S(metal)    S(lipo)     H(rot)  DE(clash)    DE(int)     intcor
     15.73     -19.82       2.97        0.00      79.02       1.88       1.69       2.41       ----

> <Gold.Chemscore.Fitness>
15.7262

> <Gold.Chemscore.DG>
-19.8221

> <Gold.Chemscore.ZeroCoef>
-5.4800

> <Gold.Chemscore.Hbond>
2.9662

> <Gold.Chemscore.Metal>
0.0000

> <Gold.Chemscore.Lipo>
79.0177

> <Gold.Chemscore.Internal_Hbond>
0.0000

> <Gold.Chemscore.DEClash>
1.6874

> <Gold.Chemscore.DEInternal>
2.4085

> <Gold.Chemscore.Rot>
1.8790

> <Gold.Chemscore.Internal.Correction>
   9.000000E+99

> <Gold.Chemscore.Hbonds>
donor molecule, donor type, donor heavy atom, donor atom, acceptor molecule, acceptor atom, score
      L1  H    21    24       P1  8028  0.03
      P1  H  6896  6907       L1     3  0.96
      P1  H  6931  6943       L1     9  0.25
      P1  H  6934  6947       L1     9  0.66
      P1  H  7989  7998       L1    23  0.13

> <Gold.Chemscore.Hbond.Weighted>
-9.9072

> <Gold.Chemscore.Metal.Weighted>
-0.0000

> <Gold.Chemscore.Lipo.Weighted>
-9.2451

> <Gold.Chemscore.Internal_Hbond.Weighted>
0.0000

> <Gold.Chemscore.DEClash.Weighted>
1.6874

> <Gold.Chemscore.DEInternal.Weighted>
2.4085

> <Gold.Chemscore.Rot.Weighted>
4.8102

> <Gold.Chemscore.Internal.Correction.Weighted>
   9.000000E+99

> <Gold.Protein.RotatedTorsions>
[ 6907 6896 6895 6894 ] final  -42.59 input  -60.11 | X-H torsion
[ 7974 7965 7964 7962 ] final -121.97 input  175.53 | X-H torsion
[ 8008 7997 7996 7995 ] final   72.33 input   59.86 | X-H torsion
[ 10167 10162 10161 10158 ] final  -59.55 input  -65.29 | X-H torsion
[ 10718 10713 10712 10709 ] final   21.78 input   66.30 | X-H torsion
[ 10763 10752 10751 10750 ] final  -38.11 input  -60.55 | X-H torsion
[ 11005 11000 10999 10996 ] final  157.43 input  -57.11 | X-H torsion

> <Gold.Protein.ActiveResidues>
 VAL166  LYS551  ARG553  GLY616  TRP617  ASP618  TYR619  PRO620  LYS621  CYS622 
 ASP623  PHE694  ASN695  SER759  ASP760  ASP761  ALA762  ILE779  LEU786  VAL792 
 PHE793  MET794  SER795  GLU796  ALA797  LYS798  CYS799  TRP800  GLU811  SER814 

> <Gold.Protein.RotatedAtoms>
  150.9535  134.8932  159.7686 H   0  0  0  0  0  0  0  0  0  0  0  0  # atno 6907 bound_to 6896
  152.5129  134.3773  159.9349 H   0  0  0  0  0  0  0  0  0  0  0  0  # atno 6908 bound_to 6896
  151.3788  133.3788  159.2742 H   0  0  0  0  0  0  0  0  0  0  0  0  # atno 6909 bound_to 6896
  145.0345  140.8095  143.4303 H   0  0  0  0  0  0  0  0  0  0  0  0  # atno 7974 bound_to 7965
  155.7673  140.3485  155.5228 H   0  0  0  0  0  0  0  0  0  0  0  0  # atno 8008 bound_to 7997
  155.8856  140.1009  157.1475 H   0  0  0  0  0  0  0  0  0  0  0  0  # atno 8009 bound_to 7997
  154.4028  140.1314  156.4238 H   0  0  0  0  0  0  0  0  0  0  0  0  # atno 8010 bound_to 7997
  140.6128  143.2392  151.5669 H   0  0  0  0  0  0  0  0  0  0  0  0  # atno 10167 bound_to 10162
  157.1432  130.6642  149.5988 H   0  0  0  0  0  0  0  0  0  0  0  0  # atno 10718 bound_to 10713
  153.9074  135.6796  153.4752 H   0  0  0  0  0  0  0  0  0  0  0  0  # atno 10763 bound_to 10752
  153.1097  135.4789  154.9010 H   0  0  0  0  0  0  0  0  0  0  0  0  # atno 10764 bound_to 10752
  154.7544  135.3193  154.8452 H   0  0  0  0  0  0  0  0  0  0  0  0  # atno 10765 bound_to 10752
  140.1769  134.8503  157.2757 H   0  0  0  0  0  0  0  0  0  0  0  0  # atno 11005 bound_to 11000
  145.1727  139.2395  143.5333 LP  0  0  0  0  0  0  0  0  0  0  0  0  # atno 17320 bound_to 7965
  146.3502  140.1482  142.8593 LP  0  0  0  0  0  0  0  0  0  0  0  0  # atno 17321 bound_to 7965
  139.5374  144.2741  152.1281 LP  0  0  0  0  0  0  0  0  0  0  0  0  # atno 17342 bound_to 10162
  140.1944  144.4720  150.6462 LP  0  0  0  0  0  0  0  0  0  0  0  0  # atno 17343 bound_to 10162
  155.9784  130.4770  150.6655 LP  0  0  0  0  0  0  0  0  0  0  0  0  # atno 17370 bound_to 10713
  157.4288  131.0846  151.1059 LP  0  0  0  0  0  0  0  0  0  0  0  0  # atno 17371 bound_to 10713
  140.2312  134.3907  155.7521 LP  0  0  0  0  0  0  0  0  0  0  0  0  # atno 17394 bound_to 11000
  141.2221  133.7216  156.8644 LP  0  0  0  0  0  0  0  0  0  0  0  0  # atno 17395 bound_to 11000

$$$$
