AV-unprocessed.smi:2457|AV-procd|sdf|9707|dock5
  -GOLD-   2272013343D 1   1.00000     0.00000
 Structure written by MMmdl.
 40 41  0  0  0  0  0  0  0  0  1 V2000
  145.2996  144.8477  152.5285 C   0  0  0  0  0  0  0  0  0  0  0  0
  145.5617  143.7963  153.5598 C   0  0  0  0  0  0  0  0  0  0  0  0
  145.0319  143.7282  154.8240 C   0  0  0  0  0  0  0  0  0  0  0  0
  145.6200  142.3426  155.6999 S   0  0  0  0  0  0  0  0  0  0  0  0
  146.5835  141.8991  154.2942 C   0  0  0  0  0  0  0  0  0  0  0  0
  147.5163  140.7250  154.2761 C   0  0  1  0  0  0  0  0  0  0  0  0
  147.1040  139.6772  153.2323 C   0  0  0  0  0  0  0  0  0  0  0  0
  149.0043  141.1280  154.1687 C   0  0  0  0  0  0  0  0  0  0  0  0
  149.3887  142.0937  155.1972 N   0  0  0  0  0  0  0  0  0  0  0  0
  150.2885  141.8753  156.1672 C   0  0  0  0  0  0  0  0  0  0  0  0
  150.8342  140.7915  156.3751 O   0  0  0  0  0  0  0  0  0  0  0  0
  150.5579  142.9932  156.8549 N   0  0  0  0  0  0  0  0  0  0  0  0
  151.5813  143.1111  157.8891 C   0  0  1  0  0  0  0  0  0  0  0  0
  151.3908  144.4261  158.6751 C   0  0  0  0  0  0  0  0  0  0  0  0
  152.4778  144.6378  159.7409 C   0  0  0  0  0  0  0  0  0  0  0  0
  152.4888  143.5220  160.7956 C   0  0  0  0  0  0  0  0  0  0  0  0
  152.8482  141.9105  160.0456 S   0  0  0  0  0  0  0  0  0  0  0  0
  151.5184  141.8819  158.8117 C   0  0  0  0  0  0  0  0  0  0  0  0
  146.4363  142.7457  153.2705 N   0  0  0  0  0  0  0  0  0  0  0  0
  144.4785  145.5008  152.8249 H   0  0  0  0  0  0  0  0  0  0  0  0
  145.0366  144.4024  151.5687 H   0  0  0  0  0  0  0  0  0  0  0  0
  146.1797  145.4726  152.3744 H   0  0  0  0  0  0  0  0  0  0  0  0
  144.3371  144.4089  155.2933 H   0  0  0  0  0  0  0  0  0  0  0  0
  147.4026  140.2401  155.2467 H   0  0  0  0  0  0  0  0  0  0  0  0
  146.0796  139.3417  153.3966 H   0  0  0  0  0  0  0  0  0  0  0  0
  147.7509  138.8010  153.2788 H   0  0  0  0  0  0  0  0  0  0  0  0
  147.1646  140.0806  152.2209 H   0  0  0  0  0  0  0  0  0  0  0  0
  149.6355  140.2458  154.2786 H   0  0  0  0  0  0  0  0  0  0  0  0
  149.2120  141.5258  153.1739 H   0  0  0  0  0  0  0  0  0  0  0  0
  148.9972  143.0204  155.1161 H   0  0  0  0  0  0  0  0  0  0  0  0
  150.0588  143.8357  156.6098 H   0  0  0  0  0  0  0  0  0  0  0  0
  152.5621  143.1233  157.4097 H   0  0  0  0  0  0  0  0  0  0  0  0
  151.4064  145.2732  157.9878 H   0  0  0  0  0  0  0  0  0  0  0  0
  150.4076  144.4386  159.1476 H   0  0  0  0  0  0  0  0  0  0  0  0
  153.4559  144.7029  159.2624 H   0  0  0  0  0  0  0  0  0  0  0  0
  152.3144  145.5964  160.2343 H   0  0  0  0  0  0  0  0  0  0  0  0
  153.2423  143.7284  161.5559 H   0  0  0  0  0  0  0  0  0  0  0  0
  151.5260  143.4706  161.3052 H   0  0  0  0  0  0  0  0  0  0  0  0
  150.5589  141.8372  159.3281 H   0  0  0  0  0  0  0  0  0  0  0  0
  151.6127  140.9638  158.2308 H   0  0  0  0  0  0  0  0  0  0  0  0
  1  2  1  0  0  0  0
  1 20  1  0  0  0  0
  1 21  1  0  0  0  0
  1 22  1  0  0  0  0
  2 19  1  0  0  0  0
  2  3  2  0  0  0  0
  3  4  1  0  0  0  0
  3 23  1  0  0  0  0
  4  5  1  0  0  0  0
  5  6  1  0  0  0  0
  5 19  2  0  0  0  0
  6  7  1  0  0  0  0
  6  8  1  0  0  0  0
  6 24  1  0  0  0  0
  7 25  1  0  0  0  0
  7 26  1  0  0  0  0
  7 27  1  0  0  0  0
  8  9  1  0  0  0  0
  8 28  1  0  0  0  0
  8 29  1  0  0  0  0
  9 10  1  0  0  0  0
  9 30  1  0  0  0  0
 10 11  2  0  0  0  0
 10 12  1  0  0  0  0
 12 13  1  0  0  0  0
 12 31  1  0  0  0  0
 13 18  1  0  0  0  0
 13 14  1  0  0  0  0
 13 32  1  0  0  0  0
 14 15  1  0  0  0  0
 14 33  1  0  0  0  0
 14 34  1  0  0  0  0
 15 16  1  0  0  0  0
 15 35  1  0  0  0  0
 15 36  1  0  0  0  0
 16 17  1  0  0  0  0
 16 37  1  0  0  0  0
 16 38  1  0  0  0  0
 17 18  1  0  0  0  0
 18 39  1  0  0  0  0
 18 40  1  0  0  0  0
M  END
> <s_m_source_file>
AV-unprocessed.smi

> <i_m_source_file_index>
2457

> <i_lp_mmshare_version>
43012

> <i_f3d_flags>
0

> <s_epik_input>
W0NIM11jMVtjSF1zYyhuMSlbQ0BIXShbQ0gzXSlbQ0gyXVtOSF1DKD1PKVtOSF1bQ0BASF0yW0NIMl1bQ0gyXVtDSDJdU1tDSDJdMg==

> <s_epik_cmdline>
J2VwaWtfcHl0aG9uJywgJy1waCcsICc3LjAnLCAnLXRuJywgJzgnLCAnLW1hJywgJzIwMCcsICctbWV0YWxfYmluZGluZycsICctaW1hZScsICc8aW5maWxlLm1hZT4nLCAnLW9tYWUnLCAnPG91dGZpbGUubWFlPic=

> <r_epik_Ionization_Penalty>
0.00154805

> <r_epik_Ionization_Penalty_Charging>
0

> <r_epik_Ionization_Penalty_Neutral>
0.00154805

> <r_epik_State_Penalty>
0.00100357

> <r_epik_Charging_Adjusted_Penalty>
0.00100357

> <i_epik_Tot_Q>
0

> <i_epik_Tot_abs_Q>
0

> <r_epik_Metal_State_Penalty>
-0

> <b_epik_Metal_Only>
0

> <s_lp_Force_Field>
OPLS_2005

> <r_lp_Energy>
-7.34104

> <b_lp_Chiralities_Consistent>
1

> <s_lp_Variant>
AV-unprocessed.smi:2457-4

> <Gold.Version>
5.8.1

> <Gold.Id.Protein>
6NUR|6NUR_protein|mol2

> <Gold.PLP.Fitness>
50.4426

> <Gold.PLP.PLP>
-44.8076

> <Gold.PLP.part.hbond>
-2.0000

> <Gold.PLP.part.metal>
0.0000

> <Gold.PLP.part.buried>
-2.7695

> <Gold.PLP.part.nonpolar>
-38.8014

> <Gold.PLP.part.repulsive>
0.4745

> <Gold.PLP.ligand.clash>
0.0000

> <Gold.PLP.ligand.torsion>
0.2442

> <Gold.PLP.Chemscore.Hbond>
2.0000

> <Gold.PLP.Chemscore.CHOScore>
0.0000

> <Gold.PLP.Chemscore.Metal>
0.0000

> <Gold.Chemscore.Hbonds>
donor molecule, donor type, donor heavy atom, donor atom, acceptor molecule, acceptor atom, score
      L1  H     9    30       P1  8028  1.00
      L1  H    12    31       P1  8028  1.00

> <Gold.PLP.Chemscore.Internal.Correction>
0.1235

> <Gold.Rescore>
     Score         DG    S(hbond)    S(metal)    S(lipo)     H(rot)  DE(clash)    DE(int)     intcor
     19.98     -21.88       1.93        0.00     117.05       1.46       0.22       1.68       ----

> <Gold.Chemscore.Fitness>
19.9829

> <Gold.Chemscore.DG>
-21.8832

> <Gold.Chemscore.ZeroCoef>
-5.4800

> <Gold.Chemscore.Hbond>
1.9312

> <Gold.Chemscore.Metal>
0.0000

> <Gold.Chemscore.Lipo>
117.0476

> <Gold.Chemscore.Internal_Hbond>
0.0000

> <Gold.Chemscore.DEClash>
0.2208

> <Gold.Chemscore.DEInternal>
1.6795

> <Gold.Chemscore.Rot>
1.4616

> <Gold.Chemscore.Internal.Correction>
   9.000000E+99

> <Gold.Chemscore.Hbonds>
donor molecule, donor type, donor heavy atom, donor atom, acceptor molecule, acceptor atom, score
      L1  H     9    30       P1  8028  0.96
      L1  H    12    31       P1  8028  0.98

> <Gold.Chemscore.Hbond.Weighted>
-6.4503

> <Gold.Chemscore.Metal.Weighted>
-0.0000

> <Gold.Chemscore.Lipo.Weighted>
-13.6946

> <Gold.Chemscore.Internal_Hbond.Weighted>
0.0000

> <Gold.Chemscore.DEClash.Weighted>
0.2208

> <Gold.Chemscore.DEInternal.Weighted>
1.6795

> <Gold.Chemscore.Rot.Weighted>
3.7416

> <Gold.Chemscore.Internal.Correction.Weighted>
   9.000000E+99

> <Gold.Protein.RotatedTorsions>
[ 6907 6896 6895 6894 ] final -157.87 input  -60.11 | X-H torsion
[ 7974 7965 7964 7962 ] final   86.90 input  175.53 | X-H torsion
[ 8008 7997 7996 7995 ] final  154.66 input   59.86 | X-H torsion
[ 10167 10162 10161 10158 ] final   54.47 input  -65.29 | X-H torsion
[ 10718 10713 10712 10709 ] final  121.23 input   66.30 | X-H torsion
[ 10763 10752 10751 10750 ] final   43.54 input  -60.55 | X-H torsion
[ 11005 11000 10999 10996 ] final   -0.02 input  -57.11 | X-H torsion

> <Gold.Protein.ActiveResidues>
 VAL166  LYS551  ARG553  GLY616  TRP617  ASP618  TYR619  PRO620  LYS621  CYS622 
 ASP623  PHE694  ASN695  SER759  ASP760  ASP761  ALA762  ILE779  LEU786  VAL792 
 PHE793  MET794  SER795  GLU796  ALA797  LYS798  CYS799  TRP800  GLU811  SER814 

> <Gold.Protein.RotatedAtoms>
  151.3095  133.4087  159.2645 H   0  0  0  0  0  0  0  0  0  0  0  0  # atno 6907 bound_to 6896
  151.0126  134.9409  159.8026 H   0  0  0  0  0  0  0  0  0  0  0  0  # atno 6908 bound_to 6896
  152.5304  134.3059  159.9148 H   0  0  0  0  0  0  0  0  0  0  0  0  # atno 6909 bound_to 6896
  145.5661  139.2309  143.2432 H   0  0  0  0  0  0  0  0  0  0  0  0  # atno 7974 bound_to 7965
  156.2520  140.1960  156.6680 H   0  0  0  0  0  0  0  0  0  0  0  0  # atno 8008 bound_to 7997
  154.6414  140.0583  156.9875 H   0  0  0  0  0  0  0  0  0  0  0  0  # atno 8009 bound_to 7997
  155.1557  140.3255  155.4424 H   0  0  0  0  0  0  0  0  0  0  0  0  # atno 8010 bound_to 7997
  140.2298  144.3699  150.6419 H   0  0  0  0  0  0  0  0  0  0  0  0  # atno 10167 bound_to 10162
  157.5832  131.1072  150.8145 H   0  0  0  0  0  0  0  0  0  0  0  0  # atno 10718 bound_to 10713
  152.9858  135.6098  154.3129 H   0  0  0  0  0  0  0  0  0  0  0  0  # atno 10763 bound_to 10752
  154.2843  135.2776  155.2685 H   0  0  0  0  0  0  0  0  0  0  0  0  # atno 10764 bound_to 10752
  154.5009  135.5867  153.6587 H   0  0  0  0  0  0  0  0  0  0  0  0  # atno 10765 bound_to 10752
  140.6316  133.9570  155.8277 H   0  0  0  0  0  0  0  0  0  0  0  0  # atno 11005 bound_to 11000
  146.1817  140.6487  142.9186 LP  0  0  0  0  0  0  0  0  0  0  0  0  # atno 17320 bound_to 7965
  144.7460  140.5067  143.6836 LP  0  0  0  0  0  0  0  0  0  0  0  0  # atno 17321 bound_to 7965
  140.6194  143.2175  151.6726 LP  0  0  0  0  0  0  0  0  0  0  0  0  # atno 17342 bound_to 10162
  139.5114  144.3510  152.0652 LP  0  0  0  0  0  0  0  0  0  0  0  0  # atno 17343 bound_to 10162
  156.8586  130.5105  149.5305 LP  0  0  0  0  0  0  0  0  0  0  0  0  # atno 17370 bound_to 10713
  156.0880  130.5873  150.9682 LP  0  0  0  0  0  0  0  0  0  0  0  0  # atno 17371 bound_to 10713
  141.0671  134.0260  157.3578 LP  0  0  0  0  0  0  0  0  0  0  0  0  # atno 17394 bound_to 11000
  139.9114  135.0190  156.7706 LP  0  0  0  0  0  0  0  0  0  0  0  0  # atno 17395 bound_to 11000

$$$$
