AV-unprocessed.smi:1759|AV-procd|sdf|7087|dock5
  -GOLD-   22720 8303D 1   1.00000     0.00000
 Structure written by MMmdl.
 31 32  0  0  0  0  0  0  0  0  1 V2000
  151.7940  140.9266  156.5670 C   0  0  0  0  0  0  0  0  0  0  0  0
  151.6854  139.6330  155.8358 C   0  0  0  0  0  0  0  0  0  0  0  0
  150.6341  138.8036  155.5635 C   0  0  0  0  0  0  0  0  0  0  0  0
  151.2398  137.7515  154.8265 C   0  0  0  0  0  0  0  0  0  0  0  0
  150.4682  136.6655  154.3410 N   0  0  0  0  0  0  0  0  0  0  0  0
  150.3811  135.4278  154.8567 C   0  0  0  0  0  0  0  0  0  0  0  0
  150.9548  135.0416  155.8755 O   0  0  0  0  0  0  0  0  0  0  0  0
  149.5758  134.6491  154.1206 N   0  0  0  0  0  0  0  0  0  0  0  0
  149.2500  133.2609  154.4259 C   0  0  0  0  0  0  0  0  0  0  0  0
  148.4372  132.6136  153.2929 C   0  0  2  0  0  0  0  0  0  0  0  0
  147.1379  133.3517  152.9729 C   0  0  0  0  0  0  0  0  0  0  0  0
  146.2805  132.2401  152.4133 C   0  0  0  0  0  0  0  0  0  0  0  0
  146.6735  131.0726  153.3112 C   0  0  0  0  0  0  0  0  0  0  0  0
  148.0383  131.2924  153.6563 O   0  0  0  0  0  0  0  0  0  0  0  0
  152.5431  137.9225  154.6646 N   0  0  0  0  0  0  0  0  0  0  0  0
  152.8354  139.1294  155.3108 O   0  0  0  0  0  0  0  0  0  0  0  0
  150.8226  141.2413  156.9488 H   0  0  0  0  0  0  0  0  0  0  0  0
  152.1693  141.7109  155.9094 H   0  0  0  0  0  0  0  0  0  0  0  0
  152.4769  140.8365  157.4117 H   0  0  0  0  0  0  0  0  0  0  0  0
  149.5998  138.9319  155.8461 H   0  0  0  0  0  0  0  0  0  0  0  0
  149.9296  136.8487  153.5074 H   0  0  0  0  0  0  0  0  0  0  0  0
  149.1405  135.0483  153.3020 H   0  0  0  0  0  0  0  0  0  0  0  0
  150.1802  132.7137  154.5802 H   0  0  0  0  0  0  0  0  0  0  0  0
  148.6992  133.2046  155.3666 H   0  0  0  0  0  0  0  0  0  0  0  0
  149.0350  132.5440  152.3825 H   0  0  0  0  0  0  0  0  0  0  0  0
  146.6841  133.7483  153.8824 H   0  0  0  0  0  0  0  0  0  0  0  0
  147.2800  134.1764  152.2741 H   0  0  0  0  0  0  0  0  0  0  0  0
  145.2135  132.4624  152.4432 H   0  0  0  0  0  0  0  0  0  0  0  0
  146.5606  132.0327  151.3797 H   0  0  0  0  0  0  0  0  0  0  0  0
  146.0805  131.0819  154.2266 H   0  0  0  0  0  0  0  0  0  0  0  0
  146.5328  130.1063  152.8263 H   0  0  0  0  0  0  0  0  0  0  0  0
  1  2  1  0  0  0  0
  1 17  1  0  0  0  0
  1 18  1  0  0  0  0
  1 19  1  0  0  0  0
  2 16  1  0  0  0  0
  2  3  2  0  0  0  0
  3  4  1  0  0  0  0
  3 20  1  0  0  0  0
  4  5  1  0  0  0  0
  4 15  2  0  0  0  0
  5  6  1  0  0  0  0
  5 21  1  0  0  0  0
  6  7  2  0  0  0  0
  6  8  1  0  0  0  0
  8  9  1  0  0  0  0
  8 22  1  0  0  0  0
  9 10  1  0  0  0  0
  9 23  1  0  0  0  0
  9 24  1  0  0  0  0
 10 14  1  0  0  0  0
 10 11  1  0  0  0  0
 10 25  1  0  0  0  0
 11 12  1  0  0  0  0
 11 26  1  0  0  0  0
 11 27  1  0  0  0  0
 12 13  1  0  0  0  0
 12 28  1  0  0  0  0
 12 29  1  0  0  0  0
 13 14  1  0  0  0  0
 13 30  1  0  0  0  0
 13 31  1  0  0  0  0
 15 16  1  0  0  0  0
M  END
> <s_m_source_file>
AV-unprocessed.smi

> <i_m_source_file_index>
1759

> <i_lp_mmshare_version>
43012

> <i_f3d_flags>
0

> <s_epik_input>
W0NIM11jMVtjSF1jKG5vMSlbTkhdQyg9TylbTkhdW0NIMl1bQ0BASF0yW0NIMl1bQ0gyXVtDSDJdTzI=

> <s_epik_cmdline>
J2VwaWtfcHl0aG9uJywgJy1waCcsICc3LjAnLCAnLXRuJywgJzgnLCAnLW1hJywgJzIwMCcsICctbWV0YWxfYmluZGluZycsICctaW1hZScsICc8aW5maWxlLm1hZT4nLCAnLW9tYWUnLCAnPG91dGZpbGUubWFlPic=

> <r_lp_tautomer_probability>
1

> <r_epik_Ionization_Penalty>
2.1743e-05

> <r_epik_Ionization_Penalty_Charging>
0

> <r_epik_Ionization_Penalty_Neutral>
2.1743e-05

> <r_epik_State_Penalty>
-0

> <r_epik_Charging_Adjusted_Penalty>
0

> <i_epik_Tot_Q>
0

> <i_epik_Tot_abs_Q>
0

> <r_epik_Metal_State_Penalty>
-0

> <b_epik_Metal_Only>
0

> <s_lp_Force_Field>
OPLS_2005

> <r_lp_Energy>
14.3546

> <b_lp_Chiralities_Consistent>
1

> <s_lp_Variant>
AV-unprocessed.smi:1759-1

> <Gold.Version>
5.8.1

> <Gold.Id.Protein>
6NUR|6NUR_protein|mol2

> <Gold.PLP.Fitness>
33.8705

> <Gold.PLP.PLP>
-26.8598

> <Gold.PLP.part.hbond>
-5.6507

> <Gold.PLP.part.metal>
0.0000

> <Gold.PLP.part.buried>
-4.2981

> <Gold.PLP.part.nonpolar>
-18.6127

> <Gold.PLP.part.repulsive>
0.3047

> <Gold.PLP.ligand.clash>
0.0000

> <Gold.PLP.ligand.torsion>
0.7464

> <Gold.PLP.Chemscore.Hbond>
2.8341

> <Gold.PLP.Chemscore.CHOScore>
0.0000

> <Gold.PLP.Chemscore.Metal>
0.0000

> <Gold.Chemscore.Hbonds>
donor molecule, donor type, donor heavy atom, donor atom, acceptor molecule, acceptor atom, score
      L1  H     5    21       P1  7948  1.00
      L1  H     8    22       P1  7948  0.85
      P1  H  7997  8008       L1    16  1.00
      P1  H 10752 10765       L1    15  0.12

> <Gold.PLP.Chemscore.Internal.Correction>
0.0013

> <Gold.Rescore>
     Score         DG    S(hbond)    S(metal)    S(lipo)     H(rot)  DE(clash)    DE(int)     intcor
     13.60     -14.44       2.19        0.00      42.39       1.30       0.05       0.79       ----

> <Gold.Chemscore.Fitness>
13.5994

> <Gold.Chemscore.DG>
-14.4402

> <Gold.Chemscore.ZeroCoef>
-5.4800

> <Gold.Chemscore.Hbond>
2.1914

> <Gold.Chemscore.Metal>
0.0000

> <Gold.Chemscore.Lipo>
42.3944

> <Gold.Chemscore.Internal_Hbond>
0.0000

> <Gold.Chemscore.DEClash>
0.0528

> <Gold.Chemscore.DEInternal>
0.7881

> <Gold.Chemscore.Rot>
1.2965

> <Gold.Chemscore.Internal.Correction>
   9.000000E+99

> <Gold.Chemscore.Hbonds>
donor molecule, donor type, donor heavy atom, donor atom, acceptor molecule, acceptor atom, score
      L1  H     5    21       P1  7948  0.28
      L1  H     8    22       P1  7948  0.14
      P1  H  7997  8008       L1    16  0.77
      P1  H 10752 10765       L1    15  0.02

> <Gold.Chemscore.Hbond.Weighted>
-7.3193

> <Gold.Chemscore.Metal.Weighted>
-0.0000

> <Gold.Chemscore.Lipo.Weighted>
-4.9601

> <Gold.Chemscore.Internal_Hbond.Weighted>
0.0000

> <Gold.Chemscore.DEClash.Weighted>
0.0528

> <Gold.Chemscore.DEInternal.Weighted>
0.7881

> <Gold.Chemscore.Rot.Weighted>
3.3192

> <Gold.Chemscore.Internal.Correction.Weighted>
   9.000000E+99

> <Gold.Protein.RotatedTorsions>
[ 6907 6896 6895 6894 ] final  153.60 input  -60.11 | X-H torsion
[ 7974 7965 7964 7962 ] final  -15.64 input  175.53 | X-H torsion
[ 8008 7997 7996 7995 ] final  -16.65 input   59.86 | X-H torsion
[ 10167 10162 10161 10158 ] final -176.54 input  -65.29 | X-H torsion
[ 10718 10713 10712 10709 ] final  -18.23 input   66.30 | X-H torsion
[ 10763 10752 10751 10750 ] final  157.23 input  -60.55 | X-H torsion
[ 11005 11000 10999 10996 ] final  130.46 input  -57.11 | X-H torsion

> <Gold.Protein.ActiveResidues>
 VAL166  LYS551  ARG553  GLY616  TRP617  ASP618  TYR619  PRO620  LYS621  CYS622 
 ASP623  PHE694  ASN695  SER759  ASP760  ASP761  ALA762  ILE779  LEU786  VAL792 
 PHE793  MET794  SER795  GLU796  ALA797  LYS798  CYS799  TRP800  GLU811  SER814 

> <Gold.Protein.RotatedAtoms>
  152.0704  133.4104  159.4456 H   0  0  0  0  0  0  0  0  0  0  0  0  # atno 6907 bound_to 6896
  150.6863  134.3098  159.4751 H   0  0  0  0  0  0  0  0  0  0  0  0  # atno 6908 bound_to 6896
  152.0929  134.9394  160.0622 H   0  0  0  0  0  0  0  0  0  0  0  0  # atno 6909 bound_to 6896
  146.2023  140.3522  142.8419 H   0  0  0  0  0  0  0  0  0  0  0  0  # atno 7974 bound_to 7965
  154.5037  140.2164  155.9294 H   0  0  0  0  0  0  0  0  0  0  0  0  # atno 8008 bound_to 7997
  156.1467  140.3169  155.8548 H   0  0  0  0  0  0  0  0  0  0  0  0  # atno 8009 bound_to 7997
  155.4018  140.0485  157.3027 H   0  0  0  0  0  0  0  0  0  0  0  0  # atno 8010 bound_to 7997
  139.5524  144.2074  152.1101 H   0  0  0  0  0  0  0  0  0  0  0  0  # atno 10167 bound_to 10162
  156.5624  130.4729  149.6400 H   0  0  0  0  0  0  0  0  0  0  0  0  # atno 10718 bound_to 10713
  154.1970  135.2792  155.3003 H   0  0  0  0  0  0  0  0  0  0  0  0  # atno 10763 bound_to 10752
  154.5884  135.5567  153.7257 H   0  0  0  0  0  0  0  0  0  0  0  0  # atno 10764 bound_to 10752
  153.0097  135.6362  154.2108 H   0  0  0  0  0  0  0  0  0  0  0  0  # atno 10765 bound_to 10752
  139.9673  134.9587  156.9297 H   0  0  0  0  0  0  0  0  0  0  0  0  # atno 11005 bound_to 11000
  144.8711  140.7274  143.6046 LP  0  0  0  0  0  0  0  0  0  0  0  0  # atno 17320 bound_to 7965
  145.3442  139.1724  143.4469 LP  0  0  0  0  0  0  0  0  0  0  0  0  # atno 17321 bound_to 7965
  140.1572  144.5059  150.6653 LP  0  0  0  0  0  0  0  0  0  0  0  0  # atno 17342 bound_to 10162
  140.6790  143.2318  151.5433 LP  0  0  0  0  0  0  0  0  0  0  0  0  # atno 17343 bound_to 10162
  156.2787  130.7058  151.1876 LP  0  0  0  0  0  0  0  0  0  0  0  0  # atno 17370 bound_to 10713
  157.7365  131.0561  150.5406 LP  0  0  0  0  0  0  0  0  0  0  0  0  # atno 17371 bound_to 10713
  140.5368  134.0759  155.7330 LP  0  0  0  0  0  0  0  0  0  0  0  0  # atno 17394 bound_to 11000
  141.1353  133.9232  157.2447 LP  0  0  0  0  0  0  0  0  0  0  0  0  # atno 17395 bound_to 11000

$$$$
