AV-unprocessed.smi:256|AV-procd|sdf|1961|dock3
  -GOLD-   2262021103D 1   1.00000     0.00000
 Structure written by MMmdl.
 61 64  0  0  0  0  0  0  0  0  1 V2000
  147.6641  142.2543  153.7887 C   0  0  0  0  0  0  0  0  0  0  0  0
  149.0389  141.6666  154.1504 C   0  0  0  0  0  0  0  0  0  0  0  0
  149.0041  140.4692  155.1294 C   0  0  2  0  0  0  0  0  0  0  0  0
  147.6952  139.6725  154.9020 C   0  0  0  0  0  0  0  0  0  0  0  0
  147.6590  138.4685  155.7288 N   0  0  0  0  0  0  0  0  0  0  0  0
  146.7063  137.5378  155.4638 C   0  0  0  0  0  0  0  0  0  0  0  0
  146.1983  136.7783  156.4719 N   0  0  0  0  0  0  0  0  0  0  0  0
  145.2641  135.8568  156.2202 C   0  0  0  0  0  0  0  0  0  0  0  0
  144.7032  135.5347  155.0537 N   0  0  0  0  0  0  0  0  0  0  0  0
  145.2030  136.2951  154.0382 C   0  0  0  0  0  0  0  0  0  0  0  0
  146.1936  137.3116  154.1545 C   0  0  0  0  0  0  0  0  0  0  0  0
  146.4309  137.8826  152.9093 N   0  0  0  0  0  0  0  0  0  0  0  0
  145.6354  137.2345  152.1035 C   0  0  0  0  0  0  0  0  0  0  0  0
  144.8690  136.2565  152.6957 N   0  0  0  0  0  0  0  0  0  0  0  0
  143.9049  135.3877  152.0372 C   0  0  0  0  0  0  0  0  0  0  0  0
  144.5205  134.4686  150.9526 C   0  0  0  0  0  0  0  0  0  0  0  0
  144.6452  135.2268  149.7621 O   0  0  0  0  0  0  0  0  0  0  0  0
  145.9268  134.0025  151.3806 C   0  0  0  0  0  0  0  0  0  0  0  0
  146.5088  132.9519  150.4186 C   0  0  0  0  0  0  0  0  0  0  0  0
  145.6136  131.8529  150.3001 O   0  0  0  0  0  0  0  0  0  0  0  0
  144.3609  132.2225  149.7372 C   0  0  0  0  0  0  0  0  0  0  0  0
  143.6452  133.2316  150.6524 C   0  0  0  0  0  0  0  0  0  0  0  0
  147.8591  138.7613  157.1427 C   0  0  0  0  0  0  0  0  0  0  0  0
  149.1690  139.5390  157.3253 C   0  0  0  0  0  0  0  0  0  0  0  0
  149.2117  140.7918  156.5621 N   0  0  0  0  0  0  0  0  0  0  0  0
  150.4881  141.4698  156.8357 C   0  0  0  0  0  0  0  0  0  0  0  0
  150.8212  141.6900  158.3207 C   0  0  0  0  0  0  0  0  0  0  0  0
  152.0289  142.4283  158.4017 O   0  0  0  0  0  0  0  0  0  0  0  0
  152.3815  142.7530  159.7352 C   0  0  0  0  0  0  0  0  0  0  0  0
  147.7788  143.1533  153.1833 H   0  0  0  0  0  0  0  0  0  0  0  0
  147.0921  142.5243  154.6760 H   0  0  0  0  0  0  0  0  0  0  0  0
  147.0661  141.5507  153.2102 H   0  0  0  0  0  0  0  0  0  0  0  0
  149.5215  141.3464  153.2262 H   0  0  0  0  0  0  0  0  0  0  0  0
  149.6923  142.4474  154.5356 H   0  0  0  0  0  0  0  0  0  0  0  0
  149.8194  139.8115  154.8225 H   0  0  0  0  0  0  0  0  0  0  0  0
  146.8269  140.2865  155.1436 H   0  0  0  0  0  0  0  0  0  0  0  0
  147.6141  139.3945  153.8500 H   0  0  0  0  0  0  0  0  0  0  0  0
  144.9160  135.2981  157.0763 H   0  0  0  0  0  0  0  0  0  0  0  0
  145.5893  137.4495  151.0456 H   0  0  0  0  0  0  0  0  0  0  0  0
  143.4025  134.7911  152.8002 H   0  0  0  0  0  0  0  0  0  0  0  0
  143.1350  136.0210  151.5947 H   0  0  0  0  0  0  0  0  0  0  0  0
  145.2472  134.7835  149.1842 H   0  0  0  0  0  0  0  0  0  0  0  0
  146.6052  134.8530  151.4609 H   0  0  0  0  0  0  0  0  0  0  0  0
  145.8727  133.5620  152.3771 H   0  0  0  0  0  0  0  0  0  0  0  0
  146.7075  133.3829  149.4362 H   0  0  0  0  0  0  0  0  0  0  0  0
  147.4622  132.5864  150.8000 H   0  0  0  0  0  0  0  0  0  0  0  0
  144.5060  132.6326  148.7366 H   0  0  0  0  0  0  0  0  0  0  0  0
  143.7502  131.3267  149.6236 H   0  0  0  0  0  0  0  0  0  0  0  0
  143.3955  132.7329  151.5897 H   0  0  0  0  0  0  0  0  0  0  0  0
  142.6977  133.5248  150.1988 H   0  0  0  0  0  0  0  0  0  0  0  0
  147.0171  139.3487  157.5114 H   0  0  0  0  0  0  0  0  0  0  0  0
  147.8948  137.8511  157.7397 H   0  0  0  0  0  0  0  0  0  0  0  0
  149.2904  139.7532  158.3878 H   0  0  0  0  0  0  0  0  0  0  0  0
  150.0089  138.9023  157.0419 H   0  0  0  0  0  0  0  0  0  0  0  0
  151.3084  140.8684  156.4403 H   0  0  0  0  0  0  0  0  0  0  0  0
  150.5408  142.4127  156.2899 H   0  0  0  0  0  0  0  0  0  0  0  0
  150.0375  142.2299  158.8464 H   0  0  0  0  0  0  0  0  0  0  0  0
  150.9445  140.7263  158.8176 H   0  0  0  0  0  0  0  0  0  0  0  0
  153.3185  143.3100  159.7418 H   0  0  0  0  0  0  0  0  0  0  0  0
  152.5210  141.8540  160.3371 H   0  0  0  0  0  0  0  0  0  0  0  0
  151.6176  143.3740  160.2048 H   0  0  0  0  0  0  0  0  0  0  0  0
  1  2  1  0  0  0  0
  1 30  1  0  0  0  0
  1 31  1  0  0  0  0
  1 32  1  0  0  0  0
  2  3  1  0  0  0  0
  2 33  1  0  0  0  0
  2 34  1  0  0  0  0
  3 25  1  0  0  0  0
  3  4  1  0  0  0  0
  3 35  1  0  0  0  0
  4  5  1  0  0  0  0
  4 36  1  0  0  0  0
  4 37  1  0  0  0  0
  5  6  1  0  0  0  0
  5 23  1  0  0  0  0
  6 11  1  0  0  0  0
  6  7  2  0  0  0  0
  7  8  1  0  0  0  0
  8  9  2  0  0  0  0
  8 38  1  0  0  0  0
  9 10  1  0  0  0  0
 10 14  1  0  0  0  0
 10 11  2  0  0  0  0
 11 12  1  0  0  0  0
 12 13  2  0  0  0  0
 13 14  1  0  0  0  0
 13 39  1  0  0  0  0
 14 15  1  0  0  0  0
 15 16  1  0  0  0  0
 15 40  1  0  0  0  0
 15 41  1  0  0  0  0
 16 22  1  0  0  0  0
 16 17  1  0  0  0  0
 16 18  1  0  0  0  0
 17 42  1  0  0  0  0
 18 19  1  0  0  0  0
 18 43  1  0  0  0  0
 18 44  1  0  0  0  0
 19 20  1  0  0  0  0
 19 45  1  0  0  0  0
 19 46  1  0  0  0  0
 20 21  1  0  0  0  0
 21 22  1  0  0  0  0
 21 47  1  0  0  0  0
 21 48  1  0  0  0  0
 22 49  1  0  0  0  0
 22 50  1  0  0  0  0
 23 24  1  0  0  0  0
 23 51  1  0  0  0  0
 23 52  1  0  0  0  0
 24 25  1  0  0  0  0
 24 53  1  0  0  0  0
 24 54  1  0  0  0  0
 25 26  1  0  0  0  0
 26 27  1  0  0  0  0
 26 55  1  0  0  0  0
 26 56  1  0  0  0  0
 27 28  1  0  0  0  0
 27 57  1  0  0  0  0
 27 58  1  0  0  0  0
 28 29  1  0  0  0  0
 29 59  1  0  0  0  0
 29 60  1  0  0  0  0
 29 61  1  0  0  0  0
M  END
> <s_m_source_file>
AV-unprocessed.smi

> <i_m_source_file_index>
256

> <i_lp_mmshare_version>
43012

> <i_f3d_flags>
0

> <s_epik_input>
W0NIM11PW0NIMl1bQ0gyXU4xW0NIMl1bQ0gyXU4oW0NIMl1bQ0BIXTFbQ0gyXVtDSDNdKWMobltjSF1uMiljKGMyMyluW2NIXW4zW0NIMl1DNChbT0hdKVtDSDJdW0NIMl1PW0NIMl1bQ0gyXTQ=

> <s_epik_cmdline>
J2VwaWtfcHl0aG9uJywgJy1waCcsICc3LjAnLCAnLXRuJywgJzgnLCAnLW1hJywgJzIwMCcsICctbWV0YWxfYmluZGluZycsICctaW1hZScsICc8aW5maWxlLm1hZT4nLCAnLW9tYWUnLCAnPG91dGZpbGUubWFlPic=

> <r_lp_tautomer_probability>
1

> <r_epik_Ionization_Penalty>
0.676279

> <r_epik_Ionization_Penalty_Charging>
0

> <r_epik_Ionization_Penalty_Neutral>
0.676279

> <r_epik_State_Penalty>
0.6855

> <r_epik_Charging_Adjusted_Penalty>
0.6855

> <i_epik_Tot_Q>
0

> <i_epik_Tot_abs_Q>
0

> <r_epik_Metal_State_Penalty>
0.678557

> <b_epik_Metal_Only>
0

> <s_lp_Force_Field>
OPLS_2005

> <r_lp_Energy>
62.0394

> <b_lp_Chiralities_Consistent>
1

> <s_lp_Variant>
AV-unprocessed.smi:256-5

> <Gold.Version>
5.8.1

> <Gold.Id.Protein>
6NUR|6NUR_protein|mol2

> <Gold.PLP.Fitness>
40.9451

> <Gold.PLP.PLP>
-37.1519

> <Gold.PLP.part.hbond>
-1.0000

> <Gold.PLP.part.metal>
0.0000

> <Gold.PLP.part.buried>
-5.8236

> <Gold.PLP.part.nonpolar>
-31.0974

> <Gold.PLP.part.repulsive>
0.4770

> <Gold.PLP.ligand.clash>
0.0000

> <Gold.PLP.ligand.torsion>
1.3015

> <Gold.PLP.Chemscore.Hbond>
1.0000

> <Gold.PLP.Chemscore.CHOScore>
1.0000

> <Gold.PLP.Chemscore.Metal>
0.0000

> <Gold.Chemscore.Hbonds>
donor molecule, donor type, donor heavy atom, donor atom, acceptor molecule, acceptor atom, score
      L1  H    17    42       P1  7921  0.94
      L1  C    13    39       P1 10171  0.99

> <Gold.PLP.Chemscore.Internal.Correction>
0.3962

> <Gold.Rescore>
     Score         DG    S(hbond)    S(metal)    S(lipo)     H(rot)  DE(clash)    DE(int)     intcor
     10.15     -12.50       0.99        0.00      94.47       2.87       0.06       2.29       ----

> <Gold.Chemscore.Fitness>
10.1523

> <Gold.Chemscore.DG>
-12.5047

> <Gold.Chemscore.ZeroCoef>
-5.4800

> <Gold.Chemscore.Hbond>
0.9937

> <Gold.Chemscore.Metal>
0.0000

> <Gold.Chemscore.Lipo>
94.4690

> <Gold.Chemscore.Internal_Hbond>
0.0000

> <Gold.Chemscore.DEClash>
0.0640

> <Gold.Chemscore.DEInternal>
2.2884

> <Gold.Chemscore.Rot>
2.8700

> <Gold.Chemscore.Internal.Correction>
   9.000000E+99

> <Gold.Chemscore.Hbonds>
donor molecule, donor type, donor heavy atom, donor atom, acceptor molecule, acceptor atom, score
      L1  H    17    42       P1  7921  0.91

> <Gold.Chemscore.Hbond.Weighted>
-3.3190

> <Gold.Chemscore.Metal.Weighted>
-0.0000

> <Gold.Chemscore.Lipo.Weighted>
-11.0529

> <Gold.Chemscore.Internal_Hbond.Weighted>
0.0000

> <Gold.Chemscore.DEClash.Weighted>
0.0640

> <Gold.Chemscore.DEInternal.Weighted>
2.2884

> <Gold.Chemscore.Rot.Weighted>
7.3472

> <Gold.Chemscore.Internal.Correction.Weighted>
   9.000000E+99

> <Gold.Protein.RotatedTorsions>
[ 6907 6896 6895 6894 ] final -165.85 input  -60.11 | X-H torsion
[ 7974 7965 7964 7962 ] final  148.03 input  175.53 | X-H torsion
[ 8008 7997 7996 7995 ] final   35.85 input   59.86 | X-H torsion
[ 10167 10162 10161 10158 ] final -142.64 input  -65.29 | X-H torsion
[ 10718 10713 10712 10709 ] final   99.76 input   66.30 | X-H torsion
[ 10763 10752 10751 10750 ] final  -17.66 input  -60.55 | X-H torsion
[ 11005 11000 10999 10996 ] final   78.66 input  -57.11 | X-H torsion

> <Gold.Protein.ActiveResidues>
 VAL166  LYS551  ARG553  GLY616  TRP617  ASP618  TYR619  PRO620  LYS621  CYS622 
 ASP623  PHE694  ASN695  SER759  ASP760  ASP761  ALA762  ILE779  LEU786  VAL792 
 PHE793  MET794  SER795  GLU796  ALA797  LYS798  CYS799  TRP800  GLU811  SER814 

> <Gold.Protein.RotatedAtoms>
  151.4342  133.3661  159.2772 H   0  0  0  0  0  0  0  0  0  0  0  0  # atno 6907 bound_to 6896
  150.9203  134.8622  159.7495 H   0  0  0  0  0  0  0  0  0  0  0  0  # atno 6908 bound_to 6896
  152.4978  134.4279  159.9554 H   0  0  0  0  0  0  0  0  0  0  0  0  # atno 6909 bound_to 6896
  144.8545  139.6103  143.5958 H   0  0  0  0  0  0  0  0  0  0  0  0  # atno 7974 bound_to 7965
  155.1778  140.3297  155.4380 H   0  0  0  0  0  0  0  0  0  0  0  0  # atno 8008 bound_to 7997
  156.2487  140.1932  156.6828 H   0  0  0  0  0  0  0  0  0  0  0  0  # atno 8009 bound_to 7997
  154.6292  140.0585  156.9697 H   0  0  0  0  0  0  0  0  0  0  0  0  # atno 8010 bound_to 7997
  139.8069  143.7756  152.2661 H   0  0  0  0  0  0  0  0  0  0  0  0  # atno 10167 bound_to 10162
  157.6869  131.0679  150.4998 H   0  0  0  0  0  0  0  0  0  0  0  0  # atno 10718 bound_to 10713
  153.5773  135.7006  153.5478 H   0  0  0  0  0  0  0  0  0  0  0  0  # atno 10763 bound_to 10752
  153.3292  135.4052  155.1481 H   0  0  0  0  0  0  0  0  0  0  0  0  # atno 10764 bound_to 10752
  154.8623  135.3714  154.5298 H   0  0  0  0  0  0  0  0  0  0  0  0  # atno 10765 bound_to 10752
  139.9204  134.7781  156.1678 H   0  0  0  0  0  0  0  0  0  0  0  0  # atno 11005 bound_to 11000
  146.2812  139.6882  142.9228 LP  0  0  0  0  0  0  0  0  0  0  0  0  # atno 17320 bound_to 7965
  145.4433  141.0424  143.2845 LP  0  0  0  0  0  0  0  0  0  0  0  0  # atno 17321 bound_to 7965
  139.7893  144.7416  150.9977 LP  0  0  0  0  0  0  0  0  0  0  0  0  # atno 17342 bound_to 10162
  140.7819  143.4459  151.0484 LP  0  0  0  0  0  0  0  0  0  0  0  0  # atno 17343 bound_to 10162
  156.5320  130.4187  149.6197 LP  0  0  0  0  0  0  0  0  0  0  0  0  # atno 17370 bound_to 10713
  156.3061  130.7203  151.2086 LP  0  0  0  0  0  0  0  0  0  0  0  0  # atno 17371 bound_to 10713
  141.0719  133.6793  156.2157 LP  0  0  0  0  0  0  0  0  0  0  0  0  # atno 17394 bound_to 11000
  140.6493  134.5084  157.5576 LP  0  0  0  0  0  0  0  0  0  0  0  0  # atno 17395 bound_to 11000

$$$$
