AV-unprocessed.smi:2230|AV-procd|sdf|9036|dock1
  -GOLD-   2272012243D 1   1.00000     0.00000
 Structure written by MMmdl.
 29 30  0  0  0  0  0  0  0  0  2 V2000
  151.5498  139.1887  154.1311 O   0  0  0  0  0  0  0  0  0  0  0  0
  152.4521  139.0270  154.9831 C   0  0  0  0  0  0  0  0  0  0  0  0
  153.6514  138.7905  154.7172 O   0  5  0  0  0  0  0  0  0  0  0  0
  152.0752  139.1589  156.4669 C   0  0  1  0  0  0  0  0  0  0  0  0
  151.9121  140.6393  156.8862 C   0  0  0  0  0  0  0  0  0  0  0  0
  151.4698  140.7241  158.2732 N   0  0  0  0  0  0  0  0  0  0  0  0
  151.4232  142.0327  158.7781 C   0  0  0  0  0  0  0  0  0  0  0  0
  150.4915  142.8669  158.2542 N   0  0  0  0  0  0  0  0  0  0  0  0
  150.4196  144.1300  158.7206 C   0  0  0  0  0  0  0  0  0  0  0  0
  151.2645  144.6270  159.7290 C   0  0  0  0  0  0  0  0  0  0  0  0
  152.2314  143.7630  160.2750 C   0  0  0  0  0  0  0  0  0  0  0  0
  152.3228  142.4352  159.7994 C   0  0  0  0  0  0  0  0  0  0  0  0
  153.3596  141.4738  160.3755 C   0  0  0  0  0  0  0  0  0  0  0  0
  153.0212  140.2017  160.1619 F   0  0  0  0  0  0  0  0  0  0  0  0
  154.5457  141.6853  159.8045 F   0  0  0  0  0  0  0  0  0  0  0  0
  153.4721  141.6548  161.6915 F   0  0  0  0  0  0  0  0  0  0  0  0
  150.2630  139.9504  158.5289 C   0  0  0  0  0  0  0  0  0  0  0  0
  150.4789  138.4930  158.0929 C   0  0  0  0  0  0  0  0  0  0  0  0
  150.8540  138.4609  156.7199 O   0  0  0  0  0  0  0  0  0  0  0  0
  152.8745  138.6965  157.0489 H   0  0  0  0  0  0  0  0  0  0  0  0
  152.8579  141.1727  156.7795 H   0  0  0  0  0  0  0  0  0  0  0  0
  151.1867  141.1350  156.2390 H   0  0  0  0  0  0  0  0  0  0  0  0
  149.6645  144.7626  158.2779 H   0  0  0  0  0  0  0  0  0  0  0  0
  151.1735  145.6461  160.0752 H   0  0  0  0  0  0  0  0  0  0  0  0
  152.8888  144.1262  161.0507 H   0  0  0  0  0  0  0  0  0  0  0  0
  150.0132  139.9927  159.5896 H   0  0  0  0  0  0  0  0  0  0  0  0
  149.4246  140.3811  157.9795 H   0  0  0  0  0  0  0  0  0  0  0  0
  151.2452  138.0120  158.7030 H   0  0  0  0  0  0  0  0  0  0  0  0
  149.5604  137.9209  158.2234 H   0  0  0  0  0  0  0  0  0  0  0  0
  1  2  2  0  0  0  0
  2  3  1  0  0  0  0
  2  4  1  0  0  0  0
  4 19  1  0  0  0  0
  4  5  1  0  0  0  0
  4 20  1  0  0  0  0
  5  6  1  0  0  0  0
  5 21  1  0  0  0  0
  5 22  1  0  0  0  0
  6  7  1  0  0  0  0
  6 17  1  0  0  0  0
  7 12  1  0  0  0  0
  7  8  2  0  0  0  0
  8  9  1  0  0  0  0
  9 10  2  0  0  0  0
  9 23  1  0  0  0  0
 10 11  1  0  0  0  0
 10 24  1  0  0  0  0
 11 12  2  0  0  0  0
 11 25  1  0  0  0  0
 12 13  1  0  0  0  0
 13 14  1  0  0  0  0
 13 15  1  0  0  0  0
 13 16  1  0  0  0  0
 17 18  1  0  0  0  0
 17 26  1  0  0  0  0
 17 27  1  0  0  0  0
 18 19  1  0  0  0  0
 18 28  1  0  0  0  0
 18 29  1  0  0  0  0
M  CHG  1   3  -1
M  END
> <s_m_source_file>
AV-unprocessed.smi

> <i_m_source_file_index>
2230

> <i_lp_mmshare_version>
43012

> <i_f3d_flags>
0

> <s_epik_input>
Tz1DKFtPSF0pW0NAQEhdMVtDSDJdTihbQ0gyXVtDSDJdTzEpYzJuW2NIXVtjSF1bY0hdYzJDKEYpKEYpRg==

> <s_epik_cmdline>
J2VwaWtfcHl0aG9uJywgJy1waCcsICc3LjAnLCAnLXRuJywgJzgnLCAnLW1hJywgJzIwMCcsICctbWV0YWxfYmluZGluZycsICctaW1hZScsICc8aW5maWxlLm1hZT4nLCAnLW9tYWUnLCAnPG91dGZpbGUubWFlPic=

> <r_lp_tautomer_probability>
1

> <r_epik_Ionization_Penalty>
0.000150991

> <r_epik_Ionization_Penalty_Charging>
0.000148814

> <r_epik_Ionization_Penalty_Neutral>
2.17728e-06

> <r_epik_State_Penalty>
-0

> <r_epik_Charging_Adjusted_Penalty>
0.000148814

> <i_epik_Tot_Q>
-1

> <i_epik_Tot_abs_Q>
1

> <r_epik_Metal_State_Penalty>
-0

> <b_epik_Metal_Only>
0

> <s_lp_Force_Field>
OPLS_2005

> <r_lp_Energy>
24.6169

> <b_lp_Chiralities_Consistent>
1

> <s_lp_Variant>
AV-unprocessed.smi:2230-2

> <Gold.Version>
5.8.1

> <Gold.Id.Protein>
6NUR|6NUR_protein|mol2

> <Gold.PLP.Fitness>
45.2287

> <Gold.PLP.PLP>
-35.2329

> <Gold.PLP.part.hbond>
-2.0000

> <Gold.PLP.part.metal>
0.0000

> <Gold.PLP.part.buried>
-4.5037

> <Gold.PLP.part.nonpolar>
-29.1435

> <Gold.PLP.part.repulsive>
0.2837

> <Gold.PLP.ligand.clash>
0.0247

> <Gold.PLP.ligand.torsion>
1.4133

> <Gold.PLP.Chemscore.Hbond>
2.9520

> <Gold.PLP.Chemscore.CHOScore>
1.1186

> <Gold.PLP.Chemscore.Metal>
0.0000

> <Gold.Chemscore.Hbonds>
donor molecule, donor type, donor heavy atom, donor atom, acceptor molecule, acceptor atom, score
      P1  H  7989  7998       L1     1  1.00
      P1  H  7997  8008       L1     3  1.98
      L1  C     9    23       P1  8028  0.12
      L1  C     9    23       P1  8029  1.00

> <Gold.PLP.Chemscore.Internal.Correction>
0.6355

> <Gold.Rescore>
     Score         DG    S(hbond)    S(metal)    S(lipo)     H(rot)  DE(clash)    DE(int)     intcor
     11.30     -14.40       1.43        0.00      68.14       1.49       0.14       2.95       ----

> <Gold.Chemscore.Fitness>
11.3034

> <Gold.Chemscore.DG>
-14.3997

> <Gold.Chemscore.ZeroCoef>
-5.4800

> <Gold.Chemscore.Hbond>
1.4269

> <Gold.Chemscore.Metal>
0.0000

> <Gold.Chemscore.Lipo>
68.1379

> <Gold.Chemscore.Internal_Hbond>
0.0000

> <Gold.Chemscore.DEClash>
0.1443

> <Gold.Chemscore.DEInternal>
2.9519

> <Gold.Chemscore.Rot>
1.4916

> <Gold.Chemscore.Internal.Correction>
   9.000000E+99

> <Gold.Chemscore.Hbonds>
donor molecule, donor type, donor heavy atom, donor atom, acceptor molecule, acceptor atom, score
      P1  H  7989  7998       L1     1  0.66
      P1  H  7997  8008       L1     3  0.37

> <Gold.Chemscore.Hbond.Weighted>
-4.7660

> <Gold.Chemscore.Metal.Weighted>
-0.0000

> <Gold.Chemscore.Lipo.Weighted>
-7.9721

> <Gold.Chemscore.Internal_Hbond.Weighted>
0.0000

> <Gold.Chemscore.DEClash.Weighted>
0.1443

> <Gold.Chemscore.DEInternal.Weighted>
2.9519

> <Gold.Chemscore.Rot.Weighted>
3.8185

> <Gold.Chemscore.Internal.Correction.Weighted>
   9.000000E+99

> <Gold.Protein.RotatedTorsions>
[ 6907 6896 6895 6894 ] final   26.10 input  -60.11 | X-H torsion
[ 7974 7965 7964 7962 ] final  104.02 input  175.53 | X-H torsion
[ 8008 7997 7996 7995 ] final   -2.94 input   59.86 | X-H torsion
[ 10167 10162 10161 10158 ] final  143.89 input  -65.29 | X-H torsion
[ 10718 10713 10712 10709 ] final -133.83 input   66.30 | X-H torsion
[ 10763 10752 10751 10750 ] final   51.37 input  -60.55 | X-H torsion
[ 11005 11000 10999 10996 ] final -130.18 input  -57.11 | X-H torsion

> <Gold.Protein.ActiveResidues>
 VAL166  LYS551  ARG553  GLY616  TRP617  ASP618  TYR619  PRO620  LYS621  CYS622 
 ASP623  PHE694  ASN695  SER759  ASP760  ASP761  ALA762  ILE779  LEU786  VAL792 
 PHE793  MET794  SER795  GLU796  ALA797  LYS798  CYS799  TRP800  GLU811  SER814 

> <Gold.Protein.RotatedAtoms>
  151.9825  135.0021  160.0557 H   0  0  0  0  0  0  0  0  0  0  0  0  # atno 6907 bound_to 6896
  152.1683  133.4622  159.4904 H   0  0  0  0  0  0  0  0  0  0  0  0  # atno 6908 bound_to 6896
  150.6898  134.1902  159.4325 H   0  0  0  0  0  0  0  0  0  0  0  0  # atno 6909 bound_to 6896
  145.3382  139.2469  143.3624 H   0  0  0  0  0  0  0  0  0  0  0  0  # atno 7974 bound_to 7965
  154.6303  140.2522  155.7442 H   0  0  0  0  0  0  0  0  0  0  0  0  # atno 8008 bound_to 7997
  156.2476  140.2908  156.0571 H   0  0  0  0  0  0  0  0  0  0  0  0  # atno 8009 bound_to 7997
  155.1755  140.0387  157.2862 H   0  0  0  0  0  0  0  0  0  0  0  0  # atno 8010 bound_to 7997
  139.4959  144.6009  151.6482 H   0  0  0  0  0  0  0  0  0  0  0  0  # atno 10167 bound_to 10162
  156.2490  130.7142  151.1033 H   0  0  0  0  0  0  0  0  0  0  0  0  # atno 10718 bound_to 10713
  152.9785  135.5848  154.4404 H   0  0  0  0  0  0  0  0  0  0  0  0  # atno 10763 bound_to 10752
  154.4006  135.2768  155.2101 H   0  0  0  0  0  0  0  0  0  0  0  0  # atno 10764 bound_to 10752
  154.3934  135.6120  153.5910 H   0  0  0  0  0  0  0  0  0  0  0  0  # atno 10765 bound_to 10752
  140.9368  134.1246  157.4186 H   0  0  0  0  0  0  0  0  0  0  0  0  # atno 11005 bound_to 11000
  146.3018  140.3974  142.8701 LP  0  0  0  0  0  0  0  0  0  0  0  0  # atno 17320 bound_to 7965
  144.8811  140.7401  143.5986 LP  0  0  0  0  0  0  0  0  0  0  0  0  # atno 17321 bound_to 7965
  140.5659  144.0191  150.6192 LP  0  0  0  0  0  0  0  0  0  0  0  0  # atno 17342 bound_to 10162
  140.3292  143.3088  152.0704 LP  0  0  0  0  0  0  0  0  0  0  0  0  # atno 17343 bound_to 10162
  157.7207  131.0683  150.6148 LP  0  0  0  0  0  0  0  0  0  0  0  0  # atno 17370 bound_to 10713
  156.6227  130.4410  149.5816 LP  0  0  0  0  0  0  0  0  0  0  0  0  # atno 17371 bound_to 10713
  139.8810  135.0023  156.6121 LP  0  0  0  0  0  0  0  0  0  0  0  0  # atno 17394 bound_to 11000
  140.7788  133.8677  155.8551 LP  0  0  0  0  0  0  0  0  0  0  0  0  # atno 17395 bound_to 11000

$$$$
