AV-unprocessed.smi:2113|AV-procd|sdf|8616|dock7
  -GOLD-   2272011363D 1   1.00000     0.00000
 Structure written by MMmdl.
 44 45  0  0  0  0  0  0  0  0  1 V2000
  150.2822  132.8663  152.7690 C   0  0  0  0  0  0  0  0  0  0  0  0
  151.3591  133.4159  153.7069 C   0  0  0  0  0  0  0  0  0  0  0  0
  150.7649  133.6936  154.9694 O   0  0  0  0  0  0  0  0  0  0  0  0
  150.1194  134.9599  155.0799 C   0  0  1  0  0  0  0  0  0  0  0  0
  149.4063  134.9989  156.4395 C   0  0  0  0  0  0  0  0  0  0  0  0
  151.1425  136.0998  154.9549 C   0  0  0  0  0  0  0  0  0  0  0  0
  152.0788  136.1845  155.7501 O   0  0  0  0  0  0  0  0  0  0  0  0
  150.9527  136.9662  153.9476 N   0  0  0  0  0  0  0  0  0  0  0  0
  151.7926  138.1287  153.6821 C   0  0  0  0  0  0  0  0  0  0  0  0
  151.8361  139.1095  154.8420 C   0  0  0  0  0  0  0  0  0  0  0  0
  150.7057  139.8717  155.1980 C   0  0  0  0  0  0  0  0  0  0  0  0
  150.7949  140.7562  156.2895 C   0  0  0  0  0  0  0  0  0  0  0  0
  152.0159  140.8574  156.9981 C   0  0  0  0  0  0  0  0  0  0  0  0
  152.1247  141.7292  158.1029 N   0  0  0  0  0  0  0  0  0  0  0  0
  152.7162  141.1562  159.3092 C   0  0  0  0  0  0  0  0  0  0  0  0
  153.0675  142.2679  160.3131 C   0  0  0  0  0  0  0  0  0  0  0  0
  151.9141  143.0579  160.5824 O   0  0  0  0  0  0  0  0  0  0  0  0
  151.4238  143.6965  159.4081 C   0  0  0  0  0  0  0  0  0  0  0  0
  151.0098  142.6342  158.3760 C   0  0  0  0  0  0  0  0  0  0  0  0
  153.1014  140.1225  156.6497 N   0  0  0  0  0  0  0  0  0  0  0  0
  153.0114  139.2778  155.6011 C   0  0  0  0  0  0  0  0  0  0  0  0
  150.6979  132.6435  151.7864 H   0  0  0  0  0  0  0  0  0  0  0  0
  149.4748  133.5868  152.6352 H   0  0  0  0  0  0  0  0  0  0  0  0
  149.8496  131.9476  153.1653 H   0  0  0  0  0  0  0  0  0  0  0  0
  152.1640  132.6867  153.8042 H   0  0  0  0  0  0  0  0  0  0  0  0
  151.7866  134.3257  153.2837 H   0  0  0  0  0  0  0  0  0  0  0  0
  149.3650  135.0521  154.2959 H   0  0  0  0  0  0  0  0  0  0  0  0
  148.9042  135.9540  156.5964 H   0  0  0  0  0  0  0  0  0  0  0  0
  150.1042  134.8475  157.2642 H   0  0  0  0  0  0  0  0  0  0  0  0
  148.6504  134.2160  156.5023 H   0  0  0  0  0  0  0  0  0  0  0  0
  150.1644  136.8191  153.3343 H   0  0  0  0  0  0  0  0  0  0  0  0
  152.8014  137.8064  153.4183 H   0  0  0  0  0  0  0  0  0  0  0  0
  151.3952  138.6459  152.8086 H   0  0  0  0  0  0  0  0  0  0  0  0
  149.7806  139.7776  154.6485 H   0  0  0  0  0  0  0  0  0  0  0  0
  149.9265  141.3284  156.5799 H   0  0  0  0  0  0  0  0  0  0  0  0
  152.0016  140.4635  159.7555 H   0  0  0  0  0  0  0  0  0  0  0  0
  153.6154  140.5840  159.0863 H   0  0  0  0  0  0  0  0  0  0  0  0
  153.4236  141.8313  161.2462 H   0  0  0  0  0  0  0  0  0  0  0  0
  153.8716  142.8980  159.9291 H   0  0  0  0  0  0  0  0  0  0  0  0
  150.5672  144.3170  159.6715 H   0  0  0  0  0  0  0  0  0  0  0  0
  152.1848  144.3624  158.9977 H   0  0  0  0  0  0  0  0  0  0  0  0
  150.6901  143.1285  157.4576 H   0  0  0  0  0  0  0  0  0  0  0  0
  150.1614  142.0600  158.7508 H   0  0  0  0  0  0  0  0  0  0  0  0
  153.9030  138.7145  155.3689 H   0  0  0  0  0  0  0  0  0  0  0  0
  1  2  1  0  0  0  0
  1 22  1  0  0  0  0
  1 23  1  0  0  0  0
  1 24  1  0  0  0  0
  2  3  1  0  0  0  0
  2 25  1  0  0  0  0
  2 26  1  0  0  0  0
  3  4  1  0  0  0  0
  4  5  1  0  0  0  0
  4  6  1  0  0  0  0
  4 27  1  0  0  0  0
  5 28  1  0  0  0  0
  5 29  1  0  0  0  0
  5 30  1  0  0  0  0
  6  7  2  0  0  0  0
  6  8  1  0  0  0  0
  8  9  1  0  0  0  0
  8 31  1  0  0  0  0
  9 10  1  0  0  0  0
  9 32  1  0  0  0  0
  9 33  1  0  0  0  0
 10 21  1  0  0  0  0
 10 11  2  0  0  0  0
 11 12  1  0  0  0  0
 11 34  1  0  0  0  0
 12 13  2  0  0  0  0
 12 35  1  0  0  0  0
 13 14  1  0  0  0  0
 13 20  1  0  0  0  0
 14 19  1  0  0  0  0
 14 15  1  0  0  0  0
 15 16  1  0  0  0  0
 15 36  1  0  0  0  0
 15 37  1  0  0  0  0
 16 17  1  0  0  0  0
 16 38  1  0  0  0  0
 16 39  1  0  0  0  0
 17 18  1  0  0  0  0
 18 19  1  0  0  0  0
 18 40  1  0  0  0  0
 18 41  1  0  0  0  0
 19 42  1  0  0  0  0
 19 43  1  0  0  0  0
 20 21  2  0  0  0  0
 21 44  1  0  0  0  0
M  END
> <s_m_source_file>
AV-unprocessed.smi

> <i_m_source_file_index>
2113

> <i_lp_mmshare_version>
43012

> <i_f3d_flags>
0

> <s_epik_input>
W0NIM11bQ0gyXU9bQ0BIXShbQ0gzXSlDKD1PKVtOSF1bQ0gyXWMxW2NIXVtjSF1jKG5bY0hdMSlOMltDSDJdW0NIMl1PW0NIMl1bQ0gyXTI=

> <s_epik_cmdline>
J2VwaWtfcHl0aG9uJywgJy1waCcsICc3LjAnLCAnLXRuJywgJzgnLCAnLW1hJywgJzIwMCcsICctbWV0YWxfYmluZGluZycsICctaW1hZScsICc8aW5maWxlLm1hZT4nLCAnLW9tYWUnLCAnPG91dGZpbGUubWFlPic=

> <r_lp_tautomer_probability>
1

> <r_epik_Ionization_Penalty>
0.00454344

> <r_epik_Ionization_Penalty_Charging>
0

> <r_epik_Ionization_Penalty_Neutral>
0.00454344

> <r_epik_State_Penalty>
0.00328127

> <r_epik_Charging_Adjusted_Penalty>
0.00328127

> <i_epik_Tot_Q>
0

> <i_epik_Tot_abs_Q>
0

> <r_epik_Metal_State_Penalty>
-0

> <b_epik_Metal_Only>
0

> <s_lp_Force_Field>
OPLS_2005

> <r_lp_Energy>
17.3963

> <b_lp_Chiralities_Consistent>
1

> <s_lp_Variant>
AV-unprocessed.smi:2113-2

> <Gold.Version>
5.8.1

> <Gold.Id.Protein>
6NUR|6NUR_protein|mol2

> <Gold.PLP.Fitness>
43.7996

> <Gold.PLP.PLP>
-38.2286

> <Gold.PLP.part.hbond>
-2.9410

> <Gold.PLP.part.metal>
0.0000

> <Gold.PLP.part.buried>
-2.9429

> <Gold.PLP.part.nonpolar>
-32.0443

> <Gold.PLP.part.repulsive>
0.1734

> <Gold.PLP.ligand.clash>
0.0000

> <Gold.PLP.ligand.torsion>
0.4074

> <Gold.PLP.Chemscore.Hbond>
1.9920

> <Gold.PLP.Chemscore.CHOScore>
0.0000

> <Gold.PLP.Chemscore.Metal>
0.0000

> <Gold.Chemscore.Hbonds>
donor molecule, donor type, donor heavy atom, donor atom, acceptor molecule, acceptor atom, score
      L1  H     8    31       P1  7948  0.65
      P1  H  7997  8008       L1    20  0.45
      P1  H 10752 10764       L1     7  0.74

> <Gold.PLP.Chemscore.Internal.Correction>
0.4098

> <Gold.Rescore>
     Score         DG    S(hbond)    S(metal)    S(lipo)     H(rot)  DE(clash)    DE(int)     intcor
     14.24     -16.08       1.38        0.00      92.74       1.90       0.19       1.65       ----

> <Gold.Chemscore.Fitness>
14.2363

> <Gold.Chemscore.DG>
-16.0833

> <Gold.Chemscore.ZeroCoef>
-5.4800

> <Gold.Chemscore.Hbond>
1.3786

> <Gold.Chemscore.Metal>
0.0000

> <Gold.Chemscore.Lipo>
92.7385

> <Gold.Chemscore.Internal_Hbond>
0.0000

> <Gold.Chemscore.DEClash>
0.1931

> <Gold.Chemscore.DEInternal>
1.6539

> <Gold.Chemscore.Rot>
1.8952

> <Gold.Chemscore.Internal.Correction>
   9.000000E+99

> <Gold.Chemscore.Hbonds>
donor molecule, donor type, donor heavy atom, donor atom, acceptor molecule, acceptor atom, score
      L1  H     8    31       P1  7948  0.06
      P1  H  7997  8008       L1    20  0.11
      P1  H 10752 10764       L1     7  0.17

> <Gold.Chemscore.Hbond.Weighted>
-4.6045

> <Gold.Chemscore.Metal.Weighted>
-0.0000

> <Gold.Chemscore.Lipo.Weighted>
-10.8504

> <Gold.Chemscore.Internal_Hbond.Weighted>
0.0000

> <Gold.Chemscore.DEClash.Weighted>
0.1931

> <Gold.Chemscore.DEInternal.Weighted>
1.6539

> <Gold.Chemscore.Rot.Weighted>
4.8516

> <Gold.Chemscore.Internal.Correction.Weighted>
   9.000000E+99

> <Gold.Protein.RotatedTorsions>
[ 6907 6896 6895 6894 ] final  -59.48 input  -60.11 | X-H torsion
[ 7974 7965 7964 7962 ] final -117.42 input  175.53 | X-H torsion
[ 8008 7997 7996 7995 ] final  -77.48 input   59.86 | X-H torsion
[ 10167 10162 10161 10158 ] final  179.85 input  -65.29 | X-H torsion
[ 10718 10713 10712 10709 ] final    4.59 input   66.30 | X-H torsion
[ 10763 10752 10751 10750 ] final  -34.78 input  -60.55 | X-H torsion
[ 11005 11000 10999 10996 ] final   41.41 input  -57.11 | X-H torsion

> <Gold.Protein.ActiveResidues>
 VAL166  LYS551  ARG553  GLY616  TRP617  ASP618  TYR619  PRO620  LYS621  CYS622 
 ASP623  PHE694  ASN695  SER759  ASP760  ASP761  ALA762  ILE779  LEU786  VAL792 
 PHE793  MET794  SER795  GLU796  ALA797  LYS798  CYS799  TRP800  GLU811  SER814 

> <Gold.Protein.RotatedAtoms>
  150.7927  134.6963  159.6524 H   0  0  0  0  0  0  0  0  0  0  0  0  # atno 6907 bound_to 6896
  152.4035  134.6243  160.0068 H   0  0  0  0  0  0  0  0  0  0  0  0  # atno 6908 bound_to 6896
  151.6507  133.3284  159.3187 H   0  0  0  0  0  0  0  0  0  0  0  0  # atno 6909 bound_to 6896
  145.0854  140.8454  143.4014 H   0  0  0  0  0  0  0  0  0  0  0  0  # atno 7974 bound_to 7965
  154.5600  140.0710  156.8804 H   0  0  0  0  0  0  0  0  0  0  0  0  # atno 8008 bound_to 7997
  155.2829  140.3373  155.4239 H   0  0  0  0  0  0  0  0  0  0  0  0  # atno 8009 bound_to 7997
  156.2034  140.1730  156.7837 H   0  0  0  0  0  0  0  0  0  0  0  0  # atno 8010 bound_to 7997
  139.5354  144.2512  152.0783 H   0  0  0  0  0  0  0  0  0  0  0  0  # atno 10167 bound_to 10162
  156.8949  130.5700  149.5649 H   0  0  0  0  0  0  0  0  0  0  0  0  # atno 10718 bound_to 10713
  153.8523  135.6848  153.4791 H   0  0  0  0  0  0  0  0  0  0  0  0  # atno 10763 bound_to 10752
  153.1390  135.4665  154.9464 H   0  0  0  0  0  0  0  0  0  0  0  0  # atno 10764 bound_to 10752
  154.7796  135.3264  154.7965 H   0  0  0  0  0  0  0  0  0  0  0  0  # atno 10765 bound_to 10752
  140.1837  134.4072  155.8185 H   0  0  0  0  0  0  0  0  0  0  0  0  # atno 11005 bound_to 11000
  145.1128  139.2745  143.5628 LP  0  0  0  0  0  0  0  0  0  0  0  0  # atno 17320 bound_to 7965
  146.3531  140.0729  142.8622 LP  0  0  0  0  0  0  0  0  0  0  0  0  # atno 17321 bound_to 7965
  140.1982  144.4684  150.6444 LP  0  0  0  0  0  0  0  0  0  0  0  0  # atno 17342 bound_to 10162
  140.6558  143.2237  151.5973 LP  0  0  0  0  0  0  0  0  0  0  0  0  # atno 17343 bound_to 10162
  156.0611  130.5663  150.9194 LP  0  0  0  0  0  0  0  0  0  0  0  0  # atno 17370 bound_to 10713
  157.6061  131.0939  150.8876 LP  0  0  0  0  0  0  0  0  0  0  0  0  # atno 17371 bound_to 10713
  141.2224  133.7013  156.7976 LP  0  0  0  0  0  0  0  0  0  0  0  0  # atno 17394 bound_to 11000
  140.2238  134.8737  157.3405 LP  0  0  0  0  0  0  0  0  0  0  0  0  # atno 17395 bound_to 11000

$$$$
