AV-unprocessed.smi:2671|AV-procd|sdf|10346|dock6
  -GOLD-   2272014373D 1   1.00000     0.00000
 Structure written by MMmdl.
 28 29  0  0  0  0  0  0  0  0  2 V2000
  154.1699  139.9200  159.9682 O   0  0  0  0  0  0  0  0  0  0  0  0
  153.4083  140.5967  159.2806 C   0  0  0  0  0  0  0  0  0  0  0  0
  153.0587  141.9493  159.7120 C   0  0  0  0  0  0  0  0  0  0  0  0
  152.2198  142.6893  158.9448 C   0  0  0  0  0  0  0  0  0  0  0  0
  151.8114  144.0960  159.3485 C   0  0  0  0  0  0  0  0  0  0  0  0
  152.4051  144.9953  158.5635 F   0  0  0  0  0  0  0  0  0  0  0  0
  150.4926  144.2446  159.2249 F   0  0  0  0  0  0  0  0  0  0  0  0
  152.1441  144.3612  160.6132 F   0  0  0  0  0  0  0  0  0  0  0  0
  151.6871  142.1573  157.7555 N   0  0  0  0  0  0  0  0  0  0  0  0
  152.0079  140.9698  157.3979 C   0  0  0  0  0  0  0  0  0  0  0  0
  151.3336  140.2850  155.8740 S   0  0  0  0  0  0  0  0  0  0  0  0
  150.1403  141.5405  155.3217 C   0  0  0  0  0  0  0  0  0  0  0  0
  148.8288  140.9055  154.8399 C   0  0  2  0  0  0  0  0  0  0  0  0
  148.9384  139.4280  154.4572 C   0  0  0  0  0  0  0  0  0  0  0  0
  147.8583  139.2420  153.4012 C   0  0  0  0  0  0  0  0  0  0  0  0
  147.3983  140.6655  153.0779 C   0  0  0  0  0  0  0  0  0  0  0  0
  148.4032  141.5049  153.6265 O   0  0  0  0  0  0  0  0  0  0  0  0
  152.8568  140.1530  158.1142 N   0  5  0  0  0  0  0  0  0  0  0  0
  153.4648  142.3503  160.6289 H   0  0  0  0  0  0  0  0  0  0  0  0
  150.5845  142.1387  154.5252 H   0  0  0  0  0  0  0  0  0  0  0  0
  149.9365  142.2148  156.1539 H   0  0  0  0  0  0  0  0  0  0  0  0
  148.0450  141.0430  155.5874 H   0  0  0  0  0  0  0  0  0  0  0  0
  149.9151  139.2201  154.0185 H   0  0  0  0  0  0  0  0  0  0  0  0
  148.8101  138.7663  155.3141 H   0  0  0  0  0  0  0  0  0  0  0  0
  148.2679  138.7485  152.5194 H   0  0  0  0  0  0  0  0  0  0  0  0
  147.0282  138.6381  153.7694 H   0  0  0  0  0  0  0  0  0  0  0  0
  147.2780  140.8362  152.0078 H   0  0  0  0  0  0  0  0  0  0  0  0
  146.4469  140.8818  153.5662 H   0  0  0  0  0  0  0  0  0  0  0  0
  1  2  2  0  0  0  0
  2 18  1  0  0  0  0
  2  3  1  0  0  0  0
  3 19  1  0  0  0  0
  3  4  2  0  0  0  0
  4  5  1  0  0  0  0
  4  9  1  0  0  0  0
  5  6  1  0  0  0  0
  5  7  1  0  0  0  0
  5  8  1  0  0  0  0
  9 10  2  0  0  0  0
 10 11  1  0  0  0  0
 10 18  1  0  0  0  0
 11 12  1  0  0  0  0
 12 13  1  0  0  0  0
 12 20  1  0  0  0  0
 12 21  1  0  0  0  0
 13 17  1  0  0  0  0
 13 14  1  0  0  0  0
 13 22  1  0  0  0  0
 14 15  1  0  0  0  0
 14 23  1  0  0  0  0
 14 24  1  0  0  0  0
 15 16  1  0  0  0  0
 15 25  1  0  0  0  0
 15 26  1  0  0  0  0
 16 17  1  0  0  0  0
 16 27  1  0  0  0  0
 16 28  1  0  0  0  0
M  CHG  1  18  -1
M  END
> <s_m_source_file>
AV-unprocessed.smi

> <i_m_source_file_index>
2671

> <i_lp_mmshare_version>
43012

> <i_f3d_flags>
0

> <s_epik_input>
W09IXWMxW2NIXWMoQyhGKShGKUYpbmMobjEpU1tDSDJdW0NAQEhdMltDSDJdW0NIMl1bQ0gyXU8y

> <s_epik_cmdline>
J2VwaWtfcHl0aG9uJywgJy1waCcsICc3LjAnLCAnLXRuJywgJzgnLCAnLW1hJywgJzIwMCcsICctbWV0YWxfYmluZGluZycsICctaW1hZScsICc8aW5maWxlLm1hZT4nLCAnLW9tYWUnLCAnPG91dGZpbGUubWFlPic=

> <r_lp_tautomer_probability>
1

> <r_epik_Ionization_Penalty>
0.972901

> <r_epik_Ionization_Penalty_Charging>
0.00136034

> <r_epik_Ionization_Penalty_Neutral>
0.971541

> <r_epik_State_Penalty>
0.242243

> <r_epik_Charging_Adjusted_Penalty>
0.243604

> <i_epik_Tot_Q>
-1

> <i_epik_Tot_abs_Q>
1

> <r_epik_Metal_State_Penalty>
0.0617458

> <b_epik_Metal_Only>
0

> <s_lp_Force_Field>
OPLS_2005

> <r_lp_Energy>
24.2298

> <b_lp_Chiralities_Consistent>
1

> <s_lp_Variant>
AV-unprocessed.smi:2671-1

> <Gold.Version>
5.8.1

> <Gold.Id.Protein>
6NUR|6NUR_protein|mol2

> <Gold.PLP.Fitness>
43.1514

> <Gold.PLP.PLP>
-39.3940

> <Gold.PLP.part.hbond>
-2.0000

> <Gold.PLP.part.metal>
0.0000

> <Gold.PLP.part.buried>
-1.3335

> <Gold.PLP.part.nonpolar>
-33.7262

> <Gold.PLP.part.repulsive>
0.1952

> <Gold.PLP.ligand.clash>
0.6357

> <Gold.PLP.ligand.torsion>
1.3951

> <Gold.PLP.Chemscore.Hbond>
2.3876

> <Gold.PLP.Chemscore.CHOScore>
0.0000

> <Gold.PLP.Chemscore.Metal>
0.0000

> <Gold.Chemscore.Hbonds>
donor molecule, donor type, donor heavy atom, donor atom, acceptor molecule, acceptor atom, score
      P1  H  7997  8010       L1    18  1.98
      P1  H  8011  8017       L1    17  0.57

> <Gold.PLP.Chemscore.Internal.Correction>
0.0205

> <Gold.Rescore>
     Score         DG    S(hbond)    S(metal)    S(lipo)     H(rot)  DE(clash)    DE(int)     intcor
     10.39     -12.21       0.65        0.00      75.51       1.66       0.73       1.09       ----

> <Gold.Chemscore.Fitness>
10.3916

> <Gold.Chemscore.DG>
-12.2116

> <Gold.Chemscore.ZeroCoef>
-5.4800

> <Gold.Chemscore.Hbond>
0.6465

> <Gold.Chemscore.Metal>
0.0000

> <Gold.Chemscore.Lipo>
75.5078

> <Gold.Chemscore.Internal_Hbond>
0.0000

> <Gold.Chemscore.DEClash>
0.7335

> <Gold.Chemscore.DEInternal>
1.0865

> <Gold.Chemscore.Rot>
1.6649

> <Gold.Chemscore.Internal.Correction>
   9.000000E+99

> <Gold.Chemscore.Hbonds>
donor molecule, donor type, donor heavy atom, donor atom, acceptor molecule, acceptor atom, score
      P1  H  7997  8010       L1    18  0.09
      P1  H  8011  8017       L1    17  0.54

> <Gold.Chemscore.Hbond.Weighted>
-2.1592

> <Gold.Chemscore.Metal.Weighted>
-0.0000

> <Gold.Chemscore.Lipo.Weighted>
-8.8344

> <Gold.Chemscore.Internal_Hbond.Weighted>
0.0000

> <Gold.Chemscore.DEClash.Weighted>
0.7335

> <Gold.Chemscore.DEInternal.Weighted>
1.0865

> <Gold.Chemscore.Rot.Weighted>
4.2620

> <Gold.Chemscore.Internal.Correction.Weighted>
   9.000000E+99

> <Gold.Protein.RotatedTorsions>
[ 6907 6896 6895 6894 ] final  124.43 input  -60.11 | X-H torsion
[ 7974 7965 7964 7962 ] final  102.24 input  175.53 | X-H torsion
[ 8008 7997 7996 7995 ] final   41.55 input   59.86 | X-H torsion
[ 10167 10162 10161 10158 ] final -131.44 input  -65.29 | X-H torsion
[ 10718 10713 10712 10709 ] final -100.96 input   66.30 | X-H torsion
[ 10763 10752 10751 10750 ] final  -93.07 input  -60.55 | X-H torsion
[ 11005 11000 10999 10996 ] final   39.64 input  -57.11 | X-H torsion

> <Gold.Protein.ActiveResidues>
 VAL166  LYS551  ARG553  GLY616  TRP617  ASP618  TYR619  PRO620  LYS621  CYS622 
 ASP623  PHE694  ASN695  SER759  ASP760  ASP761  ALA762  ILE779  LEU786  VAL792 
 PHE793  MET794  SER795  GLU796  ALA797  LYS798  CYS799  TRP800  GLU811  SER814 

> <Gold.Protein.RotatedAtoms>
  152.4079  133.6917  159.6371 H   0  0  0  0  0  0  0  0  0  0  0  0  # atno 6907 bound_to 6896
  150.7962  133.8677  159.3258 H   0  0  0  0  0  0  0  0  0  0  0  0  # atno 6908 bound_to 6896
  151.6427  135.1012  160.0196 H   0  0  0  0  0  0  0  0  0  0  0  0  # atno 6909 bound_to 6896
  145.3617  139.2416  143.3503 H   0  0  0  0  0  0  0  0  0  0  0  0  # atno 7974 bound_to 7965
  155.2715  140.3366  155.4265 H   0  0  0  0  0  0  0  0  0  0  0  0  # atno 8008 bound_to 7997
  156.2130  140.1778  156.7693 H   0  0  0  0  0  0  0  0  0  0  0  0  # atno 8009 bound_to 7997
  154.5714  140.0669  156.8954 H   0  0  0  0  0  0  0  0  0  0  0  0  # atno 8010 bound_to 7997
  139.9188  143.6406  152.2558 H   0  0  0  0  0  0  0  0  0  0  0  0  # atno 10167 bound_to 10162
  156.0179  130.5352  150.6894 H   0  0  0  0  0  0  0  0  0  0  0  0  # atno 10718 bound_to 10713
  154.6924  135.5208  153.8410 H   0  0  0  0  0  0  0  0  0  0  0  0  # atno 10763 bound_to 10752
  153.0641  135.6579  154.0403 H   0  0  0  0  0  0  0  0  0  0  0  0  # atno 10764 bound_to 10752
  154.0275  135.2988  155.3352 H   0  0  0  0  0  0  0  0  0  0  0  0  # atno 10765 bound_to 10752
  140.2008  134.3873  155.8097 H   0  0  0  0  0  0  0  0  0  0  0  0  # atno 11005 bound_to 11000
  146.2924  140.4252  142.8734 LP  0  0  0  0  0  0  0  0  0  0  0  0  # atno 17320 bound_to 7965
  144.8641  140.7181  143.6088 LP  0  0  0  0  0  0  0  0  0  0  0  0  # atno 17321 bound_to 7965
  139.6879  144.7650  151.1491 LP  0  0  0  0  0  0  0  0  0  0  0  0  # atno 17342 bound_to 10162
  140.7667  143.5631  150.9077 LP  0  0  0  0  0  0  0  0  0  0  0  0  # atno 17343 bound_to 10162
  157.4579  131.0880  151.0777 LP  0  0  0  0  0  0  0  0  0  0  0  0  # atno 17370 bound_to 10713
  157.1274  130.6087  149.5520 LP  0  0  0  0  0  0  0  0  0  0  0  0  # atno 17371 bound_to 10713
  141.2227  133.7093  156.8254 LP  0  0  0  0  0  0  0  0  0  0  0  0  # atno 17394 bound_to 11000
  140.2056  134.8865  157.3218 LP  0  0  0  0  0  0  0  0  0  0  0  0  # atno 17395 bound_to 11000

$$$$
