AV-unprocessed.smi:2702|AV-procd|sdf|10436|dock4
  -GOLD-   2272014473D 1   1.00000     0.00000
 Structure written by MMmdl.
 47 48  0  0  0  0  0  0  0  0  1 V2000
  146.8240  137.0102  162.4971 C   0  0  0  0  0  0  0  0  0  0  0  0
  147.3295  137.4816  161.2606 O   0  0  0  0  0  0  0  0  0  0  0  0
  147.7898  136.4324  160.4261 C   0  0  0  0  0  0  0  0  0  0  0  0
  148.4639  136.9963  159.1918 C   0  0  0  0  0  0  0  0  0  0  0  0
  147.7697  137.6608  158.2390 C   0  0  0  0  0  0  0  0  0  0  0  0
  148.4454  138.1841  157.0520 C   0  0  0  0  0  0  0  0  0  0  0  0
  147.8504  138.8012  156.1678 O   0  0  0  0  0  0  0  0  0  0  0  0
  149.7882  137.9383  156.9991 N   0  0  0  0  0  0  0  0  0  0  0  0
  150.6054  138.4088  155.8660 C   0  0  0  0  0  0  0  0  0  0  0  0
  151.5912  139.5164  156.2620 C   0  0  0  0  0  0  0  0  0  0  0  0
  152.5056  139.8404  155.5034 O   0  0  0  0  0  0  0  0  0  0  0  0
  151.3960  140.0786  157.4643 N   0  0  0  0  0  0  0  0  0  0  0  0
  152.1881  141.1697  158.0265 C   0  0  2  0  0  0  0  0  0  0  0  0
  152.5341  140.8594  159.4958 C   0  0  0  0  0  0  0  0  0  0  0  0
  153.3979  141.9706  160.1108 C   0  0  0  0  0  0  0  0  0  0  0  0
  152.7312  143.3478  159.9689 C   0  0  0  0  0  0  0  0  0  0  0  0
  152.3770  143.6551  158.4998 C   0  0  2  0  0  0  0  0  0  0  0  0
  151.8025  145.0718  158.3349 C   0  0  0  0  0  0  0  0  0  0  0  0
  151.4820  142.5473  157.8836 C   0  0  2  0  0  0  0  0  0  0  0  0
  150.0326  142.5486  158.4240 C   0  0  0  0  0  0  0  0  0  0  0  0
  150.4589  137.2228  158.0111 C   0  0  0  0  0  0  0  0  0  0  0  0
  149.8377  136.7729  159.0547 N   0  0  0  0  0  0  0  0  0  0  0  0
  146.4774  137.8524  163.0960 H   0  0  0  0  0  0  0  0  0  0  0  0
  147.5952  136.4881  163.0650 H   0  0  0  0  0  0  0  0  0  0  0  0
  145.9811  136.3342  162.3472 H   0  0  0  0  0  0  0  0  0  0  0  0
  148.4996  135.8052  160.9681 H   0  0  0  0  0  0  0  0  0  0  0  0
  146.9561  135.7939  160.1296 H   0  0  0  0  0  0  0  0  0  0  0  0
  146.7066  137.8153  158.3525 H   0  0  0  0  0  0  0  0  0  0  0  0
  151.1527  137.5657  155.4396 H   0  0  0  0  0  0  0  0  0  0  0  0
  149.9870  138.7851  155.0492 H   0  0  0  0  0  0  0  0  0  0  0  0
  150.6237  139.7445  158.0224 H   0  0  0  0  0  0  0  0  0  0  0  0
  153.1303  141.2108  157.4760 H   0  0  0  0  0  0  0  0  0  0  0  0
  151.6224  140.7382  160.0818 H   0  0  0  0  0  0  0  0  0  0  0  0
  153.0665  139.9099  159.5609 H   0  0  0  0  0  0  0  0  0  0  0  0
  153.5876  141.7556  161.1627 H   0  0  0  0  0  0  0  0  0  0  0  0
  154.3716  141.9861  159.6193 H   0  0  0  0  0  0  0  0  0  0  0  0
  151.8351  143.3888  160.5886 H   0  0  0  0  0  0  0  0  0  0  0  0
  153.4033  144.1142  160.3565 H   0  0  0  0  0  0  0  0  0  0  0  0
  153.3138  143.6453  157.9399 H   0  0  0  0  0  0  0  0  0  0  0  0
  150.9180  145.2250  158.9530 H   0  0  0  0  0  0  0  0  0  0  0  0
  151.5274  145.2670  157.2981 H   0  0  0  0  0  0  0  0  0  0  0  0
  152.5358  145.8240  158.6267 H   0  0  0  0  0  0  0  0  0  0  0  0
  151.4066  142.7621  156.8167 H   0  0  0  0  0  0  0  0  0  0  0  0
  149.9938  142.3613  159.4963 H   0  0  0  0  0  0  0  0  0  0  0  0
  149.4222  141.7884  157.9365 H   0  0  0  0  0  0  0  0  0  0  0  0
  149.5373  143.5007  158.2378 H   0  0  0  0  0  0  0  0  0  0  0  0
  151.5280  137.0736  157.8511 H   0  0  0  0  0  0  0  0  0  0  0  0
  1  2  1  0  0  0  0
  1 23  1  0  0  0  0
  1 24  1  0  0  0  0
  1 25  1  0  0  0  0
  2  3  1  0  0  0  0
  3  4  1  0  0  0  0
  3 26  1  0  0  0  0
  3 27  1  0  0  0  0
  4 22  1  0  0  0  0
  4  5  2  0  0  0  0
  5  6  1  0  0  0  0
  5 28  1  0  0  0  0
  6  7  2  0  0  0  0
  6  8  1  0  0  0  0
  8  9  1  0  0  0  0
  8 21  1  0  0  0  0
  9 10  1  0  0  0  0
  9 29  1  0  0  0  0
  9 30  1  0  0  0  0
 10 11  2  0  0  0  0
 10 12  1  0  0  0  0
 12 13  1  0  0  0  0
 12 31  1  0  0  0  0
 13 19  1  0  0  0  0
 13 14  1  0  0  0  0
 13 32  1  0  0  0  0
 14 15  1  0  0  0  0
 14 33  1  0  0  0  0
 14 34  1  0  0  0  0
 15 16  1  0  0  0  0
 15 35  1  0  0  0  0
 15 36  1  0  0  0  0
 16 17  1  0  0  0  0
 16 37  1  0  0  0  0
 16 38  1  0  0  0  0
 17 18  1  0  0  0  0
 17 19  1  0  0  0  0
 17 39  1  0  0  0  0
 18 40  1  0  0  0  0
 18 41  1  0  0  0  0
 18 42  1  0  0  0  0
 19 20  1  0  0  0  0
 19 43  1  0  0  0  0
 20 44  1  0  0  0  0
 20 45  1  0  0  0  0
 20 46  1  0  0  0  0
 21 22  2  0  0  0  0
 21 47  1  0  0  0  0
M  END
> <s_m_source_file>
AV-unprocessed.smi

> <i_m_source_file_index>
2702

> <i_lp_mmshare_version>
43012

> <i_f3d_flags>
0

> <s_epik_input>
W0NIM11PW0NIMl1jMVtjSF1jKD1PKW4oW2NIXW4xKVtDSDJdQyg9TylbTkhdW0NAQEhdMltDSDJdW0NIMl1bQ0gyXVtDQEBIXShbQ0gzXSlbQ0BIXTJbQ0gzXQ==

> <s_epik_cmdline>
J2VwaWtfcHl0aG9uJywgJy1waCcsICc3LjAnLCAnLXRuJywgJzgnLCAnLW1hJywgJzIwMCcsICctbWV0YWxfYmluZGluZycsICctaW1hZScsICc8aW5maWxlLm1hZT4nLCAnLW9tYWUnLCAnPG91dGZpbGUubWFlPic=

> <r_lp_tautomer_probability>
1

> <r_epik_Ionization_Penalty>
1.22164e-06

> <r_epik_Ionization_Penalty_Charging>
3.17988e-07

> <r_epik_Ionization_Penalty_Neutral>
9.03656e-07

> <r_epik_State_Penalty>
-0

> <r_epik_Charging_Adjusted_Penalty>
3.17988e-07

> <i_epik_Tot_Q>
0

> <i_epik_Tot_abs_Q>
0

> <r_epik_Metal_State_Penalty>
-0

> <b_epik_Metal_Only>
0

> <s_lp_Force_Field>
OPLS_2005

> <r_lp_Energy>
18.8167

> <b_lp_Chiralities_Consistent>
1

> <s_lp_Variant>
AV-unprocessed.smi:2702-7

> <Gold.Version>
5.8.1

> <Gold.Id.Protein>
6NUR|6NUR_protein|mol2

> <Gold.PLP.Fitness>
52.7684

> <Gold.PLP.PLP>
-41.4093

> <Gold.PLP.part.hbond>
-5.0000

> <Gold.PLP.part.metal>
0.0000

> <Gold.PLP.part.buried>
-5.3678

> <Gold.PLP.part.nonpolar>
-30.9816

> <Gold.PLP.part.repulsive>
0.0587

> <Gold.PLP.ligand.clash>
0.0000

> <Gold.PLP.ligand.torsion>
0.5126

> <Gold.PLP.Chemscore.Hbond>
4.1116

> <Gold.PLP.Chemscore.CHOScore>
0.0000

> <Gold.PLP.Chemscore.Metal>
0.0000

> <Gold.Chemscore.Hbonds>
donor molecule, donor type, donor heavy atom, donor atom, acceptor molecule, acceptor atom, score
      P1  H  6896  6907       L1    22  0.47
      P1  H  6931  6943       L1     2  0.68
      P1  H  6934  6947       L1     2  0.98
      P1  H  7989  7998       L1    11  0.06
      P1  H  7997  8008       L1    11  1.00

> <Gold.PLP.Chemscore.Internal.Correction>
0.0494

> <Gold.Rescore>
     Score         DG    S(hbond)    S(metal)    S(lipo)     H(rot)  DE(clash)    DE(int)     intcor
     23.53     -24.34       3.38        0.00     107.00       1.93       0.10       0.70       ----

> <Gold.Chemscore.Fitness>
23.5338

> <Gold.Chemscore.DG>
-24.3391

> <Gold.Chemscore.ZeroCoef>
-5.4800

> <Gold.Chemscore.Hbond>
3.3764

> <Gold.Chemscore.Metal>
0.0000

> <Gold.Chemscore.Lipo>
106.9983

> <Gold.Chemscore.Internal_Hbond>
0.0000

> <Gold.Chemscore.DEClash>
0.1017

> <Gold.Chemscore.DEInternal>
0.7036

> <Gold.Chemscore.Rot>
1.9284

> <Gold.Chemscore.Internal.Correction>
   9.000000E+99

> <Gold.Chemscore.Hbonds>
donor molecule, donor type, donor heavy atom, donor atom, acceptor molecule, acceptor atom, score
      P1  H  6896  6907       L1    22  0.31
      P1  H  6931  6943       L1     2  0.05
      P1  H  6934  6947       L1     2  0.87
      P1  H  7989  7998       L1    11  0.07
      P1  H  7997  8008       L1    11  0.95

> <Gold.Chemscore.Hbond.Weighted>
-11.2771

> <Gold.Chemscore.Metal.Weighted>
-0.0000

> <Gold.Chemscore.Lipo.Weighted>
-12.5188

> <Gold.Chemscore.Internal_Hbond.Weighted>
0.0000

> <Gold.Chemscore.DEClash.Weighted>
0.1017

> <Gold.Chemscore.DEInternal.Weighted>
0.7036

> <Gold.Chemscore.Rot.Weighted>
4.9368

> <Gold.Chemscore.Internal.Correction.Weighted>
   9.000000E+99

> <Gold.Protein.RotatedTorsions>
[ 6907 6896 6895 6894 ] final  -48.41 input  -60.11 | X-H torsion
[ 7974 7965 7964 7962 ] final  -94.86 input  175.53 | X-H torsion
[ 8008 7997 7996 7995 ] final  -35.72 input   59.86 | X-H torsion
[ 10167 10162 10161 10158 ] final -154.68 input  -65.29 | X-H torsion
[ 10718 10713 10712 10709 ] final  146.69 input   66.30 | X-H torsion
[ 10763 10752 10751 10750 ] final  174.37 input  -60.55 | X-H torsion
[ 11005 11000 10999 10996 ] final   80.13 input  -57.11 | X-H torsion

> <Gold.Protein.ActiveResidues>
 VAL166  LYS551  ARG553  GLY616  TRP617  ASP618  TYR619  PRO620  LYS621  CYS622 
 ASP623  PHE694  ASN695  SER759  ASP760  ASP761  ALA762  ILE779  LEU786  VAL792 
 PHE793  MET794  SER795  GLU796  ALA797  LYS798  CYS799  TRP800  GLU811  SER814 

> <Gold.Protein.RotatedAtoms>
  150.8909  134.8312  159.7291 H   0  0  0  0  0  0  0  0  0  0  0  0  # atno 6907 bound_to 6896
  152.4836  134.4650  159.9627 H   0  0  0  0  0  0  0  0  0  0  0  0  # atno 6908 bound_to 6896
  151.4713  133.3529  159.2859 H   0  0  0  0  0  0  0  0  0  0  0  0  # atno 6909 bound_to 6896
  145.3677  140.9501  143.2465 H   0  0  0  0  0  0  0  0  0  0  0  0  # atno 7974 bound_to 7965
  154.4089  140.1650  156.2257 H   0  0  0  0  0  0  0  0  0  0  0  0  # atno 8008 bound_to 7997
  155.9326  140.3413  155.6238 H   0  0  0  0  0  0  0  0  0  0  0  0  # atno 8009 bound_to 7997
  155.7088  140.0754  157.2370 H   0  0  0  0  0  0  0  0  0  0  0  0  # atno 8010 bound_to 7997
  139.6993  143.9289  152.2421 H   0  0  0  0  0  0  0  0  0  0  0  0  # atno 10167 bound_to 10162
  157.3301  131.0919  151.1169 H   0  0  0  0  0  0  0  0  0  0  0  0  # atno 10718 bound_to 10713
  154.4530  135.2765  155.1768 H   0  0  0  0  0  0  0  0  0  0  0  0  # atno 10763 bound_to 10752
  154.3587  135.6134  153.5683 H   0  0  0  0  0  0  0  0  0  0  0  0  # atno 10764 bound_to 10752
  152.9848  135.5829  154.4878 H   0  0  0  0  0  0  0  0  0  0  0  0  # atno 10765 bound_to 10752
  139.9146  134.7896  156.1869 H   0  0  0  0  0  0  0  0  0  0  0  0  # atno 11005 bound_to 11000
  144.8599  139.5192  143.6817 LP  0  0  0  0  0  0  0  0  0  0  0  0  # atno 17320 bound_to 7965
  146.2899  139.7110  142.9168 LP  0  0  0  0  0  0  0  0  0  0  0  0  # atno 17321 bound_to 7965
  139.9127  144.6847  150.8545 LP  0  0  0  0  0  0  0  0  0  0  0  0  # atno 17342 bound_to 10162
  140.7705  143.3431  151.2166 LP  0  0  0  0  0  0  0  0  0  0  0  0  # atno 17343 bound_to 10162
  157.2421  130.6574  149.5894 LP  0  0  0  0  0  0  0  0  0  0  0  0  # atno 17370 bound_to 10713
  155.9695  130.4565  150.5928 LP  0  0  0  0  0  0  0  0  0  0  0  0  # atno 17371 bound_to 10713
  141.0608  133.6843  156.1948 LP  0  0  0  0  0  0  0  0  0  0  0  0  # atno 17394 bound_to 11000
  140.6664  134.4914  157.5585 LP  0  0  0  0  0  0  0  0  0  0  0  0  # atno 17395 bound_to 11000

$$$$
