AV-unprocessed.smi:2879|AV-procd|sdf|11049|dock6
  -GOLD-   2272015513D 1   1.00000     0.00000
 Structure written by MMmdl.
 44 45  0  0  0  0  0  0  0  0  1 V2000
  148.9483  134.1435  154.1858 C   0  0  0  0  0  0  0  0  0  0  0  0
  148.8445  135.2563  155.1719 C   0  0  0  0  0  0  0  0  0  0  0  0
  148.8834  135.2620  156.5378 C   0  0  0  0  0  0  0  0  0  0  0  0
  148.7344  136.6362  156.8903 C   0  0  0  0  0  0  0  0  0  0  0  0
  148.7120  137.2421  158.2691 C   0  0  0  0  0  0  0  0  0  0  0  0
  150.0952  137.7836  158.6353 C   0  0  0  0  0  0  0  0  0  0  0  0
  150.7810  137.2074  159.4796 O   0  0  0  0  0  0  0  0  0  0  0  0
  150.4911  138.8937  157.9955 N   0  0  0  0  0  0  0  0  0  0  0  0
  151.7828  139.5419  158.1766 C   0  0  0  0  0  0  0  0  0  0  0  0
  151.6371  140.8915  158.9053 C   0  0  0  0  0  0  0  0  0  0  0  0
  150.9557  141.9654  158.0309 C   0  0  0  0  0  0  0  0  0  0  0  0
  150.8359  143.3110  158.7692 C   0  0  0  0  0  0  0  0  0  0  0  0
  152.1888  143.8475  159.2972 C   0  0  0  0  0  0  0  0  0  0  0  0
  153.0930  144.3044  158.1316 C   0  0  0  0  0  0  0  0  0  0  0  0
  151.9246  145.0690  160.1987 C   0  0  0  0  0  0  0  0  0  0  0  0
  152.8819  142.7458  160.1358 C   0  0  0  0  0  0  0  0  0  0  0  0
  153.0042  141.4012  159.3966 C   0  0  0  0  0  0  0  0  0  0  0  0
  148.6069  137.4184  155.8264 N   0  0  0  0  0  0  0  0  0  0  0  0
  148.6780  136.5664  154.7869 N   0  0  0  0  0  0  0  0  0  0  0  0
  148.6112  136.8886  153.8318 H   0  0  0  0  0  0  0  0  0  0  0  0
  149.1635  133.1987  154.6855 H   0  0  0  0  0  0  0  0  0  0  0  0
  149.7471  134.3335  153.4687 H   0  0  0  0  0  0  0  0  0  0  0  0
  148.0159  134.0276  153.6329 H   0  0  0  0  0  0  0  0  0  0  0  0
  149.0050  134.4111  157.1918 H   0  0  0  0  0  0  0  0  0  0  0  0
  147.9827  138.0511  158.3314 H   0  0  0  0  0  0  0  0  0  0  0  0
  148.4087  136.4953  159.0040 H   0  0  0  0  0  0  0  0  0  0  0  0
  149.8647  139.2992  157.3149 H   0  0  0  0  0  0  0  0  0  0  0  0
  152.4298  138.8750  158.7483 H   0  0  0  0  0  0  0  0  0  0  0  0
  152.2575  139.6919  157.2053 H   0  0  0  0  0  0  0  0  0  0  0  0
  151.0110  140.7282  159.7841 H   0  0  0  0  0  0  0  0  0  0  0  0
  151.5114  142.0957  157.1021 H   0  0  0  0  0  0  0  0  0  0  0  0
  149.9577  141.6377  157.7384 H   0  0  0  0  0  0  0  0  0  0  0  0
  150.3702  144.0473  158.1131 H   0  0  0  0  0  0  0  0  0  0  0  0
  150.1480  143.1806  159.6060 H   0  0  0  0  0  0  0  0  0  0  0  0
  154.0396  144.7016  158.4998 H   0  0  0  0  0  0  0  0  0  0  0  0
  152.6149  145.0917  157.5479 H   0  0  0  0  0  0  0  0  0  0  0  0
  153.3303  143.4939  157.4441 H   0  0  0  0  0  0  0  0  0  0  0  0
  152.8535  145.4742  160.6015 H   0  0  0  0  0  0  0  0  0  0  0  0
  151.2869  144.8117  161.0453 H   0  0  0  0  0  0  0  0  0  0  0  0
  151.4287  145.8693  159.6481 H   0  0  0  0  0  0  0  0  0  0  0  0
  153.8710  143.0803  160.4517 H   0  0  0  0  0  0  0  0  0  0  0  0
  152.3158  142.5803  161.0536 H   0  0  0  0  0  0  0  0  0  0  0  0
  153.4522  140.6657  160.0655 H   0  0  0  0  0  0  0  0  0  0  0  0
  153.6907  141.4977  158.5551 H   0  0  0  0  0  0  0  0  0  0  0  0
  1  2  1  0  0  0  0
  1 21  1  0  0  0  0
  1 22  1  0  0  0  0
  1 23  1  0  0  0  0
  2 19  1  0  0  0  0
  2  3  2  0  0  0  0
  3  4  1  0  0  0  0
  3 24  1  0  0  0  0
  4  5  1  0  0  0  0
  4 18  2  0  0  0  0
  5  6  1  0  0  0  0
  5 25  1  0  0  0  0
  5 26  1  0  0  0  0
  6  7  2  0  0  0  0
  6  8  1  0  0  0  0
  8  9  1  0  0  0  0
  8 27  1  0  0  0  0
  9 10  1  0  0  0  0
  9 28  1  0  0  0  0
  9 29  1  0  0  0  0
 10 17  1  0  0  0  0
 10 11  1  0  0  0  0
 10 30  1  0  0  0  0
 11 12  1  0  0  0  0
 11 31  1  0  0  0  0
 11 32  1  0  0  0  0
 12 13  1  0  0  0  0
 12 33  1  0  0  0  0
 12 34  1  0  0  0  0
 13 14  1  0  0  0  0
 13 15  1  0  0  0  0
 13 16  1  0  0  0  0
 14 35  1  0  0  0  0
 14 36  1  0  0  0  0
 14 37  1  0  0  0  0
 15 38  1  0  0  0  0
 15 39  1  0  0  0  0
 15 40  1  0  0  0  0
 16 17  1  0  0  0  0
 16 41  1  0  0  0  0
 16 42  1  0  0  0  0
 17 43  1  0  0  0  0
 17 44  1  0  0  0  0
 18 19  1  0  0  0  0
 19 20  1  0  0  0  0
M  END
> <s_m_source_file>
AV-unprocessed.smi

> <i_m_source_file_index>
2879

> <i_lp_mmshare_version>
43012

> <i_f3d_flags>
0

> <s_epik_input>
W0NIM11jMVtjSF1jKG5bbkhdMSlbQ0gyXUMoPU8pW05IXVtDSDJdW0NIXShbQ0gyXVtDSDJdMilbQ0gyXVtDSDJdQzIoW0NIM10pW0NIM10=

> <s_epik_cmdline>
J2VwaWtfcHl0aG9uJywgJy1waCcsICc3LjAnLCAnLXRuJywgJzgnLCAnLW1hJywgJzIwMCcsICctbWV0YWxfYmluZGluZycsICctaW1hZScsICc8aW5maWxlLm1hZT4nLCAnLW9tYWUnLCAnPG91dGZpbGUubWFlPic=

> <r_lp_tautomer_probability>
0.5

> <r_epik_Ionization_Penalty>
7.93509e-05

> <r_epik_Ionization_Penalty_Charging>
0

> <r_epik_Ionization_Penalty_Neutral>
7.93509e-05

> <r_epik_State_Penalty>
0.41068

> <r_epik_Charging_Adjusted_Penalty>
0.41068

> <i_epik_Tot_Q>
0

> <i_epik_Tot_abs_Q>
0

> <r_epik_Metal_State_Penalty>
0.4107

> <b_epik_Metal_Only>
0

> <s_lp_Force_Field>
OPLS_2005

> <r_lp_Energy>
12.5825

> <b_lp_Chiralities_Consistent>
1

> <s_lp_Variant>
AV-unprocessed.smi:2879-1

> <Gold.Version>
5.8.1

> <Gold.Id.Protein>
6NUR|6NUR_protein|mol2

> <Gold.PLP.Fitness>
42.7492

> <Gold.PLP.PLP>
-37.8908

> <Gold.PLP.part.hbond>
-2.0000

> <Gold.PLP.part.metal>
0.0000

> <Gold.PLP.part.buried>
-5.7987

> <Gold.PLP.part.nonpolar>
-30.5943

> <Gold.PLP.part.repulsive>
0.1105

> <Gold.PLP.ligand.clash>
0.0000

> <Gold.PLP.ligand.torsion>
0.5678

> <Gold.PLP.Chemscore.Hbond>
1.9913

> <Gold.PLP.Chemscore.CHOScore>
0.0000

> <Gold.PLP.Chemscore.Metal>
0.0000

> <Gold.Chemscore.Hbonds>
donor molecule, donor type, donor heavy atom, donor atom, acceptor molecule, acceptor atom, score
      L1  H    19    20       P1  7948  0.68
      P1  H  6896  6907       L1     7  0.59

> <Gold.PLP.Chemscore.Internal.Correction>
0.0202

> <Gold.Rescore>
     Score         DG    S(hbond)    S(metal)    S(lipo)     H(rot)  DE(clash)    DE(int)     intcor
     19.32     -19.88       1.92        0.00     102.03       1.55       0.01       0.55       ----

> <Gold.Chemscore.Fitness>
19.3207

> <Gold.Chemscore.DG>
-19.8767

> <Gold.Chemscore.ZeroCoef>
-5.4800

> <Gold.Chemscore.Hbond>
1.9234

> <Gold.Chemscore.Metal>
0.0000

> <Gold.Chemscore.Lipo>
102.0327

> <Gold.Chemscore.Internal_Hbond>
0.0000

> <Gold.Chemscore.DEClash>
0.0060

> <Gold.Chemscore.DEInternal>
0.5500

> <Gold.Chemscore.Rot>
1.5489

> <Gold.Chemscore.Internal.Correction>
   9.000000E+99

> <Gold.Chemscore.Hbonds>
donor molecule, donor type, donor heavy atom, donor atom, acceptor molecule, acceptor atom, score
      L1  H    19    20       P1  7948  0.67
      P1  H  6896  6907       L1     7  0.58

> <Gold.Chemscore.Hbond.Weighted>
-6.4241

> <Gold.Chemscore.Metal.Weighted>
-0.0000

> <Gold.Chemscore.Lipo.Weighted>
-11.9378

> <Gold.Chemscore.Internal_Hbond.Weighted>
0.0000

> <Gold.Chemscore.DEClash.Weighted>
0.0060

> <Gold.Chemscore.DEInternal.Weighted>
0.5500

> <Gold.Chemscore.Rot.Weighted>
3.9652

> <Gold.Chemscore.Internal.Correction.Weighted>
   9.000000E+99

> <Gold.Protein.RotatedTorsions>
[ 6907 6896 6895 6894 ] final   -6.01 input  -60.11 | X-H torsion
[ 7974 7965 7964 7962 ] final   77.45 input  175.53 | X-H torsion
[ 8008 7997 7996 7995 ] final  -44.07 input   59.86 | X-H torsion
[ 10167 10162 10161 10158 ] final  -72.01 input  -65.29 | X-H torsion
[ 10718 10713 10712 10709 ] final -169.20 input   66.30 | X-H torsion
[ 10763 10752 10751 10750 ] final  125.82 input  -60.55 | X-H torsion
[ 11005 11000 10999 10996 ] final   68.96 input  -57.11 | X-H torsion

> <Gold.Protein.ActiveResidues>
 VAL166  LYS551  ARG553  GLY616  TRP617  ASP618  TYR619  PRO620  LYS621  CYS622 
 ASP623  PHE694  ASN695  SER759  ASP760  ASP761  ALA762  ILE779  LEU786  VAL792 
 PHE793  MET794  SER795  GLU796  ALA797  LYS798  CYS799  TRP800  GLU811  SER814 

> <Gold.Protein.RotatedAtoms>
  151.4724  135.1046  159.9754 H   0  0  0  0  0  0  0  0  0  0  0  0  # atno 6907 bound_to 6896
  152.4811  133.8253  159.7085 H   0  0  0  0  0  0  0  0  0  0  0  0  # atno 6908 bound_to 6896
  150.8884  133.7215  159.2938 H   0  0  0  0  0  0  0  0  0  0  0  0  # atno 6909 bound_to 6896
  145.6899  139.2549  143.1766 H   0  0  0  0  0  0  0  0  0  0  0  0  # atno 7974 bound_to 7965
  154.3997  140.1431  156.3623 H   0  0  0  0  0  0  0  0  0  0  0  0  # atno 8008 bound_to 7997
  155.8169  140.3471  155.5470 H   0  0  0  0  0  0  0  0  0  0  0  0  # atno 8009 bound_to 7997
  155.8328  140.0915  157.1772 H   0  0  0  0  0  0  0  0  0  0  0  0  # atno 8010 bound_to 7997
  140.5227  143.2330  151.7402 H   0  0  0  0  0  0  0  0  0  0  0  0  # atno 10167 bound_to 10162
  156.7080  130.9222  151.3086 H   0  0  0  0  0  0  0  0  0  0  0  0  # atno 10718 bound_to 10713
  153.6834  135.3310  155.3184 H   0  0  0  0  0  0  0  0  0  0  0  0  # atno 10763 bound_to 10752
  154.8459  135.4414  154.1582 H   0  0  0  0  0  0  0  0  0  0  0  0  # atno 10764 bound_to 10752
  153.2605  135.6990  153.7661 H   0  0  0  0  0  0  0  0  0  0  0  0  # atno 10765 bound_to 10752
  139.9681  134.6947  156.0504 H   0  0  0  0  0  0  0  0  0  0  0  0  # atno 11005 bound_to 11000
  146.0891  140.7677  142.9604 LP  0  0  0  0  0  0  0  0  0  0  0  0  # atno 17320 bound_to 7965
  144.7000  140.3608  143.7164 LP  0  0  0  0  0  0  0  0  0  0  0  0  # atno 17321 bound_to 7965
  139.4928  144.4231  151.9955 LP  0  0  0  0  0  0  0  0  0  0  0  0  # atno 17342 bound_to 10162
  140.3329  144.3295  150.5983 LP  0  0  0  0  0  0  0  0  0  0  0  0  # atno 17343 bound_to 10162
  157.6947  130.9270  150.0611 LP  0  0  0  0  0  0  0  0  0  0  0  0  # atno 17370 bound_to 10713
  156.1681  130.3645  149.9203 LP  0  0  0  0  0  0  0  0  0  0  0  0  # atno 17371 bound_to 10713
  141.1361  133.6575  156.3597 LP  0  0  0  0  0  0  0  0  0  0  0  0  # atno 17394 bound_to 11000
  140.5353  134.6173  157.5363 LP  0  0  0  0  0  0  0  0  0  0  0  0  # atno 17395 bound_to 11000

$$$$
