AV-unprocessed.smi:1822|AV-procd|sdf|7390|dock4
  -GOLD-   22720 9 63D 1   1.00000     0.00000
 Structure written by MMmdl.
 46 47  0  0  0  0  0  0  0  0  1 V2000
  146.3745  139.0687  152.0758 C   0  0  0  0  0  0  0  0  0  0  0  0
  147.5425  139.1298  152.9414 N   0  0  0  0  0  0  0  0  0  0  0  0
  147.6697  139.9579  153.9914 C   0  0  0  0  0  0  0  0  0  0  0  0
  146.7748  140.7436  154.3084 O   0  0  0  0  0  0  0  0  0  0  0  0
  148.9487  139.8309  154.6944 C   0  0  0  0  0  0  0  0  0  0  0  0
  149.5423  140.9105  155.4689 C   0  0  0  0  0  0  0  0  0  0  0  0
  150.7215  140.7352  156.0971 C   0  0  0  0  0  0  0  0  0  0  0  0
  151.4514  139.4662  156.0296 C   0  0  0  0  0  0  0  0  0  0  0  0
  152.5288  139.3015  156.6019 O   0  0  0  0  0  0  0  0  0  0  0  0
  150.8608  138.4792  155.2902 N   0  0  0  0  0  0  0  0  0  0  0  0
  151.4986  137.1591  155.1496 C   0  0  0  0  0  0  0  0  0  0  0  0
  150.5551  136.0117  155.5327 C   0  0  0  0  0  0  0  0  0  0  0  0
  150.6691  135.4863  156.6415 O   0  0  0  0  0  0  0  0  0  0  0  0
  149.6425  135.6671  154.6004 N   0  0  0  0  0  0  0  0  0  0  0  0
  148.7035  134.7058  154.6841 C   0  0  0  0  0  0  0  0  0  0  0  0
  148.4347  134.0481  155.6918 O   0  0  0  0  0  0  0  0  0  0  0  0
  148.0747  134.5475  153.5100 N   0  0  0  0  0  0  0  0  0  0  0  0
  146.8842  133.7312  153.2915 C   0  0  0  0  0  0  0  0  0  0  0  0
  147.2438  132.5250  152.4033 C   0  0  0  0  0  0  0  0  0  0  0  0
  146.0066  131.6695  152.0857 C   0  0  0  0  0  0  0  0  0  0  0  0
  144.8963  132.5129  151.4399 C   0  0  0  0  0  0  0  0  0  0  0  0
  144.5276  133.7138  152.3250 C   0  0  0  0  0  0  0  0  0  0  0  0
  145.7620  134.5717  152.6470 C   0  0  0  0  0  0  0  0  0  0  0  0
  149.6267  138.6679  154.6366 C   0  0  0  0  0  0  0  0  0  0  0  0
  146.5389  138.3402  151.2818 H   0  0  0  0  0  0  0  0  0  0  0  0
  146.1808  140.0376  151.6141 H   0  0  0  0  0  0  0  0  0  0  0  0
  145.4901  138.7666  152.6378 H   0  0  0  0  0  0  0  0  0  0  0  0
  148.3072  138.5058  152.7282 H   0  0  0  0  0  0  0  0  0  0  0  0
  149.0577  141.8716  155.5581 H   0  0  0  0  0  0  0  0  0  0  0  0
  151.1426  141.5513  156.6659 H   0  0  0  0  0  0  0  0  0  0  0  0
  151.8522  137.0148  154.1268 H   0  0  0  0  0  0  0  0  0  0  0  0
  152.3939  137.0910  155.7694 H   0  0  0  0  0  0  0  0  0  0  0  0
  149.6706  136.1904  153.7378 H   0  0  0  0  0  0  0  0  0  0  0  0
  148.4436  135.0318  152.7050 H   0  0  0  0  0  0  0  0  0  0  0  0
  146.5320  133.3496  154.2520 H   0  0  0  0  0  0  0  0  0  0  0  0
  147.6902  132.8723  151.4703 H   0  0  0  0  0  0  0  0  0  0  0  0
  147.9973  131.9095  152.8958 H   0  0  0  0  0  0  0  0  0  0  0  0
  146.2824  130.8489  151.4230 H   0  0  0  0  0  0  0  0  0  0  0  0
  145.6326  131.2138  153.0033 H   0  0  0  0  0  0  0  0  0  0  0  0
  145.2270  132.8668  150.4626 H   0  0  0  0  0  0  0  0  0  0  0  0
  144.0148  131.8960  151.2637 H   0  0  0  0  0  0  0  0  0  0  0  0
  143.7711  134.3226  151.8292 H   0  0  0  0  0  0  0  0  0  0  0  0
  144.0787  133.3586  153.2533 H   0  0  0  0  0  0  0  0  0  0  0  0
  145.4739  135.3879  153.3106 H   0  0  0  0  0  0  0  0  0  0  0  0
  146.1282  135.0353  151.7299 H   0  0  0  0  0  0  0  0  0  0  0  0
  149.2772  137.8046  154.0872 H   0  0  0  0  0  0  0  0  0  0  0  0
  1  2  1  0  0  0  0
  1 25  1  0  0  0  0
  1 26  1  0  0  0  0
  1 27  1  0  0  0  0
  2  3  1  0  0  0  0
  2 28  1  0  0  0  0
  3  4  2  0  0  0  0
  3  5  1  0  0  0  0
  5 24  2  0  0  0  0
  5  6  1  0  0  0  0
  6  7  2  0  0  0  0
  6 29  1  0  0  0  0
  7  8  1  0  0  0  0
  7 30  1  0  0  0  0
  8  9  2  0  0  0  0
  8 10  1  0  0  0  0
 10 11  1  0  0  0  0
 10 24  1  0  0  0  0
 11 12  1  0  0  0  0
 11 31  1  0  0  0  0
 11 32  1  0  0  0  0
 12 13  2  0  0  0  0
 12 14  1  0  0  0  0
 14 15  1  0  0  0  0
 14 33  1  0  0  0  0
 15 16  2  0  0  0  0
 15 17  1  0  0  0  0
 17 18  1  0  0  0  0
 17 34  1  0  0  0  0
 18 23  1  0  0  0  0
 18 19  1  0  0  0  0
 18 35  1  0  0  0  0
 19 20  1  0  0  0  0
 19 36  1  0  0  0  0
 19 37  1  0  0  0  0
 20 21  1  0  0  0  0
 20 38  1  0  0  0  0
 20 39  1  0  0  0  0
 21 22  1  0  0  0  0
 21 40  1  0  0  0  0
 21 41  1  0  0  0  0
 22 23  1  0  0  0  0
 22 42  1  0  0  0  0
 22 43  1  0  0  0  0
 23 44  1  0  0  0  0
 23 45  1  0  0  0  0
 24 46  1  0  0  0  0
M  END
> <s_m_source_file>
AV-unprocessed.smi

> <i_m_source_file_index>
1822

> <i_lp_mmshare_version>
43012

> <i_f3d_flags>
0

> <s_epik_input>
W0NIM11bTkhdQyg9TyljMVtjSF1bY0hdYyg9TyluKFtjSF0xKVtDSDJdQyg9TylbTkhdQyg9TylbTkhdW0NIXTJbQ0gyXVtDSDJdW0NIMl1bQ0gyXVtDSDJdMg==

> <s_epik_cmdline>
J2VwaWtfcHl0aG9uJywgJy1waCcsICc3LjAnLCAnLXRuJywgJzgnLCAnLW1hJywgJzIwMCcsICctbWV0YWxfYmluZGluZycsICctaW1hZScsICc8aW5maWxlLm1hZT4nLCAnLW9tYWUnLCAnPG91dGZpbGUubWFlPic=

> <r_lp_tautomer_probability>
1

> <r_epik_Ionization_Penalty>
3.30797e-05

> <r_epik_Ionization_Penalty_Charging>
3.7169e-08

> <r_epik_Ionization_Penalty_Neutral>
3.30425e-05

> <r_epik_State_Penalty>
-0

> <r_epik_Charging_Adjusted_Penalty>
3.7169e-08

> <i_epik_Tot_Q>
0

> <i_epik_Tot_abs_Q>
0

> <r_epik_Metal_State_Penalty>
-0

> <b_epik_Metal_Only>
0

> <s_lp_Force_Field>
OPLS_2005

> <r_lp_Energy>
24.3679

> <b_lp_Chiralities_Consistent>
1

> <s_lp_Variant>
AV-unprocessed.smi:1822-1

> <Gold.Version>
5.8.1

> <Gold.Id.Protein>
6NUR|6NUR_protein|mol2

> <Gold.PLP.Fitness>
50.8349

> <Gold.PLP.PLP>
-39.3680

> <Gold.PLP.part.hbond>
-4.7088

> <Gold.PLP.part.metal>
0.0000

> <Gold.PLP.part.buried>
2.4764

> <Gold.PLP.part.nonpolar>
-36.5126

> <Gold.PLP.part.repulsive>
0.3107

> <Gold.PLP.ligand.clash>
0.8695

> <Gold.PLP.ligand.torsion>
0.6566

> <Gold.PLP.Chemscore.Hbond>
3.5465

> <Gold.PLP.Chemscore.CHOScore>
1.0000

> <Gold.PLP.Chemscore.Metal>
0.0000

> <Gold.Chemscore.Hbonds>
donor molecule, donor type, donor heavy atom, donor atom, acceptor molecule, acceptor atom, score
      L1  H    14    33       P1  7948  0.86
      L1  H    17    34       P1  7948  0.96
      P1  H  7997  8009       L1     9  1.00
      L1  C    24    46       P1  7948  0.52

> <Gold.PLP.Chemscore.Internal.Correction>
0.0103

> <Gold.Rescore>
     Score         DG    S(hbond)    S(metal)    S(lipo)     H(rot)  DE(clash)    DE(int)     intcor
     15.51     -18.09       2.55        0.00      70.18       1.62       0.74       1.83       ----

> <Gold.Chemscore.Fitness>
15.5128

> <Gold.Chemscore.DG>
-18.0858

> <Gold.Chemscore.ZeroCoef>
-5.4800

> <Gold.Chemscore.Hbond>
2.5536

> <Gold.Chemscore.Metal>
0.0000

> <Gold.Chemscore.Lipo>
70.1825

> <Gold.Chemscore.Internal_Hbond>
0.0000

> <Gold.Chemscore.DEClash>
0.7420

> <Gold.Chemscore.DEInternal>
1.8311

> <Gold.Chemscore.Rot>
1.6151

> <Gold.Chemscore.Internal.Correction>
   9.000000E+99

> <Gold.Chemscore.Hbonds>
donor molecule, donor type, donor heavy atom, donor atom, acceptor molecule, acceptor atom, score
      L1  H     2    28       P1  7948  0.02
      L1  H    14    33       P1  7948  0.34
      L1  H    17    34       P1  7948  0.55
      P1  H  7997  8009       L1     9  0.97

> <Gold.Chemscore.Hbond.Weighted>
-8.5290

> <Gold.Chemscore.Metal.Weighted>
-0.0000

> <Gold.Chemscore.Lipo.Weighted>
-8.2113

> <Gold.Chemscore.Internal_Hbond.Weighted>
0.0000

> <Gold.Chemscore.DEClash.Weighted>
0.7420

> <Gold.Chemscore.DEInternal.Weighted>
1.8311

> <Gold.Chemscore.Rot.Weighted>
4.1346

> <Gold.Chemscore.Internal.Correction.Weighted>
   9.000000E+99

> <Gold.Protein.RotatedTorsions>
[ 6907 6896 6895 6894 ] final    1.05 input  -60.11 | X-H torsion
[ 7974 7965 7964 7962 ] final -102.92 input  175.53 | X-H torsion
[ 8008 7997 7996 7995 ] final -166.39 input   59.86 | X-H torsion
[ 10167 10162 10161 10158 ] final  159.59 input  -65.29 | X-H torsion
[ 10718 10713 10712 10709 ] final  158.89 input   66.30 | X-H torsion
[ 10763 10752 10751 10750 ] final -169.67 input  -60.55 | X-H torsion
[ 11005 11000 10999 10996 ] final  -38.10 input  -57.11 | X-H torsion

> <Gold.Protein.ActiveResidues>
 VAL166  LYS551  ARG553  GLY616  TRP617  ASP618  TYR619  PRO620  LYS621  CYS622 
 ASP623  PHE694  ASN695  SER759  ASP760  ASP761  ALA762  ILE779  LEU786  VAL792 
 PHE793  MET794  SER795  GLU796  ALA797  LYS798  CYS799  TRP800  GLU811  SER814 

> <Gold.Protein.RotatedAtoms>
  151.5863  135.1056  160.0028 H   0  0  0  0  0  0  0  0  0  0  0  0  # atno 6907 bound_to 6896
  152.4329  133.7304  159.6595 H   0  0  0  0  0  0  0  0  0  0  0  0  # atno 6908 bound_to 6896
  150.8223  133.8161  159.3156 H   0  0  0  0  0  0  0  0  0  0  0  0  # atno 6909 bound_to 6896
  145.2625  140.9273  143.3032 H   0  0  0  0  0  0  0  0  0  0  0  0  # atno 7974 bound_to 7965
  155.8632  140.0981  157.1600 H   0  0  0  0  0  0  0  0  0  0  0  0  # atno 8008 bound_to 7997
  154.3992  140.1361  156.4049 H   0  0  0  0  0  0  0  0  0  0  0  0  # atno 8009 bound_to 7997
  155.7834  140.3458  155.5312 H   0  0  0  0  0  0  0  0  0  0  0  0  # atno 8010 bound_to 7997
  139.4833  144.4715  151.8569 H   0  0  0  0  0  0  0  0  0  0  0  0  # atno 10167 bound_to 10162
  157.1716  131.0611  151.2179 H   0  0  0  0  0  0  0  0  0  0  0  0  # atno 10718 bound_to 10713
  154.6498  135.2910  155.0001 H   0  0  0  0  0  0  0  0  0  0  0  0  # atno 10763 bound_to 10752
  154.1098  135.6564  153.4887 H   0  0  0  0  0  0  0  0  0  0  0  0  # atno 10764 bound_to 10752
  153.0370  135.5262  154.7400 H   0  0  0  0  0  0  0  0  0  0  0  0  # atno 10765 bound_to 10752
  141.0002  133.6959  156.2009 H   0  0  0  0  0  0  0  0  0  0  0  0  # atno 11005 bound_to 11000
  144.9406  139.4194  143.6451 LP  0  0  0  0  0  0  0  0  0  0  0  0  # atno 17320 bound_to 7965
  146.3271  139.8363  142.8899 LP  0  0  0  0  0  0  0  0  0  0  0  0  # atno 17321 bound_to 7965
  140.4184  144.2276  150.5887 LP  0  0  0  0  0  0  0  0  0  0  0  0  # atno 17342 bound_to 10162
  140.4898  143.2351  151.8836 LP  0  0  0  0  0  0  0  0  0  0  0  0  # atno 17343 bound_to 10162
  157.4037  130.7347  149.6786 LP  0  0  0  0  0  0  0  0  0  0  0  0  # atno 17370 bound_to 10713
  155.9737  130.4114  150.3978 LP  0  0  0  0  0  0  0  0  0  0  0  0  # atno 17371 bound_to 10713
  140.6901  134.4675  157.5588 LP  0  0  0  0  0  0  0  0  0  0  0  0  # atno 17394 bound_to 11000
  139.9035  134.8502  156.1799 LP  0  0  0  0  0  0  0  0  0  0  0  0  # atno 17395 bound_to 11000

$$$$
