#       Name:                AV-unprocessed.smi:104
#       Creating user name   scv26
#       Creation time:       Thu Mar 26 17:58:56 2020


#       File generated by GOLD software.
#

@<TRIPOS>MOLECULE
AV-unprocessed.smi:104
    58    60     1
SMALL
NO_CHARGES


@<TRIPOS>ATOM
      1 ****        -4.2677   3.2923  -0.4976 C.3            1 S1                 0.0000
      2 ****        -3.7367   2.2505   0.4779 C.2            1 S1                 0.0000
      3 ****        -3.4617   2.5419   1.6418 O.2            1 S1                 0.0000
      4 ****        -3.6133   1.0368  -0.0875 O.3            1 S1                 0.0000
      5 ****        -3.1101  -0.0677   0.6566 C.3            1 S1                 0.0000
      6 ****        -1.5730  -0.1964   0.5874 C.3            1 S1                 0.0000
      7 ****        -0.9328   0.9282   1.1727 O.3            1 S1                 0.0000
      8 ****         0.3356   1.0879   0.6269 C.3            1 S1                 0.0000
      9 ****         1.3438   0.4326   1.5455 N.pl3          1 S1                 0.0000
     10 ****         2.1675   1.0606   2.4566 C.2            1 S1                 0.0000
     11 ****         2.1876   2.9509   2.6954 Br             1 S1                 0.0000
     12 ****         2.9565   0.3134   3.1739 N.2            1 S1                 0.0000
     13 ****         2.6427  -0.9650   2.7400 C.ar           1 S1                 0.0000
     14 ****         3.1098  -2.2571   3.0899 C.ar           1 S1                 0.0000
     15 ****         4.0551  -2.4667   4.0168 N.pl3          1 S1                 0.0000
     16 ****         2.5784  -3.3305   2.4619 N.ar           1 S1                 0.0000
     17 ****         1.6331  -3.1476   1.5365 C.ar           1 S1                 0.0000
     18 ****         1.0979  -2.0028   1.1065 N.ar           1 S1                 0.0000
     19 ****         1.6316  -0.9129   1.7340 C.ar           1 S1                 0.0000
     20 ****         0.2834   0.5301  -0.8093 C.3            1 S1                 0.0000
     21 ****         1.4704  -0.1495  -1.2022 O.3            1 S1                 0.0000
     22 ****         2.5315   0.5424  -1.6481 C.2            1 S1                 0.0000
     23 ****         3.7000  -0.3628  -2.0122 C.3            1 S1                 0.0000
     24 ****         2.6059   1.7666  -1.7536 O.2            1 S1                 0.0000
     25 ****        -0.9247  -0.4089  -0.7988 C.3            1 S1                 0.0000
     26 ****        -1.7935  -0.0862  -1.8793 O.3            1 S1                 0.0000
     27 ****        -1.5809  -0.5977  -3.1043 C.2            1 S1                 0.0000
     28 ****        -2.6267  -0.1397  -4.1121 C.3            1 S1                 0.0000
     29 ****        -0.6603  -1.3480  -3.4281 O.2            1 S1                 0.0000
     30 ****        -5.0263   2.8572  -1.1488 H              1 S1                 0.0000
     31 ****        -3.4561   3.6738  -1.1173 H              1 S1                 0.0000
     32 ****        -4.7142   4.1281   0.0415 H              1 S1                 0.0000
     33 ****        -3.4377  -0.0093   1.6956 H              1 S1                 0.0000
     34 ****        -3.5604  -0.9730   0.2492 H              1 S1                 0.0000
     35 ****        -1.3114  -1.0502   1.2102 H              1 S1                 0.0000
     36 ****         0.6114   2.1406   0.6303 H              1 S1                 0.0000
     37 ****         4.4679  -1.6824   4.5012 H              1 S1                 0.0000
     38 ****         4.3540  -3.4076   4.2285 H              1 S1                 0.0000
     39 ****         1.2508  -4.0457   1.0741 H              1 S1                 0.0000
     40 ****         0.0759   1.3673  -1.4781 H              1 S1                 0.0000
     41 ****         3.3813  -1.1278  -2.7209 H              1 S1                 0.0000
     42 ****         4.0858  -0.8561  -1.1197 H              1 S1                 0.0000
     43 ****         4.5064   0.2146  -2.4649 H              1 S1                 0.0000
     44 ****        -0.6142  -1.4520  -0.8778 H              1 S1                 0.0000
     45 ****        -3.6266  -0.2130  -3.6841 H              1 S1                 0.0000
     46 ****        -2.5896  -0.7580  -5.0095 H              1 S1                 0.0000
     47 ****        -2.4467   0.8967  -4.3978 H              1 S1                 0.0000
     48 ****        -3.5857   3.4801   1.9650 LP             1 S1                 0.0000
     49 ****        -3.1143   1.8405   2.2642 LP             1 S1                 0.0000
     50 ****        -0.8538   0.7883   2.1597 LP             1 S1                 0.0000
     51 ****        -1.4760   1.7488   0.9948 LP             1 S1                 0.0000
     52 ****         3.6228   0.5924   3.8655 LP             1 S1                 0.0000
     53 ****         2.8906  -4.2531   2.6885 LP             1 S1                 0.0000
     54 ****         0.3873  -1.9490   0.4050 LP             1 S1                 0.0000
     55 ****         1.8278   2.3390  -1.4948 LP             1 S1                 0.0000
     56 ****         3.4444   2.1888  -2.0981 LP             1 S1                 0.0000
     57 ****         0.0171  -1.6302  -2.7488 LP             1 S1                 0.0000
     58 ****        -0.5898  -1.6752  -4.3704 LP             1 S1                 0.0000
@<TRIPOS>BOND
    1    1    2 1     
    2    1   30 1     
    3    1   31 1     
    4    1   32 1     
    5    2    3 2     
    6    2    4 1     
    7    4    5 1     
    8    5    6 1     
    9    5   33 1     
   10    5   34 1     
   11    6   25 1     
   12    6    7 1     
   13    6   35 1     
   14    7    8 1     
   15    8    9 1     
   16    8   20 1     
   17    8   36 1     
   18    9   19 1     
   19    9   10 1     
   20   10   11 1     
   21   10   12 2     
   22   12   13 1     
   23   13   19 ar    
   24   13   14 ar    
   25   14   15 1     
   26   14   16 ar    
   27   15   37 1     
   28   15   38 1     
   29   16   17 ar    
   30   17   18 ar    
   31   17   39 1     
   32   18   19 ar    
   33   20   21 1     
   34   20   25 1     
   35   20   40 1     
   36   21   22 1     
   37   22   23 1     
   38   22   24 2     
   39   23   41 1     
   40   23   42 1     
   41   23   43 1     
   42   25   26 1     
   43   25   44 1     
   44   26   27 1     
   45   27   28 1     
   46   27   29 2     
   47   28   45 1     
   48   28   46 1     
   49   28   47 1     
   50    3   48 1     
   51    3   49 1     
   52    7   50 1     
   53    7   51 1     
   54   12   52 1     
   55   16   53 1     
   56   18   54 1     
   57   24   55 1     
   58   24   56 1     
   59   29   57 1     
   60   29   58 1     
@<TRIPOS>SUBSTRUCTURE
      1 S1             1
@<TRIPOS>SET
LONE_PAIRS      STATIC     ATOMS    <user>   **** ""
11 48 49 50 51 52 53 54 55 56 57 58
DONOR_HYDROGENS      STATIC     ATOMS    <user>   **** ""
2 37 38
ATOM$BLUE        STATIC     ATOMS    COLORGROUP SYSTEM
11 48 49 50 51 52 53 54 55 56 57 58
ATOM$RED        STATIC     ATOMS    COLORGROUP SYSTEM
2 37 38
