AV-unprocessed.smi:2106|AV-procd|sdf|8597|dock1
  -GOLD-   2272011333D 1   1.00000     0.00000
 Structure written by MMmdl.
 48 49  0  0  0  0  0  0  0  0  2 V2000
  155.0743  139.5413  160.6607 C   0  0  0  0  0  0  0  0  0  0  0  0
  154.2553  140.7909  160.7956 C   0  0  0  0  0  0  0  0  0  0  0  0
  154.0788  141.6087  161.9464 C   0  0  0  0  0  0  0  0  0  0  0  0
  153.2492  142.6098  161.5259 C   0  0  0  0  0  0  0  0  0  0  0  0
  152.6985  143.7798  162.2734 C   0  0  0  0  0  0  0  0  0  0  0  0
  152.9687  142.3646  160.1930 N   0  0  0  0  0  0  0  0  0  0  0  0
  152.1466  143.1314  159.2703 C   0  0  0  0  0  0  0  0  0  0  0  0
  151.1074  142.2391  158.5901 C   0  0  0  0  0  0  0  0  0  0  0  0
  149.9071  142.4748  158.7269 O   0  0  0  0  0  0  0  0  0  0  0  0
  151.5801  141.2200  157.8557 N   0  0  0  0  0  0  0  0  0  0  0  0
  150.7592  140.2841  157.0971 C   0  0  0  0  0  0  0  0  0  0  0  0
  150.3520  140.8601  155.7263 C   0  0  0  0  0  0  0  0  0  0  0  0
  148.8982  140.7254  155.4600 N   0  3  1  0  0  0  0  0  0  0  0  0
  148.4377  141.6402  154.3883 C   0  0  0  0  0  0  0  0  0  0  0  0
  146.9157  141.5288  154.1725 C   0  0  2  0  0  0  0  0  0  0  0  0
  146.0860  142.1870  155.2892 C   0  0  0  0  0  0  0  0  0  0  0  0
  146.5469  140.1669  153.9551 O   0  0  0  0  0  0  0  0  0  0  0  0
  146.9460  139.2671  154.9855 C   0  0  1  0  0  0  0  0  0  0  0  0
  146.4739  137.8619  154.5959 C   0  0  0  0  0  0  0  0  0  0  0  0
  148.4735  139.3357  155.1632 C   0  0  0  0  0  0  0  0  0  0  0  0
  153.5876  141.2483  159.7493 N   0  0  0  0  0  0  0  0  0  0  0  0
  155.5330  139.2664  161.6108 H   0  0  0  0  0  0  0  0  0  0  0  0
  155.8749  139.6735  159.9326 H   0  0  0  0  0  0  0  0  0  0  0  0
  154.4603  138.7014  160.3343 H   0  0  0  0  0  0  0  0  0  0  0  0
  154.4999  141.4802  162.9325 H   0  0  0  0  0  0  0  0  0  0  0  0
  153.0734  143.7991  163.2969 H   0  0  0  0  0  0  0  0  0  0  0  0
  151.6101  143.7362  162.3166 H   0  0  0  0  0  0  0  0  0  0  0  0
  152.9834  144.7174  161.7965 H   0  0  0  0  0  0  0  0  0  0  0  0
  151.6541  143.9416  159.8109 H   0  0  0  0  0  0  0  0  0  0  0  0
  152.7865  143.5970  158.5202 H   0  0  0  0  0  0  0  0  0  0  0  0
  152.5821  141.1076  157.7938 H   0  0  0  0  0  0  0  0  0  0  0  0
  151.3048  139.3460  156.9938 H   0  0  0  0  0  0  0  0  0  0  0  0
  149.8686  140.0623  157.6855 H   0  0  0  0  0  0  0  0  0  0  0  0
  150.6190  141.9180  155.7126 H   0  0  0  0  0  0  0  0  0  0  0  0
  150.9131  140.3910  154.9167 H   0  0  0  0  0  0  0  0  0  0  0  0
  148.7036  142.6702  154.6299 H   0  0  0  0  0  0  0  0  0  0  0  0
  148.9579  141.3897  153.4622 H   0  0  0  0  0  0  0  0  0  0  0  0
  146.6734  142.0567  153.2496 H   0  0  0  0  0  0  0  0  0  0  0  0
  146.2910  143.2564  155.3435 H   0  0  0  0  0  0  0  0  0  0  0  0
  146.3031  141.7666  156.2707 H   0  0  0  0  0  0  0  0  0  0  0  0
  145.0186  142.0671  155.1015 H   0  0  0  0  0  0  0  0  0  0  0  0
  146.4562  139.5378  155.9211 H   0  0  0  0  0  0  0  0  0  0  0  0
  146.7461  137.1300  155.3572 H   0  0  0  0  0  0  0  0  0  0  0  0
  146.9162  137.5431  153.6518 H   0  0  0  0  0  0  0  0  0  0  0  0
  145.3900  137.8330  154.4821 H   0  0  0  0  0  0  0  0  0  0  0  0
  148.9766  138.9852  154.2603 H   0  0  0  0  0  0  0  0  0  0  0  0
  148.7672  138.6657  155.9702 H   0  0  0  0  0  0  0  0  0  0  0  0
  148.4211  141.0101  156.3035 H   0  0  0  0  0  0  0  0  0  0  0  0
  1  2  1  0  0  0  0
  1 22  1  0  0  0  0
  1 23  1  0  0  0  0
  1 24  1  0  0  0  0
  2 21  2  0  0  0  0
  2  3  1  0  0  0  0
  3  4  2  0  0  0  0
  3 25  1  0  0  0  0
  4  5  1  0  0  0  0
  4  6  1  0  0  0  0
  5 26  1  0  0  0  0
  5 27  1  0  0  0  0
  5 28  1  0  0  0  0
  6  7  1  0  0  0  0
  6 21  1  0  0  0  0
  7  8  1  0  0  0  0
  7 29  1  0  0  0  0
  7 30  1  0  0  0  0
  8  9  2  0  0  0  0
  8 10  1  0  0  0  0
 10 11  1  0  0  0  0
 10 31  1  0  0  0  0
 11 12  1  0  0  0  0
 11 32  1  0  0  0  0
 11 33  1  0  0  0  0
 12 13  1  0  0  0  0
 12 34  1  0  0  0  0
 12 35  1  0  0  0  0
 13 20  1  0  0  0  0
 13 14  1  0  0  0  0
 13 48  1  0  0  0  0
 14 15  1  0  0  0  0
 14 36  1  0  0  0  0
 14 37  1  0  0  0  0
 15 16  1  0  0  0  0
 15 17  1  0  0  0  0
 15 38  1  0  0  0  0
 16 39  1  0  0  0  0
 16 40  1  0  0  0  0
 16 41  1  0  0  0  0
 17 18  1  0  0  0  0
 18 19  1  0  0  0  0
 18 20  1  0  0  0  0
 18 42  1  0  0  0  0
 19 43  1  0  0  0  0
 19 44  1  0  0  0  0
 19 45  1  0  0  0  0
 20 46  1  0  0  0  0
 20 47  1  0  0  0  0
M  CHG  1  13   1
M  END
> <s_m_source_file>
AV-unprocessed.smi

> <i_m_source_file_index>
2106

> <i_lp_mmshare_version>
43012

> <i_f3d_flags>
0

> <s_epik_input>
W0NIM11jMVtjSF1jKFtDSDNdKW4objEpW0NIMl1DKD1PKVtOSF1bQ0gyXVtDSDJdTjJbQ0gyXVtDQEBIXShbQ0gzXSlPW0NAQEhdKFtDSDNdKVtDSDJdMg==

> <s_epik_cmdline>
J2VwaWtfcHl0aG9uJywgJy1waCcsICc3LjAnLCAnLXRuJywgJzgnLCAnLW1hJywgJzIwMCcsICctbWV0YWxfYmluZGluZycsICctaW1hZScsICc8aW5maWxlLm1hZT4nLCAnLW9tYWUnLCAnPG91dGZpbGUubWFlPic=

> <r_lp_tautomer_probability>
1

> <r_epik_Ionization_Penalty>
0.748586

> <r_epik_Ionization_Penalty_Charging>
0.748396

> <r_epik_Ionization_Penalty_Neutral>
0.000189656

> <r_epik_State_Penalty>
0.775162

> <r_epik_Charging_Adjusted_Penalty>
1.52356

> <i_epik_Tot_Q>
1

> <i_epik_Tot_abs_Q>
1

> <r_epik_Metal_State_Penalty>
0.775295

> <b_epik_Metal_Only>
0

> <s_lp_Force_Field>
OPLS_2005

> <r_lp_Energy>
15.7435

> <b_lp_Chiralities_Consistent>
1

> <s_lp_Variant>
AV-unprocessed.smi:2106-5

> <Gold.Version>
5.8.1

> <Gold.Id.Protein>
6NUR|6NUR_protein|mol2

> <Gold.PLP.Fitness>
39.3383

> <Gold.PLP.PLP>
-40.6382

> <Gold.PLP.part.hbond>
0.0000

> <Gold.PLP.part.metal>
0.0000

> <Gold.PLP.part.buried>
-2.9638

> <Gold.PLP.part.nonpolar>
-37.2591

> <Gold.PLP.part.repulsive>
0.4456

> <Gold.PLP.ligand.clash>
0.0000

> <Gold.PLP.ligand.torsion>
0.6804

> <Gold.PLP.Chemscore.Hbond>
0.0000

> <Gold.PLP.Chemscore.CHOScore>
0.0000

> <Gold.PLP.Chemscore.Metal>
0.0000

> <Gold.PLP.Chemscore.Internal.Correction>
0.0608

> <Gold.Rescore>
     Score         DG    S(hbond)    S(metal)    S(lipo)     H(rot)  DE(clash)    DE(int)     intcor
     11.05     -13.15       0.00        0.00     103.42       1.73       0.03       2.07       ----

> <Gold.Chemscore.Fitness>
11.0471

> <Gold.Chemscore.DG>
-13.1469

> <Gold.Chemscore.ZeroCoef>
-5.4800

> <Gold.Chemscore.Hbond>
0.0000

> <Gold.Chemscore.Metal>
0.0000

> <Gold.Chemscore.Lipo>
103.4178

> <Gold.Chemscore.Internal_Hbond>
0.0000

> <Gold.Chemscore.DEClash>
0.0274

> <Gold.Chemscore.DEInternal>
2.0725

> <Gold.Chemscore.Rot>
1.7316

> <Gold.Chemscore.Internal.Correction>
   9.000000E+99

> <Gold.Chemscore.Hbond.Weighted>
-0.0000

> <Gold.Chemscore.Metal.Weighted>
-0.0000

> <Gold.Chemscore.Lipo.Weighted>
-12.0999

> <Gold.Chemscore.Internal_Hbond.Weighted>
0.0000

> <Gold.Chemscore.DEClash.Weighted>
0.0274

> <Gold.Chemscore.DEInternal.Weighted>
2.0725

> <Gold.Chemscore.Rot.Weighted>
4.4330

> <Gold.Chemscore.Internal.Correction.Weighted>
   9.000000E+99

> <Gold.Protein.RotatedTorsions>
[ 6907 6896 6895 6894 ] final -100.10 input  -60.11 | X-H torsion
[ 7974 7965 7964 7962 ] final  174.14 input  175.53 | X-H torsion
[ 8008 7997 7996 7995 ] final    3.59 input   59.86 | X-H torsion
[ 10167 10162 10161 10158 ] final  -15.72 input  -65.29 | X-H torsion
[ 10718 10713 10712 10709 ] final  167.07 input   66.30 | X-H torsion
[ 10763 10752 10751 10750 ] final  103.96 input  -60.55 | X-H torsion
[ 11005 11000 10999 10996 ] final -129.62 input  -57.11 | X-H torsion

> <Gold.Protein.ActiveResidues>
 VAL166  LYS551  ARG553  GLY616  TRP617  ASP618  TYR619  PRO620  LYS621  CYS622 
 ASP623  PHE694  ASN695  SER759  ASP760  ASP761  ALA762  ILE779  LEU786  VAL792 
 PHE793  MET794  SER795  GLU796  ALA797  LYS798  CYS799  TRP800  GLU811  SER814 

> <Gold.Protein.RotatedAtoms>
  150.7104  134.0938  159.3941 H   0  0  0  0  0  0  0  0  0  0  0  0  # atno 6907 bound_to 6896
  151.8924  135.0409  160.0508 H   0  0  0  0  0  0  0  0  0  0  0  0  # atno 6908 bound_to 6896
  152.2481  133.5156  159.5345 H   0  0  0  0  0  0  0  0  0  0  0  0  # atno 6909 bound_to 6896
  144.7228  139.9752  143.6438 H   0  0  0  0  0  0  0  0  0  0  0  0  # atno 7974 bound_to 7965
  154.7055  140.2682  155.6678 H   0  0  0  0  0  0  0  0  0  0  0  0  # atno 8008 bound_to 7997
  156.2779  140.2763  156.1604 H   0  0  0  0  0  0  0  0  0  0  0  0  # atno 8009 bound_to 7997
  155.0705  140.0372  157.2597 H   0  0  0  0  0  0  0  0  0  0  0  0  # atno 8010 bound_to 7997
  140.7223  143.5190  150.9657 H   0  0  0  0  0  0  0  0  0  0  0  0  # atno 10167 bound_to 10162
  157.0568  131.0329  151.2661 H   0  0  0  0  0  0  0  0  0  0  0  0  # atno 10718 bound_to 10713
  153.3595  135.3959  155.1708 H   0  0  0  0  0  0  0  0  0  0  0  0  # atno 10763 bound_to 10752
  154.8677  135.3676  154.5117 H   0  0  0  0  0  0  0  0  0  0  0  0  # atno 10764 bound_to 10752
  153.5575  135.7081  153.5623 H   0  0  0  0  0  0  0  0  0  0  0  0  # atno 10765 bound_to 10752
  140.9416  134.1186  157.4146 H   0  0  0  0  0  0  0  0  0  0  0  0  # atno 11005 bound_to 11000
  146.0531  139.3530  143.0627 LP  0  0  0  0  0  0  0  0  0  0  0  0  # atno 17320 bound_to 7965
  145.8189  140.9689  143.0909 LP  0  0  0  0  0  0  0  0  0  0  0  0  # atno 17321 bound_to 7965
  139.8906  143.6958  152.3145 LP  0  0  0  0  0  0  0  0  0  0  0  0  # atno 17342 bound_to 10162
  139.7272  144.7590  151.0860 LP  0  0  0  0  0  0  0  0  0  0  0  0  # atno 17343 bound_to 10162
  157.4986  130.7866  149.7581 LP  0  0  0  0  0  0  0  0  0  0  0  0  # atno 17370 bound_to 10713
  155.9990  130.3891  150.2679 LP  0  0  0  0  0  0  0  0  0  0  0  0  # atno 17371 bound_to 10713
  139.8822  135.0038  156.6210 LP  0  0  0  0  0  0  0  0  0  0  0  0  # atno 17394 bound_to 11000
  140.7727  133.8725  155.8504 LP  0  0  0  0  0  0  0  0  0  0  0  0  # atno 17395 bound_to 11000

$$$$
