AV-unprocessed.smi:3343|AV-procd|sdf|12891|dock1
  -GOLD-   2272019293D 1   1.00000     0.00000
 Structure written by MMmdl.
 42 43  0  0  0  0  0  0  0  0  2 V2000
  153.3339  141.7331  160.2926 C   0  0  0  0  0  0  0  0  0  0  0  0
  152.0138  141.9325  159.5211 C   0  0  2  0  0  0  0  0  0  0  0  0
  152.0078  141.1913  158.1758 C   0  0  0  0  0  0  0  0  0  0  0  0
  152.8809  140.3640  157.9126 O   0  0  0  0  0  0  0  0  0  0  0  0
  151.0117  141.4986  157.3300 N   0  0  0  0  0  0  0  0  0  0  0  0
  150.8253  140.9302  155.9981 C   0  0  0  0  0  0  0  0  0  0  0  0
  149.7932  139.7826  155.9720 C   0  0  0  0  0  0  0  0  0  0  0  0
  149.5158  139.2947  154.6180 N   0  0  0  0  0  0  0  0  0  0  0  0
  150.6804  138.6354  154.0197 C   0  0  0  0  0  0  0  0  0  0  0  0
  150.9846  137.2745  154.6841 C   0  0  0  0  0  0  0  0  0  0  0  0
  149.8046  136.3823  154.6040 N   0  3  0  0  0  0  0  0  0  0  0  0
  150.0604  135.0436  155.1761 C   0  0  0  0  0  0  0  0  0  0  0  0
  148.6124  137.0378  155.1904 C   0  0  0  0  0  0  0  0  0  0  0  0
  148.3595  138.3984  154.5075 C   0  0  0  0  0  0  0  0  0  0  0  0
  151.6974  143.3412  159.3192 N   0  0  0  0  0  0  0  0  0  0  0  0
  152.3419  144.4328  159.7370 C   0  0  0  0  0  0  0  0  0  0  0  0
  151.7435  145.5702  159.4117 N   0  0  0  0  0  0  0  0  0  0  0  0
  150.6510  145.0740  158.7590 C   0  0  0  0  0  0  0  0  0  0  0  0
  150.5697  143.7459  158.6831 N   0  0  0  0  0  0  0  0  0  0  0  0
  153.5250  140.6751  160.4752 H   0  0  0  0  0  0  0  0  0  0  0  0
  153.2948  142.2297  161.2625 H   0  0  0  0  0  0  0  0  0  0  0  0
  154.1921  142.1346  159.7520 H   0  0  0  0  0  0  0  0  0  0  0  0
  151.2163  141.5117  160.1361 H   0  0  0  0  0  0  0  0  0  0  0  0
  150.3400  142.1928  157.6237 H   0  0  0  0  0  0  0  0  0  0  0  0
  150.5506  141.7212  155.2992 H   0  0  0  0  0  0  0  0  0  0  0  0
  151.7905  140.5525  155.6571 H   0  0  0  0  0  0  0  0  0  0  0  0
  150.2285  138.9496  156.5256 H   0  0  0  0  0  0  0  0  0  0  0  0
  148.8844  140.0498  156.5094 H   0  0  0  0  0  0  0  0  0  0  0  0
  150.4881  138.4869  152.9561 H   0  0  0  0  0  0  0  0  0  0  0  0
  151.5496  139.2912  154.0835 H   0  0  0  0  0  0  0  0  0  0  0  0
  151.8242  136.8040  154.1717 H   0  0  0  0  0  0  0  0  0  0  0  0
  151.2890  137.4021  155.7238 H   0  0  0  0  0  0  0  0  0  0  0  0
  150.2761  135.1078  156.2436 H   0  0  0  0  0  0  0  0  0  0  0  0
  150.9104  134.5710  154.6824 H   0  0  0  0  0  0  0  0  0  0  0  0
  149.1935  134.3960  155.0398 H   0  0  0  0  0  0  0  0  0  0  0  0
  147.7430  136.3957  155.0448 H   0  0  0  0  0  0  0  0  0  0  0  0
  148.7346  137.1536  156.2682 H   0  0  0  0  0  0  0  0  0  0  0  0
  147.4683  138.8723  154.9164 H   0  0  0  0  0  0  0  0  0  0  0  0
  148.1492  138.2377  153.4490 H   0  0  0  0  0  0  0  0  0  0  0  0
  153.2665  144.3954  160.2941 H   0  0  0  0  0  0  0  0  0  0  0  0
  149.8901  145.7104  158.3319 H   0  0  0  0  0  0  0  0  0  0  0  0
  149.6089  136.2490  153.6218 H   0  0  0  0  0  0  0  0  0  0  0  0
  1  2  1  0  0  0  0
  1 20  1  0  0  0  0
  1 21  1  0  0  0  0
  1 22  1  0  0  0  0
  2  3  1  0  0  0  0
  2 15  1  0  0  0  0
  2 23  1  0  0  0  0
  3  4  2  0  0  0  0
  3  5  1  0  0  0  0
  5  6  1  0  0  0  0
  5 24  1  0  0  0  0
  6  7  1  0  0  0  0
  6 25  1  0  0  0  0
  6 26  1  0  0  0  0
  7  8  1  0  0  0  0
  7 27  1  0  0  0  0
  7 28  1  0  0  0  0
  8 14  1  0  0  0  0
  8  9  1  0  0  0  0
  9 10  1  0  0  0  0
  9 29  1  0  0  0  0
  9 30  1  0  0  0  0
 10 11  1  0  0  0  0
 10 31  1  0  0  0  0
 10 32  1  0  0  0  0
 11 12  1  0  0  0  0
 11 13  1  0  0  0  0
 11 42  1  0  0  0  0
 12 33  1  0  0  0  0
 12 34  1  0  0  0  0
 12 35  1  0  0  0  0
 13 14  1  0  0  0  0
 13 36  1  0  0  0  0
 13 37  1  0  0  0  0
 14 38  1  0  0  0  0
 14 39  1  0  0  0  0
 15 19  1  0  0  0  0
 15 16  1  0  0  0  0
 16 17  2  0  0  0  0
 16 40  1  0  0  0  0
 17 18  1  0  0  0  0
 18 19  2  0  0  0  0
 18 41  1  0  0  0  0
M  CHG  1  11   1
M  END
> <s_m_source_file>
AV-unprocessed.smi

> <i_m_source_file_index>
3343

> <i_lp_mmshare_version>
43012

> <i_f3d_flags>
0

> <s_epik_input>
bjFbY0hdbltjSF1uMVtDQEhdKFtDSDNdKUMoPU8pW05IXVtDSDJdW0NIMl1OMltDSDJdW0NIMl1OKFtDSDNdKVtDSDJdW0NIMl0y

> <s_epik_cmdline>
J2VwaWtfcHl0aG9uJywgJy1waCcsICc3LjAnLCAnLXRuJywgJzgnLCAnLW1hJywgJzIwMCcsICctbWV0YWxfYmluZGluZycsICctaW1hZScsICc8aW5maWxlLm1hZT4nLCAnLW9tYWUnLCAnPG91dGZpbGUubWFlPic=

> <r_lp_tautomer_probability>
1

> <r_epik_Ionization_Penalty>
0.0359277

> <r_epik_Ionization_Penalty_Charging>
0.0358005

> <r_epik_Ionization_Penalty_Neutral>
0.000127293

> <r_epik_State_Penalty>
0.0476325

> <r_epik_Charging_Adjusted_Penalty>
0.0834329

> <i_epik_Tot_Q>
1

> <i_epik_Tot_abs_Q>
1

> <r_epik_Metal_State_Penalty>
0.0476323

> <b_epik_Metal_Only>
0

> <s_lp_Force_Field>
OPLS_2005

> <r_lp_Energy>
27.0486

> <b_lp_Chiralities_Consistent>
1

> <s_lp_Variant>
AV-unprocessed.smi:3343-1

> <Gold.Version>
5.8.1

> <Gold.Id.Protein>
6NUR|6NUR_protein|mol2

> <Gold.PLP.Fitness>
45.0809

> <Gold.PLP.PLP>
-34.2230

> <Gold.PLP.part.hbond>
-2.3707

> <Gold.PLP.part.metal>
0.0000

> <Gold.PLP.part.buried>
-6.3623

> <Gold.PLP.part.nonpolar>
-26.6297

> <Gold.PLP.part.repulsive>
0.4761

> <Gold.PLP.ligand.clash>
0.0000

> <Gold.PLP.ligand.torsion>
0.6265

> <Gold.PLP.Chemscore.Hbond>
2.9760

> <Gold.PLP.Chemscore.CHOScore>
1.0000

> <Gold.PLP.Chemscore.Metal>
0.0000

> <Gold.Chemscore.Hbonds>
donor molecule, donor type, donor heavy atom, donor atom, acceptor molecule, acceptor atom, score
      L1  H    11    42       P1  7948  2.00
      P1  H  7997  8008       L1     4  0.88
      L1  C    18    41       P1  8029  1.00

> <Gold.PLP.Chemscore.Internal.Correction>
0.1829

> <Gold.Rescore>
     Score         DG    S(hbond)    S(metal)    S(lipo)     H(rot)  DE(clash)    DE(int)     intcor
      9.60     -11.72       1.97        0.00      54.75       2.63       0.01       2.11       ----

> <Gold.Chemscore.Fitness>
9.6025

> <Gold.Chemscore.DG>
-11.7247

> <Gold.Chemscore.ZeroCoef>
-5.4800

> <Gold.Chemscore.Hbond>
1.9660

> <Gold.Chemscore.Metal>
0.0000

> <Gold.Chemscore.Lipo>
54.7464

> <Gold.Chemscore.Internal_Hbond>
0.0000

> <Gold.Chemscore.DEClash>
0.0084

> <Gold.Chemscore.DEInternal>
2.1138

> <Gold.Chemscore.Rot>
2.6278

> <Gold.Chemscore.Internal.Correction>
   9.000000E+99

> <Gold.Chemscore.Hbonds>
donor molecule, donor type, donor heavy atom, donor atom, acceptor molecule, acceptor atom, score
      L1  H    11    42       P1  7948  0.45
      P1  H  7997  8008       L1     4  0.86

> <Gold.Chemscore.Hbond.Weighted>
-6.5664

> <Gold.Chemscore.Metal.Weighted>
-0.0000

> <Gold.Chemscore.Lipo.Weighted>
-6.4053

> <Gold.Chemscore.Internal_Hbond.Weighted>
0.0000

> <Gold.Chemscore.DEClash.Weighted>
0.0084

> <Gold.Chemscore.DEInternal.Weighted>
2.1138

> <Gold.Chemscore.Rot.Weighted>
6.7271

> <Gold.Chemscore.Internal.Correction.Weighted>
   9.000000E+99

> <Gold.Protein.RotatedTorsions>
[ 6907 6896 6895 6894 ] final   13.50 input  -60.11 | X-H torsion
[ 7974 7965 7964 7962 ] final -110.39 input  175.53 | X-H torsion
[ 8008 7997 7996 7995 ] final  -79.97 input   59.86 | X-H torsion
[ 10167 10162 10161 10158 ] final   17.36 input  -65.29 | X-H torsion
[ 10718 10713 10712 10709 ] final   85.93 input   66.30 | X-H torsion
[ 10763 10752 10751 10750 ] final   65.02 input  -60.55 | X-H torsion
[ 11005 11000 10999 10996 ] final -160.86 input  -57.11 | X-H torsion

> <Gold.Protein.ActiveResidues>
 VAL166  LYS551  ARG553  GLY616  TRP617  ASP618  TYR619  PRO620  LYS621  CYS622 
 ASP623  PHE694  ASN695  SER759  ASP760  ASP761  ALA762  ILE779  LEU786  VAL792 
 PHE793  MET794  SER795  GLU796  ALA797  LYS798  CYS799  TRP800  GLU811  SER814 

> <Gold.Protein.RotatedAtoms>
  151.7873  135.0745  160.0382 H   0  0  0  0  0  0  0  0  0  0  0  0  # atno 6907 bound_to 6896
  152.3181  133.5819  159.5734 H   0  0  0  0  0  0  0  0  0  0  0  0  # atno 6908 bound_to 6896
  150.7355  133.9969  159.3667 H   0  0  0  0  0  0  0  0  0  0  0  0  # atno 6909 bound_to 6896
  145.1688  140.8915  143.3547 H   0  0  0  0  0  0  0  0  0  0  0  0  # atno 7974 bound_to 7965
  154.5837  140.0670  156.9140 H   0  0  0  0  0  0  0  0  0  0  0  0  # atno 8008 bound_to 7997
  155.2417  140.3345  155.4273 H   0  0  0  0  0  0  0  0  0  0  0  0  # atno 8009 bound_to 7997
  156.2207  140.1797  156.7467 H   0  0  0  0  0  0  0  0  0  0  0  0  # atno 8010 bound_to 7997
  140.5732  143.9123  150.6729 H   0  0  0  0  0  0  0  0  0  0  0  0  # atno 10167 bound_to 10162
  157.6922  131.0195  150.2896 H   0  0  0  0  0  0  0  0  0  0  0  0  # atno 10718 bound_to 10713
  153.0079  135.5372  154.6602 H   0  0  0  0  0  0  0  0  0  0  0  0  # atno 10763 bound_to 10752
  154.5813  135.2850  155.0732 H   0  0  0  0  0  0  0  0  0  0  0  0  # atno 10764 bound_to 10752
  154.1861  135.6508  153.5099 H   0  0  0  0  0  0  0  0  0  0  0  0  # atno 10765 bound_to 10752
  140.6268  134.4693  157.5227 H   0  0  0  0  0  0  0  0  0  0  0  0  # atno 11005 bound_to 11000
  145.0254  139.3387  143.6051 LP  0  0  0  0  0  0  0  0  0  0  0  0  # atno 17320 bound_to 7965
  146.3471  139.9571  142.8722 LP  0  0  0  0  0  0  0  0  0  0  0  0  # atno 17321 bound_to 7965
  140.2603  143.3529  152.1328 LP  0  0  0  0  0  0  0  0  0  0  0  0  # atno 17342 bound_to 10162
  139.5128  144.6923  151.5726 LP  0  0  0  0  0  0  0  0  0  0  0  0  # atno 17343 bound_to 10162
  156.3430  130.3818  149.7393 LP  0  0  0  0  0  0  0  0  0  0  0  0  # atno 17370 bound_to 10713
  156.4896  130.8079  151.3089 LP  0  0  0  0  0  0  0  0  0  0  0  0  # atno 17371 bound_to 10713
  139.9132  134.8302  156.1457 LP  0  0  0  0  0  0  0  0  0  0  0  0  # atno 17394 bound_to 11000
  141.0704  133.6799  156.2128 LP  0  0  0  0  0  0  0  0  0  0  0  0  # atno 17395 bound_to 11000

$$$$
