AV-unprocessed.smi:107|AV-procd|sdf|1024|dock3
  -GOLD-   2262018 23D 1   1.00000     0.00000
 Structure written by MMmdl.
 30 31  0  0  0  0  0  0  0  0  2 V2000
  151.6879  144.4367  158.3271 C   0  0  0  0  0  0  0  0  0  0  0  0
  151.5419  142.9362  158.5097 C   0  0  0  0  0  0  0  0  0  0  0  0
  150.7626  142.1837  157.7016 C   0  0  0  0  0  0  0  0  0  0  0  0
  150.6314  140.8161  157.8713 N   0  0  0  0  0  0  0  0  0  0  0  0
  149.7446  139.9935  156.9594 C   0  0  1  0  0  0  0  0  0  0  0  0
  149.1493  140.8755  155.8590 C   0  0  0  0  0  0  0  0  0  0  0  0
  150.1089  140.6287  154.7137 C   0  0  2  0  0  0  0  0  0  0  0  0
  149.4841  140.8734  153.4703 O   0  0  0  0  0  0  0  0  0  0  0  0
  150.4592  139.1521  154.9137 C   0  0  1  0  0  0  0  0  0  0  0  0
  151.8025  138.7464  154.2876 C   0  0  0  0  0  0  0  0  0  0  0  0
  151.8443  137.3484  154.0986 O   0  0  0  0  0  0  0  0  0  0  0  0
  150.5106  139.0035  156.3329 O   0  0  0  0  0  0  0  0  0  0  0  0
  151.3143  140.1750  158.9383 C   0  0  0  0  0  0  0  0  0  0  0  0
  151.1522  138.9632  159.0849 O   0  0  0  0  0  0  0  0  0  0  0  0
  152.1083  140.9246  159.7548 N   0  5  0  0  0  0  0  0  0  0  0  0
  152.2658  142.2704  159.5993 C   0  0  0  0  0  0  0  0  0  0  0  0
  152.9893  142.9344  160.3409 O   0  0  0  0  0  0  0  0  0  0  0  0
  151.0896  144.7946  157.4888 H   0  0  0  0  0  0  0  0  0  0  0  0
  152.7292  144.6966  158.1342 H   0  0  0  0  0  0  0  0  0  0  0  0
  151.3616  144.9634  159.2243 H   0  0  0  0  0  0  0  0  0  0  0  0
  150.2265  142.6747  156.9049 H   0  0  0  0  0  0  0  0  0  0  0  0
  148.9993  139.5232  157.6025 H   0  0  0  0  0  0  0  0  0  0  0  0
  148.1527  140.4984  155.6242 H   0  0  0  0  0  0  0  0  0  0  0  0
  149.0688  141.9217  156.1571 H   0  0  0  0  0  0  0  0  0  0  0  0
  150.9943  141.2570  154.8215 H   0  0  0  0  0  0  0  0  0  0  0  0
  149.8115  140.2468  152.8429 H   0  0  0  0  0  0  0  0  0  0  0  0
  149.6447  138.5337  154.5304 H   0  0  0  0  0  0  0  0  0  0  0  0
  151.9150  139.2118  153.3081 H   0  0  0  0  0  0  0  0  0  0  0  0
  152.6450  139.0713  154.8979 H   0  0  0  0  0  0  0  0  0  0  0  0
  151.5027  137.1546  153.2388 H   0  0  0  0  0  0  0  0  0  0  0  0
  1  2  1  0  0  0  0
  1 18  1  0  0  0  0
  1 19  1  0  0  0  0
  1 20  1  0  0  0  0
  2 16  1  0  0  0  0
  2  3  2  0  0  0  0
  3  4  1  0  0  0  0
  3 21  1  0  0  0  0
  4  5  1  0  0  0  0
  4 13  1  0  0  0  0
  5 12  1  0  0  0  0
  5  6  1  0  0  0  0
  5 22  1  0  0  0  0
  6  7  1  0  0  0  0
  6 23  1  0  0  0  0
  6 24  1  0  0  0  0
  7  8  1  0  0  0  0
  7  9  1  0  0  0  0
  7 25  1  0  0  0  0
  8 26  1  0  0  0  0
  9 10  1  0  0  0  0
  9 12  1  0  0  0  0
  9 27  1  0  0  0  0
 10 11  1  0  0  0  0
 10 28  1  0  0  0  0
 10 29  1  0  0  0  0
 11 30  1  0  0  0  0
 13 14  2  0  0  0  0
 13 15  1  0  0  0  0
 15 16  1  0  0  0  0
 16 17  2  0  0  0  0
M  CHG  1  15  -1
M  END
> <s_m_source_file>
AV-unprocessed.smi

> <i_m_source_file_index>
107

> <i_lp_mmshare_version>
43012

> <i_f3d_flags>
0

> <s_epik_input>
Tz1jMVtuSF1jKD1PKW4oW2NIXWMxW0NIM10pW0NAQEhdMltDSDJdW0NAQEhdKFtPSF0pW0NASF0oTzIpW0NIMl1bT0hd

> <s_epik_cmdline>
J2VwaWtfcHl0aG9uJywgJy1waCcsICc3LjAnLCAnLXRuJywgJzgnLCAnLW1hJywgJzIwMCcsICctbWV0YWxfYmluZGluZycsICctaW1hZScsICc8aW5maWxlLm1hZT4nLCAnLW9tYWUnLCAnPG91dGZpbGUubWFlPic=

> <r_lp_tautomer_probability>
0.999537

> <r_epik_Ionization_Penalty>
3.66603

> <r_epik_Ionization_Penalty_Charging>
1.09773e-07

> <r_epik_Ionization_Penalty_Neutral>
3.66603

> <r_epik_State_Penalty>
3.66562

> <r_epik_Charging_Adjusted_Penalty>
3.66562

> <i_epik_Tot_Q>
-1

> <i_epik_Tot_abs_Q>
1

> <r_epik_Metal_State_Penalty>
0.234536

> <b_epik_Metal_Only>
1

> <s_epik_Chemistry_Notes>
This compound contains an acetal/aminal-like group ( X-CH(R)-Y where X, Y are N, S, or O) that may be acid/base labile, releasing an aldehyde.

> <s_lp_Force_Field>
OPLS_2005

> <r_lp_Energy>
34.1834

> <b_lp_Chiralities_Consistent>
1

> <s_lp_Variant>
AV-unprocessed.smi:107-12

> <Gold.Version>
5.8.1

> <Gold.Id.Protein>
6NUR|6NUR_protein|mol2

> <Gold.PLP.Fitness>
43.7749

> <Gold.PLP.PLP>
-32.2208

> <Gold.PLP.part.hbond>
-4.5244

> <Gold.PLP.part.metal>
0.0000

> <Gold.PLP.part.buried>
-4.5068

> <Gold.PLP.part.nonpolar>
-23.4923

> <Gold.PLP.part.repulsive>
0.0000

> <Gold.PLP.ligand.clash>
0.0000

> <Gold.PLP.ligand.torsion>
0.2354

> <Gold.PLP.Chemscore.Hbond>
3.6400

> <Gold.PLP.Chemscore.CHOScore>
0.3647

> <Gold.PLP.Chemscore.Metal>
0.0000

> <Gold.Chemscore.Hbonds>
donor molecule, donor type, donor heavy atom, donor atom, acceptor molecule, acceptor atom, score
      L1  H     8    26       P1  7957  0.69
      L1  H    11    30       P1  7949  0.76
      P1  H  8011  8017       L1     8  0.70
      P1  H 10752 10765       L1    11  0.70
      L1  C     3    21       P1  8028  0.47

> <Gold.PLP.Chemscore.Internal.Correction>
0.0107

> <Gold.Rescore>
     Score         DG    S(hbond)    S(metal)    S(lipo)     H(rot)  DE(clash)    DE(int)     intcor
     11.38     -15.19       2.85        0.00      60.30       2.69       1.98       1.83       ----

> <Gold.Chemscore.Fitness>
11.3765

> <Gold.Chemscore.DG>
-15.1912

> <Gold.Chemscore.ZeroCoef>
-5.4800

> <Gold.Chemscore.Hbond>
2.8549

> <Gold.Chemscore.Metal>
0.0000

> <Gold.Chemscore.Lipo>
60.2990

> <Gold.Chemscore.Internal_Hbond>
0.0000

> <Gold.Chemscore.DEClash>
1.9824

> <Gold.Chemscore.DEInternal>
1.8324

> <Gold.Chemscore.Rot>
2.6871

> <Gold.Chemscore.Internal.Correction>
   9.000000E+99

> <Gold.Chemscore.Hbonds>
donor molecule, donor type, donor heavy atom, donor atom, acceptor molecule, acceptor atom, score
      L1  H     8    26       P1  7957  0.68
      L1  H    11    30       P1  7949  0.65
      P1  H  8011  8017       L1     8  0.07
      P1  H 10752 10765       L1    11  0.07

> <Gold.Chemscore.Hbond.Weighted>
-9.5353

> <Gold.Chemscore.Metal.Weighted>
-0.0000

> <Gold.Chemscore.Lipo.Weighted>
-7.0550

> <Gold.Chemscore.Internal_Hbond.Weighted>
0.0000

> <Gold.Chemscore.DEClash.Weighted>
1.9824

> <Gold.Chemscore.DEInternal.Weighted>
1.8324

> <Gold.Chemscore.Rot.Weighted>
6.8791

> <Gold.Chemscore.Internal.Correction.Weighted>
   9.000000E+99

> <Gold.Protein.RotatedTorsions>
[ 6907 6896 6895 6894 ] final  159.45 input  -60.11 | X-H torsion
[ 7974 7965 7964 7962 ] final  -20.67 input  175.53 | X-H torsion
[ 8008 7997 7996 7995 ] final   70.77 input   59.86 | X-H torsion
[ 10167 10162 10161 10158 ] final -156.89 input  -65.29 | X-H torsion
[ 10718 10713 10712 10709 ] final  -91.15 input   66.30 | X-H torsion
[ 10763 10752 10751 10750 ] final  155.90 input  -60.55 | X-H torsion
[ 11005 11000 10999 10996 ] final  108.86 input  -57.11 | X-H torsion

> <Gold.Protein.ActiveResidues>
 VAL166  LYS551  ARG553  GLY616  TRP617  ASP618  TYR619  PRO620  LYS621  CYS622 
 ASP623  PHE694  ASN695  SER759  ASP760  ASP761  ALA762  ILE779  LEU786  VAL792 
 PHE793  MET794  SER795  GLU796  ALA797  LYS798  CYS799  TRP800  GLU811  SER814 

> <Gold.Protein.RotatedAtoms>
  151.9854  133.3772  159.4123 H   0  0  0  0  0  0  0  0  0  0  0  0  # atno 6907 bound_to 6896
  150.6929  134.3994  159.5121 H   0  0  0  0  0  0  0  0  0  0  0  0  # atno 6908 bound_to 6896
  152.1719  134.8826  160.0584 H   0  0  0  0  0  0  0  0  0  0  0  0  # atno 6909 bound_to 6896
  146.1775  140.4235  142.8507 H   0  0  0  0  0  0  0  0  0  0  0  0  # atno 7974 bound_to 7965
  155.7439  140.3490  155.5117 H   0  0  0  0  0  0  0  0  0  0  0  0  # atno 8008 bound_to 7997
  155.9068  140.1043  157.1330 H   0  0  0  0  0  0  0  0  0  0  0  0  # atno 8009 bound_to 7997
  154.4051  140.1275  156.4494 H   0  0  0  0  0  0  0  0  0  0  0  0  # atno 8010 bound_to 7997
  139.6814  143.9574  152.2339 H   0  0  0  0  0  0  0  0  0  0  0  0  # atno 10167 bound_to 10162
  155.9992  130.4937  150.5431 H   0  0  0  0  0  0  0  0  0  0  0  0  # atno 10718 bound_to 10713
  154.1758  135.2802  155.3067 H   0  0  0  0  0  0  0  0  0  0  0  0  # atno 10763 bound_to 10752
  154.6040  135.5520  153.7407 H   0  0  0  0  0  0  0  0  0  0  0  0  # atno 10764 bound_to 10752
  153.0152  135.6399  154.1897 H   0  0  0  0  0  0  0  0  0  0  0  0  # atno 10765 bound_to 10752
  139.8851  134.9442  156.6038 H   0  0  0  0  0  0  0  0  0  0  0  0  # atno 11005 bound_to 11000
  144.8260  140.6629  143.6322 LP  0  0  0  0  0  0  0  0  0  0  0  0  # atno 17320 bound_to 7965
  145.4170  139.1570  143.4095 LP  0  0  0  0  0  0  0  0  0  0  0  0  # atno 17321 bound_to 7965
  139.9366  144.6708  150.8309 LP  0  0  0  0  0  0  0  0  0  0  0  0  # atno 17342 bound_to 10162
  140.7653  143.3273  151.2488 LP  0  0  0  0  0  0  0  0  0  0  0  0  # atno 17343 bound_to 10162
  157.3364  131.0709  151.1821 LP  0  0  0  0  0  0  0  0  0  0  0  0  # atno 17370 bound_to 10713
  157.2684  130.6692  149.6008 LP  0  0  0  0  0  0  0  0  0  0  0  0  # atno 17371 bound_to 10713
  140.7864  133.8618  155.8609 LP  0  0  0  0  0  0  0  0  0  0  0  0  # atno 17394 bound_to 11000
  140.9716  134.1524  157.4571 LP  0  0  0  0  0  0  0  0  0  0  0  0  # atno 17395 bound_to 11000

$$$$
