AV-unprocessed.smi:1876|AV-procd|sdf|7621|dock1
  -GOLD-   22720 9343D 1   1.00000     0.00000
 Structure written by MMmdl.
 31 32  0  0  0  0  0  0  0  0  1 V2000
  155.3683  140.1792  161.3227 C   0  0  0  0  0  0  0  0  0  0  0  0
  154.3543  140.2070  160.2311 C   0  0  0  0  0  0  0  0  0  0  0  0
  153.2066  140.9255  160.0450 C   0  0  0  0  0  0  0  0  0  0  0  0
  152.7350  140.4555  158.7903 C   0  0  0  0  0  0  0  0  0  0  0  0
  151.5386  140.9655  158.2243 N   0  0  0  0  0  0  0  0  0  0  0  0
  150.7499  140.3760  157.3096 C   0  0  0  0  0  0  0  0  0  0  0  0
  150.9461  139.2659  156.8138 O   0  0  0  0  0  0  0  0  0  0  0  0
  149.7055  141.1548  156.9920 N   0  0  0  0  0  0  0  0  0  0  0  0
  148.6848  140.8380  155.9949 C   0  0  1  0  0  0  0  0  0  0  0  0
  147.5125  141.8344  156.0669 C   0  0  0  0  0  0  0  0  0  0  0  0
  146.5452  141.5997  154.9031 C   0  0  0  0  0  0  0  0  0  0  0  0
  147.2772  141.7346  153.5579 C   0  0  0  0  0  0  0  0  0  0  0  0
  148.5662  141.0413  153.5269 N   0  0  0  0  0  0  0  0  0  0  0  0
  149.2978  140.6710  154.5929 C   0  0  0  0  0  0  0  0  0  0  0  0
  150.4151  140.1736  154.4608 O   0  0  0  0  0  0  0  0  0  0  0  0
  153.5227  139.5326  158.2596 N   0  0  0  0  0  0  0  0  0  0  0  0
  154.5647  139.3692  159.1799 O   0  0  0  0  0  0  0  0  0  0  0  0
  155.0287  140.7524  162.1853 H   0  0  0  0  0  0  0  0  0  0  0  0
  156.3121  140.6061  160.9832 H   0  0  0  0  0  0  0  0  0  0  0  0
  155.5572  139.1566  161.6497 H   0  0  0  0  0  0  0  0  0  0  0  0
  152.7780  141.6683  160.7014 H   0  0  0  0  0  0  0  0  0  0  0  0
  151.2590  141.8815  158.5429 H   0  0  0  0  0  0  0  0  0  0  0  0
  149.6247  142.0522  157.4475 H   0  0  0  0  0  0  0  0  0  0  0  0
  148.2853  139.8496  156.2301 H   0  0  0  0  0  0  0  0  0  0  0  0
  146.9834  141.7310  157.0149 H   0  0  0  0  0  0  0  0  0  0  0  0
  147.8872  142.8584  156.0284 H   0  0  0  0  0  0  0  0  0  0  0  0
  146.1135  140.6016  154.9870 H   0  0  0  0  0  0  0  0  0  0  0  0
  145.7135  142.3030  154.9508 H   0  0  0  0  0  0  0  0  0  0  0  0
  146.6494  141.3603  152.7488 H   0  0  0  0  0  0  0  0  0  0  0  0
  147.4632  142.7883  153.3474 H   0  0  0  0  0  0  0  0  0  0  0  0
  148.9692  140.8869  152.6139 H   0  0  0  0  0  0  0  0  0  0  0  0
  1  2  1  0  0  0  0
  1 18  1  0  0  0  0
  1 19  1  0  0  0  0
  1 20  1  0  0  0  0
  2 17  1  0  0  0  0
  2  3  2  0  0  0  0
  3  4  1  0  0  0  0
  3 21  1  0  0  0  0
  4  5  1  0  0  0  0
  4 16  2  0  0  0  0
  5  6  1  0  0  0  0
  5 22  1  0  0  0  0
  6  7  2  0  0  0  0
  6  8  1  0  0  0  0
  8  9  1  0  0  0  0
  8 23  1  0  0  0  0
  9 14  1  0  0  0  0
  9 10  1  0  0  0  0
  9 24  1  0  0  0  0
 10 11  1  0  0  0  0
 10 25  1  0  0  0  0
 10 26  1  0  0  0  0
 11 12  1  0  0  0  0
 11 27  1  0  0  0  0
 11 28  1  0  0  0  0
 12 13  1  0  0  0  0
 12 29  1  0  0  0  0
 12 30  1  0  0  0  0
 13 14  1  0  0  0  0
 13 31  1  0  0  0  0
 14 15  2  0  0  0  0
 16 17  1  0  0  0  0
M  END
> <s_m_source_file>
AV-unprocessed.smi

> <i_m_source_file_index>
1876

> <i_lp_mmshare_version>
43012

> <i_f3d_flags>
0

> <s_epik_input>
W0NIM11jMVtjSF1jKG5vMSlbTkhdQyg9TylbTkhdW0NAQEhdMltDSDJdW0NIMl1bQ0gyXVtOSF1DMj1P

> <s_epik_cmdline>
J2VwaWtfcHl0aG9uJywgJy1waCcsICc3LjAnLCAnLXRuJywgJzgnLCAnLW1hJywgJzIwMCcsICctbWV0YWxfYmluZGluZycsICctaW1hZScsICc8aW5maWxlLm1hZT4nLCAnLW9tYWUnLCAnPG91dGZpbGUubWFlPic=

> <r_lp_tautomer_probability>
1

> <r_epik_Ionization_Penalty>
2.33177e-05

> <r_epik_Ionization_Penalty_Charging>
0

> <r_epik_Ionization_Penalty_Neutral>
2.33177e-05

> <r_epik_State_Penalty>
-0

> <r_epik_Charging_Adjusted_Penalty>
0

> <i_epik_Tot_Q>
0

> <i_epik_Tot_abs_Q>
0

> <r_epik_Metal_State_Penalty>
-0

> <b_epik_Metal_Only>
0

> <s_lp_Force_Field>
OPLS_2005

> <r_lp_Energy>
6.99083

> <b_lp_Chiralities_Consistent>
1

> <s_lp_Variant>
AV-unprocessed.smi:1876-2

> <Gold.Version>
5.8.1

> <Gold.Id.Protein>
6NUR|6NUR_protein|mol2

> <Gold.PLP.Fitness>
33.4878

> <Gold.PLP.PLP>
-25.0265

> <Gold.PLP.part.hbond>
-4.0000

> <Gold.PLP.part.metal>
0.0000

> <Gold.PLP.part.buried>
-4.8442

> <Gold.PLP.part.nonpolar>
-16.6167

> <Gold.PLP.part.repulsive>
0.7917

> <Gold.PLP.ligand.clash>
0.0000

> <Gold.PLP.ligand.torsion>
0.1584

> <Gold.PLP.Chemscore.Hbond>
2.9120

> <Gold.PLP.Chemscore.CHOScore>
0.0000

> <Gold.PLP.Chemscore.Metal>
0.0000

> <Gold.Chemscore.Hbonds>
donor molecule, donor type, donor heavy atom, donor atom, acceptor molecule, acceptor atom, score
      L1  H    13    31       P1  7957  1.00
      P1  H  7989  7998       L1    15  1.00
      P1  H  7997  8009       L1    16  0.90

> <Gold.PLP.Chemscore.Internal.Correction>
0.0422

> <Gold.Rescore>
     Score         DG    S(hbond)    S(metal)    S(lipo)     H(rot)  DE(clash)    DE(int)     intcor
     11.55     -15.73       2.39        0.00      41.29       1.00       0.03       4.14       ----

> <Gold.Chemscore.Fitness>
11.5525

> <Gold.Chemscore.DG>
-15.7255

> <Gold.Chemscore.ZeroCoef>
-5.4800

> <Gold.Chemscore.Hbond>
2.3875

> <Gold.Chemscore.Metal>
0.0000

> <Gold.Chemscore.Lipo>
41.2924

> <Gold.Chemscore.Internal_Hbond>
0.0000

> <Gold.Chemscore.DEClash>
0.0314

> <Gold.Chemscore.DEInternal>
4.1416

> <Gold.Chemscore.Rot>
1.0000

> <Gold.Chemscore.Internal.Correction>
   9.000000E+99

> <Gold.Chemscore.Hbonds>
donor molecule, donor type, donor heavy atom, donor atom, acceptor molecule, acceptor atom, score
      L1  H    13    31       P1  7957  1.00
      P1  H  7989  7998       L1    15  0.98
      P1  H  7997  8009       L1    16  0.24

> <Gold.Chemscore.Hbond.Weighted>
-7.9743

> <Gold.Chemscore.Metal.Weighted>
-0.0000

> <Gold.Chemscore.Lipo.Weighted>
-4.8312

> <Gold.Chemscore.Internal_Hbond.Weighted>
0.0000

> <Gold.Chemscore.DEClash.Weighted>
0.0314

> <Gold.Chemscore.DEInternal.Weighted>
4.1416

> <Gold.Chemscore.Rot.Weighted>
2.5600

> <Gold.Chemscore.Internal.Correction.Weighted>
   9.000000E+99

> <Gold.Protein.RotatedTorsions>
[ 6907 6896 6895 6894 ] final -153.30 input  -60.11 | X-H torsion
[ 7974 7965 7964 7962 ] final  -56.92 input  175.53 | X-H torsion
[ 8008 7997 7996 7995 ] final  172.18 input   59.86 | X-H torsion
[ 10167 10162 10161 10158 ] final  -76.96 input  -65.29 | X-H torsion
[ 10718 10713 10712 10709 ] final   99.89 input   66.30 | X-H torsion
[ 10763 10752 10751 10750 ] final   10.29 input  -60.55 | X-H torsion
[ 11005 11000 10999 10996 ] final -150.66 input  -57.11 | X-H torsion

> <Gold.Protein.ActiveResidues>
 VAL166  LYS551  ARG553  GLY616  TRP617  ASP618  TYR619  PRO620  LYS621  CYS622 
 ASP623  PHE694  ASN695  SER759  ASP760  ASP761  ALA762  ILE779  LEU786  VAL792 
 PHE793  MET794  SER795  GLU796  ALA797  LYS798  CYS799  TRP800  GLU811  SER814 

> <Gold.Protein.RotatedAtoms>
  151.2405  133.4402  159.2606 H   0  0  0  0  0  0  0  0  0  0  0  0  # atno 6907 bound_to 6896
  151.0710  134.9798  159.8319 H   0  0  0  0  0  0  0  0  0  0  0  0  # atno 6908 bound_to 6896
  152.5412  134.2350  159.8892 H   0  0  0  0  0  0  0  0  0  0  0  0  # atno 6909 bound_to 6896
  145.8571  140.8312  142.9956 H   0  0  0  0  0  0  0  0  0  0  0  0  # atno 7974 bound_to 7965
  156.1199  140.1492  156.9219 H   0  0  0  0  0  0  0  0  0  0  0  0  # atno 8008 bound_to 7997
  154.4828  140.0874  156.7458 H   0  0  0  0  0  0  0  0  0  0  0  0  # atno 8009 bound_to 7997
  155.4447  140.3432  155.4296 H   0  0  0  0  0  0  0  0  0  0  0  0  # atno 8010 bound_to 7997
  140.4812  143.2402  151.8055 H   0  0  0  0  0  0  0  0  0  0  0  0  # atno 10167 bound_to 10162
  157.6866  131.0683  150.5018 H   0  0  0  0  0  0  0  0  0  0  0  0  # atno 10718 bound_to 10713
  153.2048  135.6861  153.8186 H   0  0  0  0  0  0  0  0  0  0  0  0  # atno 10763 bound_to 10752
  153.7439  135.3234  155.3310 H   0  0  0  0  0  0  0  0  0  0  0  0  # atno 10764 bound_to 10752
  154.8191  135.4665  154.0830 H   0  0  0  0  0  0  0  0  0  0  0  0  # atno 10765 bound_to 10752
  140.7378  134.3548  157.5154 H   0  0  0  0  0  0  0  0  0  0  0  0  # atno 11005 bound_to 11000
  144.6727  140.1040  143.7459 LP  0  0  0  0  0  0  0  0  0  0  0  0  # atno 17320 bound_to 7965
  145.9291  139.2594  143.1336 LP  0  0  0  0  0  0  0  0  0  0  0  0  # atno 17321 bound_to 7965
  139.4834  144.4770  151.9354 LP  0  0  0  0  0  0  0  0  0  0  0  0  # atno 17342 bound_to 10162
  140.3856  144.2681  150.5904 LP  0  0  0  0  0  0  0  0  0  0  0  0  # atno 17343 bound_to 10162
  156.5339  130.4191  149.6188 LP  0  0  0  0  0  0  0  0  0  0  0  0  # atno 17370 bound_to 10713
  156.3045  130.7195  151.2074 LP  0  0  0  0  0  0  0  0  0  0  0  0  # atno 17371 bound_to 10713
  139.8812  134.9061  156.2914 LP  0  0  0  0  0  0  0  0  0  0  0  0  # atno 17394 bound_to 11000
  140.9863  133.7236  156.0747 LP  0  0  0  0  0  0  0  0  0  0  0  0  # atno 17395 bound_to 11000

$$$$
