AV-unprocessed.smi:2438|AV-procd|sdf|9601|dock4
  -GOLD-   2272013233D 1   1.00000     0.00000
 Structure written by MMmdl.
 44 45  0  0  0  0  0  0  0  0  2 V2000
  150.7585  141.4508  157.5197 C   0  0  0  0  0  0  0  0  0  0  0  0
  151.0725  140.0274  157.4934 N   0  0  0  0  0  0  0  0  0  0  0  0
  152.4371  139.6636  157.8498 C   0  0  0  0  0  0  0  0  0  0  0  0
  150.5590  139.2897  156.4081 C   0  0  0  0  0  0  0  0  0  0  0  0
  150.9134  139.6693  155.1587 N   0  0  0  0  0  0  0  0  0  0  0  0
  150.4605  138.9864  154.1027 C   0  0  0  0  0  0  0  0  0  0  0  0
  149.6536  137.9240  154.2163 N   0  3  0  0  0  0  0  0  0  0  0  0
  149.2660  137.5046  155.4443 C   0  0  0  0  0  0  0  0  0  0  0  0
  149.7109  138.1738  156.6102 C   0  0  0  0  0  0  0  0  0  0  0  0
  149.3162  137.8156  157.9325 N   0  0  0  0  0  0  0  0  0  0  0  0
  148.4142  136.9031  158.3313 C   0  0  0  0  0  0  0  0  0  0  0  0
  147.7533  136.1836  157.5837 O   0  0  0  0  0  0  0  0  0  0  0  0
  148.3289  136.8663  159.6686 N   0  0  0  0  0  0  0  0  0  0  0  0
  147.4465  136.0019  160.4483 C   0  0  2  0  0  0  0  0  0  0  0  0
  147.5115  136.3977  161.9342 C   0  0  0  0  0  0  0  0  0  0  0  0
  146.6594  135.4570  162.7987 C   0  0  0  0  0  0  0  0  0  0  0  0
  147.0701  133.9898  162.5979 C   0  0  0  0  0  0  0  0  0  0  0  0
  146.9963  133.5751  161.1129 C   0  0  2  0  0  0  0  0  0  0  0  0
  147.3890  132.0980  160.9043 C   0  0  0  0  0  0  0  0  0  0  0  0
  148.5476  131.8252  161.5054 F   0  0  0  0  0  0  0  0  0  0  0  0
  146.4459  131.2997  161.4044 F   0  0  0  0  0  0  0  0  0  0  0  0
  147.5068  131.8365  159.6026 F   0  0  0  0  0  0  0  0  0  0  0  0
  147.8534  134.5291  160.2527 C   0  0  0  0  0  0  0  0  0  0  0  0
  149.7030  141.6213  157.3029 H   0  0  0  0  0  0  0  0  0  0  0  0
  151.3566  141.9968  156.7889 H   0  0  0  0  0  0  0  0  0  0  0  0
  150.9676  141.8642  158.5066 H   0  0  0  0  0  0  0  0  0  0  0  0
  152.5537  138.5858  157.9646 H   0  0  0  0  0  0  0  0  0  0  0  0
  152.7194  140.1316  158.7933 H   0  0  0  0  0  0  0  0  0  0  0  0
  153.1337  140.0017  157.0816 H   0  0  0  0  0  0  0  0  0  0  0  0
  150.7369  139.2835  153.1017 H   0  0  0  0  0  0  0  0  0  0  0  0
  148.6001  136.6562  155.4286 H   0  0  0  0  0  0  0  0  0  0  0  0
  149.8143  138.2935  158.6698 H   0  0  0  0  0  0  0  0  0  0  0  0
  148.9186  137.4944  160.1950 H   0  0  0  0  0  0  0  0  0  0  0  0
  146.4136  136.1125  160.1128 H   0  0  0  0  0  0  0  0  0  0  0  0
  148.5456  136.3687  162.2812 H   0  0  0  0  0  0  0  0  0  0  0  0
  147.1709  137.4257  162.0638 H   0  0  0  0  0  0  0  0  0  0  0  0
  146.7569  135.7294  163.8500 H   0  0  0  0  0  0  0  0  0  0  0  0
  145.6059  135.5803  162.5443 H   0  0  0  0  0  0  0  0  0  0  0  0
  148.0835  133.8425  162.9736 H   0  0  0  0  0  0  0  0  0  0  0  0
  146.4240  133.3495  163.1993 H   0  0  0  0  0  0  0  0  0  0  0  0
  145.9590  133.6829  160.7911 H   0  0  0  0  0  0  0  0  0  0  0  0
  147.7577  134.2641  159.1991 H   0  0  0  0  0  0  0  0  0  0  0  0
  148.9067  134.4023  160.5070 H   0  0  0  0  0  0  0  0  0  0  0  0
  149.3212  137.4306  153.3872 H   0  0  0  0  0  0  0  0  0  0  0  0
  1  2  1  0  0  0  0
  1 24  1  0  0  0  0
  1 25  1  0  0  0  0
  1 26  1  0  0  0  0
  2  3  1  0  0  0  0
  2  4  1  0  0  0  0
  3 27  1  0  0  0  0
  3 28  1  0  0  0  0
  3 29  1  0  0  0  0
  4  9  1  0  0  0  0
  4  5  2  0  0  0  0
  5  6  1  0  0  0  0
  6  7  2  0  0  0  0
  6 30  1  0  0  0  0
  7  8  1  0  0  0  0
  7 44  1  0  0  0  0
  8  9  2  0  0  0  0
  8 31  1  0  0  0  0
  9 10  1  0  0  0  0
 10 11  1  0  0  0  0
 10 32  1  0  0  0  0
 11 12  2  0  0  0  0
 11 13  1  0  0  0  0
 13 14  1  0  0  0  0
 13 33  1  0  0  0  0
 14 23  1  0  0  0  0
 14 15  1  0  0  0  0
 14 34  1  0  0  0  0
 15 16  1  0  0  0  0
 15 35  1  0  0  0  0
 15 36  1  0  0  0  0
 16 17  1  0  0  0  0
 16 37  1  0  0  0  0
 16 38  1  0  0  0  0
 17 18  1  0  0  0  0
 17 39  1  0  0  0  0
 17 40  1  0  0  0  0
 18 19  1  0  0  0  0
 18 23  1  0  0  0  0
 18 41  1  0  0  0  0
 19 20  1  0  0  0  0
 19 21  1  0  0  0  0
 19 22  1  0  0  0  0
 23 42  1  0  0  0  0
 23 43  1  0  0  0  0
M  CHG  1   7   1
M  END
> <s_m_source_file>
AV-unprocessed.smi

> <i_m_source_file_index>
2438

> <i_lp_mmshare_version>
43012

> <i_f3d_flags>
0

> <s_epik_input>
W0NIM11OKFtDSDNdKWMxbltjSF1uW2NIXWMxW05IXUMoPU8pW05IXVtDQEBIXTJbQ0gyXVtDSDJdW0NIMl1bQ0BASF0oQyhGKShGKUYpW0NIMl0y

> <s_epik_cmdline>
J2VwaWtfcHl0aG9uJywgJy1waCcsICc3LjAnLCAnLXRuJywgJzgnLCAnLW1hJywgJzIwMCcsICctbWV0YWxfYmluZGluZycsICctaW1hZScsICc8aW5maWxlLm1hZT4nLCAnLW9tYWUnLCAnPG91dGZpbGUubWFlPic=

> <r_lp_tautomer_probability>
0.999336

> <r_epik_Ionization_Penalty>
2.11643

> <r_epik_Ionization_Penalty_Charging>
2.11639

> <r_epik_Ionization_Penalty_Neutral>
4.47523e-05

> <r_epik_State_Penalty>
2.25369

> <r_epik_Charging_Adjusted_Penalty>
4.37008

> <i_epik_Tot_Q>
1

> <i_epik_Tot_abs_Q>
1

> <r_epik_Metal_State_Penalty>
2.27019

> <b_epik_Metal_Only>
0

> <s_lp_Force_Field>
OPLS_2005

> <r_lp_Energy>
18.5992

> <b_lp_Chiralities_Consistent>
1

> <s_lp_Variant>
AV-unprocessed.smi:2438-7

> <Gold.Version>
5.8.1

> <Gold.Id.Protein>
6NUR|6NUR_protein|mol2

> <Gold.PLP.Fitness>
39.6674

> <Gold.PLP.PLP>
-31.4327

> <Gold.PLP.part.hbond>
-1.5125

> <Gold.PLP.part.metal>
0.0000

> <Gold.PLP.part.buried>
-3.9852

> <Gold.PLP.part.nonpolar>
-25.5273

> <Gold.PLP.part.repulsive>
0.3552

> <Gold.PLP.ligand.clash>
0.0000

> <Gold.PLP.ligand.torsion>
0.5652

> <Gold.PLP.Chemscore.Hbond>
2.0000

> <Gold.PLP.Chemscore.CHOScore>
1.0000

> <Gold.PLP.Chemscore.Metal>
0.0000

> <Gold.Chemscore.Hbonds>
donor molecule, donor type, donor heavy atom, donor atom, acceptor molecule, acceptor atom, score
      L1  H     7    44       P1  7948  2.00
      L1  C     6    30       P1  7957  1.00

> <Gold.PLP.Chemscore.Internal.Correction>
0.3651

> <Gold.Rescore>
     Score         DG    S(hbond)    S(metal)    S(lipo)     H(rot)  DE(clash)    DE(int)     intcor
     11.38     -13.09       1.00        0.00      65.13       1.31       0.03       1.67       ----

> <Gold.Chemscore.Fitness>
11.3840

> <Gold.Chemscore.DG>
-13.0906

> <Gold.Chemscore.ZeroCoef>
-5.4800

> <Gold.Chemscore.Hbond>
0.9995

> <Gold.Chemscore.Metal>
0.0000

> <Gold.Chemscore.Lipo>
65.1311

> <Gold.Chemscore.Internal_Hbond>
0.0000

> <Gold.Chemscore.DEClash>
0.0348

> <Gold.Chemscore.DEInternal>
1.6718

> <Gold.Chemscore.Rot>
1.3078

> <Gold.Chemscore.Internal.Correction>
   9.000000E+99

> <Gold.Chemscore.Hbonds>
donor molecule, donor type, donor heavy atom, donor atom, acceptor molecule, acceptor atom, score
      L1  H     7    44       P1  7948  0.97

> <Gold.Chemscore.Hbond.Weighted>
-3.3384

> <Gold.Chemscore.Metal.Weighted>
-0.0000

> <Gold.Chemscore.Lipo.Weighted>
-7.6203

> <Gold.Chemscore.Internal_Hbond.Weighted>
0.0000

> <Gold.Chemscore.DEClash.Weighted>
0.0348

> <Gold.Chemscore.DEInternal.Weighted>
1.6718

> <Gold.Chemscore.Rot.Weighted>
3.3481

> <Gold.Chemscore.Internal.Correction.Weighted>
   9.000000E+99

> <Gold.Protein.RotatedTorsions>
[ 6907 6896 6895 6894 ] final -161.83 input  -60.11 | X-H torsion
[ 7974 7965 7964 7962 ] final  118.80 input  175.53 | X-H torsion
[ 8008 7997 7996 7995 ] final   26.83 input   59.86 | X-H torsion
[ 10167 10162 10161 10158 ] final  157.64 input  -65.29 | X-H torsion
[ 10718 10713 10712 10709 ] final  154.35 input   66.30 | X-H torsion
[ 10763 10752 10751 10750 ] final -134.56 input  -60.55 | X-H torsion
[ 11005 11000 10999 10996 ] final  133.39 input  -57.11 | X-H torsion

> <Gold.Protein.ActiveResidues>
 VAL166  LYS551  ARG553  GLY616  TRP617  ASP618  TYR619  PRO620  LYS621  CYS622 
 ASP623  PHE694  ASN695  SER759  ASP760  ASP761  ALA762  ILE779  LEU786  VAL792 
 PHE793  MET794  SER795  GLU796  ALA797  LYS798  CYS799  TRP800  GLU811  SER814 

> <Gold.Protein.RotatedAtoms>
  151.3707  133.3856  159.2699 H   0  0  0  0  0  0  0  0  0  0  0  0  # atno 6907 bound_to 6896
  150.9653  134.9036  159.7766 H   0  0  0  0  0  0  0  0  0  0  0  0  # atno 6908 bound_to 6896
  152.5165  134.3668  159.9356 H   0  0  0  0  0  0  0  0  0  0  0  0  # atno 6909 bound_to 6896
  145.1508  139.3211  143.4567 H   0  0  0  0  0  0  0  0  0  0  0  0  # atno 7974 bound_to 7965
  155.0335  140.3161  155.4750 H   0  0  0  0  0  0  0  0  0  0  0  0  # atno 8008 bound_to 7997
  156.2869  140.2176  156.5399 H   0  0  0  0  0  0  0  0  0  0  0  0  # atno 8009 bound_to 7997
  154.7350  140.0478  157.0748 H   0  0  0  0  0  0  0  0  0  0  0  0  # atno 8010 bound_to 7997
  139.4824  144.4899  151.8323 H   0  0  0  0  0  0  0  0  0  0  0  0  # atno 10167 bound_to 10162
  157.2328  131.0742  151.1842 H   0  0  0  0  0  0  0  0  0  0  0  0  # atno 10718 bound_to 10713
  154.8717  135.3730  154.4756 H   0  0  0  0  0  0  0  0  0  0  0  0  # atno 10763 bound_to 10752
  153.5413  135.7026  153.5640 H   0  0  0  0  0  0  0  0  0  0  0  0  # atno 10764 bound_to 10752
  153.3800  135.3999  155.1815 H   0  0  0  0  0  0  0  0  0  0  0  0  # atno 10765 bound_to 10752
  139.9848  134.9536  156.9718 H   0  0  0  0  0  0  0  0  0  0  0  0  # atno 11005 bound_to 11000
  146.3495  140.1581  142.8591 LP  0  0  0  0  0  0  0  0  0  0  0  0  # atno 17320 bound_to 7965
  145.0433  140.8962  143.5039 LP  0  0  0  0  0  0  0  0  0  0  0  0  # atno 17321 bound_to 7965
  140.4382  144.2023  150.5890 LP  0  0  0  0  0  0  0  0  0  0  0  0  # atno 17342 bound_to 10162
  140.4710  143.2413  151.9089 LP  0  0  0  0  0  0  0  0  0  0  0  0  # atno 17343 bound_to 10162
  157.3461  130.7058  149.6411 LP  0  0  0  0  0  0  0  0  0  0  0  0  # atno 17370 bound_to 10713
  155.9674  130.4266  150.4706 LP  0  0  0  0  0  0  0  0  0  0  0  0  # atno 17371 bound_to 10713
  140.5023  134.1085  155.7253 LP  0  0  0  0  0  0  0  0  0  0  0  0  # atno 17394 bound_to 11000
  141.1515  133.8960  157.2085 LP  0  0  0  0  0  0  0  0  0  0  0  0  # atno 17395 bound_to 11000

$$$$
