AV-unprocessed.smi:2124|AV-procd|sdf|8665|dock10
  -GOLD-   2272011413D 1   1.00000     0.00000
 Structure written by MMmdl.
 47 49  0  0  0  0  0  0  0  0  1 V2000
  146.5125  144.6234  153.0712 C   0  0  0  0  0  0  0  0  0  0  0  0
  147.1615  143.4859  153.8292 C   0  0  0  0  0  0  0  0  0  0  0  0
  146.3829  142.9893  154.8615 N   0  0  0  0  0  0  0  0  0  0  0  0
  146.8963  141.9503  155.6175 C   0  0  0  0  0  0  0  0  0  0  0  0
  145.9826  141.4687  156.7314 C   0  0  0  0  0  0  0  0  0  0  0  0
  148.1237  141.4325  155.3580 C   0  0  0  0  0  0  0  0  0  0  0  0
  148.7282  140.2933  156.1768 C   0  0  0  0  0  0  0  0  0  0  0  0
  150.0637  140.6041  156.8566 C   0  0  0  0  0  0  0  0  0  0  0  0
  151.1010  140.6441  156.1948 O   0  0  0  0  0  0  0  0  0  0  0  0
  150.0176  140.8235  158.1800 N   0  0  0  0  0  0  0  0  0  0  0  0
  151.1521  141.1522  159.0419 C   0  0  1  0  0  0  0  0  0  0  0  0
  152.1470  139.9821  159.0054 C   0  0  0  0  0  0  0  0  0  0  0  0
  151.7872  142.4876  158.5831 C   0  0  1  0  0  0  0  0  0  0  0  0
  150.8225  143.6965  158.5577 C   0  0  0  0  0  0  0  0  0  0  0  0
  151.6105  144.7867  159.3071 C   0  0  1  0  0  0  0  0  0  0  0  0
  151.6065  144.4629  160.8121 C   0  0  0  0  0  0  0  0  0  0  0  0
  152.5634  143.2603  160.9003 C   0  0  0  0  0  0  0  0  0  0  0  0
  152.9654  143.0329  159.4282 C   0  0  2  0  0  0  0  0  0  0  0  0
  153.0502  144.4692  158.9205 C   0  0  0  0  0  0  0  0  0  0  0  0
  148.9098  142.0049  154.2394 C   0  0  0  0  0  0  0  0  0  0  0  0
  150.0305  141.5831  153.9571 O   0  0  0  0  0  0  0  0  0  0  0  0
  148.3427  143.0572  153.5024 N   0  0  0  0  0  0  0  0  0  0  0  0
  145.4681  143.3490  155.0925 H   0  0  0  0  0  0  0  0  0  0  0  0
  147.0826  144.8695  152.1745 H   0  0  0  0  0  0  0  0  0  0  0  0
  146.4609  145.5137  153.6984 H   0  0  0  0  0  0  0  0  0  0  0  0
  145.5005  144.3539  152.7669 H   0  0  0  0  0  0  0  0  0  0  0  0
  145.7290  140.4181  156.5894 H   0  0  0  0  0  0  0  0  0  0  0  0
  145.0512  142.0357  156.7608 H   0  0  0  0  0  0  0  0  0  0  0  0
  146.4709  141.5786  157.7000 H   0  0  0  0  0  0  0  0  0  0  0  0
  148.8585  139.4008  155.5643 H   0  0  0  0  0  0  0  0  0  0  0  0
  148.0047  140.0015  156.9389 H   0  0  0  0  0  0  0  0  0  0  0  0
  149.1160  140.7639  158.6307 H   0  0  0  0  0  0  0  0  0  0  0  0
  150.8041  141.2544  160.0701 H   0  0  0  0  0  0  0  0  0  0  0  0
  152.9811  140.1483  159.6871 H   0  0  0  0  0  0  0  0  0  0  0  0
  152.5569  139.8385  158.0051 H   0  0  0  0  0  0  0  0  0  0  0  0
  151.6660  139.0506  159.3060 H   0  0  0  0  0  0  0  0  0  0  0  0
  152.1624  142.3396  157.5685 H   0  0  0  0  0  0  0  0  0  0  0  0
  150.6132  143.9972  157.5306 H   0  0  0  0  0  0  0  0  0  0  0  0
  149.8668  143.4938  159.0422 H   0  0  0  0  0  0  0  0  0  0  0  0
  151.2814  145.8004  159.0773 H   0  0  0  0  0  0  0  0  0  0  0  0
  151.9912  145.3020  161.3931 H   0  0  0  0  0  0  0  0  0  0  0  0
  150.6080  144.2286  161.1832 H   0  0  0  0  0  0  0  0  0  0  0  0
  153.4392  143.5200  161.4962 H   0  0  0  0  0  0  0  0  0  0  0  0
  152.1054  142.3888  161.3662 H   0  0  0  0  0  0  0  0  0  0  0  0
  153.8873  142.4625  159.3117 H   0  0  0  0  0  0  0  0  0  0  0  0
  153.2362  144.5426  157.8474 H   0  0  0  0  0  0  0  0  0  0  0  0
  153.7855  145.0758  159.4524 H   0  0  0  0  0  0  0  0  0  0  0  0
  1 24  1  0  0  0  0
  1 25  1  0  0  0  0
  1 26  1  0  0  0  0
  1  2  1  0  0  0  0
  2  3  1  0  0  0  0
  2 22  2  0  0  0  0
  3  4  1  0  0  0  0
  3 23  1  0  0  0  0
  4  6  2  0  0  0  0
  4  5  1  0  0  0  0
  5 27  1  0  0  0  0
  5 28  1  0  0  0  0
  5 29  1  0  0  0  0
  6 20  1  0  0  0  0
  6  7  1  0  0  0  0
  7  8  1  0  0  0  0
  7 30  1  0  0  0  0
  7 31  1  0  0  0  0
  8  9  2  0  0  0  0
  8 10  1  0  0  0  0
 10 11  1  0  0  0  0
 10 32  1  0  0  0  0
 11 12  1  0  0  0  0
 11 13  1  0  0  0  0
 11 33  1  0  0  0  0
 12 34  1  0  0  0  0
 12 35  1  0  0  0  0
 12 36  1  0  0  0  0
 13 18  1  0  0  0  0
 13 14  1  0  0  0  0
 13 37  1  0  0  0  0
 14 15  1  0  0  0  0
 14 38  1  0  0  0  0
 14 39  1  0  0  0  0
 15 19  1  0  0  0  0
 15 16  1  0  0  0  0
 15 40  1  0  0  0  0
 16 17  1  0  0  0  0
 16 41  1  0  0  0  0
 16 42  1  0  0  0  0
 17 18  1  0  0  0  0
 17 43  1  0  0  0  0
 17 44  1  0  0  0  0
 18 19  1  0  0  0  0
 18 45  1  0  0  0  0
 19 46  1  0  0  0  0
 19 47  1  0  0  0  0
 20 21  2  0  0  0  0
 20 22  1  0  0  0  0
M  END
> <s_m_source_file>
AV-unprocessed.smi

> <i_m_source_file_index>
2124

> <i_lp_mmshare_version>
43012

> <i_f3d_flags>
0

> <s_epik_input>
W0NIM11jMW5jKFtDSDNdKWMoYyg9TylbbkhdMSlbQ0gyXUMoPU8pW05IXVtDQEhdKFtDSDNdKVtDQEhdKFtDSDJdW0NASF0yMylbQ0BIXShbQ0gyXTMpW0NIMl1bQ0gyXTI=

> <s_epik_cmdline>
J2VwaWtfcHl0aG9uJywgJy1waCcsICc3LjAnLCAnLXRuJywgJzgnLCAnLW1hJywgJzIwMCcsICctbWV0YWxfYmluZGluZycsICctaW1hZScsICc8aW5maWxlLm1hZT4nLCAnLW9tYWUnLCAnPG91dGZpbGUubWFlPic=

> <r_lp_tautomer_probability>
0.156392

> <r_epik_Ionization_Penalty>
0.0139374

> <r_epik_Ionization_Penalty_Charging>
0.0138122

> <r_epik_Ionization_Penalty_Neutral>
0.000125146

> <r_epik_State_Penalty>
1.15342

> <r_epik_Charging_Adjusted_Penalty>
1.16723

> <i_epik_Tot_Q>
0

> <i_epik_Tot_abs_Q>
0

> <r_epik_Metal_State_Penalty>
1.3173

> <b_epik_Metal_Only>
0

> <s_lp_Force_Field>
OPLS_2005

> <r_lp_Energy>
55.9992

> <b_lp_Chiralities_Consistent>
1

> <s_lp_Variant>
AV-unprocessed.smi:2124-16

> <Gold.Version>
5.8.1

> <Gold.Id.Protein>
6NUR|6NUR_protein|mol2

> <Gold.PLP.Fitness>
45.3353

> <Gold.PLP.PLP>
-42.4202

> <Gold.PLP.part.hbond>
-3.1586

> <Gold.PLP.part.metal>
0.0000

> <Gold.PLP.part.buried>
-4.4471

> <Gold.PLP.part.nonpolar>
-35.4073

> <Gold.PLP.part.repulsive>
1.2066

> <Gold.PLP.ligand.clash>
0.0000

> <Gold.PLP.ligand.torsion>
0.2077

> <Gold.PLP.Chemscore.Hbond>
1.1054

> <Gold.PLP.Chemscore.CHOScore>
0.0000

> <Gold.PLP.Chemscore.Metal>
0.0000

> <Gold.Chemscore.Hbonds>
donor molecule, donor type, donor heavy atom, donor atom, acceptor molecule, acceptor atom, score
      P1  H  7989  7998       L1    21  0.14
      P1  H  8011  8017       L1    21  0.20

> <Gold.PLP.Chemscore.Internal.Correction>
0.0144

> <Gold.Rescore>
     Score         DG    S(hbond)    S(metal)    S(lipo)     H(rot)  DE(clash)    DE(int)     intcor
     14.32     -17.35       1.03        0.00     108.26       1.65       0.23       2.80       ----

> <Gold.Chemscore.Fitness>
14.3160

> <Gold.Chemscore.DG>
-17.3455

> <Gold.Chemscore.ZeroCoef>
-5.4800

> <Gold.Chemscore.Hbond>
1.0275

> <Gold.Chemscore.Metal>
0.0000

> <Gold.Chemscore.Lipo>
108.2579

> <Gold.Chemscore.Internal_Hbond>
0.0000

> <Gold.Chemscore.DEClash>
0.2300

> <Gold.Chemscore.DEInternal>
2.7996

> <Gold.Chemscore.Rot>
1.6534

> <Gold.Chemscore.Internal.Correction>
   9.000000E+99

> <Gold.Chemscore.Hbonds>
donor molecule, donor type, donor heavy atom, donor atom, acceptor molecule, acceptor atom, score
      P1  H  7989  7998       L1    21  0.15

> <Gold.Chemscore.Hbond.Weighted>
-3.4320

> <Gold.Chemscore.Metal.Weighted>
-0.0000

> <Gold.Chemscore.Lipo.Weighted>
-12.6662

> <Gold.Chemscore.Internal_Hbond.Weighted>
0.0000

> <Gold.Chemscore.DEClash.Weighted>
0.2300

> <Gold.Chemscore.DEInternal.Weighted>
2.7996

> <Gold.Chemscore.Rot.Weighted>
4.2326

> <Gold.Chemscore.Internal.Correction.Weighted>
   9.000000E+99

> <Gold.Protein.RotatedTorsions>
[ 6907 6896 6895 6894 ] final   30.15 input  -60.11 | X-H torsion
[ 7974 7965 7964 7962 ] final  -93.35 input  175.53 | X-H torsion
[ 8008 7997 7996 7995 ] final   96.07 input   59.86 | X-H torsion
[ 10167 10162 10161 10158 ] final    1.22 input  -65.29 | X-H torsion
[ 10718 10713 10712 10709 ] final   49.18 input   66.30 | X-H torsion
[ 10763 10752 10751 10750 ] final   93.50 input  -60.55 | X-H torsion
[ 11005 11000 10999 10996 ] final   79.72 input  -57.11 | X-H torsion

> <Gold.Protein.ActiveResidues>
 VAL166  LYS551  ARG553  GLY616  TRP617  ASP618  TYR619  PRO620  LYS621  CYS622 
 ASP623  PHE694  ASN695  SER759  ASP760  ASP761  ALA762  ILE779  LEU786  VAL792 
 PHE793  MET794  SER795  GLU796  ALA797  LYS798  CYS799  TRP800  GLU811  SER814 

> <Gold.Protein.RotatedAtoms>
  152.0418  134.9707  160.0573 H   0  0  0  0  0  0  0  0  0  0  0  0  # atno 6907 bound_to 6896
  152.1143  133.4313  159.4653 H   0  0  0  0  0  0  0  0  0  0  0  0  # atno 6908 bound_to 6896
  150.6845  134.2530  159.4562 H   0  0  0  0  0  0  0  0  0  0  0  0  # atno 6909 bound_to 6896
  145.3877  140.9525  143.2358 H   0  0  0  0  0  0  0  0  0  0  0  0  # atno 7974 bound_to 7965
  156.0757  140.3277  155.7631 H   0  0  0  0  0  0  0  0  0  0  0  0  # atno 8008 bound_to 7997
  155.5233  140.0587  157.2920 H   0  0  0  0  0  0  0  0  0  0  0  0  # atno 8009 bound_to 7997
  154.4554  140.1940  156.0412 H   0  0  0  0  0  0  0  0  0  0  0  0  # atno 8010 bound_to 7997
  140.6693  143.7093  150.7890 H   0  0  0  0  0  0  0  0  0  0  0  0  # atno 10167 bound_to 10162
  157.4760  130.8285  149.8040 H   0  0  0  0  0  0  0  0  0  0  0  0  # atno 10718 bound_to 10713
  153.2310  135.4323  155.0595 H   0  0  0  0  0  0  0  0  0  0  0  0  # atno 10763 bound_to 10752
  154.8296  135.3379  154.6787 H   0  0  0  0  0  0  0  0  0  0  0  0  # atno 10764 bound_to 10752
  153.7215  135.7016  153.5068 H   0  0  0  0  0  0  0  0  0  0  0  0  # atno 10765 bound_to 10752
  139.9161  134.7865  156.1816 H   0  0  0  0  0  0  0  0  0  0  0  0  # atno 11005 bound_to 11000
  144.8463  139.5392  143.6877 LP  0  0  0  0  0  0  0  0  0  0  0  0  # atno 17320 bound_to 7965
  146.2812  139.6883  142.9227 LP  0  0  0  0  0  0  0  0  0  0  0  0  # atno 17321 bound_to 7965
  140.0776  143.5000  152.2547 LP  0  0  0  0  0  0  0  0  0  0  0  0  # atno 17342 bound_to 10162
  139.5954  144.7565  151.3299 LP  0  0  0  0  0  0  0  0  0  0  0  0  # atno 17343 bound_to 10162
  156.0097  130.3839  150.2306 LP  0  0  0  0  0  0  0  0  0  0  0  0  # atno 17370 bound_to 10713
  157.0491  131.0057  151.3259 LP  0  0  0  0  0  0  0  0  0  0  0  0  # atno 17371 bound_to 10713
  141.0639  133.6828  156.2005 LP  0  0  0  0  0  0  0  0  0  0  0  0  # atno 17394 bound_to 11000
  140.6617  134.4960  157.5583 LP  0  0  0  0  0  0  0  0  0  0  0  0  # atno 17395 bound_to 11000

$$$$
