AV-unprocessed.smi:266|AV-procd|sdf|2031|dock2
  -GOLD-   2262021233D 1   1.00000     0.00000
 Structure written by MMmdl.
 52 55  0  0  0  0  0  0  0  0  1 V2000
  152.4489  144.5214  157.5054 C   0  0  0  0  0  0  0  0  0  0  0  0
  151.8208  143.9937  158.8047 C   0  0  2  0  0  0  0  0  0  0  0  0
  152.8451  143.9498  159.7947 O   0  0  0  0  0  0  0  0  0  0  0  0
  152.5564  142.9034  160.7050 C   0  0  0  0  0  0  0  0  0  0  0  0
  152.0548  141.8010  159.7855 C   0  0  0  0  0  0  0  0  0  0  0  0
  151.2149  142.5617  158.7619 C   0  0  1  0  0  0  0  0  0  0  0  0
  149.8909  142.6413  159.2643 O   0  0  0  0  0  0  0  0  0  0  0  0
  151.1558  141.8746  157.3717 C   0  0  0  0  0  0  0  0  0  0  0  0
  150.3788  140.6442  157.3735 N   0  0  0  0  0  0  0  0  0  0  0  0
  149.1644  140.4335  156.7627 C   0  0  0  0  0  0  0  0  0  0  0  0
  148.6598  139.2423  156.9282 N   0  0  0  0  0  0  0  0  0  0  0  0
  149.5950  138.5754  157.7124 C   0  0  0  0  0  0  0  0  0  0  0  0
  149.6771  137.2674  158.2762 C   0  0  0  0  0  0  0  0  0  0  0  0
  148.6933  136.3316  158.1765 N   0  0  0  0  0  0  0  0  0  0  0  0
  148.3917  135.7910  156.8533 C   0  0  0  0  0  0  0  0  0  0  0  0
  148.4445  135.4616  159.3277 C   0  0  0  0  0  0  0  0  0  0  0  0
  147.9690  136.2184  160.5872 C   0  0  2  0  0  0  0  0  0  0  0  0
  147.9344  135.2976  161.8227 C   0  0  0  0  0  0  0  0  0  0  0  0
  147.2063  136.0227  162.9580 C   0  0  0  0  0  0  0  0  0  0  0  0
  145.8967  137.0081  162.1446 S   0  0  0  0  0  0  0  0  0  0  0  0
  144.6194  136.2829  162.2192 O   0  0  0  0  0  0  0  0  0  0  0  0
  146.0017  138.4063  162.5887 O   0  0  0  0  0  0  0  0  0  0  0  0
  146.5702  136.8489  160.4482 C   0  0  0  0  0  0  0  0  0  0  0  0
  150.8050  136.9657  158.9750 N   0  0  0  0  0  0  0  0  0  0  0  0
  151.7696  137.8746  159.1382 C   0  0  0  0  0  0  0  0  0  0  0  0
  151.8129  139.1312  158.6953 N   0  0  0  0  0  0  0  0  0  0  0  0
  150.6953  139.4406  157.9788 C   0  0  0  0  0  0  0  0  0  0  0  0
  151.7127  144.5845  156.7038 H   0  0  0  0  0  0  0  0  0  0  0  0
  153.2683  143.8858  157.1690 H   0  0  0  0  0  0  0  0  0  0  0  0
  152.8548  145.5222  157.6543 H   0  0  0  0  0  0  0  0  0  0  0  0
  151.0720  144.7137  159.1402 H   0  0  0  0  0  0  0  0  0  0  0  0
  153.4376  142.6104  161.2759 H   0  0  0  0  0  0  0  0  0  0  0  0
  151.7793  143.2208  161.4020 H   0  0  0  0  0  0  0  0  0  0  0  0
  152.9138  141.3392  159.2975 H   0  0  0  0  0  0  0  0  0  0  0  0
  151.5092  141.0154  160.3111 H   0  0  0  0  0  0  0  0  0  0  0  0
  149.4378  141.8422  159.0429 H   0  0  0  0  0  0  0  0  0  0  0  0
  150.7285  142.5484  156.6277 H   0  0  0  0  0  0  0  0  0  0  0  0
  152.1591  141.6281  157.0245 H   0  0  0  0  0  0  0  0  0  0  0  0
  148.6559  141.1994  156.1951 H   0  0  0  0  0  0  0  0  0  0  0  0
  148.2478  136.5933  156.1286 H   0  0  0  0  0  0  0  0  0  0  0  0
  147.4752  135.2011  156.8788 H   0  0  0  0  0  0  0  0  0  0  0  0
  149.1986  135.1468  156.5025 H   0  0  0  0  0  0  0  0  0  0  0  0
  147.7514  134.6590  159.0868 H   0  0  0  0  0  0  0  0  0  0  0  0
  149.3840  134.9580  159.5576 H   0  0  0  0  0  0  0  0  0  0  0  0
  148.6762  137.0184  160.8106 H   0  0  0  0  0  0  0  0  0  0  0  0
  147.3842  134.3883  161.5764 H   0  0  0  0  0  0  0  0  0  0  0  0
  148.9359  134.9915  162.1264 H   0  0  0  0  0  0  0  0  0  0  0  0
  146.7702  135.3446  163.6919 H   0  0  0  0  0  0  0  0  0  0  0  0
  147.8779  136.7111  163.4711 H   0  0  0  0  0  0  0  0  0  0  0  0
  146.5894  137.8257  159.9648 H   0  0  0  0  0  0  0  0  0  0  0  0
  145.8983  136.1984  159.8878 H   0  0  0  0  0  0  0  0  0  0  0  0
  152.6254  137.5509  159.7120 H   0  0  0  0  0  0  0  0  0  0  0  0
  1  2  1  0  0  0  0
  1 28  1  0  0  0  0
  1 29  1  0  0  0  0
  1 30  1  0  0  0  0
  2  6  1  0  0  0  0
  2  3  1  0  0  0  0
  2 31  1  0  0  0  0
  3  4  1  0  0  0  0
  4  5  1  0  0  0  0
  4 32  1  0  0  0  0
  4 33  1  0  0  0  0
  5  6  1  0  0  0  0
  5 34  1  0  0  0  0
  5 35  1  0  0  0  0
  6  7  1  0  0  0  0
  6  8  1  0  0  0  0
  7 36  1  0  0  0  0
  8  9  1  0  0  0  0
  8 37  1  0  0  0  0
  8 38  1  0  0  0  0
  9 27  1  0  0  0  0
  9 10  1  0  0  0  0
 10 11  2  0  0  0  0
 10 39  1  0  0  0  0
 11 12  1  0  0  0  0
 12 27  2  0  0  0  0
 12 13  1  0  0  0  0
 13 14  1  0  0  0  0
 13 24  2  0  0  0  0
 14 15  1  0  0  0  0
 14 16  1  0  0  0  0
 15 40  1  0  0  0  0
 15 41  1  0  0  0  0
 15 42  1  0  0  0  0
 16 17  1  0  0  0  0
 16 43  1  0  0  0  0
 16 44  1  0  0  0  0
 17 23  1  0  0  0  0
 17 18  1  0  0  0  0
 17 45  1  0  0  0  0
 18 19  1  0  0  0  0
 18 46  1  0  0  0  0
 18 47  1  0  0  0  0
 19 20  1  0  0  0  0
 19 48  1  0  0  0  0
 19 49  1  0  0  0  0
 20 21  2  0  0  0  0
 20 22  2  0  0  0  0
 20 23  1  0  0  0  0
 23 50  1  0  0  0  0
 23 51  1  0  0  0  0
 24 25  1  0  0  0  0
 25 26  2  0  0  0  0
 25 52  1  0  0  0  0
 26 27  1  0  0  0  0
M  END
> <s_m_source_file>
AV-unprocessed.smi

> <i_m_source_file_index>
266

> <i_lp_mmshare_version>
43012

> <i_f3d_flags>
0

> <s_epik_input>
W0NIMl0xW0NIMl1PW0NAQEhdKFtDSDNdKVtDQEBdMShbT0hdKVtDSDJdbihbY0hdbjIpYyhjMjMpbltjSF1uYzNOKFtDSDNdKVtDSDJdW0NAQEhdKFtDSDJdNClbQ0gyXVtDSDJdUzQoPU8pPU8=

> <s_epik_cmdline>
J2VwaWtfcHl0aG9uJywgJy1waCcsICc3LjAnLCAnLXRuJywgJzgnLCAnLW1hJywgJzIwMCcsICctbWV0YWxfYmluZGluZycsICctaW1hZScsICc8aW5maWxlLm1hZT4nLCAnLW9tYWUnLCAnPG91dGZpbGUubWFlPic=

> <r_lp_tautomer_probability>
1

> <r_epik_Ionization_Penalty>
0.00155497

> <r_epik_Ionization_Penalty_Charging>
0

> <r_epik_Ionization_Penalty_Neutral>
0.00155497

> <r_epik_State_Penalty>
-0

> <r_epik_Charging_Adjusted_Penalty>
0

> <i_epik_Tot_Q>
0

> <i_epik_Tot_abs_Q>
0

> <r_epik_Metal_State_Penalty>
-0

> <b_epik_Metal_Only>
0

> <s_lp_Force_Field>
OPLS_2005

> <r_lp_Energy>
29.5809

> <b_lp_Chiralities_Consistent>
1

> <s_lp_Variant>
AV-unprocessed.smi:266-1

> <Gold.Version>
5.8.1

> <Gold.Id.Protein>
6NUR|6NUR_protein|mol2

> <Gold.PLP.Fitness>
44.8776

> <Gold.PLP.PLP>
-43.0286

> <Gold.PLP.part.hbond>
-3.7014

> <Gold.PLP.part.metal>
0.0000

> <Gold.PLP.part.buried>
-8.0793

> <Gold.PLP.part.nonpolar>
-31.8155

> <Gold.PLP.part.repulsive>
0.0135

> <Gold.PLP.ligand.clash>
0.0000

> <Gold.PLP.ligand.torsion>
1.2641

> <Gold.PLP.Chemscore.Hbond>
1.2569

> <Gold.PLP.Chemscore.CHOScore>
0.0000

> <Gold.PLP.Chemscore.Metal>
0.0000

> <Gold.Chemscore.Hbonds>
donor molecule, donor type, donor heavy atom, donor atom, acceptor molecule, acceptor atom, score
      P1  H  6896  6907       L1    24  0.80
      P1  H  6934  6947       L1    22  0.17

> <Gold.PLP.Chemscore.Internal.Correction>
0.6063

> <Gold.Rescore>
     Score         DG    S(hbond)    S(metal)    S(lipo)     H(rot)  DE(clash)    DE(int)     intcor
     12.47     -14.02       1.07        0.00      96.12       2.45       0.01       1.54       ----

> <Gold.Chemscore.Fitness>
12.4742

> <Gold.Chemscore.DG>
-14.0220

> <Gold.Chemscore.ZeroCoef>
-5.4800

> <Gold.Chemscore.Hbond>
1.0662

> <Gold.Chemscore.Metal>
0.0000

> <Gold.Chemscore.Lipo>
96.1155

> <Gold.Chemscore.Internal_Hbond>
0.0000

> <Gold.Chemscore.DEClash>
0.0126

> <Gold.Chemscore.DEInternal>
1.5352

> <Gold.Chemscore.Rot>
2.4471

> <Gold.Chemscore.Internal.Correction>
   9.000000E+99

> <Gold.Chemscore.Hbonds>
donor molecule, donor type, donor heavy atom, donor atom, acceptor molecule, acceptor atom, score
      P1  H  6896  6907       L1    24  0.73
      P1  H  6934  6947       L1    22  0.02

> <Gold.Chemscore.Hbond.Weighted>
-3.5610

> <Gold.Chemscore.Metal.Weighted>
-0.0000

> <Gold.Chemscore.Lipo.Weighted>
-11.2455

> <Gold.Chemscore.Internal_Hbond.Weighted>
0.0000

> <Gold.Chemscore.DEClash.Weighted>
0.0126

> <Gold.Chemscore.DEInternal.Weighted>
1.5352

> <Gold.Chemscore.Rot.Weighted>
6.2645

> <Gold.Chemscore.Internal.Correction.Weighted>
   9.000000E+99

> <Gold.Protein.RotatedTorsions>
[ 6907 6896 6895 6894 ] final  -33.19 input  -60.11 | X-H torsion
[ 7974 7965 7964 7962 ] final   18.86 input  175.53 | X-H torsion
[ 8008 7997 7996 7995 ] final -151.38 input   59.86 | X-H torsion
[ 10167 10162 10161 10158 ] final  150.15 input  -65.29 | X-H torsion
[ 10718 10713 10712 10709 ] final   95.20 input   66.30 | X-H torsion
[ 10763 10752 10751 10750 ] final   85.43 input  -60.55 | X-H torsion
[ 11005 11000 10999 10996 ] final  -80.64 input  -57.11 | X-H torsion

> <Gold.Protein.ActiveResidues>
 VAL166  LYS551  ARG553  GLY616  TRP617  ASP618  TYR619  PRO620  LYS621  CYS622 
 ASP623  PHE694  ASN695  SER759  ASP760  ASP761  ALA762  ILE779  LEU786  VAL792 
 PHE793  MET794  SER795  GLU796  ALA797  LYS798  CYS799  TRP800  GLU811  SER814 

> <Gold.Protein.RotatedAtoms>
  151.0688  134.9785  159.8297 H   0  0  0  0  0  0  0  0  0  0  0  0  # atno 6907 bound_to 6896
  152.5405  134.2325  159.8840 H   0  0  0  0  0  0  0  0  0  0  0  0  # atno 6908 bound_to 6896
  151.2349  133.4387  159.2638 H   0  0  0  0  0  0  0  0  0  0  0  0  # atno 6909 bound_to 6896
  146.2170  139.8396  142.8643 H   0  0  0  0  0  0  0  0  0  0  0  0  # atno 7974 bound_to 7965
  155.6384  140.0699  157.2626 H   0  0  0  0  0  0  0  0  0  0  0  0  # atno 8008 bound_to 7997
  154.4189  140.1755  156.1596 H   0  0  0  0  0  0  0  0  0  0  0  0  # atno 8009 bound_to 7997
  155.9876  140.3348  155.6725 H   0  0  0  0  0  0  0  0  0  0  0  0  # atno 8010 bound_to 7997
  139.4853  144.5545  151.7342 H   0  0  0  0  0  0  0  0  0  0  0  0  # atno 10167 bound_to 10162
  157.6941  131.0537  150.4302 H   0  0  0  0  0  0  0  0  0  0  0  0  # atno 10718 bound_to 10713
  153.1474  135.4617  154.9587 H   0  0  0  0  0  0  0  0  0  0  0  0  # atno 10763 bound_to 10752
  154.7797  135.3184  154.8018 H   0  0  0  0  0  0  0  0  0  0  0  0  # atno 10764 bound_to 10752
  153.8529  135.6920  153.4845 H   0  0  0  0  0  0  0  0  0  0  0  0  # atno 10765 bound_to 10752
  141.1667  133.7159  156.8303 H   0  0  0  0  0  0  0  0  0  0  0  0  # atno 11005 bound_to 11000
  145.2913  141.0168  143.3661 LP  0  0  0  0  0  0  0  0  0  0  0  0  # atno 17320 bound_to 7965
  144.9075  139.4570  143.6603 LP  0  0  0  0  0  0  0  0  0  0  0  0  # atno 17321 bound_to 7965
  140.5104  144.1033  150.5994 LP  0  0  0  0  0  0  0  0  0  0  0  0  # atno 17342 bound_to 10162
  140.3957  143.2729  152.0007 LP  0  0  0  0  0  0  0  0  0  0  0  0  # atno 17343 bound_to 10162
  156.4669  130.4044  149.6542 LP  0  0  0  0  0  0  0  0  0  0  0  0  # atno 17370 bound_to 10713
  156.3636  130.7494  151.2469 LP  0  0  0  0  0  0  0  0  0  0  0  0  # atno 17371 bound_to 10713
  140.2056  134.8865  157.3217 LP  0  0  0  0  0  0  0  0  0  0  0  0  # atno 17394 bound_to 11000
  140.2141  134.4103  155.7598 LP  0  0  0  0  0  0  0  0  0  0  0  0  # atno 17395 bound_to 11000

$$$$
