#       Name:                AV-unprocessed.smi:555
#       Creating user name   scv26
#       Creation time:       Thu Mar 26 23:40:19 2020


#       File generated by GOLD software.
#

@<TRIPOS>MOLECULE
AV-unprocessed.smi:555
    57    58     1
SMALL
NO_CHARGES


@<TRIPOS>ATOM
      1 ****        -4.8970  -2.4685   1.1464 C.3            1 S1                 0.0000
      2 ****        -4.6321  -1.6653   0.0096 O.3            1 S1                 0.0000
      3 ****        -4.1214  -0.3889   0.3544 C.3            1 S1                 0.0000
      4 ****        -3.8670   0.4093  -0.9331 C.3            1 S1                 0.0000
      5 ****        -3.2793   1.7210  -0.6438 N.am           1 S1                 0.0000
      6 ****        -1.8974   1.7486  -0.7237 N.2            1 S1                 0.0000
      7 ****        -1.2536   2.8438  -0.4783 C.2            1 S1                 0.0000
      8 ****         0.2325   2.9103  -0.5470 C.2            1 S1                 0.0000
      9 ****         0.8525   3.9423  -0.2865 O.2            1 S1                 0.0000
     10 ****         0.8409   1.7657  -0.9067 N.am           1 S1                 0.0000
     11 ****         2.2838   1.5722  -1.0375 C.3            1 S1                 0.0000
     12 ****         2.5840   0.3561  -1.9225 C.3            1 S1                 0.0000
     13 ****         2.2025  -0.9702  -1.2393 C.3            1 S1                 0.0000
     14 ****         2.8622  -1.1340   0.0904 N.4            1 S1                 1.0000
     15 ****         2.5787  -2.4548   0.7437 C.3            1 S1                 0.0000
     16 ****         3.3944  -2.6528   2.0391 C.3            1 S1                 0.0000
     17 ****         2.8483  -3.6556  -0.1885 C.3            1 S1                 0.0000
     18 ****         2.5651   0.0308   0.9757 C.3            1 S1                 0.0000
     19 ****         2.9595   1.3699   0.3279 C.3            1 S1                 0.0000
     20 ****        -1.9629   4.0598  -0.1184 C.2            1 S1                 0.0000
     21 ****        -3.3112   4.0159  -0.0406 C.2            1 S1                 0.0000
     22 ****        -4.0637   2.7888  -0.3067 C.2            1 S1                 0.0000
     23 ****        -5.2899   2.7207  -0.2298 O.2            1 S1                 0.0000
     24 ****        -5.2883  -3.4350   0.8289 H              1 S1                 0.0000
     25 ****        -5.6393  -2.0019   1.7954 H              1 S1                 0.0000
     26 ****        -3.9890  -2.6467   1.7238 H              1 S1                 0.0000
     27 ****        -4.8327   0.1366   0.9936 H              1 S1                 0.0000
     28 ****        -3.1925  -0.5008   0.9161 H              1 S1                 0.0000
     29 ****        -3.2004  -0.1584  -1.5850 H              1 S1                 0.0000
     30 ****        -4.7957   0.5206  -1.4954 H              1 S1                 0.0000
     31 ****         0.2524   0.9702  -1.1094 H              1 S1                 0.0000
     32 ****         2.7052   2.4575  -1.5169 H              1 S1                 0.0000
     33 ****         2.0629   0.4476  -2.8764 H              1 S1                 0.0000
     34 ****         3.6484   0.3402  -2.1610 H              1 S1                 0.0000
     35 ****         1.1201  -1.0398  -1.1203 H              1 S1                 0.0000
     36 ****         2.4984  -1.7662  -1.9200 H              1 S1                 0.0000
     37 ****         1.5201  -2.4770   1.0083 H              1 S1                 0.0000
     38 ****         3.2717  -3.6636   2.4297 H              1 S1                 0.0000
     39 ****         3.0760  -1.9858   2.8391 H              1 S1                 0.0000
     40 ****         4.4597  -2.4965   1.8664 H              1 S1                 0.0000
     41 ****         2.7589  -4.5990   0.3510 H              1 S1                 0.0000
     42 ****         3.8526  -3.6153  -0.6119 H              1 S1                 0.0000
     43 ****         2.1314  -3.7129  -1.0074 H              1 S1                 0.0000
     44 ****         1.5048   0.0320   1.2337 H              1 S1                 0.0000
     45 ****         3.1163  -0.0404   1.9112 H              1 S1                 0.0000
     46 ****         4.0423   1.3973   0.1987 H              1 S1                 0.0000
     47 ****         2.7179   2.1946   0.9995 H              1 S1                 0.0000
     48 ****        -1.4332   4.9800   0.0827 H              1 S1                 0.0000
     49 ****        -3.8518   4.9123   0.2258 H              1 S1                 0.0000
     50 ****         3.8570  -1.1125  -0.0845 H              1 S1                 0.0000
     51 ****        -5.4826  -1.5430  -0.5020 LP             1 S1                 0.0000
     52 ****        -3.9618  -2.1344  -0.5654 LP             1 S1                 0.0000
     53 ****        -1.3956   0.9199  -0.9717 LP             1 S1                 0.0000
     54 ****         0.3574   4.7690  -0.0192 LP             1 S1                 0.0000
     55 ****         1.8508   3.9533  -0.3423 LP             1 S1                 0.0000
     56 ****        -5.7555   1.8558  -0.4180 LP             1 S1                 0.0000
     57 ****        -5.8209   3.5301   0.0208 LP             1 S1                 0.0000
@<TRIPOS>BOND
    1    1    2 1     
    2    1   24 1     
    3    1   25 1     
    4    1   26 1     
    5    2    3 1     
    6    3    4 1     
    7    3   27 1     
    8    3   28 1     
    9    4    5 1     
   10    4   29 1     
   11    4   30 1     
   12    5   22 am    
   13    5    6 1     
   14    6    7 2     
   15    7    8 1     
   16    7   20 1     
   17    8    9 2     
   18    8   10 am    
   19   10   11 1     
   20   10   31 1     
   21   11   19 1     
   22   11   12 1     
   23   11   32 1     
   24   12   13 1     
   25   12   33 1     
   26   12   34 1     
   27   13   14 1     
   28   13   35 1     
   29   13   36 1     
   30   14   15 1     
   31   14   18 1     
   32   14   50 1     
   33   15   16 1     
   34   15   17 1     
   35   15   37 1     
   36   16   38 1     
   37   16   39 1     
   38   16   40 1     
   39   17   41 1     
   40   17   42 1     
   41   17   43 1     
   42   18   19 1     
   43   18   44 1     
   44   18   45 1     
   45   19   46 1     
   46   19   47 1     
   47   20   21 2     
   48   20   48 1     
   49   21   22 1     
   50   21   49 1     
   51   22   23 2     
   52    2   51 1     
   53    2   52 1     
   54    6   53 1     
   55    9   54 1     
   56    9   55 1     
   57   23   56 1     
   58   23   57 1     
@<TRIPOS>SUBSTRUCTURE
      1 S1             1
@<TRIPOS>SET
LONE_PAIRS      STATIC     ATOMS    <user>   **** ""
7 51 52 53 54 55 56 57
DONOR_HYDROGENS      STATIC     ATOMS    <user>   **** ""
2 31 50
ATOM$BLUE        STATIC     ATOMS    COLORGROUP SYSTEM
7 51 52 53 54 55 56 57
ATOM$RED        STATIC     ATOMS    COLORGROUP SYSTEM
2 31 50
