AV-unprocessed.smi:3336|AV-procd|sdf|12858|dock3
  -GOLD-   2272019253D 1   1.00000     0.00000
 Structure written by MMmdl.
 41 42  0  0  0  0  0  0  0  0  1 V2000
  150.5117  141.9835  157.9912 C   0  0  0  0  0  0  0  0  0  0  0  0
  151.8011  141.2026  158.2937 C   0  0  1  0  0  0  0  0  0  0  0  0
  152.5840  141.7542  159.5020 C   0  0  0  0  0  0  0  0  0  0  0  0
  152.3744  143.1771  159.7016 N   0  0  0  0  0  0  0  0  0  0  0  0
  152.5330  144.1985  158.7891 C   0  0  0  0  0  0  0  0  0  0  0  0
  152.2249  145.3655  159.4273 C   0  0  0  0  0  0  0  0  0  0  0  0
  151.8854  144.9503  160.7454 C   0  0  0  0  0  0  0  0  0  0  0  0
  151.9779  143.6402  160.9073 N   0  0  0  0  0  0  0  0  0  0  0  0
  151.4423  139.8178  158.5846 N   0  0  0  0  0  0  0  0  0  0  0  0
  152.5305  138.8514  158.3490 C   0  0  2  0  0  0  0  0  0  0  0  0
  152.3658  138.1722  156.9737 C   0  0  0  0  0  0  0  0  0  0  0  0
  152.5724  137.7822  159.4628 C   0  0  0  0  0  0  0  0  0  0  0  0
  151.5666  137.0937  159.6496 O   0  0  0  0  0  0  0  0  0  0  0  0
  153.6953  137.6167  160.2079 N   0  0  0  0  0  0  0  0  0  0  0  0
  153.8619  136.7355  161.3706 C   0  0  0  0  0  0  0  0  0  0  0  0
  154.1549  137.6049  162.6072 C   0  0  0  0  0  0  0  0  0  0  0  0
  155.3146  138.3998  162.3769 O   0  0  0  0  0  0  0  0  0  0  0  0
  155.1860  139.2526  161.2431 C   0  0  0  0  0  0  0  0  0  0  0  0
  154.9155  138.4022  159.9898 C   0  0  0  0  0  0  0  0  0  0  0  0
  150.7289  143.0152  157.7139 H   0  0  0  0  0  0  0  0  0  0  0  0
  149.8469  142.0050  158.8555 H   0  0  0  0  0  0  0  0  0  0  0  0
  149.9651  141.5355  157.1606 H   0  0  0  0  0  0  0  0  0  0  0  0
  152.4458  141.2616  157.4154 H   0  0  0  0  0  0  0  0  0  0  0  0
  152.3056  141.2235  160.4145 H   0  0  0  0  0  0  0  0  0  0  0  0
  153.6536  141.5907  159.3628 H   0  0  0  0  0  0  0  0  0  0  0  0
  152.8478  144.0108  157.7730 H   0  0  0  0  0  0  0  0  0  0  0  0
  152.2398  146.3638  159.0157 H   0  0  0  0  0  0  0  0  0  0  0  0
  151.5777  145.5581  161.5835 H   0  0  0  0  0  0  0  0  0  0  0  0
  150.6012  139.5636  158.0863 H   0  0  0  0  0  0  0  0  0  0  0  0
  153.4629  139.4135  158.3862 H   0  0  0  0  0  0  0  0  0  0  0  0
  153.1355  137.4211  156.7971 H   0  0  0  0  0  0  0  0  0  0  0  0
  152.4336  138.8915  156.1578 H   0  0  0  0  0  0  0  0  0  0  0  0
  151.3988  137.6740  156.8917 H   0  0  0  0  0  0  0  0  0  0  0  0
  153.0019  136.1063  161.5856 H   0  0  0  0  0  0  0  0  0  0  0  0
  154.6928  136.0528  161.1867 H   0  0  0  0  0  0  0  0  0  0  0  0
  153.3049  138.2479  162.8412 H   0  0  0  0  0  0  0  0  0  0  0  0
  154.3272  136.9746  163.4796 H   0  0  0  0  0  0  0  0  0  0  0  0
  154.3836  139.9740  161.4054 H   0  0  0  0  0  0  0  0  0  0  0  0
  156.1087  139.8205  161.1228 H   0  0  0  0  0  0  0  0  0  0  0  0
  155.7519  137.7256  159.8085 H   0  0  0  0  0  0  0  0  0  0  0  0
  154.8599  139.0493  159.1137 H   0  0  0  0  0  0  0  0  0  0  0  0
  1  2  1  0  0  0  0
  1 20  1  0  0  0  0
  1 21  1  0  0  0  0
  1 22  1  0  0  0  0
  2  3  1  0  0  0  0
  2  9  1  0  0  0  0
  2 23  1  0  0  0  0
  3  4  1  0  0  0  0
  3 24  1  0  0  0  0
  3 25  1  0  0  0  0
  4  8  1  0  0  0  0
  4  5  1  0  0  0  0
  5  6  2  0  0  0  0
  5 26  1  0  0  0  0
  6  7  1  0  0  0  0
  6 27  1  0  0  0  0
  7  8  2  0  0  0  0
  7 28  1  0  0  0  0
  9 10  1  0  0  0  0
  9 29  1  0  0  0  0
 10 11  1  0  0  0  0
 10 12  1  0  0  0  0
 10 30  1  0  0  0  0
 11 31  1  0  0  0  0
 11 32  1  0  0  0  0
 11 33  1  0  0  0  0
 12 13  2  0  0  0  0
 12 14  1  0  0  0  0
 14 19  1  0  0  0  0
 14 15  1  0  0  0  0
 15 16  1  0  0  0  0
 15 34  1  0  0  0  0
 15 35  1  0  0  0  0
 16 17  1  0  0  0  0
 16 36  1  0  0  0  0
 16 37  1  0  0  0  0
 17 18  1  0  0  0  0
 18 19  1  0  0  0  0
 18 38  1  0  0  0  0
 18 39  1  0  0  0  0
 19 40  1  0  0  0  0
 19 41  1  0  0  0  0
M  END
> <s_m_source_file>
AV-unprocessed.smi

> <i_m_source_file_index>
3336

> <i_lp_mmshare_version>
43012

> <i_f3d_flags>
0

> <s_epik_input>
bjFbY0hdW2NIXVtjSF1uMVtDSDJdW0NAQEhdKFtDSDNdKVtOSF1bQ0BIXShbQ0gzXSlDKD1PKU4yW0NIMl1bQ0gyXU9bQ0gyXVtDSDJdMg==

> <s_epik_cmdline>
J2VwaWtfcHl0aG9uJywgJy1waCcsICc3LjAnLCAnLXRuJywgJzgnLCAnLW1hJywgJzIwMCcsICctbWV0YWxfYmluZGluZycsICctaW1hZScsICc8aW5maWxlLm1hZT4nLCAnLW9tYWUnLCAnPG91dGZpbGUubWFlPic=

> <r_lp_tautomer_probability>
1

> <r_epik_Ionization_Penalty>
0.739958

> <r_epik_Ionization_Penalty_Charging>
0

> <r_epik_Ionization_Penalty_Neutral>
0.739958

> <r_epik_State_Penalty>
0.765967

> <r_epik_Charging_Adjusted_Penalty>
0.765967

> <i_epik_Tot_Q>
0

> <i_epik_Tot_abs_Q>
0

> <r_epik_Metal_State_Penalty>
0.765947

> <b_epik_Metal_Only>
0

> <s_lp_Force_Field>
OPLS_2005

> <r_lp_Energy>
30.7433

> <b_lp_Chiralities_Consistent>
1

> <s_lp_Variant>
AV-unprocessed.smi:3336-6

> <Gold.Version>
5.8.1

> <Gold.Id.Protein>
6NUR|6NUR_protein|mol2

> <Gold.PLP.Fitness>
39.1557

> <Gold.PLP.PLP>
-38.4572

> <Gold.PLP.part.hbond>
-0.9975

> <Gold.PLP.part.metal>
0.0000

> <Gold.PLP.part.buried>
-5.7781

> <Gold.PLP.part.nonpolar>
-31.5005

> <Gold.PLP.part.repulsive>
0.0865

> <Gold.PLP.ligand.clash>
0.0000

> <Gold.PLP.ligand.torsion>
1.2571

> <Gold.PLP.Chemscore.Hbond>
1.0000

> <Gold.PLP.Chemscore.CHOScore>
0.0000

> <Gold.PLP.Chemscore.Metal>
0.0000

> <Gold.Chemscore.Hbonds>
donor molecule, donor type, donor heavy atom, donor atom, acceptor molecule, acceptor atom, score
      P1  H  6896  6907       L1    13  1.00

> <Gold.PLP.Chemscore.Internal.Correction>
0.2127

> <Gold.Rescore>
     Score         DG    S(hbond)    S(metal)    S(lipo)     H(rot)  DE(clash)    DE(int)     intcor
     14.30     -15.57       0.98        0.00      97.39       1.79       0.01       1.26       ----

> <Gold.Chemscore.Fitness>
14.2975

> <Gold.Chemscore.DG>
-15.5667

> <Gold.Chemscore.ZeroCoef>
-5.4800

> <Gold.Chemscore.Hbond>
0.9830

> <Gold.Chemscore.Metal>
0.0000

> <Gold.Chemscore.Lipo>
97.3901

> <Gold.Chemscore.Internal_Hbond>
0.0000

> <Gold.Chemscore.DEClash>
0.0063

> <Gold.Chemscore.DEInternal>
1.2630

> <Gold.Chemscore.Rot>
1.7935

> <Gold.Chemscore.Internal.Correction>
   9.000000E+99

> <Gold.Chemscore.Hbonds>
donor molecule, donor type, donor heavy atom, donor atom, acceptor molecule, acceptor atom, score
      P1  H  6896  6907       L1    13  0.99

> <Gold.Chemscore.Hbond.Weighted>
-3.2833

> <Gold.Chemscore.Metal.Weighted>
-0.0000

> <Gold.Chemscore.Lipo.Weighted>
-11.3946

> <Gold.Chemscore.Internal_Hbond.Weighted>
0.0000

> <Gold.Chemscore.DEClash.Weighted>
0.0063

> <Gold.Chemscore.DEInternal.Weighted>
1.2630

> <Gold.Chemscore.Rot.Weighted>
4.5912

> <Gold.Chemscore.Internal.Correction.Weighted>
   9.000000E+99

> <Gold.Protein.RotatedTorsions>
[ 6907 6896 6895 6894 ] final   -3.11 input  -60.11 | X-H torsion
[ 7974 7965 7964 7962 ] final  -73.37 input  175.53 | X-H torsion
[ 8008 7997 7996 7995 ] final   67.34 input   59.86 | X-H torsion
[ 10167 10162 10161 10158 ] final  -62.50 input  -65.29 | X-H torsion
[ 10718 10713 10712 10709 ] final  -35.96 input   66.30 | X-H torsion
[ 10763 10752 10751 10750 ] final  -45.72 input  -60.55 | X-H torsion
[ 11005 11000 10999 10996 ] final  175.79 input  -57.11 | X-H torsion

> <Gold.Protein.ActiveResidues>
 VAL166  LYS551  ARG553  GLY616  TRP617  ASP618  TYR619  PRO620  LYS621  CYS622 
 ASP623  PHE694  ASN695  SER759  ASP760  ASP761  ALA762  ILE779  LEU786  VAL792 
 PHE793  MET794  SER795  GLU796  ALA797  LYS798  CYS799  TRP800  GLU811  SER814 

> <Gold.Protein.RotatedAtoms>
  151.5191  135.1067  159.9873 H   0  0  0  0  0  0  0  0  0  0  0  0  # atno 6907 bound_to 6896
  152.4628  133.7855  159.6884 H   0  0  0  0  0  0  0  0  0  0  0  0  # atno 6908 bound_to 6896
  150.8598  133.7596  159.3021 H   0  0  0  0  0  0  0  0  0  0  0  0  # atno 6909 bound_to 6896
  145.6530  140.9277  143.0975 H   0  0  0  0  0  0  0  0  0  0  0  0  # atno 7974 bound_to 7965
  155.6914  140.3496  155.4895 H   0  0  0  0  0  0  0  0  0  0  0  0  # atno 8008 bound_to 7997
  155.9521  140.1121  157.0990 H   0  0  0  0  0  0  0  0  0  0  0  0  # atno 8009 bound_to 7997
  154.4124  140.1192  156.5052 H   0  0  0  0  0  0  0  0  0  0  0  0  # atno 8010 bound_to 7997
  140.5935  143.2346  151.6087 H   0  0  0  0  0  0  0  0  0  0  0  0  # atno 10167 bound_to 10162
  156.3324  130.4281  149.7860 H   0  0  0  0  0  0  0  0  0  0  0  0  # atno 10718 bound_to 10713
  154.0332  135.6654  153.4782 H   0  0  0  0  0  0  0  0  0  0  0  0  # atno 10763 bound_to 10752
  153.0532  135.5072  154.7913 H   0  0  0  0  0  0  0  0  0  0  0  0  # atno 10764 bound_to 10752
  154.6865  135.3054  154.9505 H   0  0  0  0  0  0  0  0  0  0  0  0  # atno 10765 bound_to 10752
  140.3660  134.7071  157.4362 H   0  0  0  0  0  0  0  0  0  0  0  0  # atno 11005 bound_to 11000
  144.7116  139.8350  143.7413 LP  0  0  0  0  0  0  0  0  0  0  0  0  # atno 17320 bound_to 7965
  146.1188  139.4203  143.0241 LP  0  0  0  0  0  0  0  0  0  0  0  0  # atno 17321 bound_to 7965
  139.5243  144.3108  152.0994 LP  0  0  0  0  0  0  0  0  0  0  0  0  # atno 17342 bound_to 10162
  140.2277  144.4401  150.6314 LP  0  0  0  0  0  0  0  0  0  0  0  0  # atno 17343 bound_to 10162
  156.5127  130.8179  151.3175 LP  0  0  0  0  0  0  0  0  0  0  0  0  # atno 17370 bound_to 10713
  157.7433  130.9908  150.2580 LP  0  0  0  0  0  0  0  0  0  0  0  0  # atno 17371 bound_to 10713
  140.0589  134.6024  155.8772 LP  0  0  0  0  0  0  0  0  0  0  0  0  # atno 17394 bound_to 11000
  141.1969  133.6594  156.5716 LP  0  0  0  0  0  0  0  0  0  0  0  0  # atno 17395 bound_to 11000

$$$$
