AV-unprocessed.smi:3322|AV-procd|sdf|12773|dock3
  -GOLD-   2272019113D 1   1.00000     0.00000
 Structure written by MMmdl.
 39 40  0  0  0  0  0  0  0  0  2 V2000
  149.8130  142.9667  158.6677 C   0  0  0  0  0  0  0  0  0  0  0  0
  151.0011  142.8904  157.6939 C   0  0  2  0  0  0  0  0  0  0  0  0
  150.5332  142.3358  156.4010 N   0  3  0  0  0  0  0  0  0  0  0  0
  149.9586  140.9753  156.4716 C   0  0  0  0  0  0  0  0  0  0  0  0
  149.7888  140.3772  155.0681 C   0  0  0  0  0  0  0  0  0  0  0  0
  148.5161  140.7456  154.4791 N   0  0  0  0  0  0  0  0  0  0  0  0
  147.9543  141.9996  154.3622 C   0  0  0  0  0  0  0  0  0  0  0  0
  146.7503  141.8478  153.7361 C   0  0  0  0  0  0  0  0  0  0  0  0
  146.6639  140.4466  153.5039 C   0  0  0  0  0  0  0  0  0  0  0  0
  147.7232  139.7896  153.9489 N   0  0  0  0  0  0  0  0  0  0  0  0
  152.1397  142.0435  158.3046 C   0  0  0  0  0  0  0  0  0  0  0  0
  152.3767  140.9445  157.7990 O   0  0  0  0  0  0  0  0  0  0  0  0
  152.8418  142.5068  159.3694 N   0  0  0  0  0  0  0  0  0  0  0  0
  152.5974  143.7485  160.1135 C   0  0  0  0  0  0  0  0  0  0  0  0
  152.2350  143.3881  161.5662 C   0  0  0  0  0  0  0  0  0  0  0  0
  153.2817  142.6176  162.1495 O   0  0  0  0  0  0  0  0  0  0  0  0
  153.5476  141.4131  161.4372 C   0  0  0  0  0  0  0  0  0  0  0  0
  153.9373  141.7510  159.9877 C   0  0  0  0  0  0  0  0  0  0  0  0
  150.0993  143.4026  159.6248 H   0  0  0  0  0  0  0  0  0  0  0  0
  149.3967  141.9783  158.8675 H   0  0  0  0  0  0  0  0  0  0  0  0
  149.0131  143.5847  158.2589 H   0  0  0  0  0  0  0  0  0  0  0  0
  151.3527  143.8995  157.4814 H   0  0  0  0  0  0  0  0  0  0  0  0
  149.8439  142.9661  156.0157 H   0  0  0  0  0  0  0  0  0  0  0  0
  150.6140  140.3426  157.0719 H   0  0  0  0  0  0  0  0  0  0  0  0
  148.9920  141.0075  156.9757 H   0  0  0  0  0  0  0  0  0  0  0  0
  150.5879  140.7212  154.4098 H   0  0  0  0  0  0  0  0  0  0  0  0
  149.8524  139.2885  155.1031 H   0  0  0  0  0  0  0  0  0  0  0  0
  148.4504  142.8857  154.7302 H   0  0  0  0  0  0  0  0  0  0  0  0
  146.0398  142.6202  153.4814 H   0  0  0  0  0  0  0  0  0  0  0  0
  145.8689  139.8912  153.0283 H   0  0  0  0  0  0  0  0  0  0  0  0
  153.5006  144.3604  160.0943 H   0  0  0  0  0  0  0  0  0  0  0  0
  151.8079  144.3711  159.7006 H   0  0  0  0  0  0  0  0  0  0  0  0
  152.0948  144.2943  162.1557 H   0  0  0  0  0  0  0  0  0  0  0  0
  151.2972  142.8322  161.6072 H   0  0  0  0  0  0  0  0  0  0  0  0
  154.3605  140.8817  161.9330 H   0  0  0  0  0  0  0  0  0  0  0  0
  152.6735  140.7605  161.4652 H   0  0  0  0  0  0  0  0  0  0  0  0
  154.1821  140.8328  159.4526 H   0  0  0  0  0  0  0  0  0  0  0  0
  154.8451  142.3562  159.9754 H   0  0  0  0  0  0  0  0  0  0  0  0
  151.3233  142.2990  155.7731 H   0  0  0  0  0  0  0  0  0  0  0  0
  1  2  1  0  0  0  0
  1 19  1  0  0  0  0
  1 20  1  0  0  0  0
  1 21  1  0  0  0  0
  2  3  1  0  0  0  0
  2 11  1  0  0  0  0
  2 22  1  0  0  0  0
  3  4  1  0  0  0  0
  3 23  1  0  0  0  0
  3 39  1  0  0  0  0
  4  5  1  0  0  0  0
  4 24  1  0  0  0  0
  4 25  1  0  0  0  0
  5  6  1  0  0  0  0
  5 26  1  0  0  0  0
  5 27  1  0  0  0  0
  6 10  1  0  0  0  0
  6  7  1  0  0  0  0
  7  8  2  0  0  0  0
  7 28  1  0  0  0  0
  8  9  1  0  0  0  0
  8 29  1  0  0  0  0
  9 10  2  0  0  0  0
  9 30  1  0  0  0  0
 11 12  2  0  0  0  0
 11 13  1  0  0  0  0
 13 18  1  0  0  0  0
 13 14  1  0  0  0  0
 14 15  1  0  0  0  0
 14 31  1  0  0  0  0
 14 32  1  0  0  0  0
 15 16  1  0  0  0  0
 15 33  1  0  0  0  0
 15 34  1  0  0  0  0
 16 17  1  0  0  0  0
 17 18  1  0  0  0  0
 17 35  1  0  0  0  0
 17 36  1  0  0  0  0
 18 37  1  0  0  0  0
 18 38  1  0  0  0  0
M  CHG  1   3   1
M  END
> <s_m_source_file>
AV-unprocessed.smi

> <i_m_source_file_index>
3322

> <i_lp_mmshare_version>
43012

> <i_f3d_flags>
0

> <s_epik_input>
W0NIMl0xW0NIMl1PW0NIMl1bQ0gyXU4xQyg9TylbQ0BIXShbQ0gzXSlbTkhdW0NIMl1bQ0gyXW4yW2NIXVtjSF1bY0hdbjI=

> <s_epik_cmdline>
J2VwaWtfcHl0aG9uJywgJy1waCcsICc3LjAnLCAnLXRuJywgJzgnLCAnLW1hJywgJzIwMCcsICctbWV0YWxfYmluZGluZycsICctaW1hZScsICc8aW5maWxlLm1hZT4nLCAnLW9tYWUnLCAnPG91dGZpbGUubWFlPic=

> <r_lp_tautomer_probability>
1

> <r_epik_Ionization_Penalty>
0.3254

> <r_epik_Ionization_Penalty_Charging>
0.325398

> <r_epik_Ionization_Penalty_Neutral>
2.29478e-06

> <r_epik_State_Penalty>
0.320187

> <r_epik_Charging_Adjusted_Penalty>
0.645585

> <i_epik_Tot_Q>
1

> <i_epik_Tot_abs_Q>
1

> <r_epik_Metal_State_Penalty>
0.320558

> <b_epik_Metal_Only>
0

> <s_lp_Force_Field>
OPLS_2005

> <r_lp_Energy>
25.684

> <b_lp_Chiralities_Consistent>
1

> <s_lp_Variant>
AV-unprocessed.smi:3322-1

> <Gold.Version>
5.8.1

> <Gold.Id.Protein>
6NUR|6NUR_protein|mol2

> <Gold.PLP.Fitness>
50.2624

> <Gold.PLP.PLP>
-39.0094

> <Gold.PLP.part.hbond>
-1.6330

> <Gold.PLP.part.metal>
0.0000

> <Gold.PLP.part.buried>
-1.0421

> <Gold.PLP.part.nonpolar>
-35.2905

> <Gold.PLP.part.repulsive>
0.3147

> <Gold.PLP.ligand.clash>
0.0000

> <Gold.PLP.ligand.torsion>
0.4836

> <Gold.PLP.Chemscore.Hbond>
2.0761

> <Gold.PLP.Chemscore.CHOScore>
1.9805

> <Gold.PLP.Chemscore.Metal>
0.0000

> <Gold.Chemscore.Hbonds>
donor molecule, donor type, donor heavy atom, donor atom, acceptor molecule, acceptor atom, score
      L1  H     3    23       P1  8028  2.00
      L1  C     7    28       P1  8028  1.00
      L1  C     9    30       P1 10175  1.00

> <Gold.PLP.Chemscore.Internal.Correction>
0.0502

> <Gold.Rescore>
     Score         DG    S(hbond)    S(metal)    S(lipo)     H(rot)  DE(clash)    DE(int)     intcor
     13.26     -15.34       1.14        0.00      93.60       1.91       0.30       1.78       ----

> <Gold.Chemscore.Fitness>
13.2571

> <Gold.Chemscore.DG>
-15.3374

> <Gold.Chemscore.ZeroCoef>
-5.4800

> <Gold.Chemscore.Hbond>
1.1361

> <Gold.Chemscore.Metal>
0.0000

> <Gold.Chemscore.Lipo>
93.5996

> <Gold.Chemscore.Internal_Hbond>
0.0000

> <Gold.Chemscore.DEClash>
0.3031

> <Gold.Chemscore.DEInternal>
1.7773

> <Gold.Chemscore.Rot>
1.9095

> <Gold.Chemscore.Internal.Correction>
   9.000000E+99

> <Gold.Chemscore.Hbonds>
donor molecule, donor type, donor heavy atom, donor atom, acceptor molecule, acceptor atom, score
      L1  H     3    23       P1  8028  0.93
      P1  H  7997  8009       L1    12  0.04

> <Gold.Chemscore.Hbond.Weighted>
-3.7947

> <Gold.Chemscore.Metal.Weighted>
-0.0000

> <Gold.Chemscore.Lipo.Weighted>
-10.9512

> <Gold.Chemscore.Internal_Hbond.Weighted>
0.0000

> <Gold.Chemscore.DEClash.Weighted>
0.3031

> <Gold.Chemscore.DEInternal.Weighted>
1.7773

> <Gold.Chemscore.Rot.Weighted>
4.8884

> <Gold.Chemscore.Internal.Correction.Weighted>
   9.000000E+99

> <Gold.Protein.RotatedTorsions>
[ 6907 6896 6895 6894 ] final  124.00 input  -60.11 | X-H torsion
[ 7974 7965 7964 7962 ] final   64.25 input  175.53 | X-H torsion
[ 8008 7997 7996 7995 ] final  170.91 input   59.86 | X-H torsion
[ 10167 10162 10161 10158 ] final   36.75 input  -65.29 | X-H torsion
[ 10718 10713 10712 10709 ] final  162.42 input   66.30 | X-H torsion
[ 10763 10752 10751 10750 ] final  130.03 input  -60.55 | X-H torsion
[ 11005 11000 10999 10996 ] final   29.48 input  -57.11 | X-H torsion

> <Gold.Protein.ActiveResidues>
 VAL166  LYS551  ARG553  GLY616  TRP617  ASP618  TYR619  PRO620  LYS621  CYS622 
 ASP623  PHE694  ASN695  SER759  ASP760  ASP761  ALA762  ILE779  LEU786  VAL792 
 PHE793  MET794  SER795  GLU796  ALA797  LYS798  CYS799  TRP800  GLU811  SER814 

> <Gold.Protein.RotatedAtoms>
  152.4115  133.6971  159.6401 H   0  0  0  0  0  0  0  0  0  0  0  0  # atno 6907 bound_to 6896
  150.7995  133.8615  159.3242 H   0  0  0  0  0  0  0  0  0  0  0  0  # atno 6908 bound_to 6896
  151.6356  135.1020  160.0182 H   0  0  0  0  0  0  0  0  0  0  0  0  # atno 6909 bound_to 6896
  145.8524  139.3262  143.0867 H   0  0  0  0  0  0  0  0  0  0  0  0  # atno 7974 bound_to 7965
  156.1321  140.1525  156.9049 H   0  0  0  0  0  0  0  0  0  0  0  0  # atno 8008 bound_to 7997
  154.4918  140.0849  156.7649 H   0  0  0  0  0  0  0  0  0  0  0  0  # atno 8009 bound_to 7997
  155.4236  140.3424  155.4276 H   0  0  0  0  0  0  0  0  0  0  0  0  # atno 8010 bound_to 7997
  140.4098  144.1609  150.6138 H   0  0  0  0  0  0  0  0  0  0  0  0  # atno 10167 bound_to 10162
  157.1228  131.0497  151.2407 H   0  0  0  0  0  0  0  0  0  0  0  0  # atno 10718 bound_to 10713
  153.7514  135.3209  155.3322 H   0  0  0  0  0  0  0  0  0  0  0  0  # atno 10763 bound_to 10752
  154.8262  135.4568  154.0928 H   0  0  0  0  0  0  0  0  0  0  0  0  # atno 10764 bound_to 10752
  153.2132  135.6938  153.8171 H   0  0  0  0  0  0  0  0  0  0  0  0  # atno 10765 bound_to 10752
  140.3045  134.2719  155.7747 H   0  0  0  0  0  0  0  0  0  0  0  0  # atno 11005 bound_to 11000
  145.9342  140.9026  143.0341 LP  0  0  0  0  0  0  0  0  0  0  0  0  # atno 17320 bound_to 7965
  144.6728  140.1460  143.7433 LP  0  0  0  0  0  0  0  0  0  0  0  0  # atno 17321 bound_to 7965
  140.4650  143.2434  151.9167 LP  0  0  0  0  0  0  0  0  0  0  0  0  # atno 17342 bound_to 10162
  139.4783  144.5428  151.8502 LP  0  0  0  0  0  0  0  0  0  0  0  0  # atno 17343 bound_to 10162
  157.4461  130.7572  149.7111 LP  0  0  0  0  0  0  0  0  0  0  0  0  # atno 17370 bound_to 10713
  155.9825  130.4009  150.3415 LP  0  0  0  0  0  0  0  0  0  0  0  0  # atno 17371 bound_to 10713
  141.2121  133.7668  156.9817 LP  0  0  0  0  0  0  0  0  0  0  0  0  # atno 17394 bound_to 11000
  140.1079  134.9495  157.2022 LP  0  0  0  0  0  0  0  0  0  0  0  0  # atno 17395 bound_to 11000

$$$$
