AV-unprocessed.smi:1168|AV-procd|sdf|4939|dock1
  -GOLD-   22720 3523D 1   1.00000     0.00000
 Structure written by MMmdl.
 32 33  0  0  0  0  0  0  0  0  1 V2000
  153.5229  139.0688  157.4359 O   0  0  0  0  0  0  0  0  0  0  0  0
  152.6972  139.3322  158.3101 C   0  0  0  0  0  0  0  0  0  0  0  0
  153.1583  139.6118  159.7420 C   0  0  0  0  0  0  0  0  0  0  0  0
  153.0190  141.0190  160.0737 N   0  0  0  0  0  0  0  0  0  0  0  0
  153.4612  141.6845  161.1974 C   0  0  0  0  0  0  0  0  0  0  0  0
  153.1020  142.9945  161.0614 C   0  0  0  0  0  0  0  0  0  0  0  0
  152.4370  143.0427  159.8018 C   0  0  0  0  0  0  0  0  0  0  0  0
  151.8208  144.2329  159.1149 C   0  0  0  0  0  0  0  0  0  0  0  0
  151.8952  145.3086  159.8987 F   0  0  0  0  0  0  0  0  0  0  0  0
  152.4681  144.4859  157.9773 F   0  0  0  0  0  0  0  0  0  0  0  0
  150.5392  143.9894  158.8415 F   0  0  0  0  0  0  0  0  0  0  0  0
  152.3958  141.8539  159.2149 N   0  0  0  0  0  0  0  0  0  0  0  0
  151.3759  139.3959  158.0837 N   0  0  0  0  0  0  0  0  0  0  0  0
  150.7327  139.1798  156.7904 C   0  0  0  0  0  0  0  0  0  0  0  0
  150.6765  137.6770  156.4528 C   0  0  0  0  0  0  0  0  0  0  0  0
  151.2182  137.5392  155.0283 C   0  0  0  0  0  0  0  0  0  0  0  0
  152.1893  138.7055  154.8774 C   0  0  0  0  0  0  0  0  0  0  0  0
  151.5224  139.8461  155.6459 C   0  0  0  0  0  0  0  0  0  0  0  0
  152.5784  139.0273  160.4577 H   0  0  0  0  0  0  0  0  0  0  0  0
  154.2010  139.3095  159.8515 H   0  0  0  0  0  0  0  0  0  0  0  0
  153.9859  141.1752  161.9922 H   0  0  0  0  0  0  0  0  0  0  0  0
  153.2869  143.7993  161.7572 H   0  0  0  0  0  0  0  0  0  0  0  0
  150.7709  139.6155  158.8617 H   0  0  0  0  0  0  0  0  0  0  0  0
  149.7190  139.5843  156.8172 H   0  0  0  0  0  0  0  0  0  0  0  0
  151.3119  137.1049  157.1310 H   0  0  0  0  0  0  0  0  0  0  0  0
  149.6676  137.2734  156.5429 H   0  0  0  0  0  0  0  0  0  0  0  0
  151.6908  136.5729  154.8504 H   0  0  0  0  0  0  0  0  0  0  0  0
  150.4023  137.6482  154.3127 H   0  0  0  0  0  0  0  0  0  0  0  0
  153.1415  138.4538  155.3460 H   0  0  0  0  0  0  0  0  0  0  0  0
  152.3855  138.9588  153.8353 H   0  0  0  0  0  0  0  0  0  0  0  0
  150.8252  140.3633  154.9853 H   0  0  0  0  0  0  0  0  0  0  0  0
  152.2463  140.5874  155.9869 H   0  0  0  0  0  0  0  0  0  0  0  0
  1  2  2  0  0  0  0
  2  3  1  0  0  0  0
  2 13  1  0  0  0  0
  3  4  1  0  0  0  0
  3 19  1  0  0  0  0
  3 20  1  0  0  0  0
  4 12  1  0  0  0  0
  4  5  1  0  0  0  0
  5  6  2  0  0  0  0
  5 21  1  0  0  0  0
  6  7  1  0  0  0  0
  6 22  1  0  0  0  0
  7  8  1  0  0  0  0
  7 12  2  0  0  0  0
  8  9  1  0  0  0  0
  8 10  1  0  0  0  0
  8 11  1  0  0  0  0
 13 14  1  0  0  0  0
 13 23  1  0  0  0  0
 14 18  1  0  0  0  0
 14 15  1  0  0  0  0
 14 24  1  0  0  0  0
 15 16  1  0  0  0  0
 15 25  1  0  0  0  0
 15 26  1  0  0  0  0
 16 17  1  0  0  0  0
 16 27  1  0  0  0  0
 16 28  1  0  0  0  0
 17 18  1  0  0  0  0
 17 29  1  0  0  0  0
 17 30  1  0  0  0  0
 18 31  1  0  0  0  0
 18 32  1  0  0  0  0
M  END
> <s_m_source_file>
AV-unprocessed.smi

> <i_m_source_file_index>
1168

> <i_lp_mmshare_version>
43012

> <i_f3d_flags>
0

> <s_epik_input>
W0NIMl0xW0NIMl1bQ0gyXVtDSDJdW0NIXTFbTkhdQyg9TylbQ0gyXW4yW2NIXVtjSF1jKG4yKUMoRikoRilG

> <s_epik_cmdline>
J2VwaWtfcHl0aG9uJywgJy1waCcsICc3LjAnLCAnLXRuJywgJzgnLCAnLW1hJywgJzIwMCcsICctbWV0YWxfYmluZGluZycsICctaW1hZScsICc8aW5maWxlLm1hZT4nLCAnLW9tYWUnLCAnPG91dGZpbGUubWFlPic=

> <r_lp_tautomer_probability>
1

> <r_epik_Ionization_Penalty>
8.05939e-08

> <r_epik_Ionization_Penalty_Charging>
0

> <r_epik_Ionization_Penalty_Neutral>
8.05939e-08

> <r_epik_State_Penalty>
-0

> <r_epik_Charging_Adjusted_Penalty>
0

> <i_epik_Tot_Q>
0

> <i_epik_Tot_abs_Q>
0

> <r_epik_Metal_State_Penalty>
-0

> <b_epik_Metal_Only>
0

> <s_lp_Force_Field>
OPLS_2005

> <r_lp_Energy>
20.3297

> <b_lp_Chiralities_Consistent>
1

> <s_lp_Variant>
AV-unprocessed.smi:1168-1

> <Gold.Version>
5.8.1

> <Gold.Id.Protein>
6NUR|6NUR_protein|mol2

> <Gold.PLP.Fitness>
47.0219

> <Gold.PLP.PLP>
-44.9187

> <Gold.PLP.part.hbond>
-0.7727

> <Gold.PLP.part.metal>
0.0000

> <Gold.PLP.part.buried>
-5.6704

> <Gold.PLP.part.nonpolar>
-39.1340

> <Gold.PLP.part.repulsive>
0.0743

> <Gold.PLP.ligand.clash>
0.0000

> <Gold.PLP.ligand.torsion>
0.4638

> <Gold.PLP.Chemscore.Hbond>
1.0000

> <Gold.PLP.Chemscore.CHOScore>
0.0000

> <Gold.PLP.Chemscore.Metal>
0.0000

> <Gold.Chemscore.Hbonds>
donor molecule, donor type, donor heavy atom, donor atom, acceptor molecule, acceptor atom, score
      P1  H  7997  8009       L1     1  1.00

> <Gold.PLP.Chemscore.Internal.Correction>
0.0308

> <Gold.Rescore>
     Score         DG    S(hbond)    S(metal)    S(lipo)     H(rot)  DE(clash)    DE(int)     intcor
     11.80     -14.73       1.00        0.00      85.00       1.57       0.01       2.92       ----

> <Gold.Chemscore.Fitness>
11.8022

> <Gold.Chemscore.DG>
-14.7306

> <Gold.Chemscore.ZeroCoef>
-5.4800

> <Gold.Chemscore.Hbond>
0.9990

> <Gold.Chemscore.Metal>
0.0000

> <Gold.Chemscore.Lipo>
85.0041

> <Gold.Chemscore.Internal_Hbond>
0.0000

> <Gold.Chemscore.DEClash>
0.0077

> <Gold.Chemscore.DEInternal>
2.9208

> <Gold.Chemscore.Rot>
1.5748

> <Gold.Chemscore.Internal.Correction>
   9.000000E+99

> <Gold.Chemscore.Hbonds>
donor molecule, donor type, donor heavy atom, donor atom, acceptor molecule, acceptor atom, score
      P1  H  7997  8009       L1     1  0.88

> <Gold.Chemscore.Hbond.Weighted>
-3.3366

> <Gold.Chemscore.Metal.Weighted>
-0.0000

> <Gold.Chemscore.Lipo.Weighted>
-9.9455

> <Gold.Chemscore.Internal_Hbond.Weighted>
0.0000

> <Gold.Chemscore.DEClash.Weighted>
0.0077

> <Gold.Chemscore.DEInternal.Weighted>
2.9208

> <Gold.Chemscore.Rot.Weighted>
4.0315

> <Gold.Chemscore.Internal.Correction.Weighted>
   9.000000E+99

> <Gold.Protein.RotatedTorsions>
[ 6907 6896 6895 6894 ] final  141.51 input  -60.11 | X-H torsion
[ 7974 7965 7964 7962 ] final  -66.69 input  175.53 | X-H torsion
[ 8008 7997 7996 7995 ] final  145.84 input   59.86 | X-H torsion
[ 10167 10162 10161 10158 ] final  171.26 input  -65.29 | X-H torsion
[ 10718 10713 10712 10709 ] final   -4.91 input   66.30 | X-H torsion
[ 10763 10752 10751 10750 ] final -150.72 input  -60.55 | X-H torsion
[ 11005 11000 10999 10996 ] final -179.57 input  -57.11 | X-H torsion

> <Gold.Protein.ActiveResidues>
 VAL166  LYS551  ARG553  GLY616  TRP617  ASP618  TYR619  PRO620  LYS621  CYS622 
 ASP623  PHE694  ASN695  SER759  ASP760  ASP761  ALA762  ILE779  LEU786  VAL792 
 PHE793  MET794  SER795  GLU796  ALA797  LYS798  CYS799  TRP800  GLU811  SER814 

> <Gold.Protein.RotatedAtoms>
  152.2300  133.5051  159.5210 H   0  0  0  0  0  0  0  0  0  0  0  0  # atno 6907 bound_to 6896
  150.7035  134.1228  159.4050 H   0  0  0  0  0  0  0  0  0  0  0  0  # atno 6908 bound_to 6896
  151.9149  135.0323  160.0568 H   0  0  0  0  0  0  0  0  0  0  0  0  # atno 6909 bound_to 6896
  145.7386  140.8964  143.0542 H   0  0  0  0  0  0  0  0  0  0  0  0  # atno 7974 bound_to 7965
  156.2872  140.2198  156.5280 H   0  0  0  0  0  0  0  0  0  0  0  0  # atno 8008 bound_to 7997
  154.7473  140.0483  157.0885 H   0  0  0  0  0  0  0  0  0  0  0  0  # atno 8009 bound_to 7997
  155.0155  140.3118  155.4816 H   0  0  0  0  0  0  0  0  0  0  0  0  # atno 8010 bound_to 7997
  139.5041  144.3505  151.9927 H   0  0  0  0  0  0  0  0  0  0  0  0  # atno 10167 bound_to 10162
  156.7543  130.5249  149.5797 H   0  0  0  0  0  0  0  0  0  0  0  0  # atno 10718 bound_to 10713
  154.8102  135.3277  154.7325 H   0  0  0  0  0  0  0  0  0  0  0  0  # atno 10763 bound_to 10752
  153.7976  135.6906  153.4865 H   0  0  0  0  0  0  0  0  0  0  0  0  # atno 10764 bound_to 10752
  153.1875  135.4563  155.0053 H   0  0  0  0  0  0  0  0  0  0  0  0  # atno 10765 bound_to 10752
  140.4172  134.6638  157.4645 H   0  0  0  0  0  0  0  0  0  0  0  0  # atno 11005 bound_to 11000
  144.6876  139.9430  143.7475 LP  0  0  0  0  0  0  0  0  0  0  0  0  # atno 17320 bound_to 7965
  146.0469  139.3474  143.0663 LP  0  0  0  0  0  0  0  0  0  0  0  0  # atno 17321 bound_to 7965
  140.2942  144.3719  150.6079 LP  0  0  0  0  0  0  0  0  0  0  0  0  # atno 17342 bound_to 10162
  140.5923  143.2167  151.7230 LP  0  0  0  0  0  0  0  0  0  0  0  0  # atno 17343 bound_to 10162
  156.1380  130.6225  151.0428 LP  0  0  0  0  0  0  0  0  0  0  0  0  # atno 17370 bound_to 10713
  157.6763  131.0849  150.7486 LP  0  0  0  0  0  0  0  0  0  0  0  0  # atno 17371 bound_to 10713
  140.0225  134.6525  155.9219 LP  0  0  0  0  0  0  0  0  0  0  0  0  # atno 17394 bound_to 11000
  141.1798  133.6545  156.4974 LP  0  0  0  0  0  0  0  0  0  0  0  0  # atno 17395 bound_to 11000

$$$$
