AV-unprocessed.smi:115|AV-procd|sdf|1125|dock1
  -GOLD-   2262018253D 1   1.00000     0.00000
 Structure written by MMmdl.
 55 57  0  0  0  0  0  0  0  0  1 V2000
  145.0064  137.8611  161.9995 C   0  0  0  0  0  0  0  0  0  0  0  0
  145.7182  137.6109  160.7967 O   0  0  0  0  0  0  0  0  0  0  0  0
  144.9058  137.6222  159.6298 C   0  0  0  0  0  0  0  0  0  0  0  0
  145.4711  136.6855  158.5363 C   0  0  2  0  0  0  0  0  0  0  0  0
  145.3781  135.1922  158.8937 C   0  0  0  0  0  0  0  0  0  0  0  0
  146.8230  137.0590  158.0873 N   0  0  0  0  0  0  0  0  0  0  0  0
  147.1013  137.6073  156.8365 C   0  0  0  0  0  0  0  0  0  0  0  0
  146.0575  137.8748  155.7981 C   0  0  0  0  0  0  0  0  0  0  0  0
  148.4410  137.8418  156.7693 C   0  0  0  0  0  0  0  0  0  0  0  0
  149.0407  137.4150  157.9848 C   0  0  0  0  0  0  0  0  0  0  0  0
  150.4698  137.4994  158.3951 C   0  0  0  0  0  0  0  0  0  0  0  0
  150.8836  137.0871  159.4781 O   0  0  0  0  0  0  0  0  0  0  0  0
  151.4591  138.1422  157.4072 C   0  0  0  0  0  0  0  0  0  0  0  0
  151.2476  139.5796  157.2995 N   0  0  0  0  0  0  0  0  0  0  0  0
  150.5978  140.0616  156.1350 C   0  0  0  0  0  0  0  0  0  0  0  0
  150.2218  139.3073  155.2360 O   0  0  0  0  0  0  0  0  0  0  0  0
  150.4243  141.5095  156.0912 C   0  0  0  0  0  0  0  0  0  0  0  0
  149.8271  142.0755  155.0288 F   0  0  0  0  0  0  0  0  0  0  0  0
  150.8569  142.2942  157.1014 C   0  0  0  0  0  0  0  0  0  0  0  0
  151.4833  141.7954  158.2306 N   0  0  0  0  0  0  0  0  0  0  0  0
  151.9553  142.7198  159.3291 C   0  0  1  0  0  0  0  0  0  0  0  0
  152.7643  143.8809  158.7382 C   0  0  0  0  0  0  0  0  0  0  0  0
  151.7403  144.9952  158.6990 C   0  0  0  0  0  0  0  0  0  0  0  0
  150.8965  144.6810  159.9283 C   0  0  0  0  0  0  0  0  0  0  0  0
  150.8384  143.2594  159.9754 O   0  0  0  0  0  0  0  0  0  0  0  0
  151.7152  140.4076  158.3496 C   0  0  0  0  0  0  0  0  0  0  0  0
  152.3127  139.9485  159.3257 O   0  0  0  0  0  0  0  0  0  0  0  0
  148.0354  136.9047  158.7775 C   0  0  0  0  0  0  0  0  0  0  0  0
  148.1131  136.2797  160.1436 C   0  0  0  0  0  0  0  0  0  0  0  0
  145.6961  137.8265  162.8428 H   0  0  0  0  0  0  0  0  0  0  0  0
  144.2264  137.1209  162.1781 H   0  0  0  0  0  0  0  0  0  0  0  0
  144.5488  138.8510  161.9848 H   0  0  0  0  0  0  0  0  0  0  0  0
  143.8760  137.3614  159.8817 H   0  0  0  0  0  0  0  0  0  0  0  0
  144.8852  138.6516  159.2780 H   0  0  0  0  0  0  0  0  0  0  0  0
  144.8114  136.8158  157.6830 H   0  0  0  0  0  0  0  0  0  0  0  0
  144.3488  134.9124  159.1193 H   0  0  0  0  0  0  0  0  0  0  0  0
  145.9834  134.9261  159.7578 H   0  0  0  0  0  0  0  0  0  0  0  0
  145.7078  134.5724  158.0594 H   0  0  0  0  0  0  0  0  0  0  0  0
  146.5137  138.2200  154.8699 H   0  0  0  0  0  0  0  0  0  0  0  0
  145.3621  138.6459  156.1308 H   0  0  0  0  0  0  0  0  0  0  0  0
  145.4907  136.9719  155.5698 H   0  0  0  0  0  0  0  0  0  0  0  0
  148.9339  138.2864  155.9179 H   0  0  0  0  0  0  0  0  0  0  0  0
  152.5051  137.9867  157.6678 H   0  0  0  0  0  0  0  0  0  0  0  0
  151.3507  137.6991  156.4167 H   0  0  0  0  0  0  0  0  0  0  0  0
  150.7055  143.3596  157.0108 H   0  0  0  0  0  0  0  0  0  0  0  0
  152.5181  142.1079  160.0355 H   0  0  0  0  0  0  0  0  0  0  0  0
  153.5719  144.1278  159.4285 H   0  0  0  0  0  0  0  0  0  0  0  0
  153.1932  143.6369  157.7652 H   0  0  0  0  0  0  0  0  0  0  0  0
  152.1867  145.9893  158.7306 H   0  0  0  0  0  0  0  0  0  0  0  0
  151.1348  144.9206  157.7951 H   0  0  0  0  0  0  0  0  0  0  0  0
  151.3880  145.0447  160.8317 H   0  0  0  0  0  0  0  0  0  0  0  0
  149.9003  145.1210  159.8806 H   0  0  0  0  0  0  0  0  0  0  0  0
  149.0723  135.7917  160.3078 H   0  0  0  0  0  0  0  0  0  0  0  0
  147.3709  135.5003  160.2878 H   0  0  0  0  0  0  0  0  0  0  0  0
  147.9801  137.0307  160.9221 H   0  0  0  0  0  0  0  0  0  0  0  0
  1  2  1  0  0  0  0
  1 30  1  0  0  0  0
  1 31  1  0  0  0  0
  1 32  1  0  0  0  0
  2  3  1  0  0  0  0
  3  4  1  0  0  0  0
  3 33  1  0  0  0  0
  3 34  1  0  0  0  0
  4  5  1  0  0  0  0
  4  6  1  0  0  0  0
  4 35  1  0  0  0  0
  5 36  1  0  0  0  0
  5 37  1  0  0  0  0
  5 38  1  0  0  0  0
  6 28  1  0  0  0  0
  6  7  1  0  0  0  0
  7  8  1  0  0  0  0
  7  9  2  0  0  0  0
  8 39  1  0  0  0  0
  8 40  1  0  0  0  0
  8 41  1  0  0  0  0
  9 10  1  0  0  0  0
  9 42  1  0  0  0  0
 10 11  1  0  0  0  0
 10 28  2  0  0  0  0
 11 12  2  0  0  0  0
 11 13  1  0  0  0  0
 13 14  1  0  0  0  0
 13 43  1  0  0  0  0
 13 44  1  0  0  0  0
 14 26  1  0  0  0  0
 14 15  1  0  0  0  0
 15 16  2  0  0  0  0
 15 17  1  0  0  0  0
 17 18  1  0  0  0  0
 17 19  2  0  0  0  0
 19 20  1  0  0  0  0
 19 45  1  0  0  0  0
 20 21  1  0  0  0  0
 20 26  1  0  0  0  0
 21 25  1  0  0  0  0
 21 22  1  0  0  0  0
 21 46  1  0  0  0  0
 22 23  1  0  0  0  0
 22 47  1  0  0  0  0
 22 48  1  0  0  0  0
 23 24  1  0  0  0  0
 23 49  1  0  0  0  0
 23 50  1  0  0  0  0
 24 25  1  0  0  0  0
 24 51  1  0  0  0  0
 24 52  1  0  0  0  0
 26 27  2  0  0  0  0
 28 29  1  0  0  0  0
 29 53  1  0  0  0  0
 29 54  1  0  0  0  0
 29 55  1  0  0  0  0
M  END
> <s_m_source_file>
AV-unprocessed.smi

> <i_m_source_file_index>
115

> <i_lp_mmshare_version>
43012

> <i_f3d_flags>
0

> <s_epik_input>
W0NIM11PW0NIMl1bQ0BIXShbQ0gzXSluMWMoW0NIM10pW2NIXWMoYzFbQ0gzXSlDKD1PKVtDSDJdbjJjKD1PKWMoRilbY0hdbihjMj1PKVtDQEBIXTNbQ0gyXVtDSDJdW0NIMl1PMw==

> <s_epik_cmdline>
J2VwaWtfcHl0aG9uJywgJy1waCcsICc3LjAnLCAnLXRuJywgJzgnLCAnLW1hJywgJzIwMCcsICctbWV0YWxfYmluZGluZycsICctaW1hZScsICc8aW5maWxlLm1hZT4nLCAnLW9tYWUnLCAnPG91dGZpbGUubWFlPic=

> <r_lp_tautomer_probability>
1

> <r_epik_Ionization_Penalty>
5.02611e-09

> <r_epik_Ionization_Penalty_Charging>
5.01743e-09

> <r_epik_Ionization_Penalty_Neutral>
8.68114e-12

> <r_epik_State_Penalty>
-0

> <r_epik_Charging_Adjusted_Penalty>
5.01743e-09

> <i_epik_Tot_Q>
0

> <i_epik_Tot_abs_Q>
0

> <r_epik_Metal_State_Penalty>
-0

> <b_epik_Metal_Only>
0

> <s_epik_Chemistry_Notes>
This compound contains an acetal/aminal-like group ( X-CH(R)-Y where X, Y are N, S, or O) that may be acid/base labile, releasing an aldehyde.

> <s_lp_Force_Field>
OPLS_2005

> <r_lp_Energy>
51.0988

> <b_lp_Chiralities_Consistent>
1

> <s_lp_Variant>
AV-unprocessed.smi:115-3

> <Gold.Version>
5.8.1

> <Gold.Id.Protein>
6NUR|6NUR_protein|mol2

> <Gold.PLP.Fitness>
50.2471

> <Gold.PLP.PLP>
-42.5499

> <Gold.PLP.part.hbond>
-2.4617

> <Gold.PLP.part.metal>
0.0000

> <Gold.PLP.part.buried>
-4.8441

> <Gold.PLP.part.nonpolar>
-34.1517

> <Gold.PLP.part.repulsive>
0.0957

> <Gold.PLP.ligand.clash>
0.0000

> <Gold.PLP.ligand.torsion>
0.8159

> <Gold.PLP.Chemscore.Hbond>
1.9913

> <Gold.PLP.Chemscore.CHOScore>
0.9925

> <Gold.PLP.Chemscore.Metal>
0.0000

> <Gold.Chemscore.Hbonds>
donor molecule, donor type, donor heavy atom, donor atom, acceptor molecule, acceptor atom, score
      P1  H  6896  6907       L1    12  0.99
      P1  H  6934  6947       L1     2  1.00
      L1  C    19    45       P1  8028  0.75

> <Gold.PLP.Chemscore.Internal.Correction>
0.3775

> <Gold.Rescore>
     Score         DG    S(hbond)    S(metal)    S(lipo)     H(rot)  DE(clash)    DE(int)     intcor
      8.44     -14.11       1.60        0.00      76.04       2.19       0.58       5.08       ----

> <Gold.Chemscore.Fitness>
8.4445

> <Gold.Chemscore.DG>
-14.1073

> <Gold.Chemscore.ZeroCoef>
-5.4800

> <Gold.Chemscore.Hbond>
1.6009

> <Gold.Chemscore.Metal>
0.0000

> <Gold.Chemscore.Lipo>
76.0379

> <Gold.Chemscore.Internal_Hbond>
0.0000

> <Gold.Chemscore.DEClash>
0.5832

> <Gold.Chemscore.DEInternal>
5.0796

> <Gold.Chemscore.Rot>
2.1938

> <Gold.Chemscore.Internal.Correction>
   9.000000E+99

> <Gold.Chemscore.Hbonds>
donor molecule, donor type, donor heavy atom, donor atom, acceptor molecule, acceptor atom, score
      P1  H  6896  6907       L1    12  0.92
      P1  H  6934  6947       L1     2  0.22

> <Gold.Chemscore.Hbond.Weighted>
-5.3469

> <Gold.Chemscore.Metal.Weighted>
-0.0000

> <Gold.Chemscore.Lipo.Weighted>
-8.8964

> <Gold.Chemscore.Internal_Hbond.Weighted>
0.0000

> <Gold.Chemscore.DEClash.Weighted>
0.5832

> <Gold.Chemscore.DEInternal.Weighted>
5.0796

> <Gold.Chemscore.Rot.Weighted>
5.6160

> <Gold.Chemscore.Internal.Correction.Weighted>
   9.000000E+99

> <Gold.Protein.RotatedTorsions>
[ 6907 6896 6895 6894 ] final  -13.61 input  -60.11 | X-H torsion
[ 7974 7965 7964 7962 ] final  100.19 input  175.53 | X-H torsion
[ 8008 7997 7996 7995 ] final   88.16 input   59.86 | X-H torsion
[ 10167 10162 10161 10158 ] final  -60.42 input  -65.29 | X-H torsion
[ 10718 10713 10712 10709 ] final  162.63 input   66.30 | X-H torsion
[ 10763 10752 10751 10750 ] final  102.51 input  -60.55 | X-H torsion
[ 11005 11000 10999 10996 ] final    1.48 input  -57.11 | X-H torsion

> <Gold.Protein.ActiveResidues>
 VAL166  LYS551  ARG553  GLY616  TRP617  ASP618  TYR619  PRO620  LYS621  CYS622 
 ASP623  PHE694  ASN695  SER759  ASP760  ASP761  ALA762  ILE779  LEU786  VAL792 
 PHE793  MET794  SER795  GLU796  ALA797  LYS798  CYS799  TRP800  GLU811  SER814 

> <Gold.Protein.RotatedAtoms>
  151.3522  135.0887  159.9406 H   0  0  0  0  0  0  0  0  0  0  0  0  # atno 6907 bound_to 6896
  152.5184  133.9341  159.7605 H   0  0  0  0  0  0  0  0  0  0  0  0  # atno 6908 bound_to 6896
  150.9718  133.6282  159.2766 H   0  0  0  0  0  0  0  0  0  0  0  0  # atno 6909 bound_to 6896
  145.3889  139.2366  143.3363 H   0  0  0  0  0  0  0  0  0  0  0  0  # atno 7974 bound_to 7965
  155.9844  140.3374  155.6693 H   0  0  0  0  0  0  0  0  0  0  0  0  # atno 8008 bound_to 7997
  155.6506  140.0705  157.2606 H   0  0  0  0  0  0  0  0  0  0  0  0  # atno 8009 bound_to 7997
  154.4201  140.1726  156.1657 H   0  0  0  0  0  0  0  0  0  0  0  0  # atno 8010 bound_to 7997
  140.6072  143.2377  151.5794 H   0  0  0  0  0  0  0  0  0  0  0  0  # atno 10167 bound_to 10162
  157.1199  131.0489  151.2420 H   0  0  0  0  0  0  0  0  0  0  0  0  # atno 10718 bound_to 10713
  153.3406  135.4008  155.1568 H   0  0  0  0  0  0  0  0  0  0  0  0  # atno 10763 bound_to 10752
  154.8642  135.3632  154.5351 H   0  0  0  0  0  0  0  0  0  0  0  0  # atno 10764 bound_to 10752
  153.5796  135.7077  153.5529 H   0  0  0  0  0  0  0  0  0  0  0  0  # atno 10765 bound_to 10752
  140.6150  133.9713  155.8196 H   0  0  0  0  0  0  0  0  0  0  0  0  # atno 11005 bound_to 11000
  146.2807  140.4568  142.8777 LP  0  0  0  0  0  0  0  0  0  0  0  0  # atno 17320 bound_to 7965
  144.8454  140.6922  143.6202 LP  0  0  0  0  0  0  0  0  0  0  0  0  # atno 17321 bound_to 7965
  139.5334  144.2851  152.1198 LP  0  0  0  0  0  0  0  0  0  0  0  0  # atno 17342 bound_to 10162
  140.2043  144.4626  150.6416 LP  0  0  0  0  0  0  0  0  0  0  0  0  # atno 17343 bound_to 10162
  157.4486  130.7585  149.7131 LP  0  0  0  0  0  0  0  0  0  0  0  0  # atno 17370 bound_to 10713
  155.9831  130.4003  150.3381 LP  0  0  0  0  0  0  0  0  0  0  0  0  # atno 17371 bound_to 10713
  141.0782  134.0103  157.3426 LP  0  0  0  0  0  0  0  0  0  0  0  0  # atno 17394 bound_to 11000
  139.9176  135.0198  156.7943 LP  0  0  0  0  0  0  0  0  0  0  0  0  # atno 17395 bound_to 11000

$$$$
