AV-unprocessed.smi:2432|AV-procd|sdf|9588|dock2
  -GOLD-   2272013223D 1   1.00000     0.00000
 Structure written by MMmdl.
 33 34  0  0  0  0  0  0  0  0  1 V2000
  147.0627  141.1245  153.0361 C   0  0  0  0  0  0  0  0  0  0  0  0
  148.3963  140.8436  153.5444 N   0  0  0  0  0  0  0  0  0  0  0  0
  148.7963  141.0916  154.8005 C   0  0  0  0  0  0  0  0  0  0  0  0
  148.0574  141.5907  155.6503 O   0  0  0  0  0  0  0  0  0  0  0  0
  150.2538  140.7431  155.1344 C   0  0  1  0  0  0  0  0  0  0  0  0
  150.5961  140.9732  156.6239 C   0  0  0  0  0  0  0  0  0  0  0  0
  151.9602  140.5446  156.9058 N   0  0  0  0  0  0  0  0  0  0  0  0
  152.4991  140.9373  158.1164 C   0  0  0  0  0  0  0  0  0  0  0  0
  153.3898  140.1204  158.6917 N   0  0  0  0  0  0  0  0  0  0  0  0
  153.9073  140.5167  159.8747 C   0  0  0  0  0  0  0  0  0  0  0  0
  153.5309  141.7327  160.4801 C   0  0  0  0  0  0  0  0  0  0  0  0
  152.5844  142.5095  159.7794 C   0  0  0  0  0  0  0  0  0  0  0  0
  152.0925  143.8361  160.3183 C   0  0  0  0  0  0  0  0  0  0  0  0
  152.0712  142.1086  158.5955 N   0  0  0  0  0  0  0  0  0  0  0  0
  152.2092  139.1700  156.4947 C   0  0  0  0  0  0  0  0  0  0  0  0
  151.8374  138.9837  155.0150 C   0  0  0  0  0  0  0  0  0  0  0  0
  150.4820  139.3704  154.8123 O   0  0  0  0  0  0  0  0  0  0  0  0
  147.0195  140.9123  151.9680 H   0  0  0  0  0  0  0  0  0  0  0  0
  146.8012  142.1729  153.1857 H   0  0  0  0  0  0  0  0  0  0  0  0
  146.3191  140.5047  153.5385 H   0  0  0  0  0  0  0  0  0  0  0  0
  149.0601  140.4310  152.9049 H   0  0  0  0  0  0  0  0  0  0  0  0
  150.8925  141.3694  154.5087 H   0  0  0  0  0  0  0  0  0  0  0  0
  150.4930  142.0299  156.8755 H   0  0  0  0  0  0  0  0  0  0  0  0
  149.9060  140.4210  157.2638 H   0  0  0  0  0  0  0  0  0  0  0  0
  154.6264  139.8600  160.3414 H   0  0  0  0  0  0  0  0  0  0  0  0
  153.9458  142.0463  161.4266 H   0  0  0  0  0  0  0  0  0  0  0  0
  152.5332  144.0537  161.2916 H   0  0  0  0  0  0  0  0  0  0  0  0
  151.0081  143.8213  160.4314 H   0  0  0  0  0  0  0  0  0  0  0  0
  152.3568  144.6441  159.6357 H   0  0  0  0  0  0  0  0  0  0  0  0
  153.2595  138.9221  156.6515 H   0  0  0  0  0  0  0  0  0  0  0  0
  151.6216  138.4941  157.1173 H   0  0  0  0  0  0  0  0  0  0  0  0
  152.4947  139.5702  154.3708 H   0  0  0  0  0  0  0  0  0  0  0  0
  151.9557  137.9394  154.7259 H   0  0  0  0  0  0  0  0  0  0  0  0
  1  2  1  0  0  0  0
  1 18  1  0  0  0  0
  1 19  1  0  0  0  0
  1 20  1  0  0  0  0
  2  3  1  0  0  0  0
  2 21  1  0  0  0  0
  3  4  2  0  0  0  0
  3  5  1  0  0  0  0
  5 17  1  0  0  0  0
  5  6  1  0  0  0  0
  5 22  1  0  0  0  0
  6  7  1  0  0  0  0
  6 23  1  0  0  0  0
  6 24  1  0  0  0  0
  7  8  1  0  0  0  0
  7 15  1  0  0  0  0
  8 14  1  0  0  0  0
  8  9  2  0  0  0  0
  9 10  1  0  0  0  0
 10 11  2  0  0  0  0
 10 25  1  0  0  0  0
 11 12  1  0  0  0  0
 11 26  1  0  0  0  0
 12 13  1  0  0  0  0
 12 14  2  0  0  0  0
 13 27  1  0  0  0  0
 13 28  1  0  0  0  0
 13 29  1  0  0  0  0
 15 16  1  0  0  0  0
 15 30  1  0  0  0  0
 15 31  1  0  0  0  0
 16 17  1  0  0  0  0
 16 32  1  0  0  0  0
 16 33  1  0  0  0  0
M  END
> <s_m_source_file>
AV-unprocessed.smi

> <i_m_source_file_index>
2432

> <i_lp_mmshare_version>
43012

> <i_f3d_flags>
0

> <s_epik_input>
W0NIM11bTkhdQyg9TylbQ0BASF0xW0NIMl1OKFtDSDJdW0NIMl1PMSljMm5bY0hdW2NIXWMobjIpW0NIM10=

> <s_epik_cmdline>
J2VwaWtfcHl0aG9uJywgJy1waCcsICc3LjAnLCAnLXRuJywgJzgnLCAnLW1hJywgJzIwMCcsICctbWV0YWxfYmluZGluZycsICctaW1hZScsICc8aW5maWxlLm1hZT4nLCAnLW9tYWUnLCAnPG91dGZpbGUubWFlPic=

> <r_lp_tautomer_probability>
1

> <r_epik_Ionization_Penalty>
3.16085e-05

> <r_epik_Ionization_Penalty_Charging>
0

> <r_epik_Ionization_Penalty_Neutral>
3.16085e-05

> <r_epik_State_Penalty>
-0

> <r_epik_Charging_Adjusted_Penalty>
0

> <i_epik_Tot_Q>
0

> <i_epik_Tot_abs_Q>
0

> <r_epik_Metal_State_Penalty>
-0

> <b_epik_Metal_Only>
0

> <s_lp_Force_Field>
OPLS_2005

> <r_lp_Energy>
12.5177

> <b_lp_Chiralities_Consistent>
1

> <s_lp_Variant>
AV-unprocessed.smi:2432-2

> <Gold.Version>
5.8.1

> <Gold.Id.Protein>
6NUR|6NUR_protein|mol2

> <Gold.PLP.Fitness>
37.1348

> <Gold.PLP.PLP>
-32.0046

> <Gold.PLP.part.hbond>
-2.0785

> <Gold.PLP.part.metal>
0.0000

> <Gold.PLP.part.buried>
-2.9640

> <Gold.PLP.part.nonpolar>
-25.6678

> <Gold.PLP.part.repulsive>
0.3600

> <Gold.PLP.ligand.clash>
0.0000

> <Gold.PLP.ligand.torsion>
0.5424

> <Gold.PLP.Chemscore.Hbond>
1.9760

> <Gold.PLP.Chemscore.CHOScore>
0.0000

> <Gold.PLP.Chemscore.Metal>
0.0000

> <Gold.Chemscore.Hbonds>
donor molecule, donor type, donor heavy atom, donor atom, acceptor molecule, acceptor atom, score
      L1  H     2    21       P1  7957  0.99
      P1  H  7997  8009       L1     9  0.90

> <Gold.PLP.Chemscore.Internal.Correction>
0.2870

> <Gold.Rescore>
     Score         DG    S(hbond)    S(metal)    S(lipo)     H(rot)  DE(clash)    DE(int)     intcor
     15.33     -16.03       1.49        0.00      76.43       1.31       0.14       0.55       ----

> <Gold.Chemscore.Fitness>
15.3349

> <Gold.Chemscore.DG>
-16.0335

> <Gold.Chemscore.ZeroCoef>
-5.4800

> <Gold.Chemscore.Hbond>
1.4856

> <Gold.Chemscore.Metal>
0.0000

> <Gold.Chemscore.Lipo>
76.4311

> <Gold.Chemscore.Internal_Hbond>
0.0000

> <Gold.Chemscore.DEClash>
0.1445

> <Gold.Chemscore.DEInternal>
0.5542

> <Gold.Chemscore.Rot>
1.3089

> <Gold.Chemscore.Internal.Correction>
   9.000000E+99

> <Gold.Chemscore.Hbonds>
donor molecule, donor type, donor heavy atom, donor atom, acceptor molecule, acceptor atom, score
      L1  H     2    21       P1  7957  0.94
      P1  H  7997  8009       L1     9  0.16

> <Gold.Chemscore.Hbond.Weighted>
-4.9620

> <Gold.Chemscore.Metal.Weighted>
-0.0000

> <Gold.Chemscore.Lipo.Weighted>
-8.9424

> <Gold.Chemscore.Internal_Hbond.Weighted>
0.0000

> <Gold.Chemscore.DEClash.Weighted>
0.1445

> <Gold.Chemscore.DEInternal.Weighted>
0.5542

> <Gold.Chemscore.Rot.Weighted>
3.3509

> <Gold.Chemscore.Internal.Correction.Weighted>
   9.000000E+99

> <Gold.Protein.RotatedTorsions>
[ 6907 6896 6895 6894 ] final   85.43 input  -60.11 | X-H torsion
[ 7974 7965 7964 7962 ] final   50.82 input  175.53 | X-H torsion
[ 8008 7997 7996 7995 ] final  140.84 input   59.86 | X-H torsion
[ 10167 10162 10161 10158 ] final   27.86 input  -65.29 | X-H torsion
[ 10718 10713 10712 10709 ] final  143.78 input   66.30 | X-H torsion
[ 10763 10752 10751 10750 ] final  -39.08 input  -60.55 | X-H torsion
[ 11005 11000 10999 10996 ] final  101.65 input  -57.11 | X-H torsion

> <Gold.Protein.ActiveResidues>
 VAL166  LYS551  ARG553  GLY616  TRP617  ASP618  TYR619  PRO620  LYS621  CYS622 
 ASP623  PHE694  ASN695  SER759  ASP760  ASP761  ALA762  ILE779  LEU786  VAL792 
 PHE793  MET794  SER795  GLU796  ALA797  LYS798  CYS799  TRP800  GLU811  SER814 

> <Gold.Protein.RotatedAtoms>
  152.5374  134.2587  159.8926 H   0  0  0  0  0  0  0  0  0  0  0  0  # atno 6907 bound_to 6896
  151.2547  133.4325  159.2621 H   0  0  0  0  0  0  0  0  0  0  0  0  # atno 6908 bound_to 6896
  151.0507  134.9685  159.8266 H   0  0  0  0  0  0  0  0  0  0  0  0  # atno 6909 bound_to 6896
  145.9974  139.4403  143.0036 H   0  0  0  0  0  0  0  0  0  0  0  0  # atno 7974 bound_to 7965
  156.2974  140.2331  156.4467 H   0  0  0  0  0  0  0  0  0  0  0  0  # atno 8008 bound_to 7997
  154.8138  140.0441  157.1382 H   0  0  0  0  0  0  0  0  0  0  0  0  # atno 8009 bound_to 7997
  154.9393  140.3027  155.5132 H   0  0  0  0  0  0  0  0  0  0  0  0  # atno 8010 bound_to 7997
  140.4902  144.0478  150.6294 H   0  0  0  0  0  0  0  0  0  0  0  0  # atno 10167 bound_to 10162
  157.3650  131.0970  151.0881 H   0  0  0  0  0  0  0  0  0  0  0  0  # atno 10718 bound_to 10713
  153.9235  135.6779  153.4747 H   0  0  0  0  0  0  0  0  0  0  0  0  # atno 10763 bound_to 10752
  153.1016  135.4825  154.8874 H   0  0  0  0  0  0  0  0  0  0  0  0  # atno 10764 bound_to 10752
  154.7465  135.3174  154.8591 H   0  0  0  0  0  0  0  0  0  0  0  0  # atno 10765 bound_to 10752
  139.8774  134.9192  156.4938 H   0  0  0  0  0  0  0  0  0  0  0  0  # atno 11005 bound_to 11000
  145.7539  140.9962  143.1236 LP  0  0  0  0  0  0  0  0  0  0  0  0  # atno 17320 bound_to 7965
  144.6908  139.9247  143.7469 LP  0  0  0  0  0  0  0  0  0  0  0  0  # atno 17321 bound_to 7965
  140.3745  143.2836  152.0240 LP  0  0  0  0  0  0  0  0  0  0  0  0  # atno 17342 bound_to 10162
  139.4850  144.6203  151.7267 LP  0  0  0  0  0  0  0  0  0  0  0  0  # atno 17343 bound_to 10162
  157.2007  130.6393  149.5737 LP  0  0  0  0  0  0  0  0  0  0  0  0  # atno 17370 bound_to 10713
  155.9744  130.4692  150.6386 LP  0  0  0  0  0  0  0  0  0  0  0  0  # atno 17371 bound_to 10713
  140.8639  133.8039  155.9293 LP  0  0  0  0  0  0  0  0  0  0  0  0  # atno 17394 bound_to 11000
  140.9022  134.2365  157.5035 LP  0  0  0  0  0  0  0  0  0  0  0  0  # atno 17395 bound_to 11000

$$$$
