AV-unprocessed.smi:942|AV-procd|sdf|4228|dock1
  -GOLD-   22720 2133D 1   1.00000     0.00000
 Structure written by MMmdl.
 42 44  0  0  0  0  0  0  0  0  1 V2000
  150.7876  140.5189  157.7181 O   0  0  0  0  0  0  0  0  0  0  0  0
  150.4837  141.7075  157.6137 C   0  0  0  0  0  0  0  0  0  0  0  0
  149.4426  142.1396  156.8861 N   0  0  0  0  0  0  0  0  0  0  0  0
  148.5434  141.2899  156.1108 C   0  0  1  0  0  0  0  0  0  0  0  0
  147.2681  142.0496  155.6887 C   0  0  0  0  0  0  0  0  0  0  0  0
  147.3479  142.2141  154.1694 C   0  0  0  0  0  0  0  0  0  0  0  0
  148.1611  141.0111  153.7022 C   0  0  0  0  0  0  0  0  0  0  0  0
  149.2210  140.8430  154.7964 C   0  0  2  0  0  0  0  0  0  0  0  0
  149.7765  139.5001  154.8595 N   0  0  0  0  0  0  0  0  0  0  0  0
  150.3940  138.7850  153.8394 C   0  0  0  0  0  0  0  0  0  0  0  0
  150.7477  137.5651  154.3697 C   0  0  0  0  0  0  0  0  0  0  0  0
  150.3585  137.5046  155.7053 N   0  0  0  0  0  0  0  0  0  0  0  0
  149.7901  138.6837  155.9226 C   0  0  0  0  0  0  0  0  0  0  0  0
  151.3049  142.7858  158.3329 C   0  0  0  0  0  0  0  0  0  0  0  0
  150.4367  143.5679  159.3414 C   0  0  0  0  0  0  0  0  0  0  0  0
  151.2585  144.6487  160.0633 C   0  0  0  0  0  0  0  0  0  0  0  0
  151.9260  145.6044  159.0614 C   0  0  0  0  0  0  0  0  0  0  0  0
  152.7803  144.8353  158.0410 C   0  0  0  0  0  0  0  0  0  0  0  0
  151.9543  143.7552  157.3228 C   0  0  0  0  0  0  0  0  0  0  0  0
  149.2639  143.1331  156.8615 H   0  0  0  0  0  0  0  0  0  0  0  0
  148.2566  140.4236  156.7106 H   0  0  0  0  0  0  0  0  0  0  0  0
  146.3947  141.4465  155.9397 H   0  0  0  0  0  0  0  0  0  0  0  0
  147.1460  143.0094  156.1925 H   0  0  0  0  0  0  0  0  0  0  0  0
  146.3648  142.2651  153.7004 H   0  0  0  0  0  0  0  0  0  0  0  0
  147.8818  143.1341  153.9272 H   0  0  0  0  0  0  0  0  0  0  0  0
  147.5114  140.1364  153.6492 H   0  0  0  0  0  0  0  0  0  0  0  0
  148.5995  141.1601  152.7149 H   0  0  0  0  0  0  0  0  0  0  0  0
  150.0348  141.5321  154.5608 H   0  0  0  0  0  0  0  0  0  0  0  0
  150.5263  139.1912  152.8474 H   0  0  0  0  0  0  0  0  0  0  0  0
  151.2468  136.7325  153.8962 H   0  0  0  0  0  0  0  0  0  0  0  0
  149.3736  138.9595  156.8805 H   0  0  0  0  0  0  0  0  0  0  0  0
  152.1039  142.2911  158.8883 H   0  0  0  0  0  0  0  0  0  0  0  0
  149.5960  144.0395  158.8297 H   0  0  0  0  0  0  0  0  0  0  0  0
  150.0071  142.8857  160.0760 H   0  0  0  0  0  0  0  0  0  0  0  0
  150.6175  145.2111  160.7428 H   0  0  0  0  0  0  0  0  0  0  0  0
  152.0226  144.1745  160.6807 H   0  0  0  0  0  0  0  0  0  0  0  0
  151.1597  146.1774  158.5377 H   0  0  0  0  0  0  0  0  0  0  0  0
  152.5441  146.3282  159.5931 H   0  0  0  0  0  0  0  0  0  0  0  0
  153.2017  145.5280  157.3119 H   0  0  0  0  0  0  0  0  0  0  0  0
  153.6259  144.3701  158.5493 H   0  0  0  0  0  0  0  0  0  0  0  0
  152.5960  143.2050  156.6332 H   0  0  0  0  0  0  0  0  0  0  0  0
  151.1867  144.2358  156.7136 H   0  0  0  0  0  0  0  0  0  0  0  0
  1  2  2  0  0  0  0
  2  3  1  0  0  0  0
  2 14  1  0  0  0  0
  3  4  1  0  0  0  0
  3 20  1  0  0  0  0
  4  8  1  0  0  0  0
  4  5  1  0  0  0  0
  4 21  1  0  0  0  0
  5  6  1  0  0  0  0
  5 22  1  0  0  0  0
  5 23  1  0  0  0  0
  6  7  1  0  0  0  0
  6 24  1  0  0  0  0
  6 25  1  0  0  0  0
  7  8  1  0  0  0  0
  7 26  1  0  0  0  0
  7 27  1  0  0  0  0
  8  9  1  0  0  0  0
  8 28  1  0  0  0  0
  9 13  1  0  0  0  0
  9 10  1  0  0  0  0
 10 11  2  0  0  0  0
 10 29  1  0  0  0  0
 11 12  1  0  0  0  0
 11 30  1  0  0  0  0
 12 13  2  0  0  0  0
 13 31  1  0  0  0  0
 14 19  1  0  0  0  0
 14 15  1  0  0  0  0
 14 32  1  0  0  0  0
 15 16  1  0  0  0  0
 15 33  1  0  0  0  0
 15 34  1  0  0  0  0
 16 17  1  0  0  0  0
 16 35  1  0  0  0  0
 16 36  1  0  0  0  0
 17 18  1  0  0  0  0
 17 37  1  0  0  0  0
 17 38  1  0  0  0  0
 18 19  1  0  0  0  0
 18 39  1  0  0  0  0
 18 40  1  0  0  0  0
 19 41  1  0  0  0  0
 19 42  1  0  0  0  0
M  END
> <s_m_source_file>
AV-unprocessed.smi

> <i_m_source_file_index>
942

> <i_lp_mmshare_version>
43012

> <i_f3d_flags>
0

> <s_epik_input>
W0NIMl0xW0NIMl1bQ0gyXVtDSDJdW0NIMl1bQ0hdMUMoPU8pW05IXVtDQEBIXTJbQ0gyXVtDSDJdW0NIMl1bQ0BIXTJuM1tjSF1bY0hdbltjSF0z

> <s_epik_cmdline>
J2VwaWtfcHl0aG9uJywgJy1waCcsICc3LjAnLCAnLXRuJywgJzgnLCAnLW1hJywgJzIwMCcsICctbWV0YWxfYmluZGluZycsICctaW1hZScsICc8aW5maWxlLm1hZT4nLCAnLW9tYWUnLCAnPG91dGZpbGUubWFlPic=

> <r_lp_tautomer_probability>
1

> <r_epik_Ionization_Penalty>
0.778458

> <r_epik_Ionization_Penalty_Charging>
0.778458

> <r_epik_Ionization_Penalty_Neutral>
2.79355e-08

> <r_epik_State_Penalty>
0.807804

> <r_epik_Charging_Adjusted_Penalty>
1.58626

> <i_epik_Tot_Q>
0

> <i_epik_Tot_abs_Q>
0

> <r_epik_Metal_State_Penalty>
0.343007

> <b_epik_Metal_Only>
0

> <s_lp_Force_Field>
OPLS_2005

> <r_lp_Energy>
31.6658

> <b_lp_Chiralities_Consistent>
1

> <s_lp_Variant>
AV-unprocessed.smi:942-8

> <Gold.Version>
5.8.1

> <Gold.Id.Protein>
6NUR|6NUR_protein|mol2

> <Gold.PLP.Fitness>
44.9213

> <Gold.PLP.PLP>
-36.7203

> <Gold.PLP.part.hbond>
-1.0000

> <Gold.PLP.part.metal>
0.0000

> <Gold.PLP.part.buried>
-0.9649

> <Gold.PLP.part.nonpolar>
-34.3132

> <Gold.PLP.part.repulsive>
0.0657

> <Gold.PLP.ligand.clash>
0.0000

> <Gold.PLP.ligand.torsion>
0.2260

> <Gold.PLP.Chemscore.Hbond>
0.9120

> <Gold.PLP.Chemscore.CHOScore>
1.9672

> <Gold.PLP.Chemscore.Metal>
0.0000

> <Gold.Chemscore.Hbonds>
donor molecule, donor type, donor heavy atom, donor atom, acceptor molecule, acceptor atom, score
      L1  H     3    20       P1  8028  0.91
      L1  C    10    29       P1  7957  1.00
      L1  C    11    30       P1  7949  0.99

> <Gold.PLP.Chemscore.Internal.Correction>
0.0155

> <Gold.Rescore>
     Score         DG    S(hbond)    S(metal)    S(lipo)     H(rot)  DE(clash)    DE(int)     intcor
     15.54     -17.76       0.77        0.00     114.52       1.44       0.69       1.53       ----

> <Gold.Chemscore.Fitness>
15.5353

> <Gold.Chemscore.DG>
-17.7571

> <Gold.Chemscore.ZeroCoef>
-5.4800

> <Gold.Chemscore.Hbond>
0.7674

> <Gold.Chemscore.Metal>
0.0000

> <Gold.Chemscore.Lipo>
114.5221

> <Gold.Chemscore.Internal_Hbond>
0.0000

> <Gold.Chemscore.DEClash>
0.6918

> <Gold.Chemscore.DEInternal>
1.5300

> <Gold.Chemscore.Rot>
1.4395

> <Gold.Chemscore.Internal.Correction>
   9.000000E+99

> <Gold.Chemscore.Hbonds>
donor molecule, donor type, donor heavy atom, donor atom, acceptor molecule, acceptor atom, score
      L1  H     3    20       P1  8028  0.83

> <Gold.Chemscore.Hbond.Weighted>
-2.5632

> <Gold.Chemscore.Metal.Weighted>
-0.0000

> <Gold.Chemscore.Lipo.Weighted>
-13.3991

> <Gold.Chemscore.Internal_Hbond.Weighted>
0.0000

> <Gold.Chemscore.DEClash.Weighted>
0.6918

> <Gold.Chemscore.DEInternal.Weighted>
1.5300

> <Gold.Chemscore.Rot.Weighted>
3.6852

> <Gold.Chemscore.Internal.Correction.Weighted>
   9.000000E+99

> <Gold.Protein.RotatedTorsions>
[ 6907 6896 6895 6894 ] final  -82.32 input  -60.11 | X-H torsion
[ 7974 7965 7964 7962 ] final   90.83 input  175.53 | X-H torsion
[ 8008 7997 7996 7995 ] final  -45.85 input   59.86 | X-H torsion
[ 10167 10162 10161 10158 ] final   33.17 input  -65.29 | X-H torsion
[ 10718 10713 10712 10709 ] final    3.89 input   66.30 | X-H torsion
[ 10763 10752 10751 10750 ] final -173.44 input  -60.55 | X-H torsion
[ 11005 11000 10999 10996 ] final   65.45 input  -57.11 | X-H torsion

> <Gold.Protein.ActiveResidues>
 VAL166  LYS551  ARG553  GLY616  TRP617  ASP618  TYR619  PRO620  LYS621  CYS622 
 ASP623  PHE694  ASN695  SER759  ASP760  ASP761  ALA762  ILE779  LEU786  VAL792 
 PHE793  MET794  SER795  GLU796  ALA797  LYS798  CYS799  TRP800  GLU811  SER814 

> <Gold.Protein.RotatedAtoms>
  150.6899  134.3682  159.4980 H   0  0  0  0  0  0  0  0  0  0  0  0  # atno 6907 bound_to 6896
  152.1501  134.8992  160.0557 H   0  0  0  0  0  0  0  0  0  0  0  0  # atno 6908 bound_to 6896
  152.0092  133.3820  159.4250 H   0  0  0  0  0  0  0  0  0  0  0  0  # atno 6909 bound_to 6896
  145.5137  139.2277  143.2710 H   0  0  0  0  0  0  0  0  0  0  0  0  # atno 7974 bound_to 7965
  154.4003  140.1386  156.3915 H   0  0  0  0  0  0  0  0  0  0  0  0  # atno 8008 bound_to 7997
  155.7909  140.3479  155.5328 H   0  0  0  0  0  0  0  0  0  0  0  0  # atno 8009 bound_to 7997
  155.8580  140.0952  157.1622 H   0  0  0  0  0  0  0  0  0  0  0  0  # atno 8010 bound_to 7997
  140.4431  144.1158  150.6177 H   0  0  0  0  0  0  0  0  0  0  0  0  # atno 10167 bound_to 10162
  156.8845  130.5665  149.5652 H   0  0  0  0  0  0  0  0  0  0  0  0  # atno 10718 bound_to 10713
  154.6078  135.2861  155.0465 H   0  0  0  0  0  0  0  0  0  0  0  0  # atno 10763 bound_to 10752
  154.1707  135.6473  153.5012 H   0  0  0  0  0  0  0  0  0  0  0  0  # atno 10764 bound_to 10752
  153.0182  135.5400  154.6820 H   0  0  0  0  0  0  0  0  0  0  0  0  # atno 10765 bound_to 10752
  139.9894  134.6616  156.0118 H   0  0  0  0  0  0  0  0  0  0  0  0  # atno 11005 bound_to 11000
  146.2150  140.5946  142.9042 LP  0  0  0  0  0  0  0  0  0  0  0  0  # atno 17320 bound_to 7965
  144.7713  140.5644  143.6668 LP  0  0  0  0  0  0  0  0  0  0  0  0  # atno 17321 bound_to 7965
  140.4295  143.2575  151.9614 LP  0  0  0  0  0  0  0  0  0  0  0  0  # atno 17342 bound_to 10162
  139.4791  144.5757  151.8015 LP  0  0  0  0  0  0  0  0  0  0  0  0  # atno 17343 bound_to 10162
  156.0660  130.5703  150.9289 LP  0  0  0  0  0  0  0  0  0  0  0  0  # atno 17370 bound_to 10713
  157.6120  131.0935  150.8777 LP  0  0  0  0  0  0  0  0  0  0  0  0  # atno 17371 bound_to 10713
  141.1552  133.6543  156.4140 LP  0  0  0  0  0  0  0  0  0  0  0  0  # atno 17394 bound_to 11000
  140.4939  134.6550  157.5222 LP  0  0  0  0  0  0  0  0  0  0  0  0  # atno 17395 bound_to 11000

$$$$
