AV-unprocessed.smi:203|AV-procd|sdf|1593|dock1
  -GOLD-   2262019493D 1   1.00000     0.00000
 Structure written by MMmdl.
 57 61  0  0  0  0  0  0  0  0  1 V2000
  152.2797  136.3558  157.1425 O   0  0  0  0  0  0  0  0  0  0  0  0
  151.8235  137.2993  157.7840 C   0  0  0  0  0  0  0  0  0  0  0  0
  151.8808  138.7419  157.3093 C   0  0  0  0  0  0  0  0  0  0  0  0
  150.9331  139.4558  158.2907 C   0  0  2  0  0  0  0  0  0  0  0  0
  151.2555  140.9473  158.6178 C   0  0  1  0  0  0  0  0  0  0  0  0
  152.6472  141.1410  159.2774 C   0  0  0  0  0  0  0  0  0  0  0  0
  152.9329  142.6174  159.5830 C   0  0  0  0  0  0  0  0  0  0  0  0
  152.7979  143.4508  158.3050 C   0  0  0  0  0  0  0  0  0  0  0  0
  151.4116  143.2466  157.6816 C   0  0  0  0  0  0  0  0  0  0  0  0
  151.1373  141.8298  157.4419 N   0  0  0  0  0  0  0  0  0  0  0  0
  150.0228  141.7005  156.6867 C   0  0  0  0  0  0  0  0  0  0  0  0
  150.1630  141.1092  155.4749 N   0  0  0  0  0  0  0  0  0  0  0  0
  149.0992  140.9537  154.6810 C   0  0  0  0  0  0  0  0  0  0  0  0
  147.8335  141.3167  154.8999 N   0  0  0  0  0  0  0  0  0  0  0  0
  147.6936  141.9214  156.1146 C   0  0  0  0  0  0  0  0  0  0  0  0
  148.7273  142.1549  157.0637 C   0  0  0  0  0  0  0  0  0  0  0  0
  148.2099  142.8022  158.1795 N   0  0  0  0  0  0  0  0  0  0  0  0
  146.9430  142.9496  157.9025 C   0  0  0  0  0  0  0  0  0  0  0  0
  146.5492  142.4551  156.6803 N   0  0  0  0  0  0  0  0  0  0  0  0
  145.2139  142.5070  156.1140 C   0  0  0  0  0  0  0  0  0  0  0  0
  144.5187  141.1293  156.0882 C   0  0  2  0  0  0  0  0  0  0  0  0
  145.0188  140.4284  154.9672 O   0  0  0  0  0  0  0  0  0  0  0  0
  142.9775  141.1969  155.9971 C   0  0  1  0  0  0  0  0  0  0  0  0
  142.4364  142.2926  155.0776 C   0  0  0  0  0  0  0  0  0  0  0  0
  141.0351  141.8074  154.7450 C   0  0  0  0  0  0  0  0  0  0  0  0
  141.0926  140.3034  155.0263 C   0  0  0  0  0  0  0  0  0  0  0  0
  142.4464  140.0399  155.3674 O   0  0  0  0  0  0  0  0  0  0  0  0
  150.8145  138.5032  159.4974 C   0  0  0  0  0  0  0  0  0  0  0  0
  151.2171  137.2148  158.9679 N   0  0  0  0  0  0  0  0  0  0  0  0
  152.9092  139.0927  157.3740 H   0  0  0  0  0  0  0  0  0  0  0  0
  151.5486  138.8366  156.2750 H   0  0  0  0  0  0  0  0  0  0  0  0
  149.9458  139.4203  157.8281 H   0  0  0  0  0  0  0  0  0  0  0  0
  150.5162  141.2846  159.3447 H   0  0  0  0  0  0  0  0  0  0  0  0
  152.7243  140.5808  160.2071 H   0  0  0  0  0  0  0  0  0  0  0  0
  153.4355  140.7650  158.6262 H   0  0  0  0  0  0  0  0  0  0  0  0
  152.2351  142.9813  160.3382 H   0  0  0  0  0  0  0  0  0  0  0  0
  153.9340  142.7284  160.0006 H   0  0  0  0  0  0  0  0  0  0  0  0
  152.9575  144.5066  158.5254 H   0  0  0  0  0  0  0  0  0  0  0  0
  153.5691  143.1598  157.5906 H   0  0  0  0  0  0  0  0  0  0  0  0
  150.6463  143.6547  158.3438 H   0  0  0  0  0  0  0  0  0  0  0  0
  151.3502  143.8037  156.7453 H   0  0  0  0  0  0  0  0  0  0  0  0
  149.2898  140.4708  153.7340 H   0  0  0  0  0  0  0  0  0  0  0  0
  146.2577  143.4350  158.5821 H   0  0  0  0  0  0  0  0  0  0  0  0
  144.6214  143.2210  156.6878 H   0  0  0  0  0  0  0  0  0  0  0  0
  145.2910  142.9104  155.1036 H   0  0  0  0  0  0  0  0  0  0  0  0
  144.8000  140.5647  156.9780 H   0  0  0  0  0  0  0  0  0  0  0  0
  144.3938  140.5041  154.2625 H   0  0  0  0  0  0  0  0  0  0  0  0
  142.5403  141.2990  156.9926 H   0  0  0  0  0  0  0  0  0  0  0  0
  142.4434  143.2792  155.5414 H   0  0  0  0  0  0  0  0  0  0  0  0
  143.0324  142.3437  154.1651 H   0  0  0  0  0  0  0  0  0  0  0  0
  140.2942  142.2839  155.3880 H   0  0  0  0  0  0  0  0  0  0  0  0
  140.7723  142.0244  153.7093 H   0  0  0  0  0  0  0  0  0  0  0  0
  140.4495  140.0424  155.8680 H   0  0  0  0  0  0  0  0  0  0  0  0
  140.7898  139.7051  154.1665 H   0  0  0  0  0  0  0  0  0  0  0  0
  151.4823  138.7569  160.3181 H   0  0  0  0  0  0  0  0  0  0  0  0
  149.7975  138.4682  159.8894 H   0  0  0  0  0  0  0  0  0  0  0  0
  151.0698  136.3501  159.4680 H   0  0  0  0  0  0  0  0  0  0  0  0
  1  2  2  0  0  0  0
  2 29  1  0  0  0  0
  2  3  1  0  0  0  0
  3  4  1  0  0  0  0
  3 30  1  0  0  0  0
  3 31  1  0  0  0  0
  4  5  1  0  0  0  0
  4 28  1  0  0  0  0
  4 32  1  0  0  0  0
  5 10  1  0  0  0  0
  5  6  1  0  0  0  0
  5 33  1  0  0  0  0
  6  7  1  0  0  0  0
  6 34  1  0  0  0  0
  6 35  1  0  0  0  0
  7  8  1  0  0  0  0
  7 36  1  0  0  0  0
  7 37  1  0  0  0  0
  8  9  1  0  0  0  0
  8 38  1  0  0  0  0
  8 39  1  0  0  0  0
  9 10  1  0  0  0  0
  9 40  1  0  0  0  0
  9 41  1  0  0  0  0
 10 11  1  0  0  0  0
 11 16  1  0  0  0  0
 11 12  2  0  0  0  0
 12 13  1  0  0  0  0
 13 14  2  0  0  0  0
 13 42  1  0  0  0  0
 14 15  1  0  0  0  0
 15 19  1  0  0  0  0
 15 16  2  0  0  0  0
 16 17  1  0  0  0  0
 17 18  2  0  0  0  0
 18 19  1  0  0  0  0
 18 43  1  0  0  0  0
 19 20  1  0  0  0  0
 20 21  1  0  0  0  0
 20 44  1  0  0  0  0
 20 45  1  0  0  0  0
 21 22  1  0  0  0  0
 21 23  1  0  0  0  0
 21 46  1  0  0  0  0
 22 47  1  0  0  0  0
 23 27  1  0  0  0  0
 23 24  1  0  0  0  0
 23 48  1  0  0  0  0
 24 25  1  0  0  0  0
 24 49  1  0  0  0  0
 24 50  1  0  0  0  0
 25 26  1  0  0  0  0
 25 51  1  0  0  0  0
 25 52  1  0  0  0  0
 26 27  1  0  0  0  0
 26 53  1  0  0  0  0
 26 54  1  0  0  0  0
 28 29  1  0  0  0  0
 28 55  1  0  0  0  0
 28 56  1  0  0  0  0
 29 57  1  0  0  0  0
M  END
> <s_m_source_file>
AV-unprocessed.smi

> <i_m_source_file_index>
203

> <i_lp_mmshare_version>
43012

> <i_f3d_flags>
0

> <s_epik_input>
Tz1DMVtDSDJdW0NASF0oW0NIMl1bTkhdMSlbQ0BASF0yW0NIMl1bQ0gyXVtDSDJdW0NIMl1OMmMobltjSF1uMyljKGMzNCluW2NIXW40W0NIMl1bQ0BIXShbT0hdKVtDQEBIXTVbQ0gyXVtDSDJdW0NIMl1PNQ==

> <s_epik_cmdline>
J2VwaWtfcHl0aG9uJywgJy1waCcsICc3LjAnLCAnLXRuJywgJzgnLCAnLW1hJywgJzIwMCcsICctbWV0YWxfYmluZGluZycsICctaW1hZScsICc8aW5maWxlLm1hZT4nLCAnLW9tYWUnLCAnPG91dGZpbGUubWFlPic=

> <r_lp_tautomer_probability>
1

> <r_epik_Ionization_Penalty>
0.00175146

> <r_epik_Ionization_Penalty_Charging>
0

> <r_epik_Ionization_Penalty_Neutral>
0.00175146

> <r_epik_State_Penalty>
0.00109045

> <r_epik_Charging_Adjusted_Penalty>
0.00109045

> <i_epik_Tot_Q>
0

> <i_epik_Tot_abs_Q>
0

> <r_epik_Metal_State_Penalty>
-0

> <b_epik_Metal_Only>
0

> <s_lp_Force_Field>
OPLS_2005

> <r_lp_Energy>
55.5443

> <b_lp_Chiralities_Consistent>
1

> <s_lp_Variant>
AV-unprocessed.smi:203-12

> <Gold.Version>
5.8.1

> <Gold.Id.Protein>
6NUR|6NUR_protein|mol2

> <Gold.PLP.Fitness>
42.1730

> <Gold.PLP.PLP>
-34.8846

> <Gold.PLP.part.hbond>
-2.7262

> <Gold.PLP.part.metal>
0.0000

> <Gold.PLP.part.buried>
-5.4890

> <Gold.PLP.part.nonpolar>
-27.1551

> <Gold.PLP.part.repulsive>
0.6293

> <Gold.PLP.ligand.clash>
0.0000

> <Gold.PLP.ligand.torsion>
1.0507

> <Gold.PLP.Chemscore.Hbond>
1.9916

> <Gold.PLP.Chemscore.CHOScore>
1.0000

> <Gold.PLP.Chemscore.Metal>
0.0000

> <Gold.Chemscore.Hbonds>
donor molecule, donor type, donor heavy atom, donor atom, acceptor molecule, acceptor atom, score
      L1  H    22    47       P1 10175  1.00
      P1  H 10752 10764       L1     1  0.13
      L1  C    13    42       P1  7957  0.76

> <Gold.PLP.Chemscore.Internal.Correction>
0.4149

> <Gold.Rescore>
     Score         DG    S(hbond)    S(metal)    S(lipo)     H(rot)  DE(clash)    DE(int)     intcor
     12.33     -13.31       1.98        0.00      69.96       2.72       0.00       0.98       ----

> <Gold.Chemscore.Fitness>
12.3259

> <Gold.Chemscore.DG>
-13.3106

> <Gold.Chemscore.ZeroCoef>
-5.4800

> <Gold.Chemscore.Hbond>
1.9762

> <Gold.Chemscore.Metal>
0.0000

> <Gold.Chemscore.Lipo>
69.9644

> <Gold.Chemscore.Internal_Hbond>
0.0000

> <Gold.Chemscore.DEClash>
0.0000

> <Gold.Chemscore.DEInternal>
0.9846

> <Gold.Chemscore.Rot>
2.7171

> <Gold.Chemscore.Internal.Correction>
   9.000000E+99

> <Gold.Chemscore.Hbonds>
donor molecule, donor type, donor heavy atom, donor atom, acceptor molecule, acceptor atom, score
      L1  H    22    47       P1 10175  0.99
      P1  H 10752 10764       L1     1  0.16

> <Gold.Chemscore.Hbond.Weighted>
-6.6004

> <Gold.Chemscore.Metal.Weighted>
-0.0000

> <Gold.Chemscore.Lipo.Weighted>
-8.1858

> <Gold.Chemscore.Internal_Hbond.Weighted>
0.0000

> <Gold.Chemscore.DEClash.Weighted>
0.0000

> <Gold.Chemscore.DEInternal.Weighted>
0.9846

> <Gold.Chemscore.Rot.Weighted>
6.9557

> <Gold.Chemscore.Internal.Correction.Weighted>
   9.000000E+99

> <Gold.Protein.RotatedTorsions>
[ 6907 6896 6895 6894 ] final  -91.25 input  -60.11 | X-H torsion
[ 7974 7965 7964 7962 ] final  -95.19 input  175.53 | X-H torsion
[ 8008 7997 7996 7995 ] final -149.68 input   59.86 | X-H torsion
[ 10167 10162 10161 10158 ] final  -64.44 input  -65.29 | X-H torsion
[ 10718 10713 10712 10709 ] final  113.52 input   66.30 | X-H torsion
[ 10763 10752 10751 10750 ] final  -17.36 input  -60.55 | X-H torsion
[ 11005 11000 10999 10996 ] final  -64.32 input  -57.11 | X-H torsion

> <Gold.Protein.ActiveResidues>
 VAL166  LYS551  ARG553  GLY616  TRP617  ASP618  TYR619  PRO620  LYS621  CYS622 
 ASP623  PHE694  ASN695  SER759  ASP760  ASP761  ALA762  ILE779  LEU786  VAL792 
 PHE793  MET794  SER795  GLU796  ALA797  LYS798  CYS799  TRP800  GLU811  SER814 

> <Gold.Protein.RotatedAtoms>
  150.6890  134.2306  159.4432 H   0  0  0  0  0  0  0  0  0  0  0  0  # atno 6907 bound_to 6896
  152.0257  134.9795  160.0581 H   0  0  0  0  0  0  0  0  0  0  0  0  # atno 6908 bound_to 6896
  152.1354  133.4397  159.4778 H   0  0  0  0  0  0  0  0  0  0  0  0  # atno 6909 bound_to 6896
  145.3634  140.9495  143.2488 H   0  0  0  0  0  0  0  0  0  0  0  0  # atno 7974 bound_to 7965
  155.6115  140.0672  157.2704 H   0  0  0  0  0  0  0  0  0  0  0  0  # atno 8008 bound_to 7997
  154.4252  140.1800  156.1325 H   0  0  0  0  0  0  0  0  0  0  0  0  # atno 8009 bound_to 7997
  156.0081  140.3329  155.6916 H   0  0  0  0  0  0  0  0  0  0  0  0  # atno 8010 bound_to 7997
  140.5801  143.2326  151.6361 H   0  0  0  0  0  0  0  0  0  0  0  0  # atno 10167 bound_to 10162
  157.6333  131.0985  150.7053 H   0  0  0  0  0  0  0  0  0  0  0  0  # atno 10718 bound_to 10713
  153.5727  135.7007  153.5497 H   0  0  0  0  0  0  0  0  0  0  0  0  # atno 10763 bound_to 10752
  153.3330  135.4042  155.1510 H   0  0  0  0  0  0  0  0  0  0  0  0  # atno 10764 bound_to 10752
  154.8630  135.3723  154.5251 H   0  0  0  0  0  0  0  0  0  0  0  0  # atno 10765 bound_to 10752
  141.1421  133.6664  156.5815 H   0  0  0  0  0  0  0  0  0  0  0  0  # atno 11005 bound_to 11000
  144.8630  139.5150  143.6803 LP  0  0  0  0  0  0  0  0  0  0  0  0  # atno 17320 bound_to 7965
  146.2917  139.7159  142.9156 LP  0  0  0  0  0  0  0  0  0  0  0  0  # atno 17321 bound_to 7965
  139.5165  144.3346  152.0796 LP  0  0  0  0  0  0  0  0  0  0  0  0  # atno 17342 bound_to 10162
  140.2495  144.4184  150.6227 LP  0  0  0  0  0  0  0  0  0  0  0  0  # atno 17343 bound_to 10162
  156.7388  130.4732  149.5482 LP  0  0  0  0  0  0  0  0  0  0  0  0  # atno 17370 bound_to 10713
  156.1553  130.6338  151.0649 LP  0  0  0  0  0  0  0  0  0  0  0  0  # atno 17371 bound_to 10713
  140.3834  134.7503  157.4676 LP  0  0  0  0  0  0  0  0  0  0  0  0  # atno 17394 bound_to 11000
  140.0620  134.5982  155.8738 LP  0  0  0  0  0  0  0  0  0  0  0  0  # atno 17395 bound_to 11000

$$$$
