AV-unprocessed.smi:1748|AV-procd|sdf|7043|dock8
  -GOLD-   22720 8263D 1   1.00000     0.00000
 Structure written by MMmdl.
 39 40  0  0  0  0  0  0  0  0  3 V2000
  141.8691  133.9103  152.5792 C   0  0  0  0  0  0  0  0  0  0  0  0
  143.0304  133.8514  151.6657 N   0  3  2  0  0  0  0  0  0  0  0  0
  143.0821  132.5809  150.8999 C   0  0  0  0  0  0  0  0  0  0  0  0
  144.2238  132.6037  149.8703 C   0  0  0  0  0  0  0  0  0  0  0  0
  145.5706  132.8986  150.5454 C   0  0  0  0  0  0  0  0  0  0  0  0
  145.4828  134.2017  151.3565 C   0  0  2  0  0  0  0  0  0  0  0  0
  146.7455  134.4449  152.0478 N   0  0  0  0  0  0  0  0  0  0  0  0
  147.3212  133.6056  152.9210 C   0  0  0  0  0  0  0  0  0  0  0  0
  146.8329  132.5182  153.2284 O   0  0  0  0  0  0  0  0  0  0  0  0
  148.4847  134.1062  153.3741 N   0  0  0  0  0  0  0  0  0  0  0  0
  149.3780  133.5657  154.3146 C   0  0  0  0  0  0  0  0  0  0  0  0
  149.7051  132.2466  154.4042 C   0  0  0  0  0  0  0  0  0  0  0  0
  150.6255  131.7399  155.4151 C   0  0  0  0  0  0  0  0  0  0  0  0
  151.0257  130.2827  155.5563 C   0  0  0  0  0  0  0  0  0  0  0  0
  152.3479  130.1561  155.4489 F   0  0  0  0  0  0  0  0  0  0  0  0
  150.6637  129.8190  156.7522 F   0  0  0  0  0  0  0  0  0  0  0  0
  150.4526  129.5265  154.6202 F   0  0  0  0  0  0  0  0  0  0  0  0
  151.0930  132.7370  156.2476 C   0  0  0  0  0  0  0  0  0  0  0  0
  150.8134  134.0587  156.2328 N   0  5  0  0  0  0  0  0  0  0  0  0
  149.9555  134.5234  155.2808 C   0  0  0  0  0  0  0  0  0  0  0  0
  149.6554  135.7159  155.2101 O   0  0  0  0  0  0  0  0  0  0  0  0
  144.3113  134.1351  152.3597 C   0  0  0  0  0  0  0  0  0  0  0  0
  141.9347  133.1370  153.3458 H   0  0  0  0  0  0  0  0  0  0  0  0
  140.9384  133.7687  152.0289 H   0  0  0  0  0  0  0  0  0  0  0  0
  141.8172  134.8804  153.0743 H   0  0  0  0  0  0  0  0  0  0  0  0
  143.2130  131.7443  151.5882 H   0  0  0  0  0  0  0  0  0  0  0  0
  142.1327  132.4238  150.3864 H   0  0  0  0  0  0  0  0  0  0  0  0
  144.2716  131.6489  149.3456 H   0  0  0  0  0  0  0  0  0  0  0  0
  144.0192  133.3624  149.1135 H   0  0  0  0  0  0  0  0  0  0  0  0
  145.8408  132.0678  151.1990 H   0  0  0  0  0  0  0  0  0  0  0  0
  146.3561  132.9722  149.7921 H   0  0  0  0  0  0  0  0  0  0  0  0
  145.3037  135.0222  150.6584 H   0  0  0  0  0  0  0  0  0  0  0  0
  147.2148  135.3170  151.8506 H   0  0  0  0  0  0  0  0  0  0  0  0
  148.7929  134.9758  152.9642 H   0  0  0  0  0  0  0  0  0  0  0  0
  149.2688  131.5253  153.7332 H   0  0  0  0  0  0  0  0  0  0  0  0
  151.7980  132.4221  157.0467 H   0  0  0  0  0  0  0  0  0  0  0  0
  144.2248  135.0832  152.8922 H   0  0  0  0  0  0  0  0  0  0  0  0
  144.4964  133.3657  153.1115 H   0  0  0  0  0  0  0  0  0  0  0  0
  142.9010  134.5916  150.9904 H   0  0  0  0  0  0  0  0  0  0  0  0
  1  2  1  0  0  0  0
  1 23  1  0  0  0  0
  1 24  1  0  0  0  0
  1 25  1  0  0  0  0
  2 22  1  0  0  0  0
  2  3  1  0  0  0  0
  2 39  1  0  0  0  0
  3  4  1  0  0  0  0
  3 26  1  0  0  0  0
  3 27  1  0  0  0  0
  4  5  1  0  0  0  0
  4 28  1  0  0  0  0
  4 29  1  0  0  0  0
  5  6  1  0  0  0  0
  5 30  1  0  0  0  0
  5 31  1  0  0  0  0
  6  7  1  0  0  0  0
  6 22  1  0  0  0  0
  6 32  1  0  0  0  0
  7  8  1  0  0  0  0
  7 33  1  0  0  0  0
  8  9  2  0  0  0  0
  8 10  1  0  0  0  0
 10 11  1  0  0  0  0
 10 34  1  0  0  0  0
 11 20  1  0  0  0  0
 11 12  2  0  0  0  0
 12 13  1  0  0  0  0
 12 35  1  0  0  0  0
 13 14  1  0  0  0  0
 13 18  2  0  0  0  0
 14 15  1  0  0  0  0
 14 16  1  0  0  0  0
 14 17  1  0  0  0  0
 18 19  1  0  0  0  0
 18 36  1  0  0  0  0
 19 20  1  0  0  0  0
 20 21  2  0  0  0  0
 22 37  1  0  0  0  0
 22 38  1  0  0  0  0
M  CHG  1   2   1
M  CHG  1  19  -1
M  END
> <s_m_source_file>
AV-unprocessed.smi

> <i_m_source_file_index>
1748

> <i_lp_mmshare_version>
43012

> <i_f3d_flags>
0

> <s_epik_input>
W0NIM11OMVtDSDJdW0NIMl1bQ0gyXVtDQEhdKFtDSDJdMSlbTkhdQyg9TylbTkhdYzJbY0hdYyhDKEYpKEYpRilbY0hdW25IXWMyPU8=

> <s_epik_cmdline>
J2VwaWtfcHl0aG9uJywgJy1waCcsICc3LjAnLCAnLXRuJywgJzgnLCAnLW1hJywgJzIwMCcsICctbWV0YWxfYmluZGluZycsICctaW1hZScsICc8aW5maWxlLm1hZT4nLCAnLW9tYWUnLCAnPG91dGZpbGUubWFlPic=

> <r_lp_tautomer_probability>
1

> <r_epik_Ionization_Penalty>
3.00907

> <r_epik_Ionization_Penalty_Charging>
0.148702

> <r_epik_Ionization_Penalty_Neutral>
2.86036

> <r_epik_State_Penalty>
2.85557

> <r_epik_Charging_Adjusted_Penalty>
3.00428

> <i_epik_Tot_Q>
0

> <i_epik_Tot_abs_Q>
2

> <r_epik_Metal_State_Penalty>
0.443779

> <b_epik_Metal_Only>
1

> <s_lp_Force_Field>
OPLS_2005

> <r_lp_Energy>
26.5131

> <b_lp_Chiralities_Consistent>
1

> <s_lp_Variant>
AV-unprocessed.smi:1748-8

> <Gold.Version>
5.8.1

> <Gold.Id.Protein>
6NUR|6NUR_protein|mol2

> <Gold.PLP.Fitness>
41.9828

> <Gold.PLP.PLP>
-36.7721

> <Gold.PLP.part.hbond>
-3.0000

> <Gold.PLP.part.metal>
0.0000

> <Gold.PLP.part.buried>
-1.8549

> <Gold.PLP.part.nonpolar>
-31.5270

> <Gold.PLP.part.repulsive>
0.2715

> <Gold.PLP.ligand.clash>
0.0000

> <Gold.PLP.ligand.torsion>
0.3338

> <Gold.PLP.Chemscore.Hbond>
1.9578

> <Gold.PLP.Chemscore.CHOScore>
0.0000

> <Gold.PLP.Chemscore.Metal>
0.0000

> <Gold.Chemscore.Hbonds>
donor molecule, donor type, donor heavy atom, donor atom, acceptor molecule, acceptor atom, score
      L1  H     2    39       P1 10186  0.09
      L1  H     7    33       P1  7948  0.88
      L1  H    10    34       P1  7948  1.00

> <Gold.PLP.Chemscore.Internal.Correction>
0.0048

> <Gold.Rescore>
     Score         DG    S(hbond)    S(metal)    S(lipo)     H(rot)  DE(clash)    DE(int)     intcor
     14.70     -16.76       1.57        0.00      73.45       1.00       0.65       1.41       ----

> <Gold.Chemscore.Fitness>
14.6960

> <Gold.Chemscore.DG>
-16.7560

> <Gold.Chemscore.ZeroCoef>
-5.4800

> <Gold.Chemscore.Hbond>
1.5697

> <Gold.Chemscore.Metal>
0.0000

> <Gold.Chemscore.Lipo>
73.4471

> <Gold.Chemscore.Internal_Hbond>
0.0000

> <Gold.Chemscore.DEClash>
0.6455

> <Gold.Chemscore.DEInternal>
1.4145

> <Gold.Chemscore.Rot>
1.0000

> <Gold.Chemscore.Internal.Correction>
   9.000000E+99

> <Gold.Chemscore.Hbonds>
donor molecule, donor type, donor heavy atom, donor atom, acceptor molecule, acceptor atom, score
      L1  H     2    39       P1 10186  0.01
      L1  H     7    33       P1  7948  0.85
      L1  H    10    34       P1  7948  0.25

> <Gold.Chemscore.Hbond.Weighted>
-5.2427

> <Gold.Chemscore.Metal.Weighted>
-0.0000

> <Gold.Chemscore.Lipo.Weighted>
-8.5933

> <Gold.Chemscore.Internal_Hbond.Weighted>
0.0000

> <Gold.Chemscore.DEClash.Weighted>
0.6455

> <Gold.Chemscore.DEInternal.Weighted>
1.4145

> <Gold.Chemscore.Rot.Weighted>
2.5600

> <Gold.Chemscore.Internal.Correction.Weighted>
   9.000000E+99

> <Gold.Protein.RotatedTorsions>
[ 6907 6896 6895 6894 ] final  170.13 input  -60.11 | X-H torsion
[ 7974 7965 7964 7962 ] final -132.08 input  175.53 | X-H torsion
[ 8008 7997 7996 7995 ] final   73.25 input   59.86 | X-H torsion
[ 10167 10162 10161 10158 ] final  176.26 input  -65.29 | X-H torsion
[ 10718 10713 10712 10709 ] final -166.67 input   66.30 | X-H torsion
[ 10763 10752 10751 10750 ] final -131.94 input  -60.55 | X-H torsion
[ 11005 11000 10999 10996 ] final  -63.75 input  -57.11 | X-H torsion

> <Gold.Protein.ActiveResidues>
 VAL166  LYS551  ARG553  GLY616  TRP617  ASP618  TYR619  PRO620  LYS621  CYS622 
 ASP623  PHE694  ASN695  SER759  ASP760  ASP761  ALA762  ILE779  LEU786  VAL792 
 PHE793  MET794  SER795  GLU796  ALA797  LYS798  CYS799  TRP800  GLU811  SER814 

> <Gold.Protein.RotatedAtoms>
  151.8209  133.3394  159.3583 H   0  0  0  0  0  0  0  0  0  0  0  0  # atno 6907 bound_to 6896
  150.7295  134.5574  159.5834 H   0  0  0  0  0  0  0  0  0  0  0  0  # atno 6908 bound_to 6896
  152.3006  134.7616  160.0409 H   0  0  0  0  0  0  0  0  0  0  0  0  # atno 6909 bound_to 6896
  144.9319  140.7138  143.4901 H   0  0  0  0  0  0  0  0  0  0  0  0  # atno 7974 bound_to 7965
  155.7809  140.3482  155.5297 H   0  0  0  0  0  0  0  0  0  0  0  0  # atno 8008 bound_to 7997
  155.8730  140.0989  157.1558 H   0  0  0  0  0  0  0  0  0  0  0  0  # atno 8009 bound_to 7997
  154.4019  140.1337  156.4089 H   0  0  0  0  0  0  0  0  0  0  0  0  # atno 8010 bound_to 7997
  139.5207  144.2936  152.0441 H   0  0  0  0  0  0  0  0  0  0  0  0  # atno 10167 bound_to 10162
  156.6713  130.9085  151.3044 H   0  0  0  0  0  0  0  0  0  0  0  0  # atno 10718 bound_to 10713
  154.8747  135.3814  154.4329 H   0  0  0  0  0  0  0  0  0  0  0  0  # atno 10763 bound_to 10752
  153.5021  135.7030  153.5831 H   0  0  0  0  0  0  0  0  0  0  0  0  # atno 10764 bound_to 10752
  153.4158  135.3913  155.2046 H   0  0  0  0  0  0  0  0  0  0  0  0  # atno 10765 bound_to 10752
  141.1403  133.6656  156.5728 H   0  0  0  0  0  0  0  0  0  0  0  0  # atno 11005 bound_to 11000
  145.3128  139.1813  143.4629 LP  0  0  0  0  0  0  0  0  0  0  0  0  # atno 17320 bound_to 7965
  146.3250  140.3135  142.8628 LP  0  0  0  0  0  0  0  0  0  0  0  0  # atno 17321 bound_to 7965
  140.2386  144.4293  150.6269 LP  0  0  0  0  0  0  0  0  0  0  0  0  # atno 17342 bound_to 10162
  140.6306  143.2187  151.6504 LP  0  0  0  0  0  0  0  0  0  0  0  0  # atno 17343 bound_to 10162
  157.7076  130.9403  150.0982 LP  0  0  0  0  0  0  0  0  0  0  0  0  # atno 17370 bound_to 10713
  156.1937  130.3656  149.8877 LP  0  0  0  0  0  0  0  0  0  0  0  0  # atno 17371 bound_to 10713
  140.3899  134.7449  157.4715 LP  0  0  0  0  0  0  0  0  0  0  0  0  # atno 17394 bound_to 11000
  140.0574  134.6044  155.8789 LP  0  0  0  0  0  0  0  0  0  0  0  0  # atno 17395 bound_to 11000

$$$$
