#       Name:                AV-unprocessed.smi:333
#       Creating user name   scv26
#       Creation time:       Thu Mar 26 22:27:21 2020


#       File generated by GOLD software.
#

@<TRIPOS>MOLECULE
AV-unprocessed.smi:333
    32    32     1
SMALL
NO_CHARGES


@<TRIPOS>ATOM
      1 ****        -1.8847   3.1638  -0.3933 N.am           1 S1                 0.0000
      2 ****        -2.5930   2.0279  -0.4240 C.2            1 S1                 0.0000
      3 ****        -3.8210   2.0969  -0.4813 O.2            1 S1                 0.0000
      4 ****        -1.7663   0.7997  -0.3805 C.2            1 S1                 0.0000
      5 ****        -0.4093   0.8161  -0.3630 C.2            1 S1                 0.0000
      6 ****         0.3908  -0.3993  -0.3201 C.2            1 S1                 0.0000
      7 ****         1.9121  -0.3096  -0.3140 C.3            1 S1                 0.0000
      8 ****         2.4726   0.2875   0.9872 C.3            1 S1                 0.0000
      9 ****         2.2067  -0.5588   2.0855 O.3            1 S1                 0.0000
     10 ****        -0.3434  -1.5901  -0.3177 C.2            1 S1                 0.0000
     11 ****         0.3580  -2.9592  -0.2961 C.3            1 S1                 0.0000
     12 ****         1.0804  -3.1316  -1.4039 F              1 S1                 0.0000
     13 ****         1.1683  -3.0630   0.7574 F              1 S1                 0.0000
     14 ****        -0.5118  -3.9710  -0.2281 F              1 S1                 0.0000
     15 ****        -1.7048  -1.6306  -0.3298 N.pl3          1 S1                -1.0000
     16 ****        -2.4694  -0.5042  -0.3608 C.2            1 S1                 0.0000
     17 ****        -3.6978  -0.5934  -0.3707 O.2            1 S1                 0.0000
     18 ****        -2.3623   4.0526  -0.4158 H              1 S1                 0.0000
     19 ****        -0.8773   3.1249  -0.3447 H              1 S1                 0.0000
     20 ****         0.1347   1.7483  -0.3829 H              1 S1                 0.0000
     21 ****         2.3776  -1.2740  -0.5064 H              1 S1                 0.0000
     22 ****         2.2053   0.3258  -1.1502 H              1 S1                 0.0000
     23 ****         3.5515   0.4190   0.9037 H              1 S1                 0.0000
     24 ****         2.0455   1.2718   1.1810 H              1 S1                 0.0000
     25 ****         2.5386  -0.1485   2.8690 H              1 S1                 0.0000
     26 ****        -4.2712   2.9895  -0.5041 LP             1 S1                 0.0000
     27 ****        -4.3683   1.2602  -0.5051 LP             1 S1                 0.0000
     28 ****         2.6591  -1.4402   1.9491 LP             1 S1                 0.0000
     29 ****         1.2204  -0.7002   2.1710 LP             1 S1                 0.0000
     30 ****        -2.1600  -2.5210  -0.3154 LP             1 S1                 0.0000
     31 ****        -4.2591   0.2339  -0.3928 LP             1 S1                 0.0000
     32 ****        -4.1339  -1.4932  -0.3567 LP             1 S1                 0.0000
@<TRIPOS>BOND
    1    1    2 am    
    2    1   18 1     
    3    1   19 1     
    4    2    3 2     
    5    2    4 1     
    6    4   16 1     
    7    4    5 2     
    8    5    6 1     
    9    5   20 1     
   10    6    7 1     
   11    6   10 2     
   12    7    8 1     
   13    7   21 1     
   14    7   22 1     
   15    8    9 1     
   16    8   23 1     
   17    8   24 1     
   18    9   25 1     
   19   10   11 1     
   20   10   15 1     
   21   11   12 1     
   22   11   13 1     
   23   11   14 1     
   24   15   16 1     
   25   16   17 2     
   26    3   26 1     
   27    3   27 1     
   28    9   28 1     
   29    9   29 1     
   30   15   30 1     
   31   17   31 1     
   32   17   32 1     
@<TRIPOS>SUBSTRUCTURE
      1 S1             1
@<TRIPOS>SET
LONE_PAIRS      STATIC     ATOMS    <user>   **** ""
7 26 27 28 29 30 31 32
DONOR_HYDROGENS      STATIC     ATOMS    <user>   **** ""
3 18 19 25
ATOM$BLUE        STATIC     ATOMS    COLORGROUP SYSTEM
7 26 27 28 29 30 31 32
ATOM$RED        STATIC     ATOMS    COLORGROUP SYSTEM
3 18 19 25
