AV-unprocessed.smi:1889|AV-procd|sdf|7660|dock2
  -GOLD-   22720 9393D 1   1.00000     0.00000
 Structure written by MMmdl.
 36 37  0  0  0  0  0  0  0  0  1 V2000
  150.8550  143.3257  158.8640 C   0  0  0  0  0  0  0  0  0  0  0  0
  150.4170  142.1736  157.9534 C   0  0  0  0  0  0  0  0  0  0  0  0
  151.0632  142.2409  156.5625 C   0  0  0  0  0  0  0  0  0  0  0  0
  150.6650  141.0954  155.6925 C   0  0  0  0  0  0  0  0  0  0  0  0
  151.5494  140.2201  155.1982 N   0  0  0  0  0  0  0  0  0  0  0  0
  150.9499  139.2671  154.3869 N   0  0  0  0  0  0  0  0  0  0  0  0
  149.6282  139.4611  154.2812 C   0  0  0  0  0  0  0  0  0  0  0  0
  148.7686  138.6373  153.5074 N   0  0  0  0  0  0  0  0  0  0  0  0
  147.4292  138.6943  153.4043 C   0  0  0  0  0  0  0  0  0  0  0  0
  146.7028  139.5002  153.9865 O   0  0  0  0  0  0  0  0  0  0  0  0
  146.9662  137.7466  152.5766 N   0  0  0  0  0  0  0  0  0  0  0  0
  145.5601  137.5320  152.2514 C   0  0  0  0  0  0  0  0  0  0  0  0
  145.2121  136.0353  152.1440 C   0  0  1  0  0  0  0  0  0  0  0  0
  143.7309  135.7400  152.2522 C   0  0  0  0  0  0  0  0  0  0  0  0
  143.6523  134.3358  151.6634 C   0  0  0  0  0  0  0  0  0  0  0  0
  144.6563  134.2877  150.6544 O   0  0  0  0  0  0  0  0  0  0  0  0
  145.5466  135.3918  150.7963 C   0  0  0  0  0  0  0  0  0  0  0  0
  149.0026  140.8339  155.1783 S   0  0  0  0  0  0  0  0  0  0  0  0
  150.3811  143.2477  159.8426 H   0  0  0  0  0  0  0  0  0  0  0  0
  150.5806  144.2910  158.4376 H   0  0  0  0  0  0  0  0  0  0  0  0
  151.9346  143.3195  159.0161 H   0  0  0  0  0  0  0  0  0  0  0  0
  150.6707  141.2254  158.4286 H   0  0  0  0  0  0  0  0  0  0  0  0
  149.3312  142.1884  157.8527 H   0  0  0  0  0  0  0  0  0  0  0  0
  150.7892  143.1722  156.0651 H   0  0  0  0  0  0  0  0  0  0  0  0
  152.1497  142.2445  156.6543 H   0  0  0  0  0  0  0  0  0  0  0  0
  149.2283  137.9151  152.9731 H   0  0  0  0  0  0  0  0  0  0  0  0
  147.6333  137.1271  152.1402 H   0  0  0  0  0  0  0  0  0  0  0  0
  144.9281  138.0135  152.9997 H   0  0  0  0  0  0  0  0  0  0  0  0
  145.3532  138.0339  151.3058 H   0  0  0  0  0  0  0  0  0  0  0  0
  145.7269  135.4822  152.9315 H   0  0  0  0  0  0  0  0  0  0  0  0
  143.3555  135.7937  153.2744 H   0  0  0  0  0  0  0  0  0  0  0  0
  143.1555  136.4351  151.6389 H   0  0  0  0  0  0  0  0  0  0  0  0
  143.8887  133.5915  152.4248 H   0  0  0  0  0  0  0  0  0  0  0  0
  142.6665  134.1054  151.2590 H   0  0  0  0  0  0  0  0  0  0  0  0
  145.3602  136.0875  149.9774 H   0  0  0  0  0  0  0  0  0  0  0  0
  146.5872  135.0721  150.7363 H   0  0  0  0  0  0  0  0  0  0  0  0
  1  2  1  0  0  0  0
  1 19  1  0  0  0  0
  1 20  1  0  0  0  0
  1 21  1  0  0  0  0
  2  3  1  0  0  0  0
  2 22  1  0  0  0  0
  2 23  1  0  0  0  0
  3  4  1  0  0  0  0
  3 24  1  0  0  0  0
  3 25  1  0  0  0  0
  4 18  1  0  0  0  0
  4  5  2  0  0  0  0
  5  6  1  0  0  0  0
  6  7  2  0  0  0  0
  7  8  1  0  0  0  0
  7 18  1  0  0  0  0
  8  9  1  0  0  0  0
  8 26  1  0  0  0  0
  9 10  2  0  0  0  0
  9 11  1  0  0  0  0
 11 12  1  0  0  0  0
 11 27  1  0  0  0  0
 12 13  1  0  0  0  0
 12 28  1  0  0  0  0
 12 29  1  0  0  0  0
 13 17  1  0  0  0  0
 13 14  1  0  0  0  0
 13 30  1  0  0  0  0
 14 15  1  0  0  0  0
 14 31  1  0  0  0  0
 14 32  1  0  0  0  0
 15 16  1  0  0  0  0
 15 33  1  0  0  0  0
 15 34  1  0  0  0  0
 16 17  1  0  0  0  0
 17 35  1  0  0  0  0
 17 36  1  0  0  0  0
M  END
> <s_m_source_file>
AV-unprocessed.smi

> <i_m_source_file_index>
1889

> <i_lp_mmshare_version>
43012

> <i_f3d_flags>
0

> <s_epik_input>
W0NIM11bQ0gyXVtDSDJdYzFubmMoczEpW05IXUMoPU8pW05IXVtDSDJdW0NAQEhdMltDSDJdW0NIMl1PW0NIMl0y

> <s_epik_cmdline>
J2VwaWtfcHl0aG9uJywgJy1waCcsICc3LjAnLCAnLXRuJywgJzgnLCAnLW1hJywgJzIwMCcsICctbWV0YWxfYmluZGluZycsICctaW1hZScsICc8aW5maWxlLm1hZT4nLCAnLW9tYWUnLCAnPG91dGZpbGUubWFlPic=

> <r_lp_tautomer_probability>
1

> <r_epik_Ionization_Penalty>
0.000450509

> <r_epik_Ionization_Penalty_Charging>
0

> <r_epik_Ionization_Penalty_Neutral>
0.000450509

> <r_epik_State_Penalty>
-0

> <r_epik_Charging_Adjusted_Penalty>
0

> <i_epik_Tot_Q>
0

> <i_epik_Tot_abs_Q>
0

> <r_epik_Metal_State_Penalty>
0.207747

> <b_epik_Metal_Only>
0

> <s_lp_Force_Field>
OPLS_2005

> <r_lp_Energy>
13.8877

> <b_lp_Chiralities_Consistent>
1

> <s_lp_Variant>
AV-unprocessed.smi:1889-2

> <Gold.Version>
5.8.1

> <Gold.Id.Protein>
6NUR|6NUR_protein|mol2

> <Gold.PLP.Fitness>
36.9686

> <Gold.PLP.PLP>
-31.8245

> <Gold.PLP.part.hbond>
-5.0000

> <Gold.PLP.part.metal>
0.0000

> <Gold.PLP.part.buried>
-4.2140

> <Gold.PLP.part.nonpolar>
-22.6439

> <Gold.PLP.part.repulsive>
0.6051

> <Gold.PLP.ligand.clash>
0.0000

> <Gold.PLP.ligand.torsion>
0.3638

> <Gold.PLP.Chemscore.Hbond>
1.9440

> <Gold.PLP.Chemscore.CHOScore>
0.0000

> <Gold.PLP.Chemscore.Metal>
0.0000

> <Gold.Chemscore.Hbonds>
donor molecule, donor type, donor heavy atom, donor atom, acceptor molecule, acceptor atom, score
      L1  H     8    26       P1  7948  0.93
      L1  H    11    27       P1  7948  1.00

> <Gold.PLP.Chemscore.Internal.Correction>
0.0397

> <Gold.Rescore>
     Score         DG    S(hbond)    S(metal)    S(lipo)     H(rot)  DE(clash)    DE(int)     intcor
     13.48     -15.25       1.89        0.00      65.11       1.63       0.29       1.48       ----

> <Gold.Chemscore.Fitness>
13.4817

> <Gold.Chemscore.DG>
-15.2514

> <Gold.Chemscore.ZeroCoef>
-5.4800

> <Gold.Chemscore.Hbond>
1.8949

> <Gold.Chemscore.Metal>
0.0000

> <Gold.Chemscore.Lipo>
65.1128

> <Gold.Chemscore.Internal_Hbond>
0.0000

> <Gold.Chemscore.DEClash>
0.2936

> <Gold.Chemscore.DEInternal>
1.4761

> <Gold.Chemscore.Rot>
1.6311

> <Gold.Chemscore.Internal.Correction>
   9.000000E+99

> <Gold.Chemscore.Hbonds>
donor molecule, donor type, donor heavy atom, donor atom, acceptor molecule, acceptor atom, score
      L1  H     8    26       P1  7948  0.84
      L1  H    11    27       P1  7948  0.98

> <Gold.Chemscore.Hbond.Weighted>
-6.3289

> <Gold.Chemscore.Metal.Weighted>
-0.0000

> <Gold.Chemscore.Lipo.Weighted>
-7.6182

> <Gold.Chemscore.Internal_Hbond.Weighted>
0.0000

> <Gold.Chemscore.DEClash.Weighted>
0.2936

> <Gold.Chemscore.DEInternal.Weighted>
1.4761

> <Gold.Chemscore.Rot.Weighted>
4.1757

> <Gold.Chemscore.Internal.Correction.Weighted>
   9.000000E+99

> <Gold.Protein.RotatedTorsions>
[ 6907 6896 6895 6894 ] final   -8.24 input  -60.11 | X-H torsion
[ 7974 7965 7964 7962 ] final   97.76 input  175.53 | X-H torsion
[ 8008 7997 7996 7995 ] final    3.98 input   59.86 | X-H torsion
[ 10167 10162 10161 10158 ] final  100.51 input  -65.29 | X-H torsion
[ 10718 10713 10712 10709 ] final  -68.02 input   66.30 | X-H torsion
[ 10763 10752 10751 10750 ] final  175.50 input  -60.55 | X-H torsion
[ 11005 11000 10999 10996 ] final -141.34 input  -57.11 | X-H torsion

> <Gold.Protein.ActiveResidues>
 VAL166  LYS551  ARG553  GLY616  TRP617  ASP618  TYR619  PRO620  LYS621  CYS622 
 ASP623  PHE694  ASN695  SER759  ASP760  ASP761  ALA762  ILE779  LEU786  VAL792 
 PHE793  MET794  SER795  GLU796  ALA797  LYS798  CYS799  TRP800  GLU811  SER814 

> <Gold.Protein.RotatedAtoms>
  151.4368  135.1016  159.9658 H   0  0  0  0  0  0  0  0  0  0  0  0  # atno 6907 bound_to 6896
  152.4937  133.8566  159.7239 H   0  0  0  0  0  0  0  0  0  0  0  0  # atno 6908 bound_to 6896
  150.9116  133.6932  159.2881 H   0  0  0  0  0  0  0  0  0  0  0  0  # atno 6909 bound_to 6896
  145.4212  139.2321  143.3195 H   0  0  0  0  0  0  0  0  0  0  0  0  # atno 7974 bound_to 7965
  154.7102  140.2691  155.6636 H   0  0  0  0  0  0  0  0  0  0  0  0  # atno 8008 bound_to 7997
  156.2793  140.2755  156.1666 H   0  0  0  0  0  0  0  0  0  0  0  0  # atno 8009 bound_to 7997
  155.0645  140.0371  157.2578 H   0  0  0  0  0  0  0  0  0  0  0  0  # atno 8010 bound_to 7997
  139.7520  144.6981  151.0418 H   0  0  0  0  0  0  0  0  0  0  0  0  # atno 10167 bound_to 10162
  156.0527  130.4287  150.1939 H   0  0  0  0  0  0  0  0  0  0  0  0  # atno 10718 bound_to 10713
  154.4684  135.2770  155.1661 H   0  0  0  0  0  0  0  0  0  0  0  0  # atno 10763 bound_to 10752
  154.3420  135.6168  153.5604 H   0  0  0  0  0  0  0  0  0  0  0  0  # atno 10764 bound_to 10752
  152.9861  135.5791  154.5060 H   0  0  0  0  0  0  0  0  0  0  0  0  # atno 10765 bound_to 10752
  140.8334  134.2489  157.4846 H   0  0  0  0  0  0  0  0  0  0  0  0  # atno 11005 bound_to 11000
  146.2655  140.4937  142.8836 LP  0  0  0  0  0  0  0  0  0  0  0  0  # atno 17320 bound_to 7965
  144.8244  140.6604  143.6332 LP  0  0  0  0  0  0  0  0  0  0  0  0  # atno 17321 bound_to 7965
  140.7799  143.4797  151.0034 LP  0  0  0  0  0  0  0  0  0  0  0  0  # atno 17342 bound_to 10162
  139.8485  143.7470  152.3178 LP  0  0  0  0  0  0  0  0  0  0  0  0  # atno 17343 bound_to 10162
  157.0020  130.9925  151.3388 LP  0  0  0  0  0  0  0  0  0  0  0  0  # atno 17370 bound_to 10713
  157.5468  130.8156  149.8096 LP  0  0  0  0  0  0  0  0  0  0  0  0  # atno 17371 bound_to 10713
  139.8704  134.9598  156.4343 LP  0  0  0  0  0  0  0  0  0  0  0  0  # atno 17394 bound_to 11000
  140.8974  133.7804  155.9640 LP  0  0  0  0  0  0  0  0  0  0  0  0  # atno 17395 bound_to 11000

$$$$
