AV-unprocessed.smi:1428|AV-procd|sdf|5815|dock4
  -GOLD-   22720 5473D 1   1.00000     0.00000
 Structure written by MMmdl.
 44 45  0  0  0  0  0  0  0  0  2 V2000
  153.7373  140.8701  160.7134 C   0  0  0  0  0  0  0  0  0  0  0  0
  152.6966  141.0306  159.7556 O   0  0  0  0  0  0  0  0  0  0  0  0
  152.3628  142.3098  159.3525 C   0  0  0  0  0  0  0  0  0  0  0  0
  152.8113  143.3569  160.0894 N   0  0  0  0  0  0  0  0  0  0  0  0
  152.4893  144.6056  159.6940 C   0  0  0  0  0  0  0  0  0  0  0  0
  151.7171  144.8762  158.5497 C   0  0  0  0  0  0  0  0  0  0  0  0
  151.2503  143.7921  157.7838 C   0  0  0  0  0  0  0  0  0  0  0  0
  151.5658  142.4744  158.1956 C   0  0  0  0  0  0  0  0  0  0  0  0
  151.1592  141.3087  157.4903 N   0  0  0  0  0  0  0  0  0  0  0  0
  150.7638  141.2001  156.2111 C   0  0  0  0  0  0  0  0  0  0  0  0
  150.7164  142.1219  155.3973 O   0  0  0  0  0  0  0  0  0  0  0  0
  150.3957  139.9429  155.9256 N   0  0  0  0  0  0  0  0  0  0  0  0
  149.8895  139.4820  154.6332 C   0  0  2  0  0  0  0  0  0  0  0  0
  148.6201  138.6205  154.7885 C   0  0  0  0  0  0  0  0  0  0  0  0
  148.9283  137.2529  155.4221 C   0  0  0  0  0  0  0  0  0  0  0  0
  149.9611  136.5219  154.6403 N   0  3  2  0  0  0  0  0  0  0  0  0
  150.1932  135.1392  155.1317 C   0  0  0  0  0  0  0  0  0  0  0  0
  148.9672  134.2341  154.9736 C   0  0  0  0  0  0  0  0  0  0  0  0
  148.3720  134.2289  153.7787 N   0  0  0  0  0  0  0  0  0  0  0  0
  148.5519  133.5621  155.9161 O   0  0  0  0  0  0  0  0  0  0  0  0
  151.2195  137.3037  154.5325 C   0  0  0  0  0  0  0  0  0  0  0  0
  150.9700  138.6797  153.8874 C   0  0  0  0  0  0  0  0  0  0  0  0
  153.8818  139.8085  160.9137 H   0  0  0  0  0  0  0  0  0  0  0  0
  153.4871  141.3537  161.6587 H   0  0  0  0  0  0  0  0  0  0  0  0
  154.6839  141.2687  160.3457 H   0  0  0  0  0  0  0  0  0  0  0  0
  152.8644  145.4136  160.3046 H   0  0  0  0  0  0  0  0  0  0  0  0
  151.4918  145.8927  158.2631 H   0  0  0  0  0  0  0  0  0  0  0  0
  150.6749  143.9931  156.8936 H   0  0  0  0  0  0  0  0  0  0  0  0
  151.0727  140.4759  158.0545 H   0  0  0  0  0  0  0  0  0  0  0  0
  150.4741  139.2523  156.6578 H   0  0  0  0  0  0  0  0  0  0  0  0
  149.6475  140.3626  154.0350 H   0  0  0  0  0  0  0  0  0  0  0  0
  147.8671  139.1443  155.3782 H   0  0  0  0  0  0  0  0  0  0  0  0
  148.1733  138.4636  153.8057 H   0  0  0  0  0  0  0  0  0  0  0  0
  149.2692  137.3807  156.4507 H   0  0  0  0  0  0  0  0  0  0  0  0
  148.0088  136.6691  155.4687 H   0  0  0  0  0  0  0  0  0  0  0  0
  150.9967  134.6758  154.5574 H   0  0  0  0  0  0  0  0  0  0  0  0
  150.5239  135.1615  156.1718 H   0  0  0  0  0  0  0  0  0  0  0  0
  147.5615  133.6483  153.6167 H   0  0  0  0  0  0  0  0  0  0  0  0
  148.7375  134.8061  153.0344 H   0  0  0  0  0  0  0  0  0  0  0  0
  151.6623  137.4211  155.5228 H   0  0  0  0  0  0  0  0  0  0  0  0
  151.9422  136.7549  153.9275 H   0  0  0  0  0  0  0  0  0  0  0  0
  150.6553  138.5343  152.8529 H   0  0  0  0  0  0  0  0  0  0  0  0
  151.9002  139.2477  153.8426 H   0  0  0  0  0  0  0  0  0  0  0  0
  149.6046  136.4267  153.6997 H   0  0  0  0  0  0  0  0  0  0  0  0
  1  2  1  0  0  0  0
  1 23  1  0  0  0  0
  1 24  1  0  0  0  0
  1 25  1  0  0  0  0
  2  3  1  0  0  0  0
  3  8  1  0  0  0  0
  3  4  2  0  0  0  0
  4  5  1  0  0  0  0
  5  6  2  0  0  0  0
  5 26  1  0  0  0  0
  6  7  1  0  0  0  0
  6 27  1  0  0  0  0
  7  8  2  0  0  0  0
  7 28  1  0  0  0  0
  8  9  1  0  0  0  0
  9 10  1  0  0  0  0
  9 29  1  0  0  0  0
 10 11  2  0  0  0  0
 10 12  1  0  0  0  0
 12 13  1  0  0  0  0
 12 30  1  0  0  0  0
 13 22  1  0  0  0  0
 13 14  1  0  0  0  0
 13 31  1  0  0  0  0
 14 15  1  0  0  0  0
 14 32  1  0  0  0  0
 14 33  1  0  0  0  0
 15 16  1  0  0  0  0
 15 34  1  0  0  0  0
 15 35  1  0  0  0  0
 16 17  1  0  0  0  0
 16 21  1  0  0  0  0
 16 44  1  0  0  0  0
 17 18  1  0  0  0  0
 17 36  1  0  0  0  0
 17 37  1  0  0  0  0
 18 19  1  0  0  0  0
 18 20  2  0  0  0  0
 19 38  1  0  0  0  0
 19 39  1  0  0  0  0
 21 22  1  0  0  0  0
 21 40  1  0  0  0  0
 21 41  1  0  0  0  0
 22 42  1  0  0  0  0
 22 43  1  0  0  0  0
M  CHG  1  16   1
M  END
> <s_m_source_file>
AV-unprocessed.smi

> <i_m_source_file_index>
1428

> <i_lp_mmshare_version>
43012

> <i_f3d_flags>
0

> <s_epik_input>
W0NIM11PYzFuW2NIXVtjSF1bY0hdYzFbTkhdQyg9TylbTkhdW0NIXTJbQ0gyXVtDSDJdTihbQ0gyXVtDSDJdMilbQ0gyXUMoPU8pW05IMl0=

> <s_epik_cmdline>
J2VwaWtfcHl0aG9uJywgJy1waCcsICc3LjAnLCAnLXRuJywgJzgnLCAnLW1hJywgJzIwMCcsICctbWV0YWxfYmluZGluZycsICctaW1hZScsICc8aW5maWxlLm1hZT4nLCAnLW9tYWUnLCAnPG91dGZpbGUubWFlPic=

> <r_lp_tautomer_probability>
1

> <r_epik_Ionization_Penalty>
0.838963

> <r_epik_Ionization_Penalty_Charging>
0.838844

> <r_epik_Ionization_Penalty_Neutral>
0.000119189

> <r_epik_State_Penalty>
0.8734

> <r_epik_Charging_Adjusted_Penalty>
1.71224

> <i_epik_Tot_Q>
1

> <i_epik_Tot_abs_Q>
1

> <r_epik_Metal_State_Penalty>
0.890706

> <b_epik_Metal_Only>
0

> <s_lp_Force_Field>
OPLS_2005

> <r_lp_Energy>
14.3057

> <b_lp_Chiralities_Consistent>
1

> <s_lp_Variant>
AV-unprocessed.smi:1428-3

> <Gold.Version>
5.8.1

> <Gold.Id.Protein>
6NUR|6NUR_protein|mol2

> <Gold.PLP.Fitness>
43.4186

> <Gold.PLP.PLP>
-35.5376

> <Gold.PLP.part.hbond>
-3.0000

> <Gold.PLP.part.metal>
0.0000

> <Gold.PLP.part.buried>
-3.1282

> <Gold.PLP.part.nonpolar>
-29.8347

> <Gold.PLP.part.repulsive>
0.3082

> <Gold.PLP.ligand.clash>
0.0000

> <Gold.PLP.ligand.torsion>
0.5818

> <Gold.PLP.Chemscore.Hbond>
3.0028

> <Gold.PLP.Chemscore.CHOScore>
0.0000

> <Gold.PLP.Chemscore.Metal>
0.0000

> <Gold.Chemscore.Hbonds>
donor molecule, donor type, donor heavy atom, donor atom, acceptor molecule, acceptor atom, score
      L1  H    16    44       P1  7948  2.00
      L1  H    19    39       P1  7948  1.00
      P1  H  7989  7998       L1    11  0.01

> <Gold.PLP.Chemscore.Internal.Correction>
0.0361

> <Gold.Rescore>
     Score         DG    S(hbond)    S(metal)    S(lipo)     H(rot)  DE(clash)    DE(int)     intcor
     11.78     -15.88       1.69        0.00      91.45       2.33       2.39       1.70       ----

> <Gold.Chemscore.Fitness>
11.7792

> <Gold.Chemscore.DG>
-15.8764

> <Gold.Chemscore.ZeroCoef>
-5.4800

> <Gold.Chemscore.Hbond>
1.6928

> <Gold.Chemscore.Metal>
0.0000

> <Gold.Chemscore.Lipo>
91.4504

> <Gold.Chemscore.Internal_Hbond>
0.0000

> <Gold.Chemscore.DEClash>
2.3938

> <Gold.Chemscore.DEInternal>
1.7034

> <Gold.Chemscore.Rot>
2.3271

> <Gold.Chemscore.Internal.Correction>
   9.000000E+99

> <Gold.Chemscore.Hbonds>
donor molecule, donor type, donor heavy atom, donor atom, acceptor molecule, acceptor atom, score
      L1  H    16    44       P1  7948  0.60
      L1  H    19    39       P1  7948  0.26

> <Gold.Chemscore.Hbond.Weighted>
-5.6541

> <Gold.Chemscore.Metal.Weighted>
-0.0000

> <Gold.Chemscore.Lipo.Weighted>
-10.6997

> <Gold.Chemscore.Internal_Hbond.Weighted>
0.0000

> <Gold.Chemscore.DEClash.Weighted>
2.3938

> <Gold.Chemscore.DEInternal.Weighted>
1.7034

> <Gold.Chemscore.Rot.Weighted>
5.9573

> <Gold.Chemscore.Internal.Correction.Weighted>
   9.000000E+99

> <Gold.Protein.RotatedTorsions>
[ 6907 6896 6895 6894 ] final  -55.34 input  -60.11 | X-H torsion
[ 7974 7965 7964 7962 ] final -112.57 input  175.53 | X-H torsion
[ 8008 7997 7996 7995 ] final   17.43 input   59.86 | X-H torsion
[ 10167 10162 10161 10158 ] final  -83.76 input  -65.29 | X-H torsion
[ 10718 10713 10712 10709 ] final   54.77 input   66.30 | X-H torsion
[ 10763 10752 10751 10750 ] final   97.45 input  -60.55 | X-H torsion
[ 11005 11000 10999 10996 ] final  142.90 input  -57.11 | X-H torsion

> <Gold.Protein.ActiveResidues>
 VAL166  LYS551  ARG553  GLY616  TRP617  ASP618  TYR619  PRO620  LYS621  CYS622 
 ASP623  PHE694  ASN695  SER759  ASP760  ASP761  ALA762  ILE779  LEU786  VAL792 
 PHE793  MET794  SER795  GLU796  ALA797  LYS798  CYS799  TRP800  GLU811  SER814 

> <Gold.Protein.RotatedAtoms>
  150.8260  134.7491  159.6812 H   0  0  0  0  0  0  0  0  0  0  0  0  # atno 6907 bound_to 6896
  152.4370  134.5663  159.9918 H   0  0  0  0  0  0  0  0  0  0  0  0  # atno 6908 bound_to 6896
  151.5835  133.3337  159.3049 H   0  0  0  0  0  0  0  0  0  0  0  0  # atno 6909 bound_to 6896
  145.1424  140.8785  143.3694 H   0  0  0  0  0  0  0  0  0  0  0  0  # atno 7974 bound_to 7965
  154.8914  140.2987  155.5369 H   0  0  0  0  0  0  0  0  0  0  0  0  # atno 8008 bound_to 7997
  156.3021  140.2424  156.3864 H   0  0  0  0  0  0  0  0  0  0  0  0  # atno 8009 bound_to 7997
  154.8615  140.0405  157.1657 H   0  0  0  0  0  0  0  0  0  0  0  0  # atno 8010 bound_to 7997
  140.4196  143.2590  151.8908 H   0  0  0  0  0  0  0  0  0  0  0  0  # atno 10167 bound_to 10162
  157.5286  130.8614  149.8656 H   0  0  0  0  0  0  0  0  0  0  0  0  # atno 10718 bound_to 10713
  153.2770  135.4183  155.1043 H   0  0  0  0  0  0  0  0  0  0  0  0  # atno 10763 bound_to 10752
  154.8476  135.3486  154.6164 H   0  0  0  0  0  0  0  0  0  0  0  0  # atno 10764 bound_to 10752
  153.6585  135.7049  153.5243 H   0  0  0  0  0  0  0  0  0  0  0  0  # atno 10765 bound_to 10752
  140.0512  134.9254  157.1021 H   0  0  0  0  0  0  0  0  0  0  0  0  # atno 11005 bound_to 11000
  145.0518  139.3176  143.5925 LP  0  0  0  0  0  0  0  0  0  0  0  0  # atno 17320 bound_to 7965
  146.3503  139.9928  142.8684 LP  0  0  0  0  0  0  0  0  0  0  0  0  # atno 17321 bound_to 7965
  139.4782  144.5451  151.8469 LP  0  0  0  0  0  0  0  0  0  0  0  0  # atno 17342 bound_to 10162
  140.4548  144.1804  150.5900 LP  0  0  0  0  0  0  0  0  0  0  0  0  # atno 17343 bound_to 10162
  156.0405  130.3740  150.1447 LP  0  0  0  0  0  0  0  0  0  0  0  0  # atno 17370 bound_to 10713
  156.9633  130.9811  151.3474 LP  0  0  0  0  0  0  0  0  0  0  0  0  # atno 17371 bound_to 10713
  140.3914  134.2181  155.7166 LP  0  0  0  0  0  0  0  0  0  0  0  0  # atno 17394 bound_to 11000
  141.1931  133.8158  157.0811 LP  0  0  0  0  0  0  0  0  0  0  0  0  # atno 17395 bound_to 11000

$$$$
