AV-unprocessed.smi:234|AV-procd|sdf|1788|dock3
  -GOLD-   2262020343D 1   1.00000     0.00000
 Structure written by MMmdl.
 59 62  0  0  0  0  0  0  0  0  1 V2000
  143.6898  135.7833  162.6168 C   0  0  0  0  0  0  0  0  0  0  0  0
  144.5993  135.1566  161.5515 C   0  0  0  0  0  0  0  0  0  0  0  0
  144.1601  135.4835  160.2405 O   0  0  0  0  0  0  0  0  0  0  0  0
  144.1113  136.8808  159.9676 C   0  0  1  0  0  0  0  0  0  0  0  0
  145.5028  137.5191  160.0050 C   0  0  0  0  0  0  0  0  0  0  0  0
  145.6082  137.1586  158.5162 C   0  0  2  0  0  0  0  0  0  0  0  0
  146.2818  138.1741  157.6988 N   0  0  0  0  0  0  0  0  0  0  0  0
  146.0399  138.1557  156.2604 C   0  0  0  0  0  0  0  0  0  0  0  0
  147.5808  138.4476  157.9780 C   0  0  0  0  0  0  0  0  0  0  0  0
  148.3620  137.5142  158.5849 N   0  0  0  0  0  0  0  0  0  0  0  0
  149.6464  137.7769  158.8426 C   0  0  0  0  0  0  0  0  0  0  0  0
  150.3404  138.8862  158.5803 N   0  0  0  0  0  0  0  0  0  0  0  0
  149.5618  139.8249  157.9700 C   0  0  0  0  0  0  0  0  0  0  0  0
  148.1865  139.6865  157.6308 C   0  0  0  0  0  0  0  0  0  0  0  0
  147.7291  140.8470  157.0186 N   0  0  0  0  0  0  0  0  0  0  0  0
  148.7756  141.6263  156.9939 C   0  0  0  0  0  0  0  0  0  0  0  0
  149.9168  141.0965  157.5537 N   0  0  0  0  0  0  0  0  0  0  0  0
  151.2139  141.7473  157.6622 C   0  0  0  0  0  0  0  0  0  0  0  0
  151.1237  143.2437  158.0619 C   0  0  1  0  0  0  0  0  0  0  0  0
  150.9822  144.0058  156.8742 O   0  0  0  0  0  0  0  0  0  0  0  0
  149.9373  143.5667  158.9660 C   0  0  0  0  0  0  0  0  0  0  0  0
  150.4275  144.7689  159.7578 C   0  0  0  0  0  0  0  0  0  0  0  0
  151.7782  144.4302  160.0161 O   0  0  0  0  0  0  0  0  0  0  0  0
  152.3322  143.8221  158.8519 C   0  0  1  0  0  0  0  0  0  0  0  0
  153.4002  142.8195  159.3161 C   0  0  0  0  0  0  0  0  0  0  0  0
  144.0549  137.1874  158.4492 C   0  0  0  0  0  0  0  0  0  0  0  0
  143.3804  136.1206  157.5814 C   0  0  0  0  0  0  0  0  0  0  0  0
  143.3808  138.5270  158.1077 C   0  0  0  0  0  0  0  0  0  0  0  0
  143.9852  135.4598  163.6150 H   0  0  0  0  0  0  0  0  0  0  0  0
  142.6515  135.4876  162.4655 H   0  0  0  0  0  0  0  0  0  0  0  0
  143.7340  136.8719  162.5999 H   0  0  0  0  0  0  0  0  0  0  0  0
  145.6400  135.4449  161.7051 H   0  0  0  0  0  0  0  0  0  0  0  0
  144.5604  134.0717  161.6496 H   0  0  0  0  0  0  0  0  0  0  0  0
  143.3564  137.4175  160.5430 H   0  0  0  0  0  0  0  0  0  0  0  0
  145.4725  138.5926  160.1992 H   0  0  0  0  0  0  0  0  0  0  0  0
  146.2287  137.0170  160.6449 H   0  0  0  0  0  0  0  0  0  0  0  0
  146.0035  136.1508  158.3743 H   0  0  0  0  0  0  0  0  0  0  0  0
  146.8512  137.6557  155.7292 H   0  0  0  0  0  0  0  0  0  0  0  0
  145.9527  139.1720  155.8762 H   0  0  0  0  0  0  0  0  0  0  0  0
  145.1174  137.6312  156.0180 H   0  0  0  0  0  0  0  0  0  0  0  0
  150.1971  136.9843  159.3274 H   0  0  0  0  0  0  0  0  0  0  0  0
  148.7426  142.6195  156.5694 H   0  0  0  0  0  0  0  0  0  0  0  0
  151.8051  141.1903  158.3895 H   0  0  0  0  0  0  0  0  0  0  0  0
  151.7241  141.6414  156.7038 H   0  0  0  0  0  0  0  0  0  0  0  0
  150.0607  144.1383  156.7127 H   0  0  0  0  0  0  0  0  0  0  0  0
  149.0072  143.7543  158.4276 H   0  0  0  0  0  0  0  0  0  0  0  0
  149.7597  142.7450  159.6606 H   0  0  0  0  0  0  0  0  0  0  0  0
  150.3806  145.6814  159.1615 H   0  0  0  0  0  0  0  0  0  0  0  0
  149.8679  144.9256  160.6799 H   0  0  0  0  0  0  0  0  0  0  0  0
  152.8256  144.6053  158.2727 H   0  0  0  0  0  0  0  0  0  0  0  0
  153.8794  142.3269  158.4701 H   0  0  0  0  0  0  0  0  0  0  0  0
  152.9749  142.0527  159.9640 H   0  0  0  0  0  0  0  0  0  0  0  0
  154.1817  143.3271  159.8818 H   0  0  0  0  0  0  0  0  0  0  0  0
  143.3791  136.3926  156.5262 H   0  0  0  0  0  0  0  0  0  0  0  0
  142.3430  135.9660  157.8794 H   0  0  0  0  0  0  0  0  0  0  0  0
  143.8861  135.1580  157.6602 H   0  0  0  0  0  0  0  0  0  0  0  0
  143.4649  138.7650  157.0471 H   0  0  0  0  0  0  0  0  0  0  0  0
  143.8201  139.3599  158.6574 H   0  0  0  0  0  0  0  0  0  0  0  0
  142.3181  138.5084  158.3520 H   0  0  0  0  0  0  0  0  0  0  0  0
  1  2  1  0  0  0  0
  1 29  1  0  0  0  0
  1 30  1  0  0  0  0
  1 31  1  0  0  0  0
  2  3  1  0  0  0  0
  2 32  1  0  0  0  0
  2 33  1  0  0  0  0
  3  4  1  0  0  0  0
  4 26  1  0  0  0  0
  4  5  1  0  0  0  0
  4 34  1  0  0  0  0
  5  6  1  0  0  0  0
  5 35  1  0  0  0  0
  5 36  1  0  0  0  0
  6  7  1  0  0  0  0
  6 26  1  0  0  0  0
  6 37  1  0  0  0  0
  7  8  1  0  0  0  0
  7  9  1  0  0  0  0
  8 38  1  0  0  0  0
  8 39  1  0  0  0  0
  8 40  1  0  0  0  0
  9 14  1  0  0  0  0
  9 10  2  0  0  0  0
 10 11  1  0  0  0  0
 11 12  2  0  0  0  0
 11 41  1  0  0  0  0
 12 13  1  0  0  0  0
 13 17  1  0  0  0  0
 13 14  2  0  0  0  0
 14 15  1  0  0  0  0
 15 16  2  0  0  0  0
 16 17  1  0  0  0  0
 16 42  1  0  0  0  0
 17 18  1  0  0  0  0
 18 19  1  0  0  0  0
 18 43  1  0  0  0  0
 18 44  1  0  0  0  0
 19 24  1  0  0  0  0
 19 20  1  0  0  0  0
 19 21  1  0  0  0  0
 20 45  1  0  0  0  0
 21 22  1  0  0  0  0
 21 46  1  0  0  0  0
 21 47  1  0  0  0  0
 22 23  1  0  0  0  0
 22 48  1  0  0  0  0
 22 49  1  0  0  0  0
 23 24  1  0  0  0  0
 24 25  1  0  0  0  0
 24 50  1  0  0  0  0
 25 51  1  0  0  0  0
 25 52  1  0  0  0  0
 25 53  1  0  0  0  0
 26 27  1  0  0  0  0
 26 28  1  0  0  0  0
 27 54  1  0  0  0  0
 27 55  1  0  0  0  0
 27 56  1  0  0  0  0
 28 57  1  0  0  0  0
 28 58  1  0  0  0  0
 28 59  1  0  0  0  0
M  END
> <s_m_source_file>
AV-unprocessed.smi

> <i_m_source_file_index>
234

> <i_lp_mmshare_version>
43012

> <i_f3d_flags>
0

> <s_epik_input>
W0NIM11bQ0gyXU9bQ0BASF0oQzEoW0NIM10pW0NIM10pW0NIMl1bQ0BIXTFOKFtDSDNdKWMobltjSF1uMiljKGMyMyluW2NIXW4zW0NIMl1bQ0BAXTQoW09IXSlbQ0gyXVtDSDJdT1tDQEhdNFtDSDNd

> <s_epik_cmdline>
J2VwaWtfcHl0aG9uJywgJy1waCcsICc3LjAnLCAnLXRuJywgJzgnLCAnLW1hJywgJzIwMCcsICctbWV0YWxfYmluZGluZycsICctaW1hZScsICc8aW5maWxlLm1hZT4nLCAnLW9tYWUnLCAnPG91dGZpbGUubWFlPic=

> <r_lp_tautomer_probability>
1

> <r_epik_Ionization_Penalty>
0.00349132

> <r_epik_Ionization_Penalty_Charging>
0

> <r_epik_Ionization_Penalty_Neutral>
0.00349132

> <r_epik_State_Penalty>
0.00242418

> <r_epik_Charging_Adjusted_Penalty>
0.00242418

> <i_epik_Tot_Q>
0

> <i_epik_Tot_abs_Q>
0

> <r_epik_Metal_State_Penalty>
-0

> <b_epik_Metal_Only>
0

> <s_lp_Force_Field>
OPLS_2005

> <r_lp_Energy>
49.5598

> <b_lp_Chiralities_Consistent>
1

> <s_lp_Variant>
AV-unprocessed.smi:234-4

> <Gold.Version>
5.8.1

> <Gold.Id.Protein>
6NUR|6NUR_protein|mol2

> <Gold.PLP.Fitness>
34.4149

> <Gold.PLP.PLP>
-30.2302

> <Gold.PLP.part.hbond>
-0.9104

> <Gold.PLP.part.metal>
0.0000

> <Gold.PLP.part.buried>
-7.4984

> <Gold.PLP.part.nonpolar>
-22.3536

> <Gold.PLP.part.repulsive>
0.0862

> <Gold.PLP.ligand.clash>
0.0000

> <Gold.PLP.ligand.torsion>
1.3885

> <Gold.PLP.Chemscore.Hbond>
1.0000

> <Gold.PLP.Chemscore.CHOScore>
1.0000

> <Gold.PLP.Chemscore.Metal>
0.0000

> <Gold.Chemscore.Hbonds>
donor molecule, donor type, donor heavy atom, donor atom, acceptor molecule, acceptor atom, score
      L1  H    20    45       P1  8028  0.93
      L1  C    16    42       P1  8028  1.00

> <Gold.PLP.Chemscore.Internal.Correction>
0.9617

> <Gold.Rescore>
     Score         DG    S(hbond)    S(metal)    S(lipo)     H(rot)  DE(clash)    DE(int)     intcor
      8.49      -9.89       0.91        0.00      68.96       2.62       0.07       1.33       ----

> <Gold.Chemscore.Fitness>
8.4899

> <Gold.Chemscore.DG>
-9.8887

> <Gold.Chemscore.ZeroCoef>
-5.4800

> <Gold.Chemscore.Hbond>
0.9138

> <Gold.Chemscore.Metal>
0.0000

> <Gold.Chemscore.Lipo>
68.9648

> <Gold.Chemscore.Internal_Hbond>
0.0000

> <Gold.Chemscore.DEClash>
0.0727

> <Gold.Chemscore.DEInternal>
1.3261

> <Gold.Chemscore.Rot>
2.6219

> <Gold.Chemscore.Internal.Correction>
   9.000000E+99

> <Gold.Chemscore.Hbonds>
donor molecule, donor type, donor heavy atom, donor atom, acceptor molecule, acceptor atom, score
      L1  H    20    45       P1  8028  0.88

> <Gold.Chemscore.Hbond.Weighted>
-3.0519

> <Gold.Chemscore.Metal.Weighted>
-0.0000

> <Gold.Chemscore.Lipo.Weighted>
-8.0689

> <Gold.Chemscore.Internal_Hbond.Weighted>
0.0000

> <Gold.Chemscore.DEClash.Weighted>
0.0727

> <Gold.Chemscore.DEInternal.Weighted>
1.3261

> <Gold.Chemscore.Rot.Weighted>
6.7121

> <Gold.Chemscore.Internal.Correction.Weighted>
   9.000000E+99

> <Gold.Protein.RotatedTorsions>
[ 6907 6896 6895 6894 ] final -146.14 input  -60.11 | X-H torsion
[ 7974 7965 7964 7962 ] final   66.28 input  175.53 | X-H torsion
[ 8008 7997 7996 7995 ] final  124.63 input   59.86 | X-H torsion
[ 10167 10162 10161 10158 ] final  -25.88 input  -65.29 | X-H torsion
[ 10718 10713 10712 10709 ] final   42.30 input   66.30 | X-H torsion
[ 10763 10752 10751 10750 ] final  114.26 input  -60.55 | X-H torsion
[ 11005 11000 10999 10996 ] final   87.11 input  -57.11 | X-H torsion

> <Gold.Protein.ActiveResidues>
 VAL166  LYS551  ARG553  GLY616  TRP617  ASP618  TYR619  PRO620  LYS621  CYS622 
 ASP623  PHE694  ASN695  SER759  ASP760  ASP761  ALA762  ILE779  LEU786  VAL792 
 PHE793  MET794  SER795  GLU796  ALA797  LYS798  CYS799  TRP800  GLU811  SER814 

> <Gold.Protein.RotatedAtoms>
  151.1375  133.4994  159.2597 H   0  0  0  0  0  0  0  0  0  0  0  0  # atno 6907 bound_to 6896
  151.1691  135.0309  159.8753 H   0  0  0  0  0  0  0  0  0  0  0  0  # atno 6908 bound_to 6896
  152.5461  134.1240  159.8464 H   0  0  0  0  0  0  0  0  0  0  0  0  # atno 6909 bound_to 6896
  145.8284  139.3125  143.1002 H   0  0  0  0  0  0  0  0  0  0  0  0  # atno 7974 bound_to 7965
  156.2808  140.2735  156.1819 H   0  0  0  0  0  0  0  0  0  0  0  0  # atno 8008 bound_to 7997
  155.0548  140.0386  157.2574 H   0  0  0  0  0  0  0  0  0  0  0  0  # atno 8009 bound_to 7997
  154.7166  140.2679  155.6585 H   0  0  0  0  0  0  0  0  0  0  0  0  # atno 8010 bound_to 7997
  140.7285  143.4227  151.0926 H   0  0  0  0  0  0  0  0  0  0  0  0  # atno 10167 bound_to 10162
  157.4033  130.7872  149.7367 H   0  0  0  0  0  0  0  0  0  0  0  0  # atno 10718 bound_to 10713
  153.5046  135.3631  155.2557 H   0  0  0  0  0  0  0  0  0  0  0  0  # atno 10763 bound_to 10752
  154.8746  135.4008  154.3439 H   0  0  0  0  0  0  0  0  0  0  0  0  # atno 10764 bound_to 10752
  153.4081  135.7077  153.6445 H   0  0  0  0  0  0  0  0  0  0  0  0  # atno 10765 bound_to 10752
  139.8927  134.8400  156.2814 H   0  0  0  0  0  0  0  0  0  0  0  0  # atno 11005 bound_to 11000
  145.9598  140.8845  143.0217 LP  0  0  0  0  0  0  0  0  0  0  0  0  # atno 17320 bound_to 7965
  144.6741  140.1796  143.7407 LP  0  0  0  0  0  0  0  0  0  0  0  0  # atno 17321 bound_to 7965
  139.7874  143.8267  152.3147 LP  0  0  0  0  0  0  0  0  0  0  0  0  # atno 17342 bound_to 10162
  139.8239  144.7283  150.9536 LP  0  0  0  0  0  0  0  0  0  0  0  0  # atno 17343 bound_to 10162
  155.9829  130.4005  150.3390 LP  0  0  0  0  0  0  0  0  0  0  0  0  # atno 17370 bound_to 10713
  157.1520  131.0323  151.2880 LP  0  0  0  0  0  0  0  0  0  0  0  0  # atno 17371 bound_to 10713
  141.0036  133.7137  156.0999 LP  0  0  0  0  0  0  0  0  0  0  0  0  # atno 17394 bound_to 11000
  140.7464  134.4093  157.5547 LP  0  0  0  0  0  0  0  0  0  0  0  0  # atno 17395 bound_to 11000

$$$$
