AV-unprocessed.smi:1115|AV-procd|sdf|4806|dock9
  -GOLD-   22720 3353D 1   1.00000     0.00000
 Structure written by MMmdl.
 51 52  0  0  0  0  0  0  0  0  4 V2000
  151.4303  143.9357  158.0525 C   0  0  0  0  0  0  0  0  0  0  0  0
  151.2832  144.1863  159.4801 N   0  0  0  0  0  0  0  0  0  0  0  0
  150.3924  145.2403  159.9523 C   0  0  0  0  0  0  0  0  0  0  0  0
  152.1233  143.5179  160.3968 C   0  0  0  0  0  0  0  0  0  0  0  0
  152.7245  142.2644  160.1255 C   0  0  0  0  0  0  0  0  0  0  0  0
  153.5537  141.6600  161.0926 C   0  0  0  0  0  0  0  0  0  0  0  0
  153.7726  142.3011  162.3289 C   0  0  0  0  0  0  0  0  0  0  0  0
  154.6352  141.6642  163.2617 N   0  0  0  0  0  0  0  0  0  0  0  0
  155.2733  142.1857  164.3248 C   0  0  0  0  0  0  0  0  0  0  0  0
  155.1122  143.3723  164.6309 O   0  0  0  0  0  0  0  0  0  0  0  0
  156.0418  141.2626  164.9618 N   0  5  0  0  0  0  0  0  0  0  0  0
  155.5383  139.9950  165.5029 C   0  0  0  0  0  0  0  0  0  0  0  0
  156.2622  138.7703  164.8398 C   0  0  0  0  0  0  0  0  0  0  0  0
  156.3290  138.9561  163.2979 C   0  0  0  0  0  0  0  0  0  0  0  0
  157.7452  138.7502  165.3265 C   0  0  0  0  0  0  0  0  0  0  0  0
  155.5182  137.4993  165.2007 N   0  3  0  0  0  0  0  0  0  0  0  0
  154.0466  137.4936  164.9362 C   0  0  0  0  0  0  0  0  0  0  0  0
  153.3884  136.2650  165.5794 C   0  0  0  0  0  0  0  0  0  0  0  0
  153.9742  135.0885  165.0412 O   0  0  0  0  0  0  0  0  0  0  0  0
  155.3618  135.0148  165.3348 C   0  0  0  0  0  0  0  0  0  0  0  0
  156.1040  136.2153  164.7207 C   0  0  0  0  0  0  0  0  0  0  0  0
  153.1604  143.5574  162.5487 C   0  0  0  0  0  0  0  0  0  0  0  0
  152.3736  144.1008  161.5948 N   0  3  0  0  0  0  0  0  0  0  0  0
  152.4510  144.1415  157.7297 H   0  0  0  0  0  0  0  0  0  0  0  0
  150.7623  144.5682  157.4677 H   0  0  0  0  0  0  0  0  0  0  0  0
  151.1934  142.8972  157.8200 H   0  0  0  0  0  0  0  0  0  0  0  0
  150.9661  146.0619  160.3818 H   0  0  0  0  0  0  0  0  0  0  0  0
  149.7123  144.8558  160.7126 H   0  0  0  0  0  0  0  0  0  0  0  0
  149.7876  145.6420  159.1391 H   0  0  0  0  0  0  0  0  0  0  0  0
  152.5645  141.7526  159.1885 H   0  0  0  0  0  0  0  0  0  0  0  0
  154.0141  140.7052  160.8846 H   0  0  0  0  0  0  0  0  0  0  0  0
  154.7434  140.6678  163.1423 H   0  0  0  0  0  0  0  0  0  0  0  0
  155.6874  139.9482  166.5822 H   0  0  0  0  0  0  0  0  0  0  0  0
  154.4617  139.8965  165.3592 H   0  0  0  0  0  0  0  0  0  0  0  0
  156.9397  139.8162  163.0149 H   0  0  0  0  0  0  0  0  0  0  0  0
  155.3527  139.1000  162.8308 H   0  0  0  0  0  0  0  0  0  0  0  0
  156.7835  138.0857  162.8234 H   0  0  0  0  0  0  0  0  0  0  0  0
  158.2682  139.6857  165.1148 H   0  0  0  0  0  0  0  0  0  0  0  0
  158.3225  137.9782  164.8163 H   0  0  0  0  0  0  0  0  0  0  0  0
  157.8412  138.5676  166.3989 H   0  0  0  0  0  0  0  0  0  0  0  0
  153.5665  138.3894  165.3293 H   0  0  0  0  0  0  0  0  0  0  0  0
  153.8579  137.4753  163.8620 H   0  0  0  0  0  0  0  0  0  0  0  0
  153.4958  136.2851  166.6652 H   0  0  0  0  0  0  0  0  0  0  0  0
  152.3198  136.2558  165.3637 H   0  0  0  0  0  0  0  0  0  0  0  0
  155.5127  134.9793  166.4149 H   0  0  0  0  0  0  0  0  0  0  0  0
  155.7578  134.0833  164.9301 H   0  0  0  0  0  0  0  0  0  0  0  0
  156.0593  136.1746  163.6316 H   0  0  0  0  0  0  0  0  0  0  0  0
  157.1487  136.1160  165.0100 H   0  0  0  0  0  0  0  0  0  0  0  0
  153.2759  144.1575  163.4386 H   0  0  0  0  0  0  0  0  0  0  0  0
  151.9464  145.0066  161.7879 H   0  0  0  0  0  0  0  0  0  0  0  0
  155.6128  137.4618  166.2068 H   0  0  0  0  0  0  0  0  0  0  0  0
  1  2  1  0  0  0  0
  1 24  1  0  0  0  0
  1 25  1  0  0  0  0
  1 26  1  0  0  0  0
  2  3  1  0  0  0  0
  2  4  1  0  0  0  0
  3 27  1  0  0  0  0
  3 28  1  0  0  0  0
  3 29  1  0  0  0  0
  4 23  1  0  0  0  0
  4  5  2  0  0  0  0
  5  6  1  0  0  0  0
  5 30  1  0  0  0  0
  6  7  2  0  0  0  0
  6 31  1  0  0  0  0
  7  8  1  0  0  0  0
  7 22  1  0  0  0  0
  8  9  1  0  0  0  0
  8 32  1  0  0  0  0
  9 10  2  0  0  0  0
  9 11  1  0  0  0  0
 11 12  1  0  0  0  0
 12 13  1  0  0  0  0
 12 33  1  0  0  0  0
 12 34  1  0  0  0  0
 13 14  1  0  0  0  0
 13 15  1  0  0  0  0
 13 16  1  0  0  0  0
 14 35  1  0  0  0  0
 14 36  1  0  0  0  0
 14 37  1  0  0  0  0
 15 38  1  0  0  0  0
 15 39  1  0  0  0  0
 15 40  1  0  0  0  0
 16 21  1  0  0  0  0
 16 17  1  0  0  0  0
 16 51  1  0  0  0  0
 17 18  1  0  0  0  0
 17 41  1  0  0  0  0
 17 42  1  0  0  0  0
 18 19  1  0  0  0  0
 18 43  1  0  0  0  0
 18 44  1  0  0  0  0
 19 20  1  0  0  0  0
 20 21  1  0  0  0  0
 20 45  1  0  0  0  0
 20 46  1  0  0  0  0
 21 47  1  0  0  0  0
 21 48  1  0  0  0  0
 22 23  2  0  0  0  0
 22 49  1  0  0  0  0
 23 50  1  0  0  0  0
M  CHG  1  11  -1
M  CHG  1  16   1
M  CHG  1  23   1
M  END
> <s_m_source_file>
AV-unprocessed.smi

> <i_m_source_file_index>
1115

> <i_lp_mmshare_version>
43012

> <i_f3d_flags>
0

> <s_epik_input>
W0NIM11OKFtDSDNdKWMxW2NIXVtjSF1jKFtjSF1uMSlbTkhdQyg9TylbTkhdW0NIMl1DKFtDSDNdKShbQ0gzXSlOMltDSDJdW0NIMl1PW0NIMl1bQ0gyXTI=

> <s_epik_cmdline>
J2VwaWtfcHl0aG9uJywgJy1waCcsICc3LjAnLCAnLXRuJywgJzgnLCAnLW1hJywgJzIwMCcsICctbWV0YWxfYmluZGluZycsICctaW1hZScsICc8aW5maWxlLm1hZT4nLCAnLW9tYWUnLCAnPG91dGZpbGUubWFlPic=

> <r_lp_tautomer_probability>
0.999994

> <r_epik_Ionization_Penalty>
7.4335

> <r_epik_Ionization_Penalty_Charging>
7.4335

> <r_epik_Ionization_Penalty_Neutral>
3.43851e-06

> <r_epik_State_Penalty>
7.6346

> <r_epik_Charging_Adjusted_Penalty>
15.0681

> <i_epik_Tot_Q>
1

> <i_epik_Tot_abs_Q>
3

> <r_epik_Metal_State_Penalty>
3.83601

> <b_epik_Metal_Only>
1

> <s_lp_Force_Field>
OPLS_2005

> <r_lp_Energy>
31.3993

> <b_lp_Chiralities_Consistent>
1

> <s_lp_Variant>
AV-unprocessed.smi:1115-5

> <Gold.Version>
5.8.1

> <Gold.Id.Protein>
6NUR|6NUR_protein|mol2

> <Gold.PLP.Fitness>
44.6101

> <Gold.PLP.PLP>
-46.3528

> <Gold.PLP.part.hbond>
-1.4721

> <Gold.PLP.part.metal>
0.0000

> <Gold.PLP.part.buried>
-6.4300

> <Gold.PLP.part.nonpolar>
-38.2570

> <Gold.PLP.part.repulsive>
0.1968

> <Gold.PLP.ligand.clash>
0.0000

> <Gold.PLP.ligand.torsion>
0.9885

> <Gold.PLP.Chemscore.Hbond>
0.0000

> <Gold.PLP.Chemscore.CHOScore>
0.0000

> <Gold.PLP.Chemscore.Metal>
0.0000

> <Gold.PLP.Chemscore.Internal.Correction>
0.2342

> <Gold.Rescore>
     Score         DG    S(hbond)    S(metal)    S(lipo)     H(rot)  DE(clash)    DE(int)     intcor
     10.97     -13.42       0.00        0.00      99.90       1.46       0.38       2.06       ----

> <Gold.Chemscore.Fitness>
10.9703

> <Gold.Chemscore.DG>
-13.4183

> <Gold.Chemscore.ZeroCoef>
-5.4800

> <Gold.Chemscore.Hbond>
0.0000

> <Gold.Chemscore.Metal>
0.0000

> <Gold.Chemscore.Lipo>
99.8996

> <Gold.Chemscore.Internal_Hbond>
0.0000

> <Gold.Chemscore.DEClash>
0.3843

> <Gold.Chemscore.DEInternal>
2.0637

> <Gold.Chemscore.Rot>
1.4648

> <Gold.Chemscore.Internal.Correction>
   9.000000E+99

> <Gold.Chemscore.Hbond.Weighted>
-0.0000

> <Gold.Chemscore.Metal.Weighted>
-0.0000

> <Gold.Chemscore.Lipo.Weighted>
-11.6883

> <Gold.Chemscore.Internal_Hbond.Weighted>
0.0000

> <Gold.Chemscore.DEClash.Weighted>
0.3843

> <Gold.Chemscore.DEInternal.Weighted>
2.0637

> <Gold.Chemscore.Rot.Weighted>
3.7499

> <Gold.Chemscore.Internal.Correction.Weighted>
   9.000000E+99

> <Gold.Protein.RotatedTorsions>
[ 6907 6896 6895 6894 ] final -116.12 input  -60.11 | X-H torsion
[ 7974 7965 7964 7962 ] final   84.43 input  175.53 | X-H torsion
[ 8008 7997 7996 7995 ] final  138.59 input   59.86 | X-H torsion
[ 10167 10162 10161 10158 ] final  105.22 input  -65.29 | X-H torsion
[ 10718 10713 10712 10709 ] final   29.12 input   66.30 | X-H torsion
[ 10763 10752 10751 10750 ] final -151.54 input  -60.55 | X-H torsion
[ 11005 11000 10999 10996 ] final  -23.62 input  -57.11 | X-H torsion

> <Gold.Protein.ActiveResidues>
 VAL166  LYS551  ARG553  GLY616  TRP617  ASP618  TYR619  PRO620  LYS621  CYS622 
 ASP623  PHE694  ASN695  SER759  ASP760  ASP761  ALA762  ILE779  LEU786  VAL792 
 PHE793  MET794  SER795  GLU796  ALA797  LYS798  CYS799  TRP800  GLU811  SER814 

> <Gold.Protein.RotatedAtoms>
  150.8031  133.8562  159.3218 H   0  0  0  0  0  0  0  0  0  0  0  0  # atno 6907 bound_to 6896
  151.6369  135.1015  160.0143 H   0  0  0  0  0  0  0  0  0  0  0  0  # atno 6908 bound_to 6896
  152.4119  133.6938  159.6440 H   0  0  0  0  0  0  0  0  0  0  0  0  # atno 6909 bound_to 6896
  145.5988  139.2349  143.2257 H   0  0  0  0  0  0  0  0  0  0  0  0  # atno 7974 bound_to 7965
  156.2996  140.2389  156.4098 H   0  0  0  0  0  0  0  0  0  0  0  0  # atno 8008 bound_to 7997
  154.8451  140.0426  157.1587 H   0  0  0  0  0  0  0  0  0  0  0  0  # atno 8009 bound_to 7997
  154.9060  140.2983  155.5296 H   0  0  0  0  0  0  0  0  0  0  0  0  # atno 8010 bound_to 7997
  139.7111  144.7077  151.1025 H   0  0  0  0  0  0  0  0  0  0  0  0  # atno 10167 bound_to 10162
  157.2425  130.7076  149.6365 H   0  0  0  0  0  0  0  0  0  0  0  0  # atno 10718 bound_to 10713
  154.8051  135.3257  154.7451 H   0  0  0  0  0  0  0  0  0  0  0  0  # atno 10763 bound_to 10752
  153.8111  135.6895  153.4845 H   0  0  0  0  0  0  0  0  0  0  0  0  # atno 10764 bound_to 10752
  153.1792  135.4593  154.9950 H   0  0  0  0  0  0  0  0  0  0  0  0  # atno 10765 bound_to 10752
  140.8769  133.7681  156.0254 H   0  0  0  0  0  0  0  0  0  0  0  0  # atno 11005 bound_to 11000
  146.1591  140.6814  142.9286 LP  0  0  0  0  0  0  0  0  0  0  0  0  # atno 17320 bound_to 7965
  144.7319  140.4695  143.6932 LP  0  0  0  0  0  0  0  0  0  0  0  0  # atno 17321 bound_to 7965
  140.7733  143.5291  150.9444 LP  0  0  0  0  0  0  0  0  0  0  0  0  # atno 17342 bound_to 10162
  139.8976  143.6875  152.3136 LP  0  0  0  0  0  0  0  0  0  0  0  0  # atno 17343 bound_to 10162
  155.9669  130.4453  150.5498 LP  0  0  0  0  0  0  0  0  0  0  0  0  # atno 17370 bound_to 10713
  157.3364  131.0709  151.1822 LP  0  0  0  0  0  0  0  0  0  0  0  0  # atno 17371 bound_to 10713
  140.8508  134.2957  157.5276 LP  0  0  0  0  0  0  0  0  0  0  0  0  # atno 17394 bound_to 11000
  139.8716  134.9466  156.3944 LP  0  0  0  0  0  0  0  0  0  0  0  0  # atno 17395 bound_to 11000

$$$$
