AV-unprocessed.smi:2932|AV-procd|sdf|11250|dock1
  -GOLD-   2272016143D 1   1.00000     0.00000
 Structure written by MMmdl.
 30 30  0  0  0  0  0  0  0  0  2 V2000
  154.2258  140.4366  161.3903 C   0  0  0  0  0  0  0  0  0  0  0  0
  153.3610  141.4591  160.7125 C   0  0  0  0  0  0  0  0  0  0  0  0
  152.9940  141.2831  159.4523 N   0  0  0  0  0  0  0  0  0  0  0  0
  152.2367  142.3660  159.1402 N   0  0  0  0  0  0  0  0  0  0  0  0
  151.6721  142.4668  157.8022 C   0  0  0  0  0  0  0  0  0  0  0  0
  151.0565  141.1403  157.3515 C   0  0  0  0  0  0  0  0  0  0  0  0
  149.8475  140.9457  157.4763 O   0  0  0  0  0  0  0  0  0  0  0  0
  151.9064  140.2348  156.8422 N   0  0  0  0  0  0  0  0  0  0  0  0
  151.5435  138.9098  156.3448 C   0  0  2  0  0  0  0  0  0  0  0  0
  151.8620  137.8815  157.4434 C   0  0  0  0  0  0  0  0  0  0  0  0
  152.3766  138.5632  155.1010 C   0  0  0  0  0  0  0  0  0  0  0  0
  153.2318  139.4014  154.7413 O   0  0  0  0  0  0  0  0  0  0  0  0
  152.1436  137.4750  154.5272 O   0  5  0  0  0  0  0  0  0  0  0  0
  152.1096  143.2396  160.2103 C   0  0  0  0  0  0  0  0  0  0  0  0
  151.3272  144.5121  160.1511 C   0  0  0  0  0  0  0  0  0  0  0  0
  152.8280  142.6720  161.2206 C   0  0  0  0  0  0  0  0  0  0  0  0
  153.0463  143.3070  162.8110 Cl  0  0  0  0  0  0  0  0  0  0  0  0
  150.4790  138.8704  156.1053 H   0  0  0  0  0  0  0  0  0  0  0  0
  154.3052  140.6295  162.4601 H   0  0  0  0  0  0  0  0  0  0  0  0
  155.2342  140.4420  160.9766 H   0  0  0  0  0  0  0  0  0  0  0  0
  153.8191  139.4327  161.2661 H   0  0  0  0  0  0  0  0  0  0  0  0
  150.9031  143.2409  157.7857 H   0  0  0  0  0  0  0  0  0  0  0  0
  152.4561  142.7861  157.1141 H   0  0  0  0  0  0  0  0  0  0  0  0
  152.8791  140.4917  156.7629 H   0  0  0  0  0  0  0  0  0  0  0  0
  151.6207  136.8685  157.1187 H   0  0  0  0  0  0  0  0  0  0  0  0
  151.2775  138.0819  158.3418 H   0  0  0  0  0  0  0  0  0  0  0  0
  152.9156  137.8988  157.7268 H   0  0  0  0  0  0  0  0  0  0  0  0
  151.1862  144.9327  161.1466 H   0  0  0  0  0  0  0  0  0  0  0  0
  150.3410  144.3467  159.7174 H   0  0  0  0  0  0  0  0  0  0  0  0
  151.8449  145.2559  159.5454 H   0  0  0  0  0  0  0  0  0  0  0  0
  1  2  1  0  0  0  0
  1 19  1  0  0  0  0
  1 20  1  0  0  0  0
  1 21  1  0  0  0  0
  2 16  1  0  0  0  0
  2  3  2  0  0  0  0
  3  4  1  0  0  0  0
  4  5  1  0  0  0  0
  4 14  1  0  0  0  0
  5  6  1  0  0  0  0
  5 22  1  0  0  0  0
  5 23  1  0  0  0  0
  6  7  2  0  0  0  0
  6  8  1  0  0  0  0
  8  9  1  0  0  0  0
  8 24  1  0  0  0  0
  9 18  1  0  0  0  0
  9 10  1  0  0  0  0
  9 11  1  0  0  0  0
 10 25  1  0  0  0  0
 10 26  1  0  0  0  0
 10 27  1  0  0  0  0
 11 12  2  0  0  0  0
 11 13  1  0  0  0  0
 14 15  1  0  0  0  0
 14 16  2  0  0  0  0
 15 28  1  0  0  0  0
 15 29  1  0  0  0  0
 15 30  1  0  0  0  0
 16 17  1  0  0  0  0
M  CHG  1  13  -1
M  END
> <s_m_source_file>
AV-unprocessed.smi

> <i_m_source_file_index>
2932

> <i_lp_mmshare_version>
43012

> <i_f3d_flags>
0

> <s_epik_input>
W0NIM11jMW5uKGMoW0NIM10pYzFDbClbQ0gyXUMoPU8pW05IXVtDQEhdKFtDSDNdKUMoPU8pW09IXQ==

> <s_epik_cmdline>
J2VwaWtfcHl0aG9uJywgJy1waCcsICc3LjAnLCAnLXRuJywgJzgnLCAnLW1hJywgJzIwMCcsICctbWV0YWxfYmluZGluZycsICctaW1hZScsICc8aW5maWxlLm1hZT4nLCAnLW9tYWUnLCAnPG91dGZpbGUubWFlPic=

> <r_lp_tautomer_probability>
1

> <r_epik_Ionization_Penalty>
0.000148999

> <r_epik_Ionization_Penalty_Charging>
0.000144005

> <r_epik_Ionization_Penalty_Neutral>
4.99331e-06

> <r_epik_State_Penalty>
-0

> <r_epik_Charging_Adjusted_Penalty>
0.000144005

> <i_epik_Tot_Q>
-1

> <i_epik_Tot_abs_Q>
1

> <r_epik_Metal_State_Penalty>
-0

> <b_epik_Metal_Only>
0

> <s_lp_Force_Field>
OPLS_2005

> <r_lp_Energy>
2.34993

> <b_lp_Chiralities_Consistent>
1

> <s_lp_Variant>
AV-unprocessed.smi:2932-1

> <Gold.Version>
5.8.1

> <Gold.Id.Protein>
6NUR|6NUR_protein|mol2

> <Gold.PLP.Fitness>
46.7808

> <Gold.PLP.PLP>
-37.2729

> <Gold.PLP.part.hbond>
-3.0000

> <Gold.PLP.part.metal>
0.0000

> <Gold.PLP.part.buried>
-6.7782

> <Gold.PLP.part.nonpolar>
-28.7529

> <Gold.PLP.part.repulsive>
0.2993

> <Gold.PLP.ligand.clash>
0.0000

> <Gold.PLP.ligand.torsion>
0.8310

> <Gold.PLP.Chemscore.Hbond>
3.7144

> <Gold.PLP.Chemscore.CHOScore>
0.0000

> <Gold.PLP.Chemscore.Metal>
0.0000

> <Gold.Chemscore.Hbonds>
donor molecule, donor type, donor heavy atom, donor atom, acceptor molecule, acceptor atom, score
      P1  H  7997  8009       L1    12  2.00
      P1  H 10752 10764       L1    13  1.60

> <Gold.PLP.Chemscore.Internal.Correction>
0.0267

> <Gold.Rescore>
     Score         DG    S(hbond)    S(metal)    S(lipo)     H(rot)  DE(clash)    DE(int)     intcor
     14.89     -15.77       1.84        0.00      82.50       2.15       0.01       0.88       ----

> <Gold.Chemscore.Fitness>
14.8859

> <Gold.Chemscore.DG>
-15.7747

> <Gold.Chemscore.ZeroCoef>
-5.4800

> <Gold.Chemscore.Hbond>
1.8434

> <Gold.Chemscore.Metal>
0.0000

> <Gold.Chemscore.Lipo>
82.4992

> <Gold.Chemscore.Internal_Hbond>
0.0000

> <Gold.Chemscore.DEClash>
0.0126

> <Gold.Chemscore.DEInternal>
0.8761

> <Gold.Chemscore.Rot>
2.1542

> <Gold.Chemscore.Internal.Correction>
   9.000000E+99

> <Gold.Chemscore.Hbonds>
donor molecule, donor type, donor heavy atom, donor atom, acceptor molecule, acceptor atom, score
      P1  H  7997  8009       L1    12  1.00
      P1  H 10752 10764       L1    13  0.77

> <Gold.Chemscore.Hbond.Weighted>
-6.1569

> <Gold.Chemscore.Metal.Weighted>
-0.0000

> <Gold.Chemscore.Lipo.Weighted>
-9.6524

> <Gold.Chemscore.Internal_Hbond.Weighted>
0.0000

> <Gold.Chemscore.DEClash.Weighted>
0.0126

> <Gold.Chemscore.DEInternal.Weighted>
0.8761

> <Gold.Chemscore.Rot.Weighted>
5.5146

> <Gold.Chemscore.Internal.Correction.Weighted>
   9.000000E+99

> <Gold.Protein.RotatedTorsions>
[ 6907 6896 6895 6894 ] final  102.79 input  -60.11 | X-H torsion
[ 7974 7965 7964 7962 ] final   56.96 input  175.53 | X-H torsion
[ 8008 7997 7996 7995 ] final -129.34 input   59.86 | X-H torsion
[ 10167 10162 10161 10158 ] final -108.91 input  -65.29 | X-H torsion
[ 10718 10713 10712 10709 ] final  106.24 input   66.30 | X-H torsion
[ 10763 10752 10751 10750 ] final  -80.67 input  -60.55 | X-H torsion
[ 11005 11000 10999 10996 ] final   14.93 input  -57.11 | X-H torsion

> <Gold.Protein.ActiveResidues>
 VAL166  LYS551  ARG553  GLY616  TRP617  ASP618  TYR619  PRO620  LYS621  CYS622 
 ASP623  PHE694  ASN695  SER759  ASP760  ASP761  ALA762  ILE779  LEU786  VAL792 
 PHE793  MET794  SER795  GLU796  ALA797  LYS798  CYS799  TRP800  GLU811  SER814 

> <Gold.Protein.RotatedAtoms>
  152.5314  133.9923  159.7856 H   0  0  0  0  0  0  0  0  0  0  0  0  # atno 6907 bound_to 6896
  151.0157  133.5915  159.2684 H   0  0  0  0  0  0  0  0  0  0  0  0  # atno 6908 bound_to 6896
  151.2974  135.0766  159.9279 H   0  0  0  0  0  0  0  0  0  0  0  0  # atno 6909 bound_to 6896
  145.9342  139.3833  143.0403 H   0  0  0  0  0  0  0  0  0  0  0  0  # atno 7974 bound_to 7965
  155.2776  140.0442  157.3012 H   0  0  0  0  0  0  0  0  0  0  0  0  # atno 8008 bound_to 7997
  154.5616  140.2347  155.8296 H   0  0  0  0  0  0  0  0  0  0  0  0  # atno 8009 bound_to 7997
  156.2051  140.3015  155.9618 H   0  0  0  0  0  0  0  0  0  0  0  0  # atno 8010 bound_to 7997
  140.1611  143.4120  152.1425 H   0  0  0  0  0  0  0  0  0  0  0  0  # atno 10167 bound_to 10162
  157.6675  131.0846  150.5977 H   0  0  0  0  0  0  0  0  0  0  0  0  # atno 10718 bound_to 10713
  154.5541  135.5653  153.6948 H   0  0  0  0  0  0  0  0  0  0  0  0  # atno 10763 bound_to 10752
  152.9998  135.6258  154.2334 H   0  0  0  0  0  0  0  0  0  0  0  0  # atno 10764 bound_to 10752
  154.2270  135.2867  155.2884 H   0  0  0  0  0  0  0  0  0  0  0  0  # atno 10765 bound_to 10752
  140.4640  134.1098  155.7721 H   0  0  0  0  0  0  0  0  0  0  0  0  # atno 11005 bound_to 11000
  145.8386  140.9593  143.0811 LP  0  0  0  0  0  0  0  0  0  0  0  0  # atno 17320 bound_to 7965
  144.6769  140.0255  143.7483 LP  0  0  0  0  0  0  0  0  0  0  0  0  # atno 17321 bound_to 7965
  139.5381  144.7229  151.4826 LP  0  0  0  0  0  0  0  0  0  0  0  0  # atno 17342 bound_to 10162
  140.6642  143.8433  150.6923 LP  0  0  0  0  0  0  0  0  0  0  0  0  # atno 17343 bound_to 10162
  156.6278  130.4423  149.5798 LP  0  0  0  0  0  0  0  0  0  0  0  0  # atno 17370 bound_to 10713
  156.2305  130.6792  151.1459 LP  0  0  0  0  0  0  0  0  0  0  0  0  # atno 17371 bound_to 10713
  141.1608  133.8796  157.1853 LP  0  0  0  0  0  0  0  0  0  0  0  0  # atno 17394 bound_to 11000
  139.9927  135.0058  157.0012 LP  0  0  0  0  0  0  0  0  0  0  0  0  # atno 17395 bound_to 11000

$$$$
