AV-unprocessed.smi:1952|AV-procd|sdf|7887|dock1
  -GOLD-   2272010 43D 1   1.00000     0.00000
 Structure written by MMmdl.
 38 39  0  0  0  0  0  0  0  0  2 V2000
  149.6680  140.1218  154.8159 C   0  0  0  0  0  0  0  0  0  0  0  0
  150.8904  139.3499  155.1790 C   0  0  0  0  0  0  0  0  0  0  0  0
  151.0821  138.1923  155.8783 C   0  0  0  0  0  0  0  0  0  0  0  0
  152.4943  138.0289  155.8561 C   0  0  0  0  0  0  0  0  0  0  0  0
  153.1799  137.0165  156.4089 N   0  5  0  0  0  0  0  0  0  0  0  0
  153.6804  137.1366  157.6604 C   0  0  0  0  0  0  0  0  0  0  0  0
  153.3713  136.4527  158.6390 O   0  0  0  0  0  0  0  0  0  0  0  0
  154.5969  138.1079  157.7840 N   0  0  0  0  0  0  0  0  0  0  0  0
  155.3296  138.4569  159.0004 C   0  0  2  0  0  0  0  0  0  0  0  0
  154.3522  138.6107  160.1753 C   0  0  0  0  0  0  0  0  0  0  0  0
  156.1411  139.7494  158.7738 C   0  0  0  0  0  0  0  0  0  0  0  0
  155.4578  140.9973  159.1198 N   0  0  0  0  0  0  0  0  0  0  0  0
  155.0460  141.7642  157.9463 C   0  0  0  0  0  0  0  0  0  0  0  0
  154.3482  143.0787  158.3371 C   0  0  0  0  0  0  0  0  0  0  0  0
  155.2053  143.8473  159.1753 O   0  0  0  0  0  0  0  0  0  0  0  0
  155.5879  143.1477  160.3549 C   0  0  0  0  0  0  0  0  0  0  0  0
  156.2950  141.8375  159.9684 C   0  0  0  0  0  0  0  0  0  0  0  0
  153.1040  138.9928  155.1867 N   0  0  0  0  0  0  0  0  0  0  0  0
  152.0831  139.8483  154.7556 O   0  0  0  0  0  0  0  0  0  0  0  0
  148.9725  139.4990  154.2533 H   0  0  0  0  0  0  0  0  0  0  0  0
  149.9165  140.9887  154.2030 H   0  0  0  0  0  0  0  0  0  0  0  0
  149.1568  140.4765  155.7109 H   0  0  0  0  0  0  0  0  0  0  0  0
  150.3338  137.5647  156.3380 H   0  0  0  0  0  0  0  0  0  0  0  0
  154.8203  138.6381  156.9547 H   0  0  0  0  0  0  0  0  0  0  0  0
  156.0214  137.6532  159.2547 H   0  0  0  0  0  0  0  0  0  0  0  0
  154.8819  138.8652  161.0936 H   0  0  0  0  0  0  0  0  0  0  0  0
  153.8060  137.6844  160.3573 H   0  0  0  0  0  0  0  0  0  0  0  0
  153.6204  139.3961  159.9836 H   0  0  0  0  0  0  0  0  0  0  0  0
  157.0535  139.6766  159.3676 H   0  0  0  0  0  0  0  0  0  0  0  0
  156.4673  139.7904  157.7336 H   0  0  0  0  0  0  0  0  0  0  0  0
  155.9149  141.9853  157.3247 H   0  0  0  0  0  0  0  0  0  0  0  0
  154.3605  141.1800  157.3331 H   0  0  0  0  0  0  0  0  0  0  0  0
  154.1050  143.6584  157.4466 H   0  0  0  0  0  0  0  0  0  0  0  0
  153.4089  142.8762  158.8541 H   0  0  0  0  0  0  0  0  0  0  0  0
  156.2531  143.7783  160.9448 H   0  0  0  0  0  0  0  0  0  0  0  0
  154.7085  142.9459  160.9686 H   0  0  0  0  0  0  0  0  0  0  0  0
  156.5662  141.2947  160.8745 H   0  0  0  0  0  0  0  0  0  0  0  0
  157.2281  142.0707  159.4530 H   0  0  0  0  0  0  0  0  0  0  0  0
  1  2  1  0  0  0  0
  1 20  1  0  0  0  0
  1 21  1  0  0  0  0
  1 22  1  0  0  0  0
  2 19  1  0  0  0  0
  2  3  2  0  0  0  0
  3  4  1  0  0  0  0
  3 23  1  0  0  0  0
  4  5  1  0  0  0  0
  4 18  2  0  0  0  0
  5  6  1  0  0  0  0
  6  7  2  0  0  0  0
  6  8  1  0  0  0  0
  8  9  1  0  0  0  0
  8 24  1  0  0  0  0
  9 10  1  0  0  0  0
  9 11  1  0  0  0  0
  9 25  1  0  0  0  0
 10 26  1  0  0  0  0
 10 27  1  0  0  0  0
 10 28  1  0  0  0  0
 11 12  1  0  0  0  0
 11 29  1  0  0  0  0
 11 30  1  0  0  0  0
 12 17  1  0  0  0  0
 12 13  1  0  0  0  0
 13 14  1  0  0  0  0
 13 31  1  0  0  0  0
 13 32  1  0  0  0  0
 14 15  1  0  0  0  0
 14 33  1  0  0  0  0
 14 34  1  0  0  0  0
 15 16  1  0  0  0  0
 16 17  1  0  0  0  0
 16 35  1  0  0  0  0
 16 36  1  0  0  0  0
 17 37  1  0  0  0  0
 17 38  1  0  0  0  0
 18 19  1  0  0  0  0
M  CHG  1   5  -1
M  END
> <s_m_source_file>
AV-unprocessed.smi

> <i_m_source_file_index>
1952

> <i_lp_mmshare_version>
43012

> <i_f3d_flags>
0

> <s_epik_input>
W0NIM11jMVtjSF1jKG5vMSlbTkhdQyg9TylbTkhdW0NASF0oW0NIM10pW0NIMl1OMltDSDJdW0NIMl1PW0NIMl1bQ0gyXTI=

> <s_epik_cmdline>
J2VwaWtfcHl0aG9uJywgJy1waCcsICc3LjAnLCAnLXRuJywgJzgnLCAnLW1hJywgJzIwMCcsICctbWV0YWxfYmluZGluZycsICctaW1hZScsICc8aW5maWxlLm1hZT4nLCAnLW9tYWUnLCAnPG91dGZpbGUubWFlPic=

> <r_epik_Ionization_Penalty>
6.81701

> <r_epik_Ionization_Penalty_Charging>
6.50532

> <r_epik_Ionization_Penalty_Neutral>
0.311686

> <r_epik_State_Penalty>
6.70952

> <r_epik_Charging_Adjusted_Penalty>
13.2148

> <i_epik_Tot_Q>
-1

> <i_epik_Tot_abs_Q>
1

> <r_epik_Metal_State_Penalty>
2.64135

> <b_epik_Metal_Only>
1

> <s_lp_Force_Field>
OPLS_2005

> <r_lp_Energy>
18.9741

> <b_lp_Chiralities_Consistent>
1

> <s_lp_Variant>
AV-unprocessed.smi:1952-5

> <Gold.Version>
5.8.1

> <Gold.Id.Protein>
6NUR|6NUR_protein|mol2

> <Gold.PLP.Fitness>
39.5841

> <Gold.PLP.PLP>
-32.7450

> <Gold.PLP.part.hbond>
-4.0000

> <Gold.PLP.part.metal>
0.0000

> <Gold.PLP.part.buried>
-6.7749

> <Gold.PLP.part.nonpolar>
-23.0557

> <Gold.PLP.part.repulsive>
0.1884

> <Gold.PLP.ligand.clash>
0.0000

> <Gold.PLP.ligand.torsion>
2.4829

> <Gold.PLP.Chemscore.Hbond>
3.8960

> <Gold.PLP.Chemscore.CHOScore>
0.0000

> <Gold.PLP.Chemscore.Metal>
0.0000

> <Gold.Chemscore.Hbonds>
donor molecule, donor type, donor heavy atom, donor atom, acceptor molecule, acceptor atom, score
      P1  H  6896  6907       L1     7  0.14
      P1  H  7989  7998       L1    19  0.83
      P1  H  7997  8010       L1    18  1.00
      P1  H 10752 10765       L1     5  1.50

> <Gold.PLP.Chemscore.Internal.Correction>
0.1169

> <Gold.Rescore>
     Score         DG    S(hbond)    S(metal)    S(lipo)     H(rot)  DE(clash)    DE(int)     intcor
     16.58     -20.05       2.87        0.00      76.10       1.53       0.00       3.47       ----

> <Gold.Chemscore.Fitness>
16.5801

> <Gold.Chemscore.DG>
-20.0505

> <Gold.Chemscore.ZeroCoef>
-5.4800

> <Gold.Chemscore.Hbond>
2.8708

> <Gold.Chemscore.Metal>
0.0000

> <Gold.Chemscore.Lipo>
76.0967

> <Gold.Chemscore.Internal_Hbond>
0.0000

> <Gold.Chemscore.DEClash>
0.0000

> <Gold.Chemscore.DEInternal>
3.4704

> <Gold.Chemscore.Rot>
1.5317

> <Gold.Chemscore.Internal.Correction>
   9.000000E+99

> <Gold.Chemscore.Hbonds>
donor molecule, donor type, donor heavy atom, donor atom, acceptor molecule, acceptor atom, score
      P1  H  6896  6907       L1     7  0.15
      P1  H  7989  7998       L1    19  0.36
      P1  H  7997  8010       L1    18  0.44
      P1  H 10752 10765       L1     5  0.67

> <Gold.Chemscore.Hbond.Weighted>
-9.5883

> <Gold.Chemscore.Metal.Weighted>
-0.0000

> <Gold.Chemscore.Lipo.Weighted>
-8.9033

> <Gold.Chemscore.Internal_Hbond.Weighted>
0.0000

> <Gold.Chemscore.DEClash.Weighted>
0.0000

> <Gold.Chemscore.DEInternal.Weighted>
3.4704

> <Gold.Chemscore.Rot.Weighted>
3.9211

> <Gold.Chemscore.Internal.Correction.Weighted>
   9.000000E+99

> <Gold.Protein.RotatedTorsions>
[ 6907 6896 6895 6894 ] final   37.30 input  -60.11 | X-H torsion
[ 7974 7965 7964 7962 ] final  -31.48 input  175.53 | X-H torsion
[ 8008 7997 7996 7995 ] final  109.56 input   59.86 | X-H torsion
[ 10167 10162 10161 10158 ] final   69.29 input  -65.29 | X-H torsion
[ 10718 10713 10712 10709 ] final   87.35 input   66.30 | X-H torsion
[ 10763 10752 10751 10750 ] final -131.12 input  -60.55 | X-H torsion
[ 11005 11000 10999 10996 ] final  169.61 input  -57.11 | X-H torsion

> <Gold.Protein.ActiveResidues>
 VAL166  LYS551  ARG553  GLY616  TRP617  ASP618  TYR619  PRO620  LYS621  CYS622 
 ASP623  PHE694  ASN695  SER759  ASP760  ASP761  ALA762  ILE779  LEU786  VAL792 
 PHE793  MET794  SER795  GLU796  ALA797  LYS798  CYS799  TRP800  GLU811  SER814 

> <Gold.Protein.RotatedAtoms>
  152.1414  134.9060  160.0553 H   0  0  0  0  0  0  0  0  0  0  0  0  # atno 6907 bound_to 6896
  152.0126  133.3862  159.4234 H   0  0  0  0  0  0  0  0  0  0  0  0  # atno 6908 bound_to 6896
  150.6865  134.3635  159.5004 H   0  0  0  0  0  0  0  0  0  0  0  0  # atno 6909 bound_to 6896
  146.1064  140.5672  142.8797 H   0  0  0  0  0  0  0  0  0  0  0  0  # atno 7974 bound_to 7965
  156.1988  140.3055  155.9483 H   0  0  0  0  0  0  0  0  0  0  0  0  # atno 8008 bound_to 7997
  155.3003  140.0446  157.3046 H   0  0  0  0  0  0  0  0  0  0  0  0  # atno 8009 bound_to 7997
  154.5544  140.2301  155.8443 H   0  0  0  0  0  0  0  0  0  0  0  0  # atno 8010 bound_to 7997
  140.0694  144.5166  150.7238 H   0  0  0  0  0  0  0  0  0  0  0  0  # atno 10167 bound_to 10162
  157.6939  131.0252  150.3110 H   0  0  0  0  0  0  0  0  0  0  0  0  # atno 10718 bound_to 10713
  154.8752  135.3840  154.4194 H   0  0  0  0  0  0  0  0  0  0  0  0  # atno 10763 bound_to 10752
  153.4900  135.7030  153.5895 H   0  0  0  0  0  0  0  0  0  0  0  0  # atno 10764 bound_to 10752
  153.4273  135.3887  155.2115 H   0  0  0  0  0  0  0  0  0  0  0  0  # atno 10765 bound_to 10752
  140.2996  134.7606  157.3905 H   0  0  0  0  0  0  0  0  0  0  0  0  # atno 11005 bound_to 11000
  144.7475  140.5105  143.6825 LP  0  0  0  0  0  0  0  0  0  0  0  0  # atno 17320 bound_to 7965
  145.5751  139.1485  143.3266 LP  0  0  0  0  0  0  0  0  0  0  0  0  # atno 17321 bound_to 7965
  140.7133  143.2523  151.4513 LP  0  0  0  0  0  0  0  0  0  0  0  0  # atno 17342 bound_to 10162
  139.5845  144.1635  152.2011 LP  0  0  0  0  0  0  0  0  0  0  0  0  # atno 17343 bound_to 10162
  156.3612  130.3847  149.7250 LP  0  0  0  0  0  0  0  0  0  0  0  0  # atno 17370 bound_to 10713
  156.4696  130.7990  151.3008 LP  0  0  0  0  0  0  0  0  0  0  0  0  # atno 17371 bound_to 10713
  140.1121  134.5331  155.8257 LP  0  0  0  0  0  0  0  0  0  0  0  0  # atno 17394 bound_to 11000
  141.2130  133.6728  156.6709 LP  0  0  0  0  0  0  0  0  0  0  0  0  # atno 17395 bound_to 11000

$$$$
