AV-unprocessed.smi:21|AV-procd|sdf|165|dock2
  -GOLD-   2262015403D 1   1.00000     0.00000
 Structure written by MMmdl.
 61 64  0  0  0  0  0  0  0  0  1 V2000
  153.3145  144.1958  158.1009 C   0  0  0  0  0  0  0  0  0  0  0  0
  153.1908  143.0016  158.8570 O   0  0  0  0  0  0  0  0  0  0  0  0
  151.9192  142.3800  158.7285 C   0  0  1  0  0  0  0  0  0  0  0  0
  151.5218  142.1870  157.2551 C   0  0  0  0  0  0  0  0  0  0  0  0
  151.1141  140.7118  157.1681 C   0  0  1  0  0  0  0  0  0  0  0  0
  151.1863  140.1258  155.7404 C   0  0  0  0  0  0  0  0  0  0  0  0
  149.9993  140.4293  154.9398 N   0  0  0  0  0  0  0  0  0  0  0  0
  149.6811  141.8375  154.7071 C   0  0  0  0  0  0  0  0  0  0  0  0
  148.9927  139.5129  154.8408 C   0  0  0  0  0  0  0  0  0  0  0  0
  149.2745  138.2084  155.1113 N   0  0  0  0  0  0  0  0  0  0  0  0
  148.3286  137.2689  155.0345 C   0  0  0  0  0  0  0  0  0  0  0  0
  147.0423  137.4073  154.7159 N   0  0  0  0  0  0  0  0  0  0  0  0
  146.7396  138.7097  154.4537 C   0  0  0  0  0  0  0  0  0  0  0  0
  147.6399  139.8155  154.4903 C   0  0  0  0  0  0  0  0  0  0  0  0
  146.9448  140.9789  154.1754 N   0  0  0  0  0  0  0  0  0  0  0  0
  145.7219  140.5859  153.9523 C   0  0  0  0  0  0  0  0  0  0  0  0
  145.5087  139.2369  154.1067 N   0  0  0  0  0  0  0  0  0  0  0  0
  144.2555  138.5246  153.9330 C   0  0  0  0  0  0  0  0  0  0  0  0
  143.6467  138.7209  152.5210 C   0  0  1  0  0  0  0  0  0  0  0  0
  144.3814  137.8586  151.4682 C   0  0  0  0  0  0  0  0  0  0  0  0
  145.5842  138.4710  151.0525 O   0  0  0  0  0  0  0  0  0  0  0  0
  142.1092  138.5023  152.4779 C   0  0  1  0  0  0  0  0  0  0  0  0
  141.6227  137.0608  152.4353 C   0  0  0  0  0  0  0  0  0  0  0  0
  140.1876  137.2121  152.9203 C   0  0  0  0  0  0  0  0  0  0  0  0
  140.2936  138.1633  153.9689 O   0  0  0  0  0  0  0  0  0  0  0  0
  141.3162  139.1042  153.6502 C   0  0  0  0  0  0  0  0  0  0  0  0
  151.9749  140.0528  158.1358 N   0  0  0  0  0  0  0  0  0  0  0  0
  151.5453  138.7071  158.4916 C   0  0  0  0  0  0  0  0  0  0  0  0
  151.9804  140.9484  159.2794 C   0  0  0  0  0  0  0  0  0  0  0  0
  151.1609  142.9427  159.2759 H   0  0  0  0  0  0  0  0  0  0  0  0
  150.0863  140.6390  157.5268 H   0  0  0  0  0  0  0  0  0  0  0  0
  154.3080  144.6188  158.2489 H   0  0  0  0  0  0  0  0  0  0  0  0
  152.5827  144.9399  158.4181 H   0  0  0  0  0  0  0  0  0  0  0  0
  153.1858  144.0128  157.0336 H   0  0  0  0  0  0  0  0  0  0  0  0
  150.7231  142.8610  156.9437 H   0  0  0  0  0  0  0  0  0  0  0  0
  152.3842  142.3746  156.6181 H   0  0  0  0  0  0  0  0  0  0  0  0
  152.1093  140.4323  155.2537 H   0  0  0  0  0  0  0  0  0  0  0  0
  151.2519  139.0394  155.8033 H   0  0  0  0  0  0  0  0  0  0  0  0
  149.1969  141.9688  153.7387 H   0  0  0  0  0  0  0  0  0  0  0  0
  150.5775  142.4564  154.7132 H   0  0  0  0  0  0  0  0  0  0  0  0
  149.0148  142.2153  155.4835 H   0  0  0  0  0  0  0  0  0  0  0  0
  148.6489  136.2627  155.2619 H   0  0  0  0  0  0  0  0  0  0  0  0
  144.9362  141.2747  153.6781 H   0  0  0  0  0  0  0  0  0  0  0  0
  144.4370  137.4678  154.1293 H   0  0  0  0  0  0  0  0  0  0  0  0
  143.5754  138.8684  154.7114 H   0  0  0  0  0  0  0  0  0  0  0  0
  143.8141  139.7637  152.2459 H   0  0  0  0  0  0  0  0  0  0  0  0
  144.6452  136.8828  151.8749 H   0  0  0  0  0  0  0  0  0  0  0  0
  143.7471  137.6800  150.5996 H   0  0  0  0  0  0  0  0  0  0  0  0
  146.2542  137.8073  150.9894 H   0  0  0  0  0  0  0  0  0  0  0  0
  141.7206  138.9882  151.5818 H   0  0  0  0  0  0  0  0  0  0  0  0
  141.6882  136.6158  151.4421 H   0  0  0  0  0  0  0  0  0  0  0  0
  142.1699  136.4266  153.1318 H   0  0  0  0  0  0  0  0  0  0  0  0
  139.5497  137.6109  152.1298 H   0  0  0  0  0  0  0  0  0  0  0  0
  139.7580  136.2736  153.2709 H   0  0  0  0  0  0  0  0  0  0  0  0
  141.9239  139.2808  154.5365 H   0  0  0  0  0  0  0  0  0  0  0  0
  140.8720  140.0590  153.3663 H   0  0  0  0  0  0  0  0  0  0  0  0
  152.1983  138.2870  159.2572 H   0  0  0  0  0  0  0  0  0  0  0  0
  151.5835  138.0431  157.6282 H   0  0  0  0  0  0  0  0  0  0  0  0
  150.5252  138.7057  158.8779 H   0  0  0  0  0  0  0  0  0  0  0  0
  152.8515  140.7786  159.9132 H   0  0  0  0  0  0  0  0  0  0  0  0
  151.0940  140.7727  159.8917 H   0  0  0  0  0  0  0  0  0  0  0  0
  1  2  1  0  0  0  0
  1 32  1  0  0  0  0
  1 33  1  0  0  0  0
  1 34  1  0  0  0  0
  2  3  1  0  0  0  0
  3 30  1  0  0  0  0
  3 29  1  0  0  0  0
  3  4  1  0  0  0  0
  4  5  1  0  0  0  0
  4 35  1  0  0  0  0
  4 36  1  0  0  0  0
  5 31  1  0  0  0  0
  5  6  1  0  0  0  0
  5 27  1  0  0  0  0
  6  7  1  0  0  0  0
  6 37  1  0  0  0  0
  6 38  1  0  0  0  0
  7  8  1  0  0  0  0
  7  9  1  0  0  0  0
  8 39  1  0  0  0  0
  8 40  1  0  0  0  0
  8 41  1  0  0  0  0
  9 14  1  0  0  0  0
  9 10  2  0  0  0  0
 10 11  1  0  0  0  0
 11 12  2  0  0  0  0
 11 42  1  0  0  0  0
 12 13  1  0  0  0  0
 13 17  1  0  0  0  0
 13 14  2  0  0  0  0
 14 15  1  0  0  0  0
 15 16  2  0  0  0  0
 16 17  1  0  0  0  0
 16 43  1  0  0  0  0
 17 18  1  0  0  0  0
 18 19  1  0  0  0  0
 18 44  1  0  0  0  0
 18 45  1  0  0  0  0
 19 20  1  0  0  0  0
 19 22  1  0  0  0  0
 19 46  1  0  0  0  0
 20 21  1  0  0  0  0
 20 47  1  0  0  0  0
 20 48  1  0  0  0  0
 21 49  1  0  0  0  0
 22 26  1  0  0  0  0
 22 23  1  0  0  0  0
 22 50  1  0  0  0  0
 23 24  1  0  0  0  0
 23 51  1  0  0  0  0
 23 52  1  0  0  0  0
 24 25  1  0  0  0  0
 24 53  1  0  0  0  0
 24 54  1  0  0  0  0
 25 26  1  0  0  0  0
 26 55  1  0  0  0  0
 26 56  1  0  0  0  0
 27 28  1  0  0  0  0
 27 29  1  0  0  0  0
 28 57  1  0  0  0  0
 28 58  1  0  0  0  0
 28 59  1  0  0  0  0
 29 60  1  0  0  0  0
 29 61  1  0  0  0  0
M  END
> <s_m_source_file>
AV-unprocessed.smi

> <i_m_source_file_index>
21

> <i_lp_mmshare_version>
43012

> <i_f3d_flags>
0

> <s_epik_input>
W0NIM11PW0NASF0xW0NIMl1bQ0BIXShOKFtDSDNdKVtDSDJdMSlbQ0gyXU4oW0NIM10pYyhuW2NIXW4yKWMoYzIzKW5bY0hdbjNbQ0gyXVtDQEhdKFtDSDJdW09IXSlbQ0BASF00W0NIMl1bQ0gyXU9bQ0gyXTQ=

> <s_epik_cmdline>
J2VwaWtfcHl0aG9uJywgJy1waCcsICc3LjAnLCAnLXRuJywgJzgnLCAnLW1hJywgJzIwMCcsICctbWV0YWxfYmluZGluZycsICctaW1hZScsICc8aW5maWxlLm1hZT4nLCAnLW9tYWUnLCAnPG91dGZpbGUubWFlPic=

> <r_lp_tautomer_probability>
1

> <r_epik_Ionization_Penalty>
2.17574

> <r_epik_Ionization_Penalty_Charging>
0

> <r_epik_Ionization_Penalty_Neutral>
2.17574

> <r_epik_State_Penalty>
2.31336

> <r_epik_Charging_Adjusted_Penalty>
2.31336

> <i_epik_Tot_Q>
0

> <i_epik_Tot_abs_Q>
0

> <r_epik_Metal_State_Penalty>
2.31025

> <b_epik_Metal_Only>
0

> <s_lp_Force_Field>
OPLS_2005

> <r_lp_Energy>
71.9314

> <b_lp_Chiralities_Consistent>
1

> <s_lp_Variant>
AV-unprocessed.smi:21-45

> <Gold.Version>
5.8.1

> <Gold.Id.Protein>
6NUR|6NUR_protein|mol2

> <Gold.PLP.Fitness>
51.4141

> <Gold.PLP.PLP>
-44.7908

> <Gold.PLP.part.hbond>
-2.7227

> <Gold.PLP.part.metal>
0.0000

> <Gold.PLP.part.buried>
-7.0434

> <Gold.PLP.part.nonpolar>
-36.3374

> <Gold.PLP.part.repulsive>
0.7083

> <Gold.PLP.ligand.clash>
0.0000

> <Gold.PLP.ligand.torsion>
1.2708

> <Gold.PLP.Chemscore.Hbond>
1.7166

> <Gold.PLP.Chemscore.CHOScore>
1.0000

> <Gold.PLP.Chemscore.Metal>
0.0000

> <Gold.Chemscore.Hbonds>
donor molecule, donor type, donor heavy atom, donor atom, acceptor molecule, acceptor atom, score
      L1  C    16    43       P1 10175  0.43

> <Gold.PLP.Chemscore.Internal.Correction>
1.0152

> <Gold.Rescore>
     Score         DG    S(hbond)    S(metal)    S(lipo)     H(rot)  DE(clash)    DE(int)     intcor
     10.82     -13.38       1.11        0.00     101.44       3.00       0.06       2.50       ----

> <Gold.Chemscore.Fitness>
10.8246

> <Gold.Chemscore.DG>
-13.3826

> <Gold.Chemscore.ZeroCoef>
-5.4800

> <Gold.Chemscore.Hbond>
1.1145

> <Gold.Chemscore.Metal>
0.0000

> <Gold.Chemscore.Lipo>
101.4374

> <Gold.Chemscore.Internal_Hbond>
0.0000

> <Gold.Chemscore.DEClash>
0.0572

> <Gold.Chemscore.DEInternal>
2.5008

> <Gold.Chemscore.Rot>
3.0031

> <Gold.Chemscore.Internal.Correction>
   9.000000E+99

> <Gold.Chemscore.Hbond.Weighted>
-3.7224

> <Gold.Chemscore.Metal.Weighted>
-0.0000

> <Gold.Chemscore.Lipo.Weighted>
-11.8682

> <Gold.Chemscore.Internal_Hbond.Weighted>
0.0000

> <Gold.Chemscore.DEClash.Weighted>
0.0572

> <Gold.Chemscore.DEInternal.Weighted>
2.5008

> <Gold.Chemscore.Rot.Weighted>
7.6880

> <Gold.Chemscore.Internal.Correction.Weighted>
   9.000000E+99

> <Gold.Protein.RotatedTorsions>
[ 6907 6896 6895 6894 ] final   60.68 input  -60.11 | X-H torsion
[ 7974 7965 7964 7962 ] final -107.71 input  175.53 | X-H torsion
[ 8008 7997 7996 7995 ] final   12.84 input   59.86 | X-H torsion
[ 10167 10162 10161 10158 ] final -101.91 input  -65.29 | X-H torsion
[ 10718 10713 10712 10709 ] final   67.26 input   66.30 | X-H torsion
[ 10763 10752 10751 10750 ] final -155.99 input  -60.55 | X-H torsion
[ 11005 11000 10999 10996 ] final   28.69 input  -57.11 | X-H torsion

> <Gold.Protein.ActiveResidues>
 VAL166  LYS551  ARG553  GLY616  TRP617  ASP618  TYR619  PRO620  LYS621  CYS622 
 ASP623  PHE694  ASN695  SER759  ASP760  ASP761  ALA762  ILE779  LEU786  VAL792 
 PHE793  MET794  SER795  GLU796  ALA797  LYS798  CYS799  TRP800  GLU811  SER814 

> <Gold.Protein.RotatedAtoms>
  152.4024  134.6264  160.0063 H   0  0  0  0  0  0  0  0  0  0  0  0  # atno 6907 bound_to 6896
  151.6465  133.3317  159.3150 H   0  0  0  0  0  0  0  0  0  0  0  0  # atno 6908 bound_to 6896
  150.7923  134.6998  159.6588 H   0  0  0  0  0  0  0  0  0  0  0  0  # atno 6909 bound_to 6896
  145.2020  140.9060  143.3364 H   0  0  0  0  0  0  0  0  0  0  0  0  # atno 7974 bound_to 7965
  154.8261  140.2892  155.5754 H   0  0  0  0  0  0  0  0  0  0  0  0  # atno 8008 bound_to 7997
  156.3002  140.2541  156.3108 H   0  0  0  0  0  0  0  0  0  0  0  0  # atno 8009 bound_to 7997
  154.9284  140.0384  157.2024 H   0  0  0  0  0  0  0  0  0  0  0  0  # atno 8010 bound_to 7997
  140.2362  143.3571  152.0842 H   0  0  0  0  0  0  0  0  0  0  0  0  # atno 10167 bound_to 10162
  157.6219  130.9311  150.0219 H   0  0  0  0  0  0  0  0  0  0  0  0  # atno 10718 bound_to 10713
  154.7746  135.3155  154.8118 H   0  0  0  0  0  0  0  0  0  0  0  0  # atno 10763 bound_to 10752
  153.8845  135.6831  153.4769 H   0  0  0  0  0  0  0  0  0  0  0  0  # atno 10764 bound_to 10752
  153.1367  135.4756  154.9369 H   0  0  0  0  0  0  0  0  0  0  0  0  # atno 10765 bound_to 10752
  140.3129  134.2629  155.7731 H   0  0  0  0  0  0  0  0  0  0  0  0  # atno 11005 bound_to 11000
  144.9939  139.3663  143.6201 LP  0  0  0  0  0  0  0  0  0  0  0  0  # atno 17320 bound_to 7965
  146.3415  139.9133  142.8777 LP  0  0  0  0  0  0  0  0  0  0  0  0  # atno 17321 bound_to 7965
  139.5093  144.6864  151.5876 LP  0  0  0  0  0  0  0  0  0  0  0  0  # atno 17342 bound_to 10162
  140.6148  143.9370  150.6480 LP  0  0  0  0  0  0  0  0  0  0  0  0  # atno 17343 bound_to 10162
  156.1370  130.3642  149.9642 LP  0  0  0  0  0  0  0  0  0  0  0  0  # atno 17370 bound_to 10713
  156.7691  130.9179  151.3644 LP  0  0  0  0  0  0  0  0  0  0  0  0  # atno 17371 bound_to 10713
  141.2104  133.7720  156.9934 LP  0  0  0  0  0  0  0  0  0  0  0  0  # atno 17394 bound_to 11000
  140.1009  134.9536  157.1921 LP  0  0  0  0  0  0  0  0  0  0  0  0  # atno 17395 bound_to 11000

$$$$
