AV-unprocessed.smi:1313|AV-procd|sdf|5450|dock10
  -GOLD-   22720 5 23D 1   1.00000     0.00000
 Structure written by MMmdl.
 37 38  0  0  0  0  0  0  0  0  1 V2000
  146.2183  138.0990  152.3673 C   0  0  0  0  0  0  0  0  0  0  0  0
  147.0416  139.1925  153.0144 C   0  0  0  0  0  0  0  0  0  0  0  0
  146.6072  140.3906  153.2292 N   0  0  0  0  0  0  0  0  0  0  0  0
  147.4609  141.3174  153.8435 C   0  0  0  0  0  0  0  0  0  0  0  0
  146.8717  142.6990  154.0707 C   0  0  0  0  0  0  0  0  0  0  0  0
  148.7329  140.9840  154.2124 C   0  0  0  0  0  0  0  0  0  0  0  0
  149.6826  141.9658  154.8960 C   0  0  0  0  0  0  0  0  0  0  0  0
  150.0988  141.5809  156.3166 C   0  0  0  0  0  0  0  0  0  0  0  0
  150.1293  140.3960  156.6479 O   0  0  0  0  0  0  0  0  0  0  0  0
  150.4069  142.5884  157.1477 N   0  0  0  0  0  0  0  0  0  0  0  0
  150.7909  142.4339  158.5480 C   0  0  0  0  0  0  0  0  0  0  0  0
  151.1597  143.7955  159.1675 C   0  0  0  0  0  0  0  0  0  0  0  0
  152.4776  143.5777  159.9123 C   0  0  0  0  0  0  0  0  0  0  0  0
  153.1750  142.4706  159.1282 C   0  0  0  0  0  0  0  0  0  0  0  0
  152.0389  141.5406  158.7012 C   0  0  0  0  0  0  0  0  0  0  0  0
  149.2204  139.6146  153.9566 C   0  0  0  0  0  0  0  0  0  0  0  0
  150.3448  139.2084  154.2458 O   0  0  0  0  0  0  0  0  0  0  0  0
  148.3285  138.7885  153.3654 N   0  0  0  0  0  0  0  0  0  0  0  0
  148.6133  137.8393  153.1733 H   0  0  0  0  0  0  0  0  0  0  0  0
  145.3154  137.9155  152.9504 H   0  0  0  0  0  0  0  0  0  0  0  0
  146.7748  137.1633  152.2965 H   0  0  0  0  0  0  0  0  0  0  0  0
  145.9225  138.3975  151.3614 H   0  0  0  0  0  0  0  0  0  0  0  0
  147.4633  143.4602  153.5619 H   0  0  0  0  0  0  0  0  0  0  0  0
  146.8424  142.9335  155.1346 H   0  0  0  0  0  0  0  0  0  0  0  0
  145.8521  142.7621  153.6887 H   0  0  0  0  0  0  0  0  0  0  0  0
  150.5875  142.0996  154.3021 H   0  0  0  0  0  0  0  0  0  0  0  0
  149.2186  142.9525  154.9096 H   0  0  0  0  0  0  0  0  0  0  0  0
  150.3545  143.5315  156.7908 H   0  0  0  0  0  0  0  0  0  0  0  0
  149.9611  141.9965  159.1065 H   0  0  0  0  0  0  0  0  0  0  0  0
  151.3143  144.5437  158.3882 H   0  0  0  0  0  0  0  0  0  0  0  0
  150.3773  144.1743  159.8256 H   0  0  0  0  0  0  0  0  0  0  0  0
  153.0764  144.4863  159.9812 H   0  0  0  0  0  0  0  0  0  0  0  0
  152.2735  143.2348  160.9275 H   0  0  0  0  0  0  0  0  0  0  0  0
  153.6565  142.8929  158.2451 H   0  0  0  0  0  0  0  0  0  0  0  0
  153.9396  141.9577  159.7123 H   0  0  0  0  0  0  0  0  0  0  0  0
  151.8593  140.8079  159.4888 H   0  0  0  0  0  0  0  0  0  0  0  0
  152.2889  140.9818  157.7982 H   0  0  0  0  0  0  0  0  0  0  0  0
  1  2  1  0  0  0  0
  1 20  1  0  0  0  0
  1 21  1  0  0  0  0
  1 22  1  0  0  0  0
  2 18  1  0  0  0  0
  2  3  2  0  0  0  0
  3  4  1  0  0  0  0
  4  5  1  0  0  0  0
  4  6  2  0  0  0  0
  5 23  1  0  0  0  0
  5 24  1  0  0  0  0
  5 25  1  0  0  0  0
  6  7  1  0  0  0  0
  6 16  1  0  0  0  0
  7  8  1  0  0  0  0
  7 26  1  0  0  0  0
  7 27  1  0  0  0  0
  8  9  2  0  0  0  0
  8 10  1  0  0  0  0
 10 11  1  0  0  0  0
 10 28  1  0  0  0  0
 11 15  1  0  0  0  0
 11 12  1  0  0  0  0
 11 29  1  0  0  0  0
 12 13  1  0  0  0  0
 12 30  1  0  0  0  0
 12 31  1  0  0  0  0
 13 14  1  0  0  0  0
 13 32  1  0  0  0  0
 13 33  1  0  0  0  0
 14 15  1  0  0  0  0
 14 34  1  0  0  0  0
 14 35  1  0  0  0  0
 15 36  1  0  0  0  0
 15 37  1  0  0  0  0
 16 17  2  0  0  0  0
 16 18  1  0  0  0  0
 18 19  1  0  0  0  0
M  END
> <s_m_source_file>
AV-unprocessed.smi

> <i_m_source_file_index>
1313

> <i_lp_mmshare_version>
43012

> <i_f3d_flags>
0

> <s_epik_input>
W0NIM11jMW5jKFtDSDNdKWMoYyg9TylbbkhdMSlbQ0gyXUMoPU8pW05IXVtDSF0yW0NIMl1bQ0gyXVtDSDJdW0NIMl0y

> <s_epik_cmdline>
J2VwaWtfcHl0aG9uJywgJy1waCcsICc3LjAnLCAnLXRuJywgJzgnLCAnLW1hJywgJzIwMCcsICctbWV0YWxfYmluZGluZycsICctaW1hZScsICc8aW5maWxlLm1hZT4nLCAnLW9tYWUnLCAnPG91dGZpbGUubWFlPic=

> <r_lp_tautomer_probability>
0.839158

> <r_epik_Ionization_Penalty>
0.000387683

> <r_epik_Ionization_Penalty_Charging>
0.000355009

> <r_epik_Ionization_Penalty_Neutral>
3.26746e-05

> <r_epik_State_Penalty>
0.046959

> <r_epik_Charging_Adjusted_Penalty>
0.047314

> <i_epik_Tot_Q>
0

> <i_epik_Tot_abs_Q>
0

> <r_epik_Metal_State_Penalty>
0.222879

> <b_epik_Metal_Only>
0

> <s_lp_Force_Field>
OPLS_2005

> <r_lp_Energy>
20.1617

> <b_lp_Chiralities_Consistent>
1

> <s_lp_Variant>
AV-unprocessed.smi:1313-1

> <Gold.Version>
5.8.1

> <Gold.Id.Protein>
6NUR|6NUR_protein|mol2

> <Gold.PLP.Fitness>
42.3019

> <Gold.PLP.PLP>
-34.5175

> <Gold.PLP.part.hbond>
-4.0000

> <Gold.PLP.part.metal>
0.0000

> <Gold.PLP.part.buried>
2.5438

> <Gold.PLP.part.nonpolar>
-33.8857

> <Gold.PLP.part.repulsive>
1.4678

> <Gold.PLP.ligand.clash>
0.0000

> <Gold.PLP.ligand.torsion>
0.3919

> <Gold.PLP.Chemscore.Hbond>
2.8553

> <Gold.PLP.Chemscore.CHOScore>
0.0000

> <Gold.PLP.Chemscore.Metal>
0.0000

> <Gold.Chemscore.Hbonds>
donor molecule, donor type, donor heavy atom, donor atom, acceptor molecule, acceptor atom, score
      L1  H    10    28       P1  8028  0.44
      L1  H    18    19       P1  7948  0.86
      P1  H  7989  7998       L1    17  0.52

> <Gold.PLP.Chemscore.Internal.Correction>
0.0024

> <Gold.Rescore>
     Score         DG    S(hbond)    S(metal)    S(lipo)     H(rot)  DE(clash)    DE(int)     intcor
     14.32     -20.71       2.69        0.00      86.55       1.51       3.42       2.97       ----

> <Gold.Chemscore.Fitness>
14.3200

> <Gold.Chemscore.DG>
-20.7121

> <Gold.Chemscore.ZeroCoef>
-5.4800

> <Gold.Chemscore.Hbond>
2.6880

> <Gold.Chemscore.Metal>
0.0000

> <Gold.Chemscore.Lipo>
86.5533

> <Gold.Chemscore.Internal_Hbond>
0.0000

> <Gold.Chemscore.DEClash>
3.4222

> <Gold.Chemscore.DEInternal>
2.9699

> <Gold.Chemscore.Rot>
1.5128

> <Gold.Chemscore.Internal.Correction>
   9.000000E+99

> <Gold.Chemscore.Hbonds>
donor molecule, donor type, donor heavy atom, donor atom, acceptor molecule, acceptor atom, score
      L1  H    10    28       P1  8028  0.45
      L1  H    18    19       P1  7948  0.81
      P1  H  7989  7998       L1    17  0.18

> <Gold.Chemscore.Hbond.Weighted>
-8.9780

> <Gold.Chemscore.Metal.Weighted>
-0.0000

> <Gold.Chemscore.Lipo.Weighted>
-10.1267

> <Gold.Chemscore.Internal_Hbond.Weighted>
0.0000

> <Gold.Chemscore.DEClash.Weighted>
3.4222

> <Gold.Chemscore.DEInternal.Weighted>
2.9699

> <Gold.Chemscore.Rot.Weighted>
3.8727

> <Gold.Chemscore.Internal.Correction.Weighted>
   9.000000E+99

> <Gold.Protein.RotatedTorsions>
[ 6907 6896 6895 6894 ] final -100.09 input  -60.11 | X-H torsion
[ 7974 7965 7964 7962 ] final  -44.61 input  175.53 | X-H torsion
[ 8008 7997 7996 7995 ] final   76.01 input   59.86 | X-H torsion
[ 10167 10162 10161 10158 ] final -166.55 input  -65.29 | X-H torsion
[ 10718 10713 10712 10709 ] final  -81.09 input   66.30 | X-H torsion
[ 10763 10752 10751 10750 ] final  -23.64 input  -60.55 | X-H torsion
[ 11005 11000 10999 10996 ] final  -68.99 input  -57.11 | X-H torsion

> <Gold.Protein.ActiveResidues>
 VAL166  LYS551  ARG553  GLY616  TRP617  ASP618  TYR619  PRO620  LYS621  CYS622 
 ASP623  PHE694  ASN695  SER759  ASP760  ASP761  ALA762  ILE779  LEU786  VAL792 
 PHE793  MET794  SER795  GLU796  ALA797  LYS798  CYS799  TRP800  GLU811  SER814 

> <Gold.Protein.RotatedAtoms>
  150.7103  134.0940  159.3941 H   0  0  0  0  0  0  0  0  0  0  0  0  # atno 6907 bound_to 6896
  151.8925  135.0408  160.0508 H   0  0  0  0  0  0  0  0  0  0  0  0  # atno 6908 bound_to 6896
  152.2480  133.5155  159.5345 H   0  0  0  0  0  0  0  0  0  0  0  0  # atno 6909 bound_to 6896
  145.9903  140.7188  142.9320 H   0  0  0  0  0  0  0  0  0  0  0  0  # atno 7974 bound_to 7965
  155.8212  140.3469  155.5515 H   0  0  0  0  0  0  0  0  0  0  0  0  # atno 8008 bound_to 7997
  155.8340  140.0931  157.1795 H   0  0  0  0  0  0  0  0  0  0  0  0  # atno 8009 bound_to 7997
  154.4004  140.1407  156.3636 H   0  0  0  0  0  0  0  0  0  0  0  0  # atno 8010 bound_to 7997
  139.6107  144.0820  152.1839 H   0  0  0  0  0  0  0  0  0  0  0  0  # atno 10167 bound_to 10162
  156.0057  130.4593  150.3900 H   0  0  0  0  0  0  0  0  0  0  0  0  # atno 10718 bound_to 10713
  153.6710  135.6971  153.5147 H   0  0  0  0  0  0  0  0  0  0  0  0  # atno 10763 bound_to 10752
  153.2557  135.4260  155.0843 H   0  0  0  0  0  0  0  0  0  0  0  0  # atno 10764 bound_to 10752
  154.8426  135.3542  154.6254 H   0  0  0  0  0  0  0  0  0  0  0  0  # atno 10765 bound_to 10752
  141.1544  133.6753  156.6530 H   0  0  0  0  0  0  0  0  0  0  0  0  # atno 11005 bound_to 11000
  144.6887  140.3059  143.7256 LP  0  0  0  0  0  0  0  0  0  0  0  0  # atno 17320 bound_to 7965
  145.7639  139.1834  143.2251 LP  0  0  0  0  0  0  0  0  0  0  0  0  # atno 17321 bound_to 7965
  140.0438  144.5986  150.7390 LP  0  0  0  0  0  0  0  0  0  0  0  0  # atno 17342 bound_to 10162
  140.7317  143.2697  151.3928 LP  0  0  0  0  0  0  0  0  0  0  0  0  # atno 17343 bound_to 10162
  157.1975  131.0430  151.2668 LP  0  0  0  0  0  0  0  0  0  0  0  0  # atno 17370 bound_to 10713
  157.4006  130.7331  149.6764 LP  0  0  0  0  0  0  0  0  0  0  0  0  # atno 17371 bound_to 10713
  140.3305  134.7932  157.4323 LP  0  0  0  0  0  0  0  0  0  0  0  0  # atno 17394 bound_to 11000
  140.1020  134.5459  155.8344 LP  0  0  0  0  0  0  0  0  0  0  0  0  # atno 17395 bound_to 11000

$$$$
