AV-unprocessed.smi:1470|AV-procd|sdf|5960|dock3
  -GOLD-   22720 6 43D 1   1.00000     0.00000
 Structure written by MMmdl.
 42 43  0  0  0  0  0  0  0  0  1 V2000
  144.9074  134.9998  150.8751 C   0  0  0  0  0  0  0  0  0  0  0  0
  145.6166  136.1073  151.4008 O   0  0  0  0  0  0  0  0  0  0  0  0
  145.8867  137.0979  150.4228 C   0  0  0  0  0  0  0  0  0  0  0  0
  146.1605  138.4456  151.1074 C   0  0  0  0  0  0  0  0  0  0  0  0
  147.3707  138.4027  151.9215 N   0  0  0  0  0  0  0  0  0  0  0  0
  147.7073  139.3069  152.8523 C   0  0  0  0  0  0  0  0  0  0  0  0
  147.0093  140.2786  153.1415 O   0  0  0  0  0  0  0  0  0  0  0  0
  148.8796  138.9956  153.4309 N   0  0  0  0  0  0  0  0  0  0  0  0
  149.5977  139.7342  154.4091 C   0  0  0  0  0  0  0  0  0  0  0  0
  149.0243  140.9218  154.9026 C   0  0  0  0  0  0  0  0  0  0  0  0
  149.7072  141.6568  155.8900 C   0  0  0  0  0  0  0  0  0  0  0  0
  150.9491  141.1791  156.3704 C   0  0  0  0  0  0  0  0  0  0  0  0
  151.6515  141.8995  157.3612 N   0  0  0  0  0  0  0  0  0  0  0  0
  151.2700  143.2968  157.5847 C   0  0  0  0  0  0  0  0  0  0  0  0
  152.3460  144.0461  158.3890 C   0  0  0  0  0  0  0  0  0  0  0  0
  152.6732  143.3073  159.6947 C   0  0  0  0  0  0  0  0  0  0  0  0
  153.0729  141.8562  159.3897 C   0  0  0  0  0  0  0  0  0  0  0  0
  151.9844  141.1425  158.5698 C   0  0  0  0  0  0  0  0  0  0  0  0
  151.4906  140.0251  155.9088 N   0  0  0  0  0  0  0  0  0  0  0  0
  150.8348  139.3249  154.9596 C   0  0  0  0  0  0  0  0  0  0  0  0
  144.7263  134.2729  151.6667 H   0  0  0  0  0  0  0  0  0  0  0  0
  145.4765  134.5049  150.0870 H   0  0  0  0  0  0  0  0  0  0  0  0
  143.9415  135.3057  150.4712 H   0  0  0  0  0  0  0  0  0  0  0  0
  146.7625  136.8016  149.8434 H   0  0  0  0  0  0  0  0  0  0  0  0
  145.0515  137.1880  149.7261 H   0  0  0  0  0  0  0  0  0  0  0  0
  146.2073  139.2505  150.3720 H   0  0  0  0  0  0  0  0  0  0  0  0
  145.3303  138.6856  151.7718 H   0  0  0  0  0  0  0  0  0  0  0  0
  148.0024  137.6331  151.7559 H   0  0  0  0  0  0  0  0  0  0  0  0
  149.2874  138.1106  153.1677 H   0  0  0  0  0  0  0  0  0  0  0  0
  148.0718  141.2701  154.5305 H   0  0  0  0  0  0  0  0  0  0  0  0
  149.2667  142.5634  156.2773 H   0  0  0  0  0  0  0  0  0  0  0  0
  151.1236  143.8044  156.6303 H   0  0  0  0  0  0  0  0  0  0  0  0
  150.3180  143.3271  158.1168 H   0  0  0  0  0  0  0  0  0  0  0  0
  153.2509  144.1407  157.7872 H   0  0  0  0  0  0  0  0  0  0  0  0
  152.0100  145.0605  158.6053 H   0  0  0  0  0  0  0  0  0  0  0  0
  153.4775  143.8169  160.2261 H   0  0  0  0  0  0  0  0  0  0  0  0
  151.8041  143.3198  160.3535 H   0  0  0  0  0  0  0  0  0  0  0  0
  154.0121  141.8452  158.8350 H   0  0  0  0  0  0  0  0  0  0  0  0
  153.2552  141.3152  160.3185 H   0  0  0  0  0  0  0  0  0  0  0  0
  151.0803  141.0335  159.1702 H   0  0  0  0  0  0  0  0  0  0  0  0
  152.3239  140.1347  158.3346 H   0  0  0  0  0  0  0  0  0  0  0  0
  151.3150  138.4053  154.6634 H   0  0  0  0  0  0  0  0  0  0  0  0
  1  2  1  0  0  0  0
  1 21  1  0  0  0  0
  1 22  1  0  0  0  0
  1 23  1  0  0  0  0
  2  3  1  0  0  0  0
  3  4  1  0  0  0  0
  3 24  1  0  0  0  0
  3 25  1  0  0  0  0
  4  5  1  0  0  0  0
  4 26  1  0  0  0  0
  4 27  1  0  0  0  0
  5  6  1  0  0  0  0
  5 28  1  0  0  0  0
  6  7  2  0  0  0  0
  6  8  1  0  0  0  0
  8  9  1  0  0  0  0
  8 29  1  0  0  0  0
  9 20  1  0  0  0  0
  9 10  2  0  0  0  0
 10 11  1  0  0  0  0
 10 30  1  0  0  0  0
 11 12  2  0  0  0  0
 11 31  1  0  0  0  0
 12 13  1  0  0  0  0
 12 19  1  0  0  0  0
 13 18  1  0  0  0  0
 13 14  1  0  0  0  0
 14 15  1  0  0  0  0
 14 32  1  0  0  0  0
 14 33  1  0  0  0  0
 15 16  1  0  0  0  0
 15 34  1  0  0  0  0
 15 35  1  0  0  0  0
 16 17  1  0  0  0  0
 16 36  1  0  0  0  0
 16 37  1  0  0  0  0
 17 18  1  0  0  0  0
 17 38  1  0  0  0  0
 17 39  1  0  0  0  0
 18 40  1  0  0  0  0
 18 41  1  0  0  0  0
 19 20  2  0  0  0  0
 20 42  1  0  0  0  0
M  END
> <s_m_source_file>
AV-unprocessed.smi

> <i_m_source_file_index>
1470

> <i_lp_mmshare_version>
43012

> <i_f3d_flags>
0

> <s_epik_input>
W0NIM11PW0NIMl1bQ0gyXVtOSF1DKD1PKVtOSF1jMVtjSF1bY0hdYyhuW2NIXTEpTjJbQ0gyXVtDSDJdW0NIMl1bQ0gyXVtDSDJdMg==

> <s_epik_cmdline>
J2VwaWtfcHl0aG9uJywgJy1waCcsICc3LjAnLCAnLXRuJywgJzgnLCAnLW1hJywgJzIwMCcsICctbWV0YWxfYmluZGluZycsICctaW1hZScsICc8aW5maWxlLm1hZT4nLCAnLW9tYWUnLCAnPG91dGZpbGUubWFlPic=

> <r_lp_tautomer_probability>
1

> <r_epik_Ionization_Penalty>
0.104129

> <r_epik_Ionization_Penalty_Charging>
0

> <r_epik_Ionization_Penalty_Neutral>
0.104129

> <r_epik_State_Penalty>
0.0879167

> <r_epik_Charging_Adjusted_Penalty>
0.0879167

> <i_epik_Tot_Q>
0

> <i_epik_Tot_abs_Q>
0

> <r_epik_Metal_State_Penalty>
0.0753231

> <b_epik_Metal_Only>
0

> <s_lp_Force_Field>
OPLS_2005

> <r_lp_Energy>
19.434

> <b_lp_Chiralities_Consistent>
1

> <s_lp_Variant>
AV-unprocessed.smi:1470-1

> <Gold.Version>
5.8.1

> <Gold.Id.Protein>
6NUR|6NUR_protein|mol2

> <Gold.PLP.Fitness>
43.2112

> <Gold.PLP.PLP>
-39.6142

> <Gold.PLP.part.hbond>
-3.6557

> <Gold.PLP.part.metal>
0.0000

> <Gold.PLP.part.buried>
7.3478

> <Gold.PLP.part.nonpolar>
-43.7329

> <Gold.PLP.part.repulsive>
0.6490

> <Gold.PLP.ligand.clash>
0.0000

> <Gold.PLP.ligand.torsion>
0.4508

> <Gold.PLP.Chemscore.Hbond>
1.3510

> <Gold.PLP.Chemscore.CHOScore>
0.0000

> <Gold.PLP.Chemscore.Metal>
0.0000

> <Gold.Chemscore.Hbonds>
donor molecule, donor type, donor heavy atom, donor atom, acceptor molecule, acceptor atom, score
      L1  H     5    28       P1  7948  1.00
      L1  H     8    29       P1  7948  0.33

> <Gold.PLP.Chemscore.Internal.Correction>
0.4456

> <Gold.Rescore>
     Score         DG    S(hbond)    S(metal)    S(lipo)     H(rot)  DE(clash)    DE(int)     intcor
     14.27     -16.25       0.99        0.00      99.14       1.61       0.06       1.92       ----

> <Gold.Chemscore.Fitness>
14.2706

> <Gold.Chemscore.DG>
-16.2518

> <Gold.Chemscore.ZeroCoef>
-5.4800

> <Gold.Chemscore.Hbond>
0.9850

> <Gold.Chemscore.Metal>
0.0000

> <Gold.Chemscore.Lipo>
99.1424

> <Gold.Chemscore.Internal_Hbond>
0.0000

> <Gold.Chemscore.DEClash>
0.0613

> <Gold.Chemscore.DEInternal>
1.9200

> <Gold.Chemscore.Rot>
1.6086

> <Gold.Chemscore.Internal.Correction>
   9.000000E+99

> <Gold.Chemscore.Hbonds>
donor molecule, donor type, donor heavy atom, donor atom, acceptor molecule, acceptor atom, score
      L1  H     5    28       P1  7948  1.00
      L1  H     8    29       P1  7948  0.31

> <Gold.Chemscore.Hbond.Weighted>
-3.2901

> <Gold.Chemscore.Metal.Weighted>
-0.0000

> <Gold.Chemscore.Lipo.Weighted>
-11.5997

> <Gold.Chemscore.Internal_Hbond.Weighted>
0.0000

> <Gold.Chemscore.DEClash.Weighted>
0.0613

> <Gold.Chemscore.DEInternal.Weighted>
1.9200

> <Gold.Chemscore.Rot.Weighted>
4.1179

> <Gold.Chemscore.Internal.Correction.Weighted>
   9.000000E+99

> <Gold.Protein.RotatedTorsions>
[ 6907 6896 6895 6894 ] final -153.03 input  -60.11 | X-H torsion
[ 7974 7965 7964 7962 ] final  123.25 input  175.53 | X-H torsion
[ 8008 7997 7996 7995 ] final   91.84 input   59.86 | X-H torsion
[ 10167 10162 10161 10158 ] final  100.79 input  -65.29 | X-H torsion
[ 10718 10713 10712 10709 ] final -101.25 input   66.30 | X-H torsion
[ 10763 10752 10751 10750 ] final   87.83 input  -60.55 | X-H torsion
[ 11005 11000 10999 10996 ] final   15.46 input  -57.11 | X-H torsion

> <Gold.Protein.ActiveResidues>
 VAL166  LYS551  ARG553  GLY616  TRP617  ASP618  TYR619  PRO620  LYS621  CYS622 
 ASP623  PHE694  ASN695  SER759  ASP760  ASP761  ALA762  ILE779  LEU786  VAL792 
 PHE793  MET794  SER795  GLU796  ALA797  LYS798  CYS799  TRP800  GLU811  SER814 

> <Gold.Protein.RotatedAtoms>
  151.2366  133.4422  159.2605 H   0  0  0  0  0  0  0  0  0  0  0  0  # atno 6907 bound_to 6896
  151.0744  134.9819  159.8335 H   0  0  0  0  0  0  0  0  0  0  0  0  # atno 6908 bound_to 6896
  152.5416  134.2309  159.8877 H   0  0  0  0  0  0  0  0  0  0  0  0  # atno 6909 bound_to 6896
  145.0981  139.3538  143.4826 H   0  0  0  0  0  0  0  0  0  0  0  0  # atno 7974 bound_to 7965
  156.0284  140.3333  155.7114 H   0  0  0  0  0  0  0  0  0  0  0  0  # atno 8008 bound_to 7997
  155.5920  140.0647  157.2774 H   0  0  0  0  0  0  0  0  0  0  0  0  # atno 8009 bound_to 7997
  154.4343  140.1825  156.1072 H   0  0  0  0  0  0  0  0  0  0  0  0  # atno 8010 bound_to 7997
  139.7496  144.6988  151.0452 H   0  0  0  0  0  0  0  0  0  0  0  0  # atno 10167 bound_to 10162
  156.0189  130.5365  150.6936 H   0  0  0  0  0  0  0  0  0  0  0  0  # atno 10718 bound_to 10713
  153.1707  135.4529  154.9898 H   0  0  0  0  0  0  0  0  0  0  0  0  # atno 10763 bound_to 10752
  154.7964  135.3239  154.7660 H   0  0  0  0  0  0  0  0  0  0  0  0  # atno 10764 bound_to 10752
  153.8136  135.6952  153.4892 H   0  0  0  0  0  0  0  0  0  0  0  0  # atno 10765 bound_to 10752
  140.4581  134.1155  155.7712 H   0  0  0  0  0  0  0  0  0  0  0  0  # atno 11005 bound_to 11000
  146.3530  140.0846  142.8616 LP  0  0  0  0  0  0  0  0  0  0  0  0  # atno 17320 bound_to 7965
  145.0987  140.9332  143.4725 LP  0  0  0  0  0  0  0  0  0  0  0  0  # atno 17321 bound_to 7965
  140.7796  143.4825  150.9999 LP  0  0  0  0  0  0  0  0  0  0  0  0  # atno 17342 bound_to 10162
  139.8513  143.7435  152.3178 LP  0  0  0  0  0  0  0  0  0  0  0  0  # atno 17343 bound_to 10162
  157.4612  131.0883  151.0743 LP  0  0  0  0  0  0  0  0  0  0  0  0  # atno 17370 bound_to 10713
  157.1231  130.6070  149.5510 LP  0  0  0  0  0  0  0  0  0  0  0  0  # atno 17371 bound_to 10713
  141.1634  133.8750  157.1785 LP  0  0  0  0  0  0  0  0  0  0  0  0  # atno 17394 bound_to 11000
  139.9963  135.0045  157.0090 LP  0  0  0  0  0  0  0  0  0  0  0  0  # atno 17395 bound_to 11000

$$$$
