AV-unprocessed.smi:3089|AV-procd|sdf|11770|dock9
  -GOLD-   2272017153D 1   1.00000     0.00000
 Structure written by MMmdl.
 25 25  0  0  0  0  0  0  0  0  2 V2000
  151.6440  142.1140  158.4960 C   0  0  0  0  0  0  0  0  0  0  0  0
  151.1418  141.4692  157.3014 N   0  0  0  0  0  0  0  0  0  0  0  0
  149.9975  141.7499  156.5875 C   0  0  0  0  0  0  0  0  0  0  0  0
  149.9395  140.8777  155.5346 C   0  0  0  0  0  0  0  0  0  0  0  0
  148.8794  140.7660  154.4588 C   0  0  1  0  0  0  0  0  0  0  0  0
  147.6707  141.6472  154.8181 C   0  0  0  0  0  0  0  0  0  0  0  0
  149.3443  141.2387  153.2080 O   0  0  0  0  0  0  0  0  0  0  0  0
  148.4383  139.2988  154.2603 C   0  0  0  0  0  0  0  0  0  0  0  0
  149.4423  138.5084  153.5235 N   0  3  0  0  0  0  0  0  0  0  0  0
  151.1220  140.0967  155.6986 C   0  0  0  0  0  0  0  0  0  0  0  0
  151.8335  140.4490  156.7564 N   0  0  0  0  0  0  0  0  0  0  0  0
  150.9683  142.9125  158.8032 H   0  0  0  0  0  0  0  0  0  0  0  0
  152.6286  142.5395  158.3001 H   0  0  0  0  0  0  0  0  0  0  0  0
  151.7225  141.3860  159.3041 H   0  0  0  0  0  0  0  0  0  0  0  0
  149.3230  142.5397  156.8845 H   0  0  0  0  0  0  0  0  0  0  0  0
  147.2161  141.3352  155.7592 H   0  0  0  0  0  0  0  0  0  0  0  0
  146.8966  141.5975  154.0512 H   0  0  0  0  0  0  0  0  0  0  0  0
  147.9604  142.6934  154.9254 H   0  0  0  0  0  0  0  0  0  0  0  0
  149.3003  140.5330  152.5806 H   0  0  0  0  0  0  0  0  0  0  0  0
  148.2769  138.8192  155.2265 H   0  0  0  0  0  0  0  0  0  0  0  0
  147.4899  139.2486  153.7237 H   0  0  0  0  0  0  0  0  0  0  0  0
  149.0059  137.6914  153.1214 H   0  0  0  0  0  0  0  0  0  0  0  0
  150.1747  138.2239  154.1583 H   0  0  0  0  0  0  0  0  0  0  0  0
  151.4806  139.2837  155.0844 H   0  0  0  0  0  0  0  0  0  0  0  0
  149.8401  139.0770  152.7893 H   0  0  0  0  0  0  0  0  0  0  0  0
  1  2  1  0  0  0  0
  1 12  1  0  0  0  0
  1 13  1  0  0  0  0
  1 14  1  0  0  0  0
  2 11  1  0  0  0  0
  2  3  1  0  0  0  0
  3  4  2  0  0  0  0
  3 15  1  0  0  0  0
  4  5  1  0  0  0  0
  4 10  1  0  0  0  0
  5  6  1  0  0  0  0
  5  7  1  0  0  0  0
  5  8  1  0  0  0  0
  6 16  1  0  0  0  0
  6 17  1  0  0  0  0
  6 18  1  0  0  0  0
  7 19  1  0  0  0  0
  8  9  1  0  0  0  0
  8 20  1  0  0  0  0
  8 21  1  0  0  0  0
  9 22  1  0  0  0  0
  9 23  1  0  0  0  0
  9 25  1  0  0  0  0
 10 11  2  0  0  0  0
 10 24  1  0  0  0  0
M  CHG  1   9   1
M  END
> <s_m_source_file>
AV-unprocessed.smi

> <i_m_source_file_index>
3089

> <i_lp_mmshare_version>
43012

> <i_f3d_flags>
0

> <s_epik_input>
W0NIM11uMVtjSF1jKFtjSF1uMSlbQ0BAXShbQ0gzXSkoW09IXSlbQ0gyXVtOSDJd

> <s_epik_cmdline>
J2VwaWtfcHl0aG9uJywgJy1waCcsICc3LjAnLCAnLXRuJywgJzgnLCAnLW1hJywgJzIwMCcsICctbWV0YWxfYmluZGluZycsICctaW1hZScsICc8aW5maWxlLm1hZT4nLCAnLW9tYWUnLCAnPG91dGZpbGUubWFlPic=

> <r_lp_tautomer_probability>
1

> <r_epik_Ionization_Penalty>
0.0140512

> <r_epik_Ionization_Penalty_Charging>
0.0140431

> <r_epik_Ionization_Penalty_Neutral>
8.10489e-06

> <r_epik_State_Penalty>
0.0109628

> <r_epik_Charging_Adjusted_Penalty>
0.0250059

> <i_epik_Tot_Q>
1

> <i_epik_Tot_abs_Q>
1

> <r_epik_Metal_State_Penalty>
0.0109638

> <b_epik_Metal_Only>
0

> <s_lp_Force_Field>
OPLS_2005

> <r_lp_Energy>
3.27267

> <b_lp_Chiralities_Consistent>
1

> <s_lp_Variant>
AV-unprocessed.smi:3089-1

> <Gold.Version>
5.8.1

> <Gold.Id.Protein>
6NUR|6NUR_protein|mol2

> <Gold.PLP.Fitness>
40.1309

> <Gold.PLP.PLP>
-23.5249

> <Gold.PLP.part.hbond>
-4.3452

> <Gold.PLP.part.metal>
0.0000

> <Gold.PLP.part.buried>
-2.4196

> <Gold.PLP.part.nonpolar>
-16.8961

> <Gold.PLP.part.repulsive>
0.0758

> <Gold.PLP.ligand.clash>
0.0000

> <Gold.PLP.ligand.torsion>
0.5301

> <Gold.PLP.Chemscore.Hbond>
4.9467

> <Gold.PLP.Chemscore.CHOScore>
0.9365

> <Gold.PLP.Chemscore.Metal>
0.0000

> <Gold.Chemscore.Hbonds>
donor molecule, donor type, donor heavy atom, donor atom, acceptor molecule, acceptor atom, score
      L1  H     7    19       P1  7957  0.94
      L1  H     9    22       P1  7948  2.00
      L1  H     9    25       P1  7957  0.99
      P1  H  7989  7998       L1     7  0.01
      P1  H  8011  8017       L1     7  1.00
      L1  C     3    15       P1  8028  0.94

> <Gold.PLP.Chemscore.Internal.Correction>
0.0166

> <Gold.Rescore>
     Score         DG    S(hbond)    S(metal)    S(lipo)     H(rot)  DE(clash)    DE(int)     intcor
     16.18     -16.60       3.12        0.00      47.30       1.89       0.04       0.38       ----

> <Gold.Chemscore.Fitness>
16.1781

> <Gold.Chemscore.DG>
-16.6010

> <Gold.Chemscore.ZeroCoef>
-5.4800

> <Gold.Chemscore.Hbond>
3.1200

> <Gold.Chemscore.Metal>
0.0000

> <Gold.Chemscore.Lipo>
47.3014

> <Gold.Chemscore.Internal_Hbond>
0.0000

> <Gold.Chemscore.DEClash>
0.0392

> <Gold.Chemscore.DEInternal>
0.3837

> <Gold.Chemscore.Rot>
1.8883

> <Gold.Chemscore.Internal.Correction>
   9.000000E+99

> <Gold.Chemscore.Hbonds>
donor molecule, donor type, donor heavy atom, donor atom, acceptor molecule, acceptor atom, score
      L1  H     7    19       P1  7957  0.85
      L1  H     9    22       P1  7948  0.95
      L1  H     9    25       P1  7957  0.85
      P1  H  8011  8017       L1     7  0.32

> <Gold.Chemscore.Hbond.Weighted>
-10.4208

> <Gold.Chemscore.Metal.Weighted>
-0.0000

> <Gold.Chemscore.Lipo.Weighted>
-5.5343

> <Gold.Chemscore.Internal_Hbond.Weighted>
0.0000

> <Gold.Chemscore.DEClash.Weighted>
0.0392

> <Gold.Chemscore.DEInternal.Weighted>
0.3837

> <Gold.Chemscore.Rot.Weighted>
4.8341

> <Gold.Chemscore.Internal.Correction.Weighted>
   9.000000E+99

> <Gold.Protein.RotatedTorsions>
[ 6907 6896 6895 6894 ] final  140.98 input  -60.11 | X-H torsion
[ 7974 7965 7964 7962 ] final -148.25 input  175.53 | X-H torsion
[ 8008 7997 7996 7995 ] final  159.22 input   59.86 | X-H torsion
[ 10167 10162 10161 10158 ] final -139.80 input  -65.29 | X-H torsion
[ 10718 10713 10712 10709 ] final -171.48 input   66.30 | X-H torsion
[ 10763 10752 10751 10750 ] final   17.50 input  -60.55 | X-H torsion
[ 11005 11000 10999 10996 ] final   32.21 input  -57.11 | X-H torsion

> <Gold.Protein.ActiveResidues>
 VAL166  LYS551  ARG553  GLY616  TRP617  ASP618  TYR619  PRO620  LYS621  CYS622 
 ASP623  PHE694  ASN695  SER759  ASP760  ASP761  ALA762  ILE779  LEU786  VAL792 
 PHE793  MET794  SER795  GLU796  ALA797  LYS798  CYS799  TRP800  GLU811  SER814 

> <Gold.Protein.RotatedAtoms>
  152.2365  133.5100  159.5245 H   0  0  0  0  0  0  0  0  0  0  0  0  # atno 6907 bound_to 6896
  150.7052  134.1146  159.4022 H   0  0  0  0  0  0  0  0  0  0  0  0  # atno 6908 bound_to 6896
  151.9068  135.0355  160.0562 H   0  0  0  0  0  0  0  0  0  0  0  0  # atno 6909 bound_to 6896
  144.8041  140.5221  143.5687 H   0  0  0  0  0  0  0  0  0  0  0  0  # atno 7974 bound_to 7965
  156.2253  140.1837  156.7379 H   0  0  0  0  0  0  0  0  0  0  0  0  # atno 8008 bound_to 7997
  154.5930  140.0647  156.9293 H   0  0  0  0  0  0  0  0  0  0  0  0  # atno 8009 bound_to 7997
  155.2303  140.3314  155.4307 H   0  0  0  0  0  0  0  0  0  0  0  0  # atno 8010 bound_to 7997
  139.8344  143.7404  152.2665 H   0  0  0  0  0  0  0  0  0  0  0  0  # atno 10167 bound_to 10162
  156.7415  130.9344  151.3110 H   0  0  0  0  0  0  0  0  0  0  0  0  # atno 10718 bound_to 10713
  153.1333  135.6745  153.9143 H   0  0  0  0  0  0  0  0  0  0  0  0  # atno 10763 bound_to 10752
  153.8623  135.3080  155.3439 H   0  0  0  0  0  0  0  0  0  0  0  0  # atno 10764 bound_to 10752
  154.7726  135.4931  153.9761 H   0  0  0  0  0  0  0  0  0  0  0  0  # atno 10765 bound_to 10752
  140.2759  134.3029  155.7814 H   0  0  0  0  0  0  0  0  0  0  0  0  # atno 11005 bound_to 11000
  145.5480  139.1476  143.3410 LP  0  0  0  0  0  0  0  0  0  0  0  0  # atno 17320 bound_to 7965
  146.2329  140.5619  142.8967 LP  0  0  0  0  0  0  0  0  0  0  0  0  # atno 17321 bound_to 7965
  139.7622  144.7503  151.0347 LP  0  0  0  0  0  0  0  0  0  0  0  0  # atno 17342 bound_to 10162
  140.7804  143.4738  151.0110 LP  0  0  0  0  0  0  0  0  0  0  0  0  # atno 17343 bound_to 10162
  157.6816  130.9146  150.0282 LP  0  0  0  0  0  0  0  0  0  0  0  0  # atno 17370 bound_to 10713
  156.1461  130.3642  149.9508 LP  0  0  0  0  0  0  0  0  0  0  0  0  # atno 17371 bound_to 10713
  141.2170  133.7495  156.9406 LP  0  0  0  0  0  0  0  0  0  0  0  0  # atno 17394 bound_to 11000
  140.1329  134.9344  157.2362 LP  0  0  0  0  0  0  0  0  0  0  0  0  # atno 17395 bound_to 11000

$$$$
