AV-unprocessed.smi:3265|AV-procd|sdf|12498|dock3
  -GOLD-   2272018403D 1   1.00000     0.00000
 Structure written by MMmdl.
 41 42  0  0  0  0  0  0  0  0  2 V2000
  154.5470  136.8260  164.5271 C   0  0  0  0  0  0  0  0  0  0  0  0
  153.3175  136.2169  163.8336 C   0  0  2  0  0  0  0  0  0  0  0  0
  153.4011  134.6837  163.7073 C   0  0  0  0  0  0  0  0  0  0  0  0
  154.3977  134.2646  162.6168 C   0  0  0  0  0  0  0  0  0  0  0  0
  154.0776  134.9558  161.2826 C   0  0  0  0  0  0  0  0  0  0  0  0
  154.0522  136.4310  161.4446 N   0  3  1  0  0  0  0  0  0  0  0  0
  153.9113  137.1517  160.1537 C   0  0  0  0  0  0  0  0  0  0  0  0
  154.9156  138.3153  160.0174 C   0  0  0  0  0  0  0  0  0  0  0  0
  154.3930  139.5679  160.5566 N   0  0  0  0  0  0  0  0  0  0  0  0
  153.6409  140.4443  159.8726 C   0  0  0  0  0  0  0  0  0  0  0  0
  153.2675  140.2582  158.7151 O   0  0  0  0  0  0  0  0  0  0  0  0
  153.2773  141.7412  160.5938 C   0  0  0  0  0  0  0  0  0  0  0  0
  152.5076  142.6143  159.7248 N   0  0  0  0  0  0  0  0  0  0  0  0
  152.9150  143.7706  159.0920 C   0  0  0  0  0  0  0  0  0  0  0  0
  151.8468  144.2469  158.3874 C   0  0  0  0  0  0  0  0  0  0  0  0
  150.8189  143.2993  158.6505 C   0  0  0  0  0  0  0  0  0  0  0  0
  151.2150  142.3274  159.4568 N   0  0  0  0  0  0  0  0  0  0  0  0
  153.0517  136.8605  162.4573 C   0  0  0  0  0  0  0  0  0  0  0  0
  155.4523  136.6779  163.9412 H   0  0  0  0  0  0  0  0  0  0  0  0
  154.7080  136.3785  165.5081 H   0  0  0  0  0  0  0  0  0  0  0  0
  154.4233  137.8994  164.6727 H   0  0  0  0  0  0  0  0  0  0  0  0
  152.4624  136.4436  164.4718 H   0  0  0  0  0  0  0  0  0  0  0  0
  153.6733  134.2338  164.6627 H   0  0  0  0  0  0  0  0  0  0  0  0
  152.4148  134.2910  163.4557 H   0  0  0  0  0  0  0  0  0  0  0  0
  155.4139  134.5128  162.9246 H   0  0  0  0  0  0  0  0  0  0  0  0
  154.3737  133.1822  162.4888 H   0  0  0  0  0  0  0  0  0  0  0  0
  154.8354  134.6776  160.5492 H   0  0  0  0  0  0  0  0  0  0  0  0
  153.1163  134.6124  160.8965 H   0  0  0  0  0  0  0  0  0  0  0  0
  154.0888  136.4573  159.3317 H   0  0  0  0  0  0  0  0  0  0  0  0
  152.8874  137.5060  160.0261 H   0  0  0  0  0  0  0  0  0  0  0  0
  155.8556  138.0619  160.5098 H   0  0  0  0  0  0  0  0  0  0  0  0
  155.1589  138.4809  158.9680 H   0  0  0  0  0  0  0  0  0  0  0  0
  154.6413  139.7988  161.5083 H   0  0  0  0  0  0  0  0  0  0  0  0
  152.6849  141.5214  161.4829 H   0  0  0  0  0  0  0  0  0  0  0  0
  154.1810  142.2540  160.9279 H   0  0  0  0  0  0  0  0  0  0  0  0
  153.9197  144.1535  159.1960 H   0  0  0  0  0  0  0  0  0  0  0  0
  151.8063  145.1350  157.7744 H   0  0  0  0  0  0  0  0  0  0  0  0
  149.8014  143.2921  158.2881 H   0  0  0  0  0  0  0  0  0  0  0  0
  152.0547  136.5850  162.1093 H   0  0  0  0  0  0  0  0  0  0  0  0
  153.0565  137.9464  162.5548 H   0  0  0  0  0  0  0  0  0  0  0  0
  154.9619  136.6821  161.8053 H   0  0  0  0  0  0  0  0  0  0  0  0
  1  2  1  0  0  0  0
  1 19  1  0  0  0  0
  1 20  1  0  0  0  0
  1 21  1  0  0  0  0
  2 18  1  0  0  0  0
  2  3  1  0  0  0  0
  2 22  1  0  0  0  0
  3  4  1  0  0  0  0
  3 23  1  0  0  0  0
  3 24  1  0  0  0  0
  4  5  1  0  0  0  0
  4 25  1  0  0  0  0
  4 26  1  0  0  0  0
  5  6  1  0  0  0  0
  5 27  1  0  0  0  0
  5 28  1  0  0  0  0
  6  7  1  0  0  0  0
  6 18  1  0  0  0  0
  6 41  1  0  0  0  0
  7  8  1  0  0  0  0
  7 29  1  0  0  0  0
  7 30  1  0  0  0  0
  8  9  1  0  0  0  0
  8 31  1  0  0  0  0
  8 32  1  0  0  0  0
  9 10  1  0  0  0  0
  9 33  1  0  0  0  0
 10 11  2  0  0  0  0
 10 12  1  0  0  0  0
 12 13  1  0  0  0  0
 12 34  1  0  0  0  0
 12 35  1  0  0  0  0
 13 17  1  0  0  0  0
 13 14  1  0  0  0  0
 14 15  2  0  0  0  0
 14 36  1  0  0  0  0
 15 16  1  0  0  0  0
 15 37  1  0  0  0  0
 16 17  2  0  0  0  0
 16 38  1  0  0  0  0
 18 39  1  0  0  0  0
 18 40  1  0  0  0  0
M  CHG  1   6   1
M  END
> <s_m_source_file>
AV-unprocessed.smi

> <i_m_source_file_index>
3265

> <i_lp_mmshare_version>
43012

> <i_f3d_flags>
0

> <s_epik_input>
W0NIM11bQ0BASF0xW0NIMl1bQ0gyXVtDSDJdTihbQ0gyXTEpW0NIMl1bQ0gyXVtOSF1DKD1PKVtDSDJdbjJbY0hdW2NIXVtjSF1uMg==

> <s_epik_cmdline>
J2VwaWtfcHl0aG9uJywgJy1waCcsICc3LjAnLCAnLXRuJywgJzgnLCAnLW1hJywgJzIwMCcsICctbWV0YWxfYmluZGluZycsICctaW1hZScsICc8aW5maWxlLm1hZT4nLCAnLW9tYWUnLCAnPG91dGZpbGUubWFlPic=

> <r_lp_tautomer_probability>
1

> <r_epik_Ionization_Penalty>
0.00231455

> <r_epik_Ionization_Penalty_Charging>
0.00230623

> <r_epik_Ionization_Penalty_Neutral>
8.31727e-06

> <r_epik_State_Penalty>
0.00159065

> <r_epik_Charging_Adjusted_Penalty>
0.00389688

> <i_epik_Tot_Q>
1

> <i_epik_Tot_abs_Q>
1

> <r_epik_Metal_State_Penalty>
-0

> <b_epik_Metal_Only>
0

> <s_lp_Force_Field>
OPLS_2005

> <r_lp_Energy>
23.6627

> <b_lp_Chiralities_Consistent>
1

> <s_lp_Variant>
AV-unprocessed.smi:3265-3

> <Gold.Version>
5.8.1

> <Gold.Id.Protein>
6NUR|6NUR_protein|mol2

> <Gold.PLP.Fitness>
41.7072

> <Gold.PLP.PLP>
-41.2493

> <Gold.PLP.part.hbond>
-1.0627

> <Gold.PLP.part.metal>
0.0000

> <Gold.PLP.part.buried>
-3.7825

> <Gold.PLP.part.nonpolar>
-35.8825

> <Gold.PLP.part.repulsive>
0.0572

> <Gold.PLP.ligand.clash>
0.0000

> <Gold.PLP.ligand.torsion>
1.1325

> <Gold.PLP.Chemscore.Hbond>
0.8960

> <Gold.PLP.Chemscore.CHOScore>
0.0000

> <Gold.PLP.Chemscore.Metal>
0.0000

> <Gold.Chemscore.Hbonds>
donor molecule, donor type, donor heavy atom, donor atom, acceptor molecule, acceptor atom, score
      P1  H  7997  8008       L1    11  0.60

> <Gold.PLP.Chemscore.Internal.Correction>
0.0348

> <Gold.Rescore>
     Score         DG    S(hbond)    S(metal)    S(lipo)     H(rot)  DE(clash)    DE(int)     intcor
     13.73     -15.86       0.82        0.00     105.49       1.84       0.10       2.03       ----

> <Gold.Chemscore.Fitness>
13.7321

> <Gold.Chemscore.DG>
-15.8598

> <Gold.Chemscore.ZeroCoef>
-5.4800

> <Gold.Chemscore.Hbond>
0.8216

> <Gold.Chemscore.Metal>
0.0000

> <Gold.Chemscore.Lipo>
105.4918

> <Gold.Chemscore.Internal_Hbond>
0.0000

> <Gold.Chemscore.DEClash>
0.0995

> <Gold.Chemscore.DEInternal>
2.0283

> <Gold.Chemscore.Rot>
1.8386

> <Gold.Chemscore.Internal.Correction>
   9.000000E+99

> <Gold.Chemscore.Hbonds>
donor molecule, donor type, donor heavy atom, donor atom, acceptor molecule, acceptor atom, score
      P1  H  7997  8008       L1    11  0.54

> <Gold.Chemscore.Hbond.Weighted>
-2.7442

> <Gold.Chemscore.Metal.Weighted>
-0.0000

> <Gold.Chemscore.Lipo.Weighted>
-12.3425

> <Gold.Chemscore.Internal_Hbond.Weighted>
0.0000

> <Gold.Chemscore.DEClash.Weighted>
0.0995

> <Gold.Chemscore.DEInternal.Weighted>
2.0283

> <Gold.Chemscore.Rot.Weighted>
4.7069

> <Gold.Chemscore.Internal.Correction.Weighted>
   9.000000E+99

> <Gold.Protein.RotatedTorsions>
[ 6907 6896 6895 6894 ] final  -44.96 input  -60.11 | X-H torsion
[ 7974 7965 7964 7962 ] final -171.88 input  175.53 | X-H torsion
[ 8008 7997 7996 7995 ] final -101.82 input   59.86 | X-H torsion
[ 10167 10162 10161 10158 ] final  148.48 input  -65.29 | X-H torsion
[ 10718 10713 10712 10709 ] final  -23.17 input   66.30 | X-H torsion
[ 10763 10752 10751 10750 ] final  -73.57 input  -60.55 | X-H torsion
[ 11005 11000 10999 10996 ] final  102.02 input  -57.11 | X-H torsion

> <Gold.Protein.ActiveResidues>
 VAL166  LYS551  ARG553  GLY616  TRP617  ASP618  TYR619  PRO620  LYS621  CYS622 
 ASP623  PHE694  ASN695  SER759  ASP760  ASP761  ALA762  ILE779  LEU786  VAL792 
 PHE793  MET794  SER795  GLU796  ALA797  LYS798  CYS799  TRP800  GLU811  SER814 

> <Gold.Protein.RotatedAtoms>
  150.9271  134.8687  159.7526 H   0  0  0  0  0  0  0  0  0  0  0  0  # atno 6907 bound_to 6896
  152.5020  134.4133  159.9466 H   0  0  0  0  0  0  0  0  0  0  0  0  # atno 6908 bound_to 6896
  151.4163  133.3672  159.2785 H   0  0  0  0  0  0  0  0  0  0  0  0  # atno 6909 bound_to 6896
  144.7152  140.1856  143.6354 H   0  0  0  0  0  0  0  0  0  0  0  0  # atno 7974 bound_to 7965
  154.8480  140.0432  157.1585 H   0  0  0  0  0  0  0  0  0  0  0  0  # atno 8008 bound_to 7997
  154.8974  140.2995  155.5316 H   0  0  0  0  0  0  0  0  0  0  0  0  # atno 8009 bound_to 7997
  156.2995  140.2382  156.3997 H   0  0  0  0  0  0  0  0  0  0  0  0  # atno 8010 bound_to 7997
  139.4874  144.5676  151.7116 H   0  0  0  0  0  0  0  0  0  0  0  0  # atno 10167 bound_to 10162
  156.4946  130.4574  149.6735 H   0  0  0  0  0  0  0  0  0  0  0  0  # atno 10718 bound_to 10713
  154.4612  135.5893  153.6257 H   0  0  0  0  0  0  0  0  0  0  0  0  # atno 10763 bound_to 10752
  152.9823  135.6044  154.3483 H   0  0  0  0  0  0  0  0  0  0  0  0  # atno 10764 bound_to 10752
  154.3355  135.2842  155.2428 H   0  0  0  0  0  0  0  0  0  0  0  0  # atno 10765 bound_to 10752
  139.8775  134.9207  156.4995 H   0  0  0  0  0  0  0  0  0  0  0  0  # atno 11005 bound_to 11000
  145.8816  139.2326  143.1602 LP  0  0  0  0  0  0  0  0  0  0  0  0  # atno 17320 bound_to 7965
  145.9989  140.8537  143.0028 LP  0  0  0  0  0  0  0  0  0  0  0  0  # atno 17321 bound_to 7965
  140.5257  144.0810  150.6037 LP  0  0  0  0  0  0  0  0  0  0  0  0  # atno 17342 bound_to 10162
  140.3783  143.2817  152.0200 LP  0  0  0  0  0  0  0  0  0  0  0  0  # atno 17343 bound_to 10162
  156.3392  130.7373  151.2315 LP  0  0  0  0  0  0  0  0  0  0  0  0  # atno 17370 bound_to 10713
  157.7470  131.0408  150.4616 LP  0  0  0  0  0  0  0  0  0  0  0  0  # atno 17371 bound_to 10713
  140.8600  133.8067  155.9255 LP  0  0  0  0  0  0  0  0  0  0  0  0  # atno 17394 bound_to 11000
  140.9059  134.2321  157.5015 LP  0  0  0  0  0  0  0  0  0  0  0  0  # atno 17395 bound_to 11000

$$$$
