AV-unprocessed.smi:3040|AV-procd|sdf|11595|dock5
  -GOLD-   2272016573D 1   1.00000     0.00000
 Structure written by MMmdl.
 39 40  0  0  0  0  0  0  0  0  1 V2000
  149.3205  135.6779  155.5669 C   0  0  0  0  0  0  0  0  0  0  0  0
  150.3518  136.6953  155.7771 N   0  0  0  0  0  0  0  0  0  0  0  0
  150.7187  137.4584  154.5780 C   0  0  0  0  0  0  0  0  0  0  0  0
  152.0906  138.1357  154.6940 C   0  0  0  0  0  0  0  0  0  0  0  0
  152.2294  138.9090  156.0133 C   0  0  1  0  0  0  0  0  0  0  0  0
  151.3814  140.1923  156.0276 C   0  0  0  0  0  0  0  0  0  0  0  0
  150.7300  140.5198  155.0349 O   0  0  0  0  0  0  0  0  0  0  0  0
  151.4183  140.9208  157.1553 N   0  0  0  0  0  0  0  0  0  0  0  0
  150.7981  142.2320  157.3368 C   0  0  0  0  0  0  0  0  0  0  0  0
  151.7734  143.2538  157.9549 C   0  0  0  0  0  0  0  0  0  0  0  0
  152.2433  142.8612  159.3317 C   0  0  0  0  0  0  0  0  0  0  0  0
  152.9984  141.7132  159.7063 C   0  0  0  0  0  0  0  0  0  0  0  0
  153.2141  141.6420  161.0097 N   0  0  0  0  0  0  0  0  0  0  0  0
  152.6095  142.7384  161.5104 N   0  0  0  0  0  0  0  0  0  0  0  0
  152.6340  142.9783  162.9372 C   0  0  0  0  0  0  0  0  0  0  0  0
  152.0249  143.4980  160.5208 C   0  0  0  0  0  0  0  0  0  0  0  0
  151.9405  137.9941  157.2261 C   0  0  0  0  0  0  0  0  0  0  0  0
  150.8616  136.9135  157.0140 C   0  0  0  0  0  0  0  0  0  0  0  0
  150.5038  136.2621  157.9958 O   0  0  0  0  0  0  0  0  0  0  0  0
  148.5056  135.7912  156.2837 H   0  0  0  0  0  0  0  0  0  0  0  0
  149.7434  134.6795  155.6846 H   0  0  0  0  0  0  0  0  0  0  0  0
  148.8803  135.7389  154.5708 H   0  0  0  0  0  0  0  0  0  0  0  0
  150.7230  136.8052  153.7043 H   0  0  0  0  0  0  0  0  0  0  0  0
  149.9432  138.2038  154.3996 H   0  0  0  0  0  0  0  0  0  0  0  0
  152.8718  137.3759  154.6429 H   0  0  0  0  0  0  0  0  0  0  0  0
  152.2548  138.7936  153.8398 H   0  0  0  0  0  0  0  0  0  0  0  0
  153.2705  139.2262  156.0953 H   0  0  0  0  0  0  0  0  0  0  0  0
  151.9703  140.5702  157.9247 H   0  0  0  0  0  0  0  0  0  0  0  0
  150.4157  142.6120  156.3878 H   0  0  0  0  0  0  0  0  0  0  0  0
  149.9299  142.1147  157.9855 H   0  0  0  0  0  0  0  0  0  0  0  0
  152.6235  143.3791  157.2839 H   0  0  0  0  0  0  0  0  0  0  0  0
  151.2844  144.2280  157.9876 H   0  0  0  0  0  0  0  0  0  0  0  0
  153.3802  140.9259  159.0733 H   0  0  0  0  0  0  0  0  0  0  0  0
  151.9633  143.8003  163.1890 H   0  0  0  0  0  0  0  0  0  0  0  0
  153.6463  143.2362  163.2492 H   0  0  0  0  0  0  0  0  0  0  0  0
  152.3104  142.0831  163.4698 H   0  0  0  0  0  0  0  0  0  0  0  0
  151.4915  144.4104  160.7431 H   0  0  0  0  0  0  0  0  0  0  0  0
  152.8592  137.4690  157.4898 H   0  0  0  0  0  0  0  0  0  0  0  0
  151.6796  138.5848  158.1062 H   0  0  0  0  0  0  0  0  0  0  0  0
  1  2  1  0  0  0  0
  1 20  1  0  0  0  0
  1 21  1  0  0  0  0
  1 22  1  0  0  0  0
  2 18  1  0  0  0  0
  2  3  1  0  0  0  0
  3  4  1  0  0  0  0
  3 23  1  0  0  0  0
  3 24  1  0  0  0  0
  4  5  1  0  0  0  0
  4 25  1  0  0  0  0
  4 26  1  0  0  0  0
  5  6  1  0  0  0  0
  5 17  1  0  0  0  0
  5 27  1  0  0  0  0
  6  7  2  0  0  0  0
  6  8  1  0  0  0  0
  8  9  1  0  0  0  0
  8 28  1  0  0  0  0
  9 10  1  0  0  0  0
  9 29  1  0  0  0  0
  9 30  1  0  0  0  0
 10 11  1  0  0  0  0
 10 31  1  0  0  0  0
 10 32  1  0  0  0  0
 11 16  2  0  0  0  0
 11 12  1  0  0  0  0
 12 13  2  0  0  0  0
 12 33  1  0  0  0  0
 13 14  1  0  0  0  0
 14 15  1  0  0  0  0
 14 16  1  0  0  0  0
 15 34  1  0  0  0  0
 15 35  1  0  0  0  0
 15 36  1  0  0  0  0
 16 37  1  0  0  0  0
 17 18  1  0  0  0  0
 17 38  1  0  0  0  0
 17 39  1  0  0  0  0
 18 19  2  0  0  0  0
M  END
> <s_m_source_file>
AV-unprocessed.smi

> <i_m_source_file_index>
3040

> <i_lp_mmshare_version>
43012

> <i_f3d_flags>
0

> <s_epik_input>
W0NIM11OMVtDSDJdW0NIMl1bQ0BIXShbQ0gyXUMxPU8pQyg9TylbTkhdW0NIMl1bQ0gyXWMyW2NIXW5uKFtDSDNdKVtjSF0y

> <s_epik_cmdline>
J2VwaWtfcHl0aG9uJywgJy1waCcsICc3LjAnLCAnLXRuJywgJzgnLCAnLW1hJywgJzIwMCcsICctbWV0YWxfYmluZGluZycsICctaW1hZScsICc8aW5maWxlLm1hZT4nLCAnLW9tYWUnLCAnPG91dGZpbGUubWFlPic=

> <r_lp_tautomer_probability>
1

> <r_epik_Ionization_Penalty>
0.000456436

> <r_epik_Ionization_Penalty_Charging>
0

> <r_epik_Ionization_Penalty_Neutral>
0.000456436

> <r_epik_State_Penalty>
-0

> <r_epik_Charging_Adjusted_Penalty>
0

> <i_epik_Tot_Q>
0

> <i_epik_Tot_abs_Q>
0

> <r_epik_Metal_State_Penalty>
-0

> <b_epik_Metal_Only>
0

> <s_lp_Force_Field>
OPLS_2005

> <r_lp_Energy>
8.58968

> <b_lp_Chiralities_Consistent>
1

> <s_lp_Variant>
AV-unprocessed.smi:3040-1

> <Gold.Version>
5.8.1

> <Gold.Id.Protein>
6NUR|6NUR_protein|mol2

> <Gold.PLP.Fitness>
47.6020

> <Gold.PLP.PLP>
-44.4974

> <Gold.PLP.part.hbond>
-2.0000

> <Gold.PLP.part.metal>
0.0000

> <Gold.PLP.part.buried>
-5.7906

> <Gold.PLP.part.nonpolar>
-36.4141

> <Gold.PLP.part.repulsive>
0.1680

> <Gold.PLP.ligand.clash>
0.0000

> <Gold.PLP.ligand.torsion>
0.1346

> <Gold.PLP.Chemscore.Hbond>
1.1105

> <Gold.PLP.Chemscore.CHOScore>
0.0000

> <Gold.PLP.Chemscore.Metal>
0.0000

> <Gold.Chemscore.Hbonds>
donor molecule, donor type, donor heavy atom, donor atom, acceptor molecule, acceptor atom, score
      P1  H  6896  6909       L1    19  0.36
      P1  H  7989  7998       L1     7  1.00

> <Gold.PLP.Chemscore.Internal.Correction>
0.0423

> <Gold.Rescore>
     Score         DG    S(hbond)    S(metal)    S(lipo)     H(rot)  DE(clash)    DE(int)     intcor
     17.33     -17.96       1.73        0.00      93.51       1.65       0.13       0.50       ----

> <Gold.Chemscore.Fitness>
17.3271

> <Gold.Chemscore.DG>
-17.9642

> <Gold.Chemscore.ZeroCoef>
-5.4800

> <Gold.Chemscore.Hbond>
1.7295

> <Gold.Chemscore.Metal>
0.0000

> <Gold.Chemscore.Lipo>
93.5107

> <Gold.Chemscore.Internal_Hbond>
0.0000

> <Gold.Chemscore.DEClash>
0.1328

> <Gold.Chemscore.DEInternal>
0.5042

> <Gold.Chemscore.Rot>
1.6536

> <Gold.Chemscore.Internal.Correction>
   9.000000E+99

> <Gold.Chemscore.Hbonds>
donor molecule, donor type, donor heavy atom, donor atom, acceptor molecule, acceptor atom, score
      P1  H  6896  6909       L1    19  0.36
      P1  H  7989  7998       L1     7  0.91

> <Gold.Chemscore.Hbond.Weighted>
-5.7766

> <Gold.Chemscore.Metal.Weighted>
-0.0000

> <Gold.Chemscore.Lipo.Weighted>
-10.9408

> <Gold.Chemscore.Internal_Hbond.Weighted>
0.0000

> <Gold.Chemscore.DEClash.Weighted>
0.1328

> <Gold.Chemscore.DEInternal.Weighted>
0.5042

> <Gold.Chemscore.Rot.Weighted>
4.2332

> <Gold.Chemscore.Internal.Correction.Weighted>
   9.000000E+99

> <Gold.Protein.RotatedTorsions>
[ 6907 6896 6895 6894 ] final   82.98 input  -60.11 | X-H torsion
[ 7974 7965 7964 7962 ] final -139.67 input  175.53 | X-H torsion
[ 8008 7997 7996 7995 ] final  122.76 input   59.86 | X-H torsion
[ 10167 10162 10161 10158 ] final  -34.24 input  -65.29 | X-H torsion
[ 10718 10713 10712 10709 ] final  172.36 input   66.30 | X-H torsion
[ 10763 10752 10751 10750 ] final  -16.47 input  -60.55 | X-H torsion
[ 11005 11000 10999 10996 ] final   96.75 input  -57.11 | X-H torsion

> <Gold.Protein.ActiveResidues>
 VAL166  LYS551  ARG553  GLY616  TRP617  ASP618  TYR619  PRO620  LYS621  CYS622 
 ASP623  PHE694  ASN695  SER759  ASP760  ASP761  ALA762  ILE779  LEU786  VAL792 
 PHE793  MET794  SER795  GLU796  ALA797  LYS798  CYS799  TRP800  GLU811  SER814 

> <Gold.Protein.RotatedAtoms>
  152.5314  134.2967  159.9062 H   0  0  0  0  0  0  0  0  0  0  0  0  # atno 6907 bound_to 6896
  151.2918  133.4155  159.2641 H   0  0  0  0  0  0  0  0  0  0  0  0  # atno 6908 bound_to 6896
  151.0194  134.9473  159.8108 H   0  0  0  0  0  0  0  0  0  0  0  0  # atno 6909 bound_to 6896
  144.8658  140.6291  143.5299 H   0  0  0  0  0  0  0  0  0  0  0  0  # atno 7974 bound_to 7965
  156.2740  140.2778  156.1519 H   0  0  0  0  0  0  0  0  0  0  0  0  # atno 8008 bound_to 7997
  155.0844  140.0388  157.2667 H   0  0  0  0  0  0  0  0  0  0  0  0  # atno 8009 bound_to 7997
  154.6938  140.2635  155.6792 H   0  0  0  0  0  0  0  0  0  0  0  0  # atno 8010 bound_to 7997
  140.7189  143.3562  151.2055 H   0  0  0  0  0  0  0  0  0  0  0  0  # atno 10167 bound_to 10162
  156.9800  131.0116  151.2884 H   0  0  0  0  0  0  0  0  0  0  0  0  # atno 10718 bound_to 10713
  153.5590  135.7010  153.5556 H   0  0  0  0  0  0  0  0  0  0  0  0  # atno 10763 bound_to 10752
  153.3446  135.4011  155.1599 H   0  0  0  0  0  0  0  0  0  0  0  0  # atno 10764 bound_to 10752
  154.8650  135.3750  154.5106 H   0  0  0  0  0  0  0  0  0  0  0  0  # atno 10765 bound_to 10752
  139.8779  134.8966  156.4205 H   0  0  0  0  0  0  0  0  0  0  0  0  # atno 11005 bound_to 11000
  145.4224  139.1562  143.4067 LP  0  0  0  0  0  0  0  0  0  0  0  0  # atno 17320 bound_to 7965
  146.2894  140.4335  142.8745 LP  0  0  0  0  0  0  0  0  0  0  0  0  # atno 17321 bound_to 7965
  139.7104  143.9387  152.2945 LP  0  0  0  0  0  0  0  0  0  0  0  0  # atno 17342 bound_to 10162
  139.9109  144.6857  150.8563 LP  0  0  0  0  0  0  0  0  0  0  0  0  # atno 17343 bound_to 10162
  157.5532  130.8196  149.8172 LP  0  0  0  0  0  0  0  0  0  0  0  0  # atno 17370 bound_to 10713
  156.0248  130.3783  150.1855 LP  0  0  0  0  0  0  0  0  0  0  0  0  # atno 17371 bound_to 10713
  140.9137  133.7694  155.9822 LP  0  0  0  0  0  0  0  0  0  0  0  0  # atno 17394 bound_to 11000
  140.8518  134.2945  157.5272 LP  0  0  0  0  0  0  0  0  0  0  0  0  # atno 17395 bound_to 11000

$$$$
