AV-unprocessed.smi:759|AV-procd|sdf|3624|dock4
  -GOLD-   22720 1 13D 1   1.00000     0.00000
 Structure written by MMmdl.
 24 25  0  0  0  0  0  0  0  0  2 V2000
  143.5685  132.7247  148.5701 C   0  0  0  0  0  0  0  0  0  0  0  0
  143.5075  131.8178  149.5461 N   0  0  0  0  0  0  0  0  0  0  0  0
  144.2233  132.3754  150.5932 N   0  0  0  0  0  0  0  0  0  0  0  0
  144.6498  133.5643  150.1472 C   0  0  0  0  0  0  0  0  0  0  0  0
  145.4740  134.5318  150.9403 C   0  0  1  0  0  0  0  0  0  0  0  0
  144.7372  135.8651  151.1731 C   0  0  0  0  0  0  0  0  0  0  0  0
  145.6040  136.8223  152.0058 C   0  0  0  0  0  0  0  0  0  0  0  0
  146.0528  136.1576  153.3178 C   0  0  0  0  0  0  0  0  0  0  0  0
  146.7620  134.8888  153.0446 N   0  3  0  0  0  0  0  0  0  0  0  0
  145.9448  133.9227  152.2775 C   0  0  0  0  0  0  0  0  0  0  0  0
  144.2621  133.8238  148.8887 N   0  0  0  0  0  0  0  0  0  0  0  0
  144.4444  134.6402  148.3232 H   0  0  0  0  0  0  0  0  0  0  0  0
  143.0995  132.5835  147.6074 H   0  0  0  0  0  0  0  0  0  0  0  0
  146.3662  134.7518  150.3509 H   0  0  0  0  0  0  0  0  0  0  0  0
  144.4823  136.3282  150.2191 H   0  0  0  0  0  0  0  0  0  0  0  0
  143.7951  135.6851  151.6931 H   0  0  0  0  0  0  0  0  0  0  0  0
  146.4795  137.1214  151.4281 H   0  0  0  0  0  0  0  0  0  0  0  0
  145.0490  137.7358  152.2214 H   0  0  0  0  0  0  0  0  0  0  0  0
  146.7149  136.8230  153.8723 H   0  0  0  0  0  0  0  0  0  0  0  0
  145.1916  135.9581  153.9572 H   0  0  0  0  0  0  0  0  0  0  0  0
  147.5973  135.0956  152.5158 H   0  0  0  0  0  0  0  0  0  0  0  0
  145.0898  133.6233  152.8856 H   0  0  0  0  0  0  0  0  0  0  0  0
  146.5378  133.0251  152.0986 H   0  0  0  0  0  0  0  0  0  0  0  0
  147.0285  134.4668  153.9228 H   0  0  0  0  0  0  0  0  0  0  0  0
  1 11  1  0  0  0  0
  1  2  2  0  0  0  0
  1 13  1  0  0  0  0
  2  3  1  0  0  0  0
  3  4  2  0  0  0  0
  4  5  1  0  0  0  0
  4 11  1  0  0  0  0
  5 10  1  0  0  0  0
  5  6  1  0  0  0  0
  5 14  1  0  0  0  0
  6  7  1  0  0  0  0
  6 15  1  0  0  0  0
  6 16  1  0  0  0  0
  7  8  1  0  0  0  0
  7 17  1  0  0  0  0
  7 18  1  0  0  0  0
  8  9  1  0  0  0  0
  8 19  1  0  0  0  0
  8 20  1  0  0  0  0
  9 10  1  0  0  0  0
  9 21  1  0  0  0  0
  9 24  1  0  0  0  0
 10 22  1  0  0  0  0
 10 23  1  0  0  0  0
 11 12  1  0  0  0  0
M  CHG  1   9   1
M  END
> <s_m_source_file>
AV-unprocessed.smi

> <i_m_source_file_index>
759

> <i_lp_mmshare_version>
43012

> <i_f3d_flags>
0

> <s_epik_input>
W25IXTFbY0hdbm5jMVtDQEBIXTJbQ0gyXVtDSDJdW0NIMl1bTkhdW0NIMl0y

> <s_epik_cmdline>
J2VwaWtfcHl0aG9uJywgJy1waCcsICc3LjAnLCAnLXRuJywgJzgnLCAnLW1hJywgJzIwMCcsICctbWV0YWxfYmluZGluZycsICctaW1hZScsICc8aW5maWxlLm1hZT4nLCAnLW9tYWUnLCAnPG91dGZpbGUubWFlPic=

> <r_lp_tautomer_probability>
0.0517155

> <r_epik_Ionization_Penalty>
0.0333069

> <r_epik_Ionization_Penalty_Charging>
0.000426856

> <r_epik_Ionization_Penalty_Neutral>
0.03288

> <r_epik_State_Penalty>
2.11054

> <r_epik_Charging_Adjusted_Penalty>
2.11097

> <i_epik_Tot_Q>
1

> <i_epik_Tot_abs_Q>
1

> <r_epik_Metal_State_Penalty>
2.37626

> <b_epik_Metal_Only>
0

> <s_lp_Force_Field>
OPLS_2005

> <r_lp_Energy>
13.742

> <b_lp_Chiralities_Consistent>
1

> <s_lp_Variant>
AV-unprocessed.smi:759-6

> <Gold.Version>
5.8.1

> <Gold.Id.Protein>
6NUR|6NUR_protein|mol2

> <Gold.PLP.Fitness>
32.4247

> <Gold.PLP.PLP>
-19.4474

> <Gold.PLP.part.hbond>
-2.6753

> <Gold.PLP.part.metal>
0.0000

> <Gold.PLP.part.buried>
-2.5584

> <Gold.PLP.part.nonpolar>
-15.2467

> <Gold.PLP.part.repulsive>
0.8437

> <Gold.PLP.ligand.clash>
0.0000

> <Gold.PLP.ligand.torsion>
0.0653

> <Gold.PLP.Chemscore.Hbond>
3.3600

> <Gold.PLP.Chemscore.CHOScore>
1.0000

> <Gold.PLP.Chemscore.Metal>
0.0000

> <Gold.Chemscore.Hbonds>
donor molecule, donor type, donor heavy atom, donor atom, acceptor molecule, acceptor atom, score
      L1  H     9    21       P1  7948  2.00
      L1  H    11    12       P1  7921  0.35
      P1  H 10785 10796       L1     2  1.00
      L1  C     1    13       P1 10195  1.00

> <Gold.PLP.Chemscore.Internal.Correction>
0.0278

> <Gold.Rescore>
     Score         DG    S(hbond)    S(metal)    S(lipo)     H(rot)  DE(clash)    DE(int)     intcor
     12.36     -12.44       2.02        0.00      23.57       1.00       0.05       0.02       ----

> <Gold.Chemscore.Fitness>
12.3637

> <Gold.Chemscore.DG>
-12.4379

> <Gold.Chemscore.ZeroCoef>
-5.4800

> <Gold.Chemscore.Hbond>
2.0240

> <Gold.Chemscore.Metal>
0.0000

> <Gold.Chemscore.Lipo>
23.5692

> <Gold.Chemscore.Internal_Hbond>
0.0000

> <Gold.Chemscore.DEClash>
0.0519

> <Gold.Chemscore.DEInternal>
0.0222

> <Gold.Chemscore.Rot>
1.0000

> <Gold.Chemscore.Internal.Correction>
   9.000000E+99

> <Gold.Chemscore.Hbonds>
donor molecule, donor type, donor heavy atom, donor atom, acceptor molecule, acceptor atom, score
      L1  H     9    21       P1  7948  0.98
      L1  H    11    12       P1  7921  0.36
      P1  H 10785 10796       L1     2  0.62

> <Gold.Chemscore.Hbond.Weighted>
-6.7603

> <Gold.Chemscore.Metal.Weighted>
-0.0000

> <Gold.Chemscore.Lipo.Weighted>
-2.7576

> <Gold.Chemscore.Internal_Hbond.Weighted>
0.0000

> <Gold.Chemscore.DEClash.Weighted>
0.0519

> <Gold.Chemscore.DEInternal.Weighted>
0.0222

> <Gold.Chemscore.Rot.Weighted>
2.5600

> <Gold.Chemscore.Internal.Correction.Weighted>
   9.000000E+99

> <Gold.Protein.RotatedTorsions>
[ 6907 6896 6895 6894 ] final  -73.56 input  -60.11 | X-H torsion
[ 7974 7965 7964 7962 ] final   34.02 input  175.53 | X-H torsion
[ 8008 7997 7996 7995 ] final  147.44 input   59.86 | X-H torsion
[ 10167 10162 10161 10158 ] final  -62.97 input  -65.29 | X-H torsion
[ 10718 10713 10712 10709 ] final -130.71 input   66.30 | X-H torsion
[ 10763 10752 10751 10750 ] final  -10.26 input  -60.55 | X-H torsion
[ 11005 11000 10999 10996 ] final   31.51 input  -57.11 | X-H torsion

> <Gold.Protein.ActiveResidues>
 VAL166  LYS551  ARG553  GLY616  TRP617  ASP618  TYR619  PRO620  LYS621  CYS622 
 ASP623  PHE694  ASN695  SER759  ASP760  ASP761  ALA762  ILE779  LEU786  VAL792 
 PHE793  MET794  SER795  GLU796  ALA797  LYS798  CYS799  TRP800  GLU811  SER814 

> <Gold.Protein.RotatedAtoms>
  150.7125  134.4998  159.5555 H   0  0  0  0  0  0  0  0  0  0  0  0  # atno 6907 bound_to 6896
  152.2598  134.8043  160.0441 H   0  0  0  0  0  0  0  0  0  0  0  0  # atno 6908 bound_to 6896
  151.8761  133.3450  159.3787 H   0  0  0  0  0  0  0  0  0  0  0  0  # atno 6909 bound_to 6896
  146.1381  139.6322  142.9181 H   0  0  0  0  0  0  0  0  0  0  0  0  # atno 7974 bound_to 7965
  156.2824  140.2155  156.5538 H   0  0  0  0  0  0  0  0  0  0  0  0  # atno 8008 bound_to 7997
  154.7269  140.0498  157.0714 H   0  0  0  0  0  0  0  0  0  0  0  0  # atno 8009 bound_to 7997
  155.0404  140.3145  155.4729 H   0  0  0  0  0  0  0  0  0  0  0  0  # atno 8010 bound_to 7997
  140.5903  143.2340  151.6154 H   0  0  0  0  0  0  0  0  0  0  0  0  # atno 10167 bound_to 10162
  156.2172  130.6955  151.0715 H   0  0  0  0  0  0  0  0  0  0  0  0  # atno 10718 bound_to 10713
  153.4666  135.7016  153.6018 H   0  0  0  0  0  0  0  0  0  0  0  0  # atno 10763 bound_to 10752
  153.4290  135.3807  155.2159 H   0  0  0  0  0  0  0  0  0  0  0  0  # atno 10764 bound_to 10752
  154.8726  135.3946  154.4098 H   0  0  0  0  0  0  0  0  0  0  0  0  # atno 10765 bound_to 10752
  140.2831  134.2949  155.7795 H   0  0  0  0  0  0  0  0  0  0  0  0  # atno 11005 bound_to 11000
  145.5109  141.0435  143.2488 LP  0  0  0  0  0  0  0  0  0  0  0  0  # atno 17320 bound_to 7965
  144.7762  139.6625  143.7174 LP  0  0  0  0  0  0  0  0  0  0  0  0  # atno 17321 bound_to 7965
  139.5223  144.3167  152.0946 LP  0  0  0  0  0  0  0  0  0  0  0  0  # atno 17342 bound_to 10162
  140.2330  144.4348  150.6292 LP  0  0  0  0  0  0  0  0  0  0  0  0  # atno 17343 bound_to 10162
  157.7069  131.0752  150.6636 LP  0  0  0  0  0  0  0  0  0  0  0  0  # atno 17370 bound_to 10713
  156.6698  130.4536  149.5661 LP  0  0  0  0  0  0  0  0  0  0  0  0  # atno 17371 bound_to 10713
  141.2159  133.7538  156.9511 LP  0  0  0  0  0  0  0  0  0  0  0  0  # atno 17394 bound_to 11000
  140.1264  134.9384  157.2276 LP  0  0  0  0  0  0  0  0  0  0  0  0  # atno 17395 bound_to 11000

$$$$
