AV-unprocessed.smi:2496|AV-procd|sdf|9825|dock6
  -GOLD-   2272013453D 1   1.00000     0.00000
 Structure written by MMmdl.
 40 40  0  0  0  0  0  0  0  0  1 V2000
  151.6490  138.3929  154.6194 C   0  0  0  0  0  0  0  0  0  0  0  0
  151.0015  139.5996  155.2366 C   0  0  0  0  0  0  0  0  0  0  0  0
  150.4164  140.4902  154.4514 N   0  0  0  0  0  0  0  0  0  0  0  0
  149.9622  141.4225  155.3048 N   0  0  0  0  0  0  0  0  0  0  0  0
  150.2508  141.1413  156.6193 C   0  0  0  0  0  0  0  0  0  0  0  0
  149.8411  142.0623  157.7207 C   0  0  0  0  0  0  0  0  0  0  0  0
  150.9302  139.9491  156.6210 C   0  0  0  0  0  0  0  0  0  0  0  0
  151.5036  139.1627  157.7823 C   0  0  2  0  0  0  0  0  0  0  0  0
  150.4391  138.8382  158.8474 C   0  0  0  0  0  0  0  0  0  0  0  0
  152.7166  139.9137  158.3521 C   0  0  0  0  0  0  0  0  0  0  0  0
  153.8336  139.3951  158.3563 O   0  0  0  0  0  0  0  0  0  0  0  0
  152.4663  141.1404  158.8443 N   0  0  0  0  0  0  0  0  0  0  0  0
  153.4085  142.0455  159.5084 C   0  0  2  0  0  0  0  0  0  0  0  0
  153.8713  141.4566  160.8570 C   0  0  0  0  0  0  0  0  0  0  0  0
  152.8665  143.5006  159.6035 C   0  0  0  0  0  0  0  0  0  0  0  0
  151.8762  143.6833  160.7707 C   0  0  0  0  0  0  0  0  0  0  0  0
  152.2046  143.9605  158.2924 C   0  0  0  0  0  0  0  0  0  0  0  0
  149.4649  142.2397  154.9806 H   0  0  0  0  0  0  0  0  0  0  0  0
  152.7255  138.4004  154.7911 H   0  0  0  0  0  0  0  0  0  0  0  0
  151.4861  138.3505  153.5418 H   0  0  0  0  0  0  0  0  0  0  0  0
  151.2498  137.4741  155.0490 H   0  0  0  0  0  0  0  0  0  0  0  0
  150.6376  142.1702  158.4567 H   0  0  0  0  0  0  0  0  0  0  0  0
  148.9560  141.6833  158.2314 H   0  0  0  0  0  0  0  0  0  0  0  0
  149.6073  143.0557  157.3373 H   0  0  0  0  0  0  0  0  0  0  0  0
  151.8827  138.2039  157.4268 H   0  0  0  0  0  0  0  0  0  0  0  0
  150.0163  139.7374  159.2951 H   0  0  0  0  0  0  0  0  0  0  0  0
  150.8604  138.2367  159.6538 H   0  0  0  0  0  0  0  0  0  0  0  0
  149.6172  138.2690  158.4124 H   0  0  0  0  0  0  0  0  0  0  0  0
  151.5120  141.4652  158.7884 H   0  0  0  0  0  0  0  0  0  0  0  0
  154.2824  142.0642  158.8561 H   0  0  0  0  0  0  0  0  0  0  0  0
  154.7431  141.9828  161.2447 H   0  0  0  0  0  0  0  0  0  0  0  0
  154.1563  140.4094  160.7504 H   0  0  0  0  0  0  0  0  0  0  0  0
  153.0889  141.5133  161.6141 H   0  0  0  0  0  0  0  0  0  0  0  0
  153.7070  144.1707  159.7865 H   0  0  0  0  0  0  0  0  0  0  0  0
  151.0244  143.0095  160.6749 H   0  0  0  0  0  0  0  0  0  0  0  0
  151.4903  144.7025  160.8023 H   0  0  0  0  0  0  0  0  0  0  0  0
  152.3437  143.4934  161.7367 H   0  0  0  0  0  0  0  0  0  0  0  0
  151.3871  143.2978  158.0072 H   0  0  0  0  0  0  0  0  0  0  0  0
  152.9169  143.9895  157.4683 H   0  0  0  0  0  0  0  0  0  0  0  0
  151.7958  144.9666  158.3909 H   0  0  0  0  0  0  0  0  0  0  0  0
  1  2  1  0  0  0  0
  1 19  1  0  0  0  0
  1 20  1  0  0  0  0
  1 21  1  0  0  0  0
  2  7  1  0  0  0  0
  2  3  2  0  0  0  0
  3  4  1  0  0  0  0
  4 18  1  0  0  0  0
  4  5  1  0  0  0  0
  5  6  1  0  0  0  0
  5  7  2  0  0  0  0
  6 22  1  0  0  0  0
  6 23  1  0  0  0  0
  6 24  1  0  0  0  0
  7  8  1  0  0  0  0
  8  9  1  0  0  0  0
  8 10  1  0  0  0  0
  8 25  1  0  0  0  0
  9 26  1  0  0  0  0
  9 27  1  0  0  0  0
  9 28  1  0  0  0  0
 10 11  2  0  0  0  0
 10 12  1  0  0  0  0
 12 13  1  0  0  0  0
 12 29  1  0  0  0  0
 13 14  1  0  0  0  0
 13 15  1  0  0  0  0
 13 30  1  0  0  0  0
 14 31  1  0  0  0  0
 14 32  1  0  0  0  0
 14 33  1  0  0  0  0
 15 16  1  0  0  0  0
 15 17  1  0  0  0  0
 15 34  1  0  0  0  0
 16 35  1  0  0  0  0
 16 36  1  0  0  0  0
 16 37  1  0  0  0  0
 17 38  1  0  0  0  0
 17 39  1  0  0  0  0
 17 40  1  0  0  0  0
M  END
> <s_m_source_file>
AV-unprocessed.smi

> <i_m_source_file_index>
2496

> <i_lp_mmshare_version>
43012

> <i_f3d_flags>
0

> <s_epik_input>
W0NIM11jMW5bbkhdYyhbQ0gzXSljMVtDQEhdKFtDSDNdKUMoPU8pW05IXVtDQEhdKFtDSDNdKVtDSF0oW0NIM10pW0NIM10=

> <s_epik_cmdline>
J2VwaWtfcHl0aG9uJywgJy1waCcsICc3LjAnLCAnLXRuJywgJzgnLCAnLW1hJywgJzIwMCcsICctbWV0YWxfYmluZGluZycsICctaW1hZScsICc8aW5maWxlLm1hZT4nLCAnLW9tYWUnLCAnPG91dGZpbGUubWFlPic=

> <r_lp_tautomer_probability>
1

> <r_epik_Ionization_Penalty>
0.000456212

> <r_epik_Ionization_Penalty_Charging>
0

> <r_epik_Ionization_Penalty_Neutral>
0.000456212

> <r_epik_State_Penalty>
-0

> <r_epik_Charging_Adjusted_Penalty>
0

> <i_epik_Tot_Q>
0

> <i_epik_Tot_abs_Q>
0

> <r_epik_Metal_State_Penalty>
-0

> <b_epik_Metal_Only>
0

> <s_lp_Force_Field>
OPLS_2005

> <r_lp_Energy>
1.67244

> <b_lp_Chiralities_Consistent>
1

> <s_lp_Variant>
AV-unprocessed.smi:2496-1

> <Gold.Version>
5.8.1

> <Gold.Id.Protein>
6NUR|6NUR_protein|mol2

> <Gold.PLP.Fitness>
40.7863

> <Gold.PLP.PLP>
-35.6880

> <Gold.PLP.part.hbond>
-1.9121

> <Gold.PLP.part.metal>
0.0000

> <Gold.PLP.part.buried>
-3.4742

> <Gold.PLP.part.nonpolar>
-30.7624

> <Gold.PLP.part.repulsive>
0.3877

> <Gold.PLP.ligand.clash>
0.0000

> <Gold.PLP.ligand.torsion>
0.4944

> <Gold.PLP.Chemscore.Hbond>
1.9760

> <Gold.PLP.Chemscore.CHOScore>
0.0000

> <Gold.PLP.Chemscore.Metal>
0.0000

> <Gold.Chemscore.Hbonds>
donor molecule, donor type, donor heavy atom, donor atom, acceptor molecule, acceptor atom, score
      P1  H  7989  7998       L1     3  0.98
      P1  H  7997  8010       L1    11  1.00

> <Gold.PLP.Chemscore.Internal.Correction>
0.1590

> <Gold.Rescore>
     Score         DG    S(hbond)    S(metal)    S(lipo)     H(rot)  DE(clash)    DE(int)     intcor
     17.95     -18.64       1.66        0.00      97.16       1.47       0.02       0.67       ----

> <Gold.Chemscore.Fitness>
17.9493

> <Gold.Chemscore.DG>
-18.6365

> <Gold.Chemscore.ZeroCoef>
-5.4800

> <Gold.Chemscore.Hbond>
1.6592

> <Gold.Chemscore.Metal>
0.0000

> <Gold.Chemscore.Lipo>
97.1638

> <Gold.Chemscore.Internal_Hbond>
0.0000

> <Gold.Chemscore.DEClash>
0.0202

> <Gold.Chemscore.DEInternal>
0.6670

> <Gold.Chemscore.Rot>
1.4662

> <Gold.Chemscore.Internal.Correction>
   9.000000E+99

> <Gold.Chemscore.Hbonds>
donor molecule, donor type, donor heavy atom, donor atom, acceptor molecule, acceptor atom, score
      P1  H  7989  7998       L1     3  0.26
      P1  H  7997  8010       L1    11  0.88

> <Gold.Chemscore.Hbond.Weighted>
-5.5418

> <Gold.Chemscore.Metal.Weighted>
-0.0000

> <Gold.Chemscore.Lipo.Weighted>
-11.3682

> <Gold.Chemscore.Internal_Hbond.Weighted>
0.0000

> <Gold.Chemscore.DEClash.Weighted>
0.0202

> <Gold.Chemscore.DEInternal.Weighted>
0.6670

> <Gold.Chemscore.Rot.Weighted>
3.7534

> <Gold.Chemscore.Internal.Correction.Weighted>
   9.000000E+99

> <Gold.Protein.RotatedTorsions>
[ 6907 6896 6895 6894 ] final   -0.73 input  -60.11 | X-H torsion
[ 7974 7965 7964 7962 ] final  114.29 input  175.53 | X-H torsion
[ 8008 7997 7996 7995 ] final   14.26 input   59.86 | X-H torsion
[ 10167 10162 10161 10158 ] final   58.57 input  -65.29 | X-H torsion
[ 10718 10713 10712 10709 ] final  118.69 input   66.30 | X-H torsion
[ 10763 10752 10751 10750 ] final  122.00 input  -60.55 | X-H torsion
[ 11005 11000 10999 10996 ] final  -87.60 input  -57.11 | X-H torsion

> <Gold.Protein.ActiveResidues>
 VAL166  LYS551  ARG553  GLY616  TRP617  ASP618  TYR619  PRO620  LYS621  CYS622 
 ASP623  PHE694  ASN695  SER759  ASP760  ASP761  ALA762  ILE779  LEU786  VAL792 
 PHE793  MET794  SER795  GLU796  ALA797  LYS798  CYS799  TRP800  GLU811  SER814 

> <Gold.Protein.RotatedAtoms>
  151.5575  135.1066  159.9964 H   0  0  0  0  0  0  0  0  0  0  0  0  # atno 6907 bound_to 6896
  152.4462  133.7537  159.6719 H   0  0  0  0  0  0  0  0  0  0  0  0  # atno 6908 bound_to 6896
  150.8378  133.7917  159.3096 H   0  0  0  0  0  0  0  0  0  0  0  0  # atno 6909 bound_to 6896
  145.2063  139.2928  143.4292 H   0  0  0  0  0  0  0  0  0  0  0  0  # atno 7974 bound_to 7965
  154.8460  140.2922  155.5628 H   0  0  0  0  0  0  0  0  0  0  0  0  # atno 8008 bound_to 7997
  156.3014  140.2505  156.3343 H   0  0  0  0  0  0  0  0  0  0  0  0  # atno 8009 bound_to 7997
  154.9073  140.0389  157.1916 H   0  0  0  0  0  0  0  0  0  0  0  0  # atno 8010 bound_to 7997
  140.1858  144.4136  150.6594 H   0  0  0  0  0  0  0  0  0  0  0  0  # atno 10167 bound_to 10162
  157.6013  131.1050  150.7792 H   0  0  0  0  0  0  0  0  0  0  0  0  # atno 10718 bound_to 10713
  153.6229  135.3410  155.3016 H   0  0  0  0  0  0  0  0  0  0  0  0  # atno 10763 bound_to 10752
  154.8596  135.4277  154.2188 H   0  0  0  0  0  0  0  0  0  0  0  0  # atno 10764 bound_to 10752
  153.3066  135.7028  153.7227 H   0  0  0  0  0  0  0  0  0  0  0  0  # atno 10765 bound_to 10752
  141.1614  133.7521  156.9330 H   0  0  0  0  0  0  0  0  0  0  0  0  # atno 11005 bound_to 11000
  146.3407  140.2324  142.8593 LP  0  0  0  0  0  0  0  0  0  0  0  0  # atno 17320 bound_to 7965
  144.9899  140.8537  143.5346 LP  0  0  0  0  0  0  0  0  0  0  0  0  # atno 17321 bound_to 7965
  140.6489  143.2220  151.6122 LP  0  0  0  0  0  0  0  0  0  0  0  0  # atno 17342 bound_to 10162
  139.5277  144.3010  152.1073 LP  0  0  0  0  0  0  0  0  0  0  0  0  # atno 17343 bound_to 10162
  156.8191  130.4978  149.5345 LP  0  0  0  0  0  0  0  0  0  0  0  0  # atno 17370 bound_to 10713
  156.1086  130.6023  151.0012 LP  0  0  0  0  0  0  0  0  0  0  0  0  # atno 17371 bound_to 10713
  140.1373  134.9316  157.2419 LP  0  0  0  0  0  0  0  0  0  0  0  0  # atno 17394 bound_to 11000
  140.2879  134.3274  155.7323 LP  0  0  0  0  0  0  0  0  0  0  0  0  # atno 17395 bound_to 11000

$$$$
