AV-unprocessed.smi:2223|AV-procd|sdf|8990|dock6
  -GOLD-   2272012203D 1   1.00000     0.00000
 Structure written by MMmdl.
 46 47  0  0  0  0  0  0  0  0  1 V2000
  143.8845  132.5998  149.5462 C   0  0  0  0  0  0  0  0  0  0  0  0
  144.8455  132.2563  150.6651 C   0  0  0  0  0  0  0  0  0  0  0  0
  144.9383  130.9390  151.1529 C   0  0  0  0  0  0  0  0  0  0  0  0
  145.8530  130.6775  152.1918 C   0  0  0  0  0  0  0  0  0  0  0  0
  146.0052  129.2834  152.7630 C   0  0  0  0  0  0  0  0  0  0  0  0
  146.6431  131.6285  152.7341 N   0  0  0  0  0  0  0  0  0  0  0  0
  146.5645  132.9007  152.2706 C   0  0  0  0  0  0  0  0  0  0  0  0
  147.3508  133.9719  152.7729 N   0  0  0  0  0  0  0  0  0  0  0  0
  147.7296  134.1992  154.0432 C   0  0  0  0  0  0  0  0  0  0  0  0
  147.4504  133.4880  155.0088 O   0  0  0  0  0  0  0  0  0  0  0  0
  148.4704  135.3129  154.1386 N   0  0  0  0  0  0  0  0  0  0  0  0
  149.0486  135.8236  155.3789 C   0  0  1  0  0  0  0  0  0  0  0  0
  150.1419  134.9086  155.9384 C   0  0  0  0  0  0  0  0  0  0  0  0
  151.2648  135.8669  156.2942 C   0  0  0  0  0  0  0  0  0  0  0  0
  152.2691  135.4864  156.8944 O   0  0  0  0  0  0  0  0  0  0  0  0
  151.0090  137.1206  155.8732 N   0  0  0  0  0  0  0  0  0  0  0  0
  151.8950  138.3066  156.0147 C   0  0  0  0  0  0  0  0  0  0  0  0
  153.2426  138.0483  155.3039 C   0  0  0  0  0  0  0  0  0  0  0  0
  152.2003  138.6271  157.4975 C   0  0  0  0  0  0  0  0  0  0  0  0
  151.2095  139.5470  155.3992 C   0  0  0  0  0  0  0  0  0  0  0  0
  149.7351  137.1797  155.1556 C   0  0  0  0  0  0  0  0  0  0  0  0
  145.6701  133.2485  151.2334 C   0  0  0  0  0  0  0  0  0  0  0  0
  143.0347  131.9165  149.5394 H   0  0  0  0  0  0  0  0  0  0  0  0
  144.3898  132.5308  148.5829 H   0  0  0  0  0  0  0  0  0  0  0  0
  143.5018  133.6142  149.6625 H   0  0  0  0  0  0  0  0  0  0  0  0
  144.3257  130.1503  150.7405 H   0  0  0  0  0  0  0  0  0  0  0  0
  145.2036  128.6280  152.4220 H   0  0  0  0  0  0  0  0  0  0  0  0
  145.9795  129.3114  153.8528 H   0  0  0  0  0  0  0  0  0  0  0  0
  146.9566  128.8514  152.4522 H   0  0  0  0  0  0  0  0  0  0  0  0
  147.6673  134.6375  152.0837 H   0  0  0  0  0  0  0  0  0  0  0  0
  148.6535  135.8400  153.2975 H   0  0  0  0  0  0  0  0  0  0  0  0
  148.2644  135.9454  156.1292 H   0  0  0  0  0  0  0  0  0  0  0  0
  149.8017  134.3537  156.8134 H   0  0  0  0  0  0  0  0  0  0  0  0
  150.5062  134.1961  155.1969 H   0  0  0  0  0  0  0  0  0  0  0  0
  153.9326  138.8793  155.4545 H   0  0  0  0  0  0  0  0  0  0  0  0
  153.1301  137.9267  154.2269 H   0  0  0  0  0  0  0  0  0  0  0  0
  153.7260  137.1496  155.6887 H   0  0  0  0  0  0  0  0  0  0  0  0
  152.7321  137.8119  157.9892 H   0  0  0  0  0  0  0  0  0  0  0  0
  151.2935  138.8344  158.0667 H   0  0  0  0  0  0  0  0  0  0  0  0
  152.8345  139.5102  157.5842 H   0  0  0  0  0  0  0  0  0  0  0  0
  151.8139  140.4433  155.5422 H   0  0  0  0  0  0  0  0  0  0  0  0
  150.2388  139.7311  155.8611 H   0  0  0  0  0  0  0  0  0  0  0  0
  151.0493  139.4442  154.3263 H   0  0  0  0  0  0  0  0  0  0  0  0
  149.9349  137.3578  154.0974 H   0  0  0  0  0  0  0  0  0  0  0  0
  149.0960  137.9838  155.5210 H   0  0  0  0  0  0  0  0  0  0  0  0
  145.6175  134.2658  150.8727 H   0  0  0  0  0  0  0  0  0  0  0  0
  1  2  1  0  0  0  0
  1 23  1  0  0  0  0
  1 24  1  0  0  0  0
  1 25  1  0  0  0  0
  2 22  1  0  0  0  0
  2  3  2  0  0  0  0
  3  4  1  0  0  0  0
  3 26  1  0  0  0  0
  4  5  1  0  0  0  0
  4  6  2  0  0  0  0
  5 27  1  0  0  0  0
  5 28  1  0  0  0  0
  5 29  1  0  0  0  0
  6  7  1  0  0  0  0
  7  8  1  0  0  0  0
  7 22  2  0  0  0  0
  8  9  1  0  0  0  0
  8 30  1  0  0  0  0
  9 10  2  0  0  0  0
  9 11  1  0  0  0  0
 11 12  1  0  0  0  0
 11 31  1  0  0  0  0
 12 21  1  0  0  0  0
 12 13  1  0  0  0  0
 12 32  1  0  0  0  0
 13 14  1  0  0  0  0
 13 33  1  0  0  0  0
 13 34  1  0  0  0  0
 14 15  2  0  0  0  0
 14 16  1  0  0  0  0
 16 17  1  0  0  0  0
 16 21  1  0  0  0  0
 17 18  1  0  0  0  0
 17 19  1  0  0  0  0
 17 20  1  0  0  0  0
 18 35  1  0  0  0  0
 18 36  1  0  0  0  0
 18 37  1  0  0  0  0
 19 38  1  0  0  0  0
 19 39  1  0  0  0  0
 19 40  1  0  0  0  0
 20 41  1  0  0  0  0
 20 42  1  0  0  0  0
 20 43  1  0  0  0  0
 21 44  1  0  0  0  0
 21 45  1  0  0  0  0
 22 46  1  0  0  0  0
M  END
> <s_m_source_file>
AV-unprocessed.smi

> <i_m_source_file_index>
2223

> <i_lp_mmshare_version>
43012

> <i_f3d_flags>
0

> <s_epik_input>
W0NIM11jMVtjSF1jKFtDSDNdKW5jKFtjSF0xKVtOSF1DKD1PKVtOSF1bQ0BASF0yW0NIMl1DKD1PKU4oW0NIMl0yKUMoW0NIM10pKFtDSDNdKVtDSDNd

> <s_epik_cmdline>
J2VwaWtfcHl0aG9uJywgJy1waCcsICc3LjAnLCAnLXRuJywgJzgnLCAnLW1hJywgJzIwMCcsICctbWV0YWxfYmluZGluZycsICctaW1hZScsICc8aW5maWxlLm1hZT4nLCAnLW9tYWUnLCAnPG91dGZpbGUubWFlPic=

> <r_lp_tautomer_probability>
1

> <r_epik_Ionization_Penalty>
0.000228403

> <r_epik_Ionization_Penalty_Charging>
0

> <r_epik_Ionization_Penalty_Neutral>
0.000228403

> <r_epik_State_Penalty>
-0

> <r_epik_Charging_Adjusted_Penalty>
0

> <i_epik_Tot_Q>
0

> <i_epik_Tot_abs_Q>
0

> <r_epik_Metal_State_Penalty>
-0

> <b_epik_Metal_Only>
0

> <s_lp_Force_Field>
OPLS_2005

> <r_lp_Energy>
29.0753

> <b_lp_Chiralities_Consistent>
1

> <s_lp_Variant>
AV-unprocessed.smi:2223-2

> <Gold.Version>
5.8.1

> <Gold.Id.Protein>
6NUR|6NUR_protein|mol2

> <Gold.PLP.Fitness>
43.7815

> <Gold.PLP.PLP>
-35.9897

> <Gold.PLP.part.hbond>
-2.8371

> <Gold.PLP.part.metal>
0.0000

> <Gold.PLP.part.buried>
-4.8500

> <Gold.PLP.part.nonpolar>
-28.4715

> <Gold.PLP.part.repulsive>
0.1526

> <Gold.PLP.ligand.clash>
0.0000

> <Gold.PLP.ligand.torsion>
0.3299

> <Gold.PLP.Chemscore.Hbond>
2.8073

> <Gold.PLP.Chemscore.CHOScore>
0.0000

> <Gold.PLP.Chemscore.Metal>
0.0000

> <Gold.Chemscore.Hbonds>
donor molecule, donor type, donor heavy atom, donor atom, acceptor molecule, acceptor atom, score
      L1  H     8    30       P1  7948  0.85
      L1  H    11    31       P1  7948  0.93
      P1  H 10752 10765       L1    15  0.75

> <Gold.PLP.Chemscore.Internal.Correction>
0.0299

> <Gold.Rescore>
     Score         DG    S(hbond)    S(metal)    S(lipo)     H(rot)  DE(clash)    DE(int)     intcor
     19.37     -20.73       2.36        0.00      89.25       1.21       0.06       1.30       ----

> <Gold.Chemscore.Fitness>
19.3727

> <Gold.Chemscore.DG>
-20.7285

> <Gold.Chemscore.ZeroCoef>
-5.4800

> <Gold.Chemscore.Hbond>
2.3630

> <Gold.Chemscore.Metal>
0.0000

> <Gold.Chemscore.Lipo>
89.2506

> <Gold.Chemscore.Internal_Hbond>
0.0000

> <Gold.Chemscore.DEClash>
0.0584

> <Gold.Chemscore.DEInternal>
1.2974

> <Gold.Chemscore.Rot>
1.2055

> <Gold.Chemscore.Internal.Correction>
   9.000000E+99

> <Gold.Chemscore.Hbonds>
donor molecule, donor type, donor heavy atom, donor atom, acceptor molecule, acceptor atom, score
      L1  H     8    30       P1  7948  0.48
      L1  H    11    31       P1  7948  0.88
      P1  H 10752 10765       L1    15  0.09

> <Gold.Chemscore.Hbond.Weighted>
-7.8923

> <Gold.Chemscore.Metal.Weighted>
-0.0000

> <Gold.Chemscore.Lipo.Weighted>
-10.4423

> <Gold.Chemscore.Internal_Hbond.Weighted>
0.0000

> <Gold.Chemscore.DEClash.Weighted>
0.0584

> <Gold.Chemscore.DEInternal.Weighted>
1.2974

> <Gold.Chemscore.Rot.Weighted>
3.0861

> <Gold.Chemscore.Internal.Correction.Weighted>
   9.000000E+99

> <Gold.Protein.RotatedTorsions>
[ 6907 6896 6895 6894 ] final  107.74 input  -60.11 | X-H torsion
[ 7974 7965 7964 7962 ] final  118.29 input  175.53 | X-H torsion
[ 8008 7997 7996 7995 ] final  -33.44 input   59.86 | X-H torsion
[ 10167 10162 10161 10158 ] final  -86.17 input  -65.29 | X-H torsion
[ 10718 10713 10712 10709 ] final  112.83 input   66.30 | X-H torsion
[ 10763 10752 10751 10750 ] final -129.23 input  -60.55 | X-H torsion
[ 11005 11000 10999 10996 ] final   25.80 input  -57.11 | X-H torsion

> <Gold.Protein.ActiveResidues>
 VAL166  LYS551  ARG553  GLY616  TRP617  ASP618  TYR619  PRO620  LYS621  CYS622 
 ASP623  PHE694  ASN695  SER759  ASP760  ASP761  ALA762  ILE779  LEU786  VAL792 
 PHE793  MET794  SER795  GLU796  ALA797  LYS798  CYS799  TRP800  GLU811  SER814 

> <Gold.Protein.RotatedAtoms>
  152.5141  133.9190  159.7524 H   0  0  0  0  0  0  0  0  0  0  0  0  # atno 6907 bound_to 6896
  150.9566  133.6482  159.2769 H   0  0  0  0  0  0  0  0  0  0  0  0  # atno 6908 bound_to 6896
  151.3742  135.0933  159.9528 H   0  0  0  0  0  0  0  0  0  0  0  0  # atno 6909 bound_to 6896
  145.1570  139.3177  143.4537 H   0  0  0  0  0  0  0  0  0  0  0  0  # atno 7974 bound_to 7965
  154.4149  140.1710  156.1889 H   0  0  0  0  0  0  0  0  0  0  0  0  # atno 8008 bound_to 7997
  155.9620  140.3392  155.6475 H   0  0  0  0  0  0  0  0  0  0  0  0  # atno 8009 bound_to 7997
  155.6736  140.0714  157.2501 H   0  0  0  0  0  0  0  0  0  0  0  0  # atno 8010 bound_to 7997
  140.3967  143.2681  151.9195 H   0  0  0  0  0  0  0  0  0  0  0  0  # atno 10167 bound_to 10162
  157.6372  131.0974  150.6952 H   0  0  0  0  0  0  0  0  0  0  0  0  # atno 10718 bound_to 10713
  154.8757  135.3902  154.3886 H   0  0  0  0  0  0  0  0  0  0  0  0  # atno 10763 bound_to 10752
  153.4625  135.7029  153.6047 H   0  0  0  0  0  0  0  0  0  0  0  0  # atno 10764 bound_to 10752
  153.4540  135.3827  155.2268 H   0  0  0  0  0  0  0  0  0  0  0  0  # atno 10765 bound_to 10752
  140.3439  134.2303  155.7687 H   0  0  0  0  0  0  0  0  0  0  0  0  # atno 11005 bound_to 11000
  146.3487  140.1665  142.8590 LP  0  0  0  0  0  0  0  0  0  0  0  0  # atno 17320 bound_to 7965
  145.0371  140.8916  143.5075 LP  0  0  0  0  0  0  0  0  0  0  0  0  # atno 17321 bound_to 7965
  139.4786  144.5674  151.8143 LP  0  0  0  0  0  0  0  0  0  0  0  0  # atno 17342 bound_to 10162
  140.4783  144.1487  150.5928 LP  0  0  0  0  0  0  0  0  0  0  0  0  # atno 17343 bound_to 10162
  156.7281  130.4701  149.5506 LP  0  0  0  0  0  0  0  0  0  0  0  0  # atno 17370 bound_to 10713
  156.1620  130.6380  151.0731 LP  0  0  0  0  0  0  0  0  0  0  0  0  # atno 17371 bound_to 10713
  141.2031  133.7921  157.0357 LP  0  0  0  0  0  0  0  0  0  0  0  0  # atno 17394 bound_to 11000
  140.0758  134.9676  157.1544 LP  0  0  0  0  0  0  0  0  0  0  0  0  # atno 17395 bound_to 11000

$$$$
