#       Name:                AV-unprocessed.smi:1787
#       Creating user name   scv26
#       Creation time:       Fri Mar 27 08:44:58 2020


#       File generated by GOLD software.
#

@<TRIPOS>MOLECULE
AV-unprocessed.smi:1787
    50    52     1
SMALL
NO_CHARGES


@<TRIPOS>ATOM
      1 ****        -0.3635   2.7010  -0.4780 O.2            1 S1                 0.0000
      2 ****        -0.7720   1.6022  -0.8528 C.2            1 S1                 0.0000
      3 ****         0.0285   0.5539  -1.0900 N.am           1 S1                 0.0000
      4 ****         1.4835   0.5375  -0.9414 C.3            1 S1                 0.0000
      5 ****         1.9550  -0.2607   0.3198 C.3            1 S1                 0.0000
      6 ****         1.3512  -1.6293   0.3238 N.3            1 S1                 0.0000
      7 ****         1.5593  -2.4244   1.5430 C.3            1 S1                 0.0000
      8 ****         0.8404  -3.7836   1.4884 C.3            1 S1                 0.0000
      9 ****         1.2653  -4.5088   0.3426 O.3            1 S1                 0.0000
     10 ****         1.0043  -3.8044  -0.8634 C.3            1 S1                 0.0000
     11 ****         1.7278  -2.4481  -0.8369 C.3            1 S1                 0.0000
     12 ****         1.5981   0.5765   1.5825 C.3            1 S1                 0.0000
     13 ****         2.5018   1.8129   1.6399 C.3            1 S1                 0.0000
     14 ****         4.0980   1.3426   0.9326 S.3            1 S1                 0.0000
     15 ****         3.5052  -0.2651   0.3354 C.3            1 S1                 0.0000
     16 ****        -2.0616   1.2801  -1.0509 N.am           1 S1                 0.0000
     17 ****        -3.2075   2.1098  -0.9204 C.ar           1 S1                 0.0000
     18 ****        -4.4574   1.4864  -0.7266 C.ar           1 S1                 0.0000
     19 ****        -5.6120   2.2839  -0.6140 C.ar           1 S1                 0.0000
     20 ****        -5.4715   3.6820  -0.7090 C.ar           1 S1                 0.0000
     21 ****        -4.2857   4.2949  -0.9092 N.ar           1 S1                 0.0000
     22 ****        -3.1818   3.5237  -1.0148 C.ar           1 S1                 0.0000
     23 ****        -0.4012  -0.3122  -1.3800 H              1 S1                 0.0000
     24 ****         1.9007   0.1108  -1.8523 H              1 S1                 0.0000
     25 ****         1.8721   1.5556  -0.9453 H              1 S1                 0.0000
     26 ****         2.6213  -2.5973   1.7131 H              1 S1                 0.0000
     27 ****         1.1723  -1.9072   2.4176 H              1 S1                 0.0000
     28 ****         1.0664  -4.3664   2.3814 H              1 S1                 0.0000
     29 ****        -0.2420  -3.6473   1.4613 H              1 S1                 0.0000
     30 ****         1.3520  -4.4018  -1.7064 H              1 S1                 0.0000
     31 ****        -0.0706  -3.6666  -0.9908 H              1 S1                 0.0000
     32 ****         1.4905  -1.9403  -1.7690 H              1 S1                 0.0000
     33 ****         2.8045  -2.6214  -0.8378 H              1 S1                 0.0000
     34 ****         0.5429   0.8432   1.6335 H              1 S1                 0.0000
     35 ****         1.8166   0.0257   2.4945 H              1 S1                 0.0000
     36 ****         2.0826   2.6294   1.0522 H              1 S1                 0.0000
     37 ****         2.6246   2.1781   2.6597 H              1 S1                 0.0000
     38 ****         3.8951  -1.0103   1.0266 H              1 S1                 0.0000
     39 ****         3.9341  -0.4854  -0.6427 H              1 S1                 0.0000
     40 ****        -2.2496   0.3123  -1.2684 H              1 S1                 0.0000
     41 ****        -4.5330   0.4107  -0.6594 H              1 S1                 0.0000
     42 ****        -6.5819   1.8349  -0.4593 H              1 S1                 0.0000
     43 ****        -6.3353   4.3250  -0.6268 H              1 S1                 0.0000
     44 ****        -2.2688   4.0675  -1.2013 H              1 S1                 0.0000
     45 ****         0.6151   2.8482  -0.3344 LP             1 S1                 0.0000
     46 ****        -1.0102   3.4466  -0.3171 LP             1 S1                 0.0000
     47 ****         0.3773  -1.4069   0.2792 LP             1 S1                 0.0000
     48 ****         0.7808  -5.3832   0.3165 LP             1 S1                 0.0000
     49 ****         2.2490  -4.6747   0.4126 LP             1 S1                 0.0000
     50 ****        -4.2261   5.2908  -0.9774 LP             1 S1                 0.0000
@<TRIPOS>BOND
    1    1    2 2     
    2    2    3 am    
    3    2   16 am    
    4    3    4 1     
    5    3   23 1     
    6    4    5 1     
    7    4   24 1     
    8    4   25 1     
    9    5   15 1     
   10    5    6 1     
   11    5   12 1     
   12    6   11 1     
   13    6    7 1     
   14    7    8 1     
   15    7   26 1     
   16    7   27 1     
   17    8    9 1     
   18    8   28 1     
   19    8   29 1     
   20    9   10 1     
   21   10   11 1     
   22   10   30 1     
   23   10   31 1     
   24   11   32 1     
   25   11   33 1     
   26   12   13 1     
   27   12   34 1     
   28   12   35 1     
   29   13   14 1     
   30   13   36 1     
   31   13   37 1     
   32   14   15 1     
   33   15   38 1     
   34   15   39 1     
   35   16   17 1     
   36   16   40 1     
   37   17   22 ar    
   38   17   18 ar    
   39   18   19 ar    
   40   18   41 1     
   41   19   20 ar    
   42   19   42 1     
   43   20   21 ar    
   44   20   43 1     
   45   21   22 ar    
   46   22   44 1     
   47    1   45 1     
   48    1   46 1     
   49    6   47 1     
   50    9   48 1     
   51    9   49 1     
   52   21   50 1     
@<TRIPOS>SUBSTRUCTURE
      1 S1             1
@<TRIPOS>SET
LONE_PAIRS      STATIC     ATOMS    <user>   **** ""
6 45 46 47 48 49 50
DONOR_HYDROGENS      STATIC     ATOMS    <user>   **** ""
2 23 40
ATOM$BLUE        STATIC     ATOMS    COLORGROUP SYSTEM
6 45 46 47 48 49 50
ATOM$RED        STATIC     ATOMS    COLORGROUP SYSTEM
2 23 40
