AV-unprocessed.smi:261|AV-procd|sdf|1983|dock5
  -GOLD-   2262021163D 1   1.00000     0.00000
 Structure written by MMmdl.
 51 54  0  0  0  0  0  0  0  0  1 V2000
  147.3229  131.6975  153.4826 C   0  0  0  0  0  0  0  0  0  0  0  0
  148.3388  132.6728  153.3171 O   0  0  0  0  0  0  0  0  0  0  0  0
  148.7569  133.2642  154.5381 C   0  0  1  0  0  0  0  0  0  0  0  0
  149.6092  132.2932  155.3454 C   0  0  0  0  0  0  0  0  0  0  0  0
  150.3917  133.2194  156.2867 C   0  0  1  0  0  0  0  0  0  0  0  0
  151.7137  132.5890  156.7471 C   0  0  0  0  0  0  0  0  0  0  0  0
  152.1793  131.5710  156.0201 N   0  0  0  0  0  0  0  0  0  0  0  0
  152.3150  133.0188  157.7303 O   0  0  0  0  0  0  0  0  0  0  0  0
  150.6071  134.4374  155.5004 N   0  0  0  0  0  0  0  0  0  0  0  0
  150.6587  135.5804  156.2194 C   0  0  0  0  0  0  0  0  0  0  0  0
  150.1856  135.5384  157.4885 N   0  0  0  0  0  0  0  0  0  0  0  0
  150.1995  136.6419  158.2425 C   0  0  0  0  0  0  0  0  0  0  0  0
  150.6302  137.8654  157.9253 N   0  0  0  0  0  0  0  0  0  0  0  0
  151.1041  137.9087  156.6470 C   0  0  0  0  0  0  0  0  0  0  0  0
  151.1582  136.8206  155.7320 C   0  0  0  0  0  0  0  0  0  0  0  0
  151.7022  137.2407  154.5240 N   0  0  0  0  0  0  0  0  0  0  0  0
  151.9543  138.5071  154.7135 C   0  0  0  0  0  0  0  0  0  0  0  0
  151.6263  138.9903  155.9601 N   0  0  0  0  0  0  0  0  0  0  0  0
  151.7934  140.3544  156.4311 C   0  0  0  0  0  0  0  0  0  0  0  0
  150.5953  140.8403  157.2746 C   0  0  2  0  0  0  0  0  0  0  0  0
  149.5456  141.1808  156.3895 O   0  0  0  0  0  0  0  0  0  0  0  0
  150.9192  142.0860  158.1242 C   0  0  2  0  0  0  0  0  0  0  0  0
  151.3462  143.3182  157.3228 C   0  0  0  0  0  0  0  0  0  0  0  0
  152.1697  144.1247  158.3134 C   0  0  0  0  0  0  0  0  0  0  0  0
  152.5290  143.1110  159.4021 C   0  0  0  0  0  0  0  0  0  0  0  0
  152.0859  141.8573  158.9012 O   0  0  0  0  0  0  0  0  0  0  0  0
  149.7080  134.4501  154.3501 C   0  0  0  0  0  0  0  0  0  0  0  0
  147.8964  133.5616  155.1408 H   0  0  0  0  0  0  0  0  0  0  0  0
  149.7732  133.4398  157.1596 H   0  0  0  0  0  0  0  0  0  0  0  0
  147.0716  131.2665  152.5137 H   0  0  0  0  0  0  0  0  0  0  0  0
  146.4140  132.1319  153.9001 H   0  0  0  0  0  0  0  0  0  0  0  0
  147.6555  130.8883  154.1338 H   0  0  0  0  0  0  0  0  0  0  0  0
  149.0072  131.5588  155.8817 H   0  0  0  0  0  0  0  0  0  0  0  0
  150.2843  131.7522  154.6793 H   0  0  0  0  0  0  0  0  0  0  0  0
  153.0445  131.1197  156.2788 H   0  0  0  0  0  0  0  0  0  0  0  0
  151.6618  131.2561  155.2124 H   0  0  0  0  0  0  0  0  0  0  0  0
  149.8081  136.5288  159.2427 H   0  0  0  0  0  0  0  0  0  0  0  0
  152.3894  139.1288  153.9443 H   0  0  0  0  0  0  0  0  0  0  0  0
  152.7141  140.3901  157.0135 H   0  0  0  0  0  0  0  0  0  0  0  0
  151.9450  141.0097  155.5722 H   0  0  0  0  0  0  0  0  0  0  0  0
  150.2599  140.0304  157.9240 H   0  0  0  0  0  0  0  0  0  0  0  0
  149.5644  142.1148  156.2470 H   0  0  0  0  0  0  0  0  0  0  0  0
  150.0831  142.3449  158.7775 H   0  0  0  0  0  0  0  0  0  0  0  0
  151.9777  143.0205  156.4844 H   0  0  0  0  0  0  0  0  0  0  0  0
  150.4993  143.8786  156.9251 H   0  0  0  0  0  0  0  0  0  0  0  0
  153.0562  144.5449  157.8369 H   0  0  0  0  0  0  0  0  0  0  0  0
  151.5902  144.9473  158.7340 H   0  0  0  0  0  0  0  0  0  0  0  0
  153.5972  143.0894  159.6183 H   0  0  0  0  0  0  0  0  0  0  0  0
  151.9981  143.3370  160.3280 H   0  0  0  0  0  0  0  0  0  0  0  0
  150.3192  134.3071  153.4583 H   0  0  0  0  0  0  0  0  0  0  0  0
  149.1649  135.3881  154.2231 H   0  0  0  0  0  0  0  0  0  0  0  0
  1  2  1  0  0  0  0
  1 30  1  0  0  0  0
  1 31  1  0  0  0  0
  1 32  1  0  0  0  0
  2  3  1  0  0  0  0
  3 28  1  0  0  0  0
  3 27  1  0  0  0  0
  3  4  1  0  0  0  0
  4  5  1  0  0  0  0
  4 33  1  0  0  0  0
  4 34  1  0  0  0  0
  5 29  1  0  0  0  0
  5  6  1  0  0  0  0
  5  9  1  0  0  0  0
  6  7  1  0  0  0  0
  6  8  2  0  0  0  0
  7 35  1  0  0  0  0
  7 36  1  0  0  0  0
  9 10  1  0  0  0  0
  9 27  1  0  0  0  0
 10 15  1  0  0  0  0
 10 11  2  0  0  0  0
 11 12  1  0  0  0  0
 12 13  2  0  0  0  0
 12 37  1  0  0  0  0
 13 14  1  0  0  0  0
 14 18  1  0  0  0  0
 14 15  2  0  0  0  0
 15 16  1  0  0  0  0
 16 17  2  0  0  0  0
 17 18  1  0  0  0  0
 17 38  1  0  0  0  0
 18 19  1  0  0  0  0
 19 20  1  0  0  0  0
 19 39  1  0  0  0  0
 19 40  1  0  0  0  0
 20 21  1  0  0  0  0
 20 22  1  0  0  0  0
 20 41  1  0  0  0  0
 21 42  1  0  0  0  0
 22 26  1  0  0  0  0
 22 23  1  0  0  0  0
 22 43  1  0  0  0  0
 23 24  1  0  0  0  0
 23 44  1  0  0  0  0
 23 45  1  0  0  0  0
 24 25  1  0  0  0  0
 24 46  1  0  0  0  0
 24 47  1  0  0  0  0
 25 26  1  0  0  0  0
 25 48  1  0  0  0  0
 25 49  1  0  0  0  0
 27 50  1  0  0  0  0
 27 51  1  0  0  0  0
M  END
> <s_m_source_file>
AV-unprocessed.smi

> <i_m_source_file_index>
261

> <i_lp_mmshare_version>
43012

> <i_f3d_flags>
0

> <s_epik_input>
W0NIM11PW0NASF0xW0NIMl1bQ0BASF0oQyg9TylbTkgyXSlOKFtDSDJdMSljKG5bY0hdbjIpYyhjMjMpbltjSF1uM1tDSDJdW0NASF0oW09IXSlbQ0BASF00W0NIMl1bQ0gyXVtDSDJdTzQ=

> <s_epik_cmdline>
J2VwaWtfcHl0aG9uJywgJy1waCcsICc3LjAnLCAnLXRuJywgJzgnLCAnLW1hJywgJzIwMCcsICctbWV0YWxfYmluZGluZycsICctaW1hZScsICc8aW5maWxlLm1hZT4nLCAnLW9tYWUnLCAnPG91dGZpbGUubWFlPic=

> <r_lp_tautomer_probability>
1

> <r_epik_Ionization_Penalty>
0.000713824

> <r_epik_Ionization_Penalty_Charging>
0

> <r_epik_Ionization_Penalty_Neutral>
0.000713824

> <r_epik_State_Penalty>
0.000402132

> <r_epik_Charging_Adjusted_Penalty>
0.000402132

> <i_epik_Tot_Q>
0

> <i_epik_Tot_abs_Q>
0

> <r_epik_Metal_State_Penalty>
-0

> <b_epik_Metal_Only>
0

> <s_lp_Force_Field>
OPLS_2005

> <r_lp_Energy>
45.6621

> <b_lp_Chiralities_Consistent>
1

> <s_lp_Variant>
AV-unprocessed.smi:261-1

> <Gold.Version>
5.8.1

> <Gold.Id.Protein>
6NUR|6NUR_protein|mol2

> <Gold.PLP.Fitness>
43.6972

> <Gold.PLP.PLP>
-41.0052

> <Gold.PLP.part.hbond>
-3.0000

> <Gold.PLP.part.metal>
0.0000

> <Gold.PLP.part.buried>
-5.7936

> <Gold.PLP.part.nonpolar>
-33.5948

> <Gold.PLP.part.repulsive>
0.4031

> <Gold.PLP.ligand.clash>
0.0000

> <Gold.PLP.ligand.torsion>
1.2945

> <Gold.PLP.Chemscore.Hbond>
1.6976

> <Gold.PLP.Chemscore.CHOScore>
0.0000

> <Gold.PLP.Chemscore.Metal>
0.0000

> <Gold.Chemscore.Hbonds>
donor molecule, donor type, donor heavy atom, donor atom, acceptor molecule, acceptor atom, score
      P1  H  6896  6908       L1     8  0.72
      P1  H  6896  6909       L1    11  0.07
      P1  H 10752 10765       L1    16  0.68

> <Gold.PLP.Chemscore.Internal.Correction>
0.1883

> <Gold.Rescore>
     Score         DG    S(hbond)    S(metal)    S(lipo)     H(rot)  DE(clash)    DE(int)     intcor
      9.55     -11.03       1.40        0.00      85.70       3.57       0.14       1.34       ----

> <Gold.Chemscore.Fitness>
9.5513

> <Gold.Chemscore.DG>
-11.0275

> <Gold.Chemscore.ZeroCoef>
-5.4800

> <Gold.Chemscore.Hbond>
1.3982

> <Gold.Chemscore.Metal>
0.0000

> <Gold.Chemscore.Lipo>
85.7003

> <Gold.Chemscore.Internal_Hbond>
0.0000

> <Gold.Chemscore.DEClash>
0.1367

> <Gold.Chemscore.DEInternal>
1.3395

> <Gold.Chemscore.Rot>
3.5740

> <Gold.Chemscore.Internal.Correction>
   9.000000E+99

> <Gold.Chemscore.Hbonds>
donor molecule, donor type, donor heavy atom, donor atom, acceptor molecule, acceptor atom, score
      P1  H  6896  6908       L1     8  0.72
      P1  H 10752 10765       L1    16  0.33

> <Gold.Chemscore.Hbond.Weighted>
-4.6700

> <Gold.Chemscore.Metal.Weighted>
-0.0000

> <Gold.Chemscore.Lipo.Weighted>
-10.0269

> <Gold.Chemscore.Internal_Hbond.Weighted>
0.0000

> <Gold.Chemscore.DEClash.Weighted>
0.1367

> <Gold.Chemscore.DEInternal.Weighted>
1.3395

> <Gold.Chemscore.Rot.Weighted>
9.1495

> <Gold.Chemscore.Internal.Correction.Weighted>
   9.000000E+99

> <Gold.Protein.RotatedTorsions>
[ 6907 6896 6895 6894 ] final   33.25 input  -60.11 | X-H torsion
[ 7974 7965 7964 7962 ] final  -56.41 input  175.53 | X-H torsion
[ 8008 7997 7996 7995 ] final  164.12 input   59.86 | X-H torsion
[ 10167 10162 10161 10158 ] final   76.23 input  -65.29 | X-H torsion
[ 10718 10713 10712 10709 ] final   43.84 input   66.30 | X-H torsion
[ 10763 10752 10751 10750 ] final  142.04 input  -60.55 | X-H torsion
[ 11005 11000 10999 10996 ] final -172.19 input  -57.11 | X-H torsion

> <Gold.Protein.ActiveResidues>
 VAL166  LYS551  ARG553  GLY616  TRP617  ASP618  TYR619  PRO620  LYS621  CYS622 
 ASP623  PHE694  ASN695  SER759  ASP760  ASP761  ALA762  ILE779  LEU786  VAL792 
 PHE793  MET794  SER795  GLU796  ALA797  LYS798  CYS799  TRP800  GLU811  SER814 

> <Gold.Protein.RotatedAtoms>
  152.0859  134.9440  160.0572 H   0  0  0  0  0  0  0  0  0  0  0  0  # atno 6907 bound_to 6896
  152.0710  133.4102  159.4467 H   0  0  0  0  0  0  0  0  0  0  0  0  # atno 6908 bound_to 6896
  150.6836  134.3011  159.4750 H   0  0  0  0  0  0  0  0  0  0  0  0  # atno 6909 bound_to 6896
  145.8630  140.8271  142.9927 H   0  0  0  0  0  0  0  0  0  0  0  0  # atno 7974 bound_to 7965
  156.1904  140.1705  156.8102 H   0  0  0  0  0  0  0  0  0  0  0  0  # atno 8008 bound_to 7997
  154.5465  140.0726  156.8629 H   0  0  0  0  0  0  0  0  0  0  0  0  # atno 8009 bound_to 7997
  155.3112  140.3367  155.4246 H   0  0  0  0  0  0  0  0  0  0  0  0  # atno 8010 bound_to 7997
  139.9944  144.5733  150.7790 H   0  0  0  0  0  0  0  0  0  0  0  0  # atno 10167 bound_to 10162
  157.4203  130.7965  149.7509 H   0  0  0  0  0  0  0  0  0  0  0  0  # atno 10718 bound_to 10713
  153.9492  135.2972  155.3439 H   0  0  0  0  0  0  0  0  0  0  0  0  # atno 10763 bound_to 10752
  154.7435  135.5013  153.9167 H   0  0  0  0  0  0  0  0  0  0  0  0  # atno 10764 bound_to 10752
  153.1002  135.6732  153.9794 H   0  0  0  0  0  0  0  0  0  0  0  0  # atno 10765 bound_to 10752
  140.4998  134.5905  157.4984 H   0  0  0  0  0  0  0  0  0  0  0  0  # atno 11005 bound_to 11000
  144.6726  140.1125  143.7454 LP  0  0  0  0  0  0  0  0  0  0  0  0  # atno 17320 bound_to 7965
  145.9225  139.2555  143.1373 LP  0  0  0  0  0  0  0  0  0  0  0  0  # atno 17321 bound_to 7965
  140.7442  143.2858  151.3468 LP  0  0  0  0  0  0  0  0  0  0  0  0  # atno 17342 bound_to 10162
  139.6316  144.0709  152.2481 LP  0  0  0  0  0  0  0  0  0  0  0  0  # atno 17343 bound_to 10162
  155.9878  130.3964  150.3146 LP  0  0  0  0  0  0  0  0  0  0  0  0  # atno 17370 bound_to 10713
  157.1293  131.0267  151.2976 LP  0  0  0  0  0  0  0  0  0  0  0  0  # atno 17371 bound_to 10713
  139.9720  134.7277  156.0023 LP  0  0  0  0  0  0  0  0  0  0  0  0  # atno 17394 bound_to 11000
  141.1441  133.6559  156.3817 LP  0  0  0  0  0  0  0  0  0  0  0  0  # atno 17395 bound_to 11000

$$$$
