#       Name:                AV-unprocessed.smi:1762
#       Creating user name   scv26
#       Creation time:       Fri Mar 27 08:34:01 2020


#       File generated by GOLD software.
#

@<TRIPOS>MOLECULE
AV-unprocessed.smi:1762
    58    59     1
SMALL
NO_CHARGES


@<TRIPOS>ATOM
      1 ****        -1.5144   0.0967   4.7957 C.3            1 S1                 0.0000
      2 ****        -1.8381  -0.7550   3.5632 C.3            1 S1                 0.0000
      3 ****        -1.4728  -0.0367   2.2529 C.3            1 S1                 0.0000
      4 ****        -1.8555  -0.8570   1.0688 N.4            1 S1                 1.0000
      5 ****        -1.3788  -0.2708  -0.2314 C.3            1 S1                 0.0000
      6 ****         0.1640  -0.2404  -0.2900 C.2            1 S1                 0.0000
      7 ****         0.8183  -1.1893   0.1445 O.2            1 S1                 0.0000
      8 ****         0.7266   0.8523  -0.8283 N.am           1 S1                 0.0000
      9 ****         2.1603   1.0586  -0.9861 C.3            1 S1                 0.0000
     10 ****         2.4382   2.0713  -2.1056 C.3            1 S1                 0.0000
     11 ****         3.9217   2.3292  -2.2912 C.ar           1 S1                 0.0000
     12 ****         4.5246   3.4868  -1.7546 C.ar           1 S1                 0.0000
     13 ****         5.9069   3.6746  -1.9487 C.ar           1 S1                 0.0000
     14 ****         6.6294   2.7017  -2.6660 C.ar           1 S1                 0.0000
     15 ****         5.9343   1.5800  -3.1604 C.ar           1 S1                 0.0000
     16 ****         4.6091   1.3910  -2.9808 N.ar           1 S1                 0.0000
     17 ****        -1.9642  -0.9672  -1.5072 C.3            1 S1                 0.0000
     18 ****        -1.6364  -2.4719  -1.6079 C.3            1 S1                 0.0000
     19 ****        -1.5832  -0.2552  -2.8204 C.3            1 S1                 0.0000
     20 ****        -3.3141  -1.1511   1.1422 C.3            1 S1                 0.0000
     21 ****        -3.6927  -1.8152   2.4811 C.3            1 S1                 0.0000
     22 ****        -3.2369  -3.2821   2.5859 C.3            1 S1                 0.0000
     23 ****        -3.2345  -1.0271   3.5765 O.3            1 S1                 0.0000
     24 ****        -0.4510   0.3326   4.8425 H              1 S1                 0.0000
     25 ****        -1.7773  -0.4306   5.7131 H              1 S1                 0.0000
     26 ****        -2.0661   1.0373   4.7828 H              1 S1                 0.0000
     27 ****        -1.2758  -1.6856   3.6407 H              1 S1                 0.0000
     28 ****        -1.9750   0.9310   2.2005 H              1 S1                 0.0000
     29 ****        -0.4027   0.1681   2.2665 H              1 S1                 0.0000
     30 ****        -1.7305   0.7628  -0.2454 H              1 S1                 0.0000
     31 ****         0.1201   1.5875  -1.1624 H              1 S1                 0.0000
     32 ****         2.5713   1.4175  -0.0416 H              1 S1                 0.0000
     33 ****         2.6568   0.1139  -1.2153 H              1 S1                 0.0000
     34 ****         2.0225   1.7100  -3.0476 H              1 S1                 0.0000
     35 ****         1.9347   3.0147  -1.8902 H              1 S1                 0.0000
     36 ****         3.9444   4.2140  -1.2057 H              1 S1                 0.0000
     37 ****         6.4037   4.5483  -1.5534 H              1 S1                 0.0000
     38 ****         7.6907   2.8121  -2.8332 H              1 S1                 0.0000
     39 ****         6.4561   0.8138  -3.7145 H              1 S1                 0.0000
     40 ****        -3.0482  -0.8706  -1.4710 H              1 S1                 0.0000
     41 ****        -0.5730  -2.6425  -1.7768 H              1 S1                 0.0000
     42 ****        -2.1722  -2.9291  -2.4401 H              1 S1                 0.0000
     43 ****        -1.9174  -3.0149  -0.7060 H              1 S1                 0.0000
     44 ****        -0.5241  -0.3637  -3.0555 H              1 S1                 0.0000
     45 ****        -1.8094   0.8103  -2.7715 H              1 S1                 0.0000
     46 ****        -2.1420  -0.6677  -3.6610 H              1 S1                 0.0000
     47 ****        -3.8704  -0.2206   1.0187 H              1 S1                 0.0000
     48 ****        -3.6370  -1.8218   0.3488 H              1 S1                 0.0000
     49 ****        -4.7809  -1.8203   2.5510 H              1 S1                 0.0000
     50 ****        -3.7141  -3.8907   1.8174 H              1 S1                 0.0000
     51 ****        -3.5065  -3.7047   3.5540 H              1 S1                 0.0000
     52 ****        -2.1600  -3.3925   2.4601 H              1 S1                 0.0000
     53 ****        -1.3804  -1.7437   1.1621 H              1 S1                 0.0000
     54 ****         0.3505  -1.9815   0.5363 LP             1 S1                 0.0000
     55 ****         1.8173  -1.1673   0.1055 LP             1 S1                 0.0000
     56 ****         4.1501   0.5815  -3.3468 LP             1 S1                 0.0000
     57 ****        -3.7230  -0.1547   3.5597 LP             1 S1                 0.0000
     58 ****        -3.4500  -1.5135   4.4232 LP             1 S1                 0.0000
@<TRIPOS>BOND
    1    1    2 1     
    2    1   24 1     
    3    1   25 1     
    4    1   26 1     
    5    2   23 1     
    6    2    3 1     
    7    2   27 1     
    8    3    4 1     
    9    3   28 1     
   10    3   29 1     
   11    4    5 1     
   12    4   20 1     
   13    4   53 1     
   14    5    6 1     
   15    5   17 1     
   16    5   30 1     
   17    6    7 2     
   18    6    8 am    
   19    8    9 1     
   20    8   31 1     
   21    9   10 1     
   22    9   32 1     
   23    9   33 1     
   24   10   11 1     
   25   10   34 1     
   26   10   35 1     
   27   11   16 ar    
   28   11   12 ar    
   29   12   13 ar    
   30   12   36 1     
   31   13   14 ar    
   32   13   37 1     
   33   14   15 ar    
   34   14   38 1     
   35   15   16 ar    
   36   15   39 1     
   37   17   18 1     
   38   17   19 1     
   39   17   40 1     
   40   18   41 1     
   41   18   42 1     
   42   18   43 1     
   43   19   44 1     
   44   19   45 1     
   45   19   46 1     
   46   20   21 1     
   47   20   47 1     
   48   20   48 1     
   49   21   22 1     
   50   21   23 1     
   51   21   49 1     
   52   22   50 1     
   53   22   51 1     
   54   22   52 1     
   55    7   54 1     
   56    7   55 1     
   57   16   56 1     
   58   23   57 1     
   59   23   58 1     
@<TRIPOS>SUBSTRUCTURE
      1 S1             1
@<TRIPOS>SET
LONE_PAIRS      STATIC     ATOMS    <user>   **** ""
5 54 55 56 57 58
DONOR_HYDROGENS      STATIC     ATOMS    <user>   **** ""
2 53 31
ATOM$BLUE        STATIC     ATOMS    COLORGROUP SYSTEM
5 54 55 56 57 58
ATOM$RED        STATIC     ATOMS    COLORGROUP SYSTEM
2 53 31
