AV-unprocessed.smi:910|AV-procd|sdf|4129|dock9
  -GOLD-   22720 2 33D 1   1.00000     0.00000
 Structure written by MMmdl.
 47 48  0  0  0  0  0  0  0  0  2 V2000
  151.7131  145.3024  158.8291 C   0  0  0  0  0  0  0  0  0  0  0  0
  151.7394  143.9114  158.2785 C   0  0  0  0  0  0  0  0  0  0  0  0
  150.9868  143.3758  157.2610 N   0  3  0  0  0  0  0  0  0  0  0  0
  151.3181  142.0965  157.0810 C   0  0  0  0  0  0  0  0  0  0  0  0
  150.7712  141.1957  156.1328 N   0  0  0  0  0  0  0  0  0  0  0  0
  151.4041  140.1813  155.5206 C   0  0  0  0  0  0  0  0  0  0  0  0
  152.5814  139.8708  155.7059 O   0  0  0  0  0  0  0  0  0  0  0  0
  150.5947  139.5424  154.6641 N   0  0  0  0  0  0  0  0  0  0  0  0
  150.9936  138.4388  153.7963 C   0  0  0  0  0  0  0  0  0  0  0  0
  151.3808  137.1938  154.6077 C   0  0  0  0  0  0  0  0  0  0  0  0
  150.4443  136.1645  154.3260 O   0  0  0  0  0  0  0  0  0  0  0  0
  150.5654  135.0059  155.1435 C   0  0  1  0  0  0  0  0  0  0  0  0
  150.3302  135.3625  156.6262 C   0  0  0  0  0  0  0  0  0  0  0  0
  148.8909  135.8429  156.8738 C   0  0  0  0  0  0  0  0  0  0  0  0
  147.8668  134.8069  156.3860 C   0  0  0  0  0  0  0  0  0  0  0  0
  148.0924  134.4485  154.9082 C   0  0  0  0  0  0  0  0  0  0  0  0
  149.5344  133.9632  154.6572 C   0  0  1  0  0  0  0  0  0  0  0  0
  149.7603  133.5736  153.1875 C   0  0  0  0  0  0  0  0  0  0  0  0
  152.2909  141.7340  157.9576 O   0  0  0  0  0  0  0  0  0  0  0  0
  152.5413  142.8726  158.6975 C   0  0  0  0  0  0  0  0  0  0  0  0
  153.5825  142.7790  159.7612 C   0  0  0  0  0  0  0  0  0  0  0  0
  151.2745  145.3210  159.8269 H   0  0  0  0  0  0  0  0  0  0  0  0
  151.1248  145.9680  158.1969 H   0  0  0  0  0  0  0  0  0  0  0  0
  152.7182  145.7184  158.9006 H   0  0  0  0  0  0  0  0  0  0  0  0
  150.2928  143.9044  156.7466 H   0  0  0  0  0  0  0  0  0  0  0  0
  149.6414  139.8629  154.5735 H   0  0  0  0  0  0  0  0  0  0  0  0
  150.1894  138.2020  153.0980 H   0  0  0  0  0  0  0  0  0  0  0  0
  151.8423  138.7660  153.1952 H   0  0  0  0  0  0  0  0  0  0  0  0
  152.3906  136.8735  154.3473 H   0  0  0  0  0  0  0  0  0  0  0  0
  151.3795  137.4316  155.6712 H   0  0  0  0  0  0  0  0  0  0  0  0
  151.5622  134.5761  155.0293 H   0  0  0  0  0  0  0  0  0  0  0  0
  150.5224  134.4816  157.2399 H   0  0  0  0  0  0  0  0  0  0  0  0
  151.0387  136.1195  156.9611 H   0  0  0  0  0  0  0  0  0  0  0  0
  148.7428  136.0388  157.9361 H   0  0  0  0  0  0  0  0  0  0  0  0
  148.7267  136.7907  156.3599 H   0  0  0  0  0  0  0  0  0  0  0  0
  147.9418  133.9053  156.9955 H   0  0  0  0  0  0  0  0  0  0  0  0
  146.8556  135.1903  156.5252 H   0  0  0  0  0  0  0  0  0  0  0  0
  147.3824  133.6768  154.6094 H   0  0  0  0  0  0  0  0  0  0  0  0
  147.8796  135.3187  154.2859 H   0  0  0  0  0  0  0  0  0  0  0  0
  149.6813  133.0594  155.2502 H   0  0  0  0  0  0  0  0  0  0  0  0
  149.6079  134.4226  152.5203 H   0  0  0  0  0  0  0  0  0  0  0  0
  149.0724  132.7849  152.8820 H   0  0  0  0  0  0  0  0  0  0  0  0
  150.7744  133.2050  153.0307 H   0  0  0  0  0  0  0  0  0  0  0  0
  154.5168  143.2303  159.4270 H   0  0  0  0  0  0  0  0  0  0  0  0
  153.7834  141.7401  160.0236 H   0  0  0  0  0  0  0  0  0  0  0  0
  153.2611  143.2974  160.6647 H   0  0  0  0  0  0  0  0  0  0  0  0
  149.8037  141.3463  155.8877 H   0  0  0  0  0  0  0  0  0  0  0  0
  1 22  1  0  0  0  0
  1 23  1  0  0  0  0
  1 24  1  0  0  0  0
  1  2  1  0  0  0  0
  2  3  1  0  0  0  0
  2 20  2  0  0  0  0
  3 25  1  0  0  0  0
  3  4  2  0  0  0  0
  4 19  1  0  0  0  0
  4  5  1  0  0  0  0
  5  6  1  0  0  0  0
  5 47  1  0  0  0  0
  6  8  1  0  0  0  0
  6  7  2  0  0  0  0
  8  9  1  0  0  0  0
  8 26  1  0  0  0  0
  9 10  1  0  0  0  0
  9 27  1  0  0  0  0
  9 28  1  0  0  0  0
 10 11  1  0  0  0  0
 10 29  1  0  0  0  0
 10 30  1  0  0  0  0
 11 12  1  0  0  0  0
 12 17  1  0  0  0  0
 12 13  1  0  0  0  0
 12 31  1  0  0  0  0
 13 14  1  0  0  0  0
 13 32  1  0  0  0  0
 13 33  1  0  0  0  0
 14 15  1  0  0  0  0
 14 34  1  0  0  0  0
 14 35  1  0  0  0  0
 15 16  1  0  0  0  0
 15 36  1  0  0  0  0
 15 37  1  0  0  0  0
 16 17  1  0  0  0  0
 16 38  1  0  0  0  0
 16 39  1  0  0  0  0
 17 18  1  0  0  0  0
 17 40  1  0  0  0  0
 18 41  1  0  0  0  0
 18 42  1  0  0  0  0
 18 43  1  0  0  0  0
 19 20  1  0  0  0  0
 20 21  1  0  0  0  0
 21 44  1  0  0  0  0
 21 45  1  0  0  0  0
 21 46  1  0  0  0  0
M  CHG  1   3   1
M  END
> <s_m_source_file>
AV-unprocessed.smi

> <i_m_source_file_index>
910

> <i_lp_mmshare_version>
43012

> <i_f3d_flags>
0

> <s_epik_input>
W0NIM11jMW5jKG9jMVtDSDNdKVtOSF1DKD1PKVtOSF1bQ0gyXVtDSDJdT1tDQEBIXTJbQ0gyXVtDSDJdW0NIMl1bQ0gyXVtDQEhdMltDSDNd

> <s_epik_cmdline>
J2VwaWtfcHl0aG9uJywgJy1waCcsICc3LjAnLCAnLXRuJywgJzgnLCAnLW1hJywgJzIwMCcsICctbWV0YWxfYmluZGluZycsICctaW1hZScsICc8aW5maWxlLm1hZT4nLCAnLW9tYWUnLCAnPG91dGZpbGUubWFlPic=

> <r_epik_Ionization_Penalty>
7.32931

> <r_epik_Ionization_Penalty_Charging>
7.12214

> <r_epik_Ionization_Penalty_Neutral>
0.207166

> <r_epik_State_Penalty>
2.61278

> <r_epik_Charging_Adjusted_Penalty>
9.73492

> <i_epik_Tot_Q>
1

> <i_epik_Tot_abs_Q>
1

> <r_epik_Metal_State_Penalty>
2.64585

> <b_epik_Metal_Only>
0

> <s_lp_Force_Field>
OPLS_2005

> <r_lp_Energy>
17.2334

> <b_lp_Chiralities_Consistent>
1

> <s_lp_Variant>
AV-unprocessed.smi:910-14

> <Gold.Version>
5.8.1

> <Gold.Id.Protein>
6NUR|6NUR_protein|mol2

> <Gold.PLP.Fitness>
44.6722

> <Gold.PLP.PLP>
-36.8599

> <Gold.PLP.part.hbond>
-1.9878

> <Gold.PLP.part.metal>
0.0000

> <Gold.PLP.part.buried>
-6.2196

> <Gold.PLP.part.nonpolar>
-29.0017

> <Gold.PLP.part.repulsive>
0.5235

> <Gold.PLP.ligand.clash>
0.0000

> <Gold.PLP.ligand.torsion>
0.6142

> <Gold.PLP.Chemscore.Hbond>
3.0000

> <Gold.PLP.Chemscore.CHOScore>
0.0000

> <Gold.PLP.Chemscore.Metal>
0.0000

> <Gold.Chemscore.Hbonds>
donor molecule, donor type, donor heavy atom, donor atom, acceptor molecule, acceptor atom, score
      L1  H     3    25       P1  8028  2.00
      P1  H  7997  8008       L1     7  1.00

> <Gold.PLP.Chemscore.Internal.Correction>
0.0408

> <Gold.Rescore>
     Score         DG    S(hbond)    S(metal)    S(lipo)     H(rot)  DE(clash)    DE(int)     intcor
     15.86     -17.97       2.00        0.00      86.76       1.69       0.20       1.91       ----

> <Gold.Chemscore.Fitness>
15.8601

> <Gold.Chemscore.DG>
-17.9701

> <Gold.Chemscore.ZeroCoef>
-5.4800

> <Gold.Chemscore.Hbond>
1.9996

> <Gold.Chemscore.Metal>
0.0000

> <Gold.Chemscore.Lipo>
86.7556

> <Gold.Chemscore.Internal_Hbond>
0.0000

> <Gold.Chemscore.DEClash>
0.2018

> <Gold.Chemscore.DEInternal>
1.9082

> <Gold.Chemscore.Rot>
1.6949

> <Gold.Chemscore.Internal.Correction>
   9.000000E+99

> <Gold.Chemscore.Hbonds>
donor molecule, donor type, donor heavy atom, donor atom, acceptor molecule, acceptor atom, score
      L1  H     3    25       P1  8028  0.99
      P1  H  7997  8008       L1     7  1.00

> <Gold.Chemscore.Hbond.Weighted>
-6.6787

> <Gold.Chemscore.Metal.Weighted>
-0.0000

> <Gold.Chemscore.Lipo.Weighted>
-10.1504

> <Gold.Chemscore.Internal_Hbond.Weighted>
0.0000

> <Gold.Chemscore.DEClash.Weighted>
0.2018

> <Gold.Chemscore.DEInternal.Weighted>
1.9082

> <Gold.Chemscore.Rot.Weighted>
4.3390

> <Gold.Chemscore.Internal.Correction.Weighted>
   9.000000E+99

> <Gold.Protein.RotatedTorsions>
[ 6907 6896 6895 6894 ] final   51.46 input  -60.11 | X-H torsion
[ 7974 7965 7964 7962 ] final  -86.07 input  175.53 | X-H torsion
[ 8008 7997 7996 7995 ] final  -36.86 input   59.86 | X-H torsion
[ 10167 10162 10161 10158 ] final -119.94 input  -65.29 | X-H torsion
[ 10718 10713 10712 10709 ] final -130.54 input   66.30 | X-H torsion
[ 10763 10752 10751 10750 ] final   45.84 input  -60.55 | X-H torsion
[ 11005 11000 10999 10996 ] final -131.90 input  -57.11 | X-H torsion

> <Gold.Protein.ActiveResidues>
 VAL166  LYS551  ARG553  GLY616  TRP617  ASP618  TYR619  PRO620  LYS621  CYS622 
 ASP623  PHE694  ASN695  SER759  ASP760  ASP761  ALA762  ILE779  LEU786  VAL792 
 PHE793  MET794  SER795  GLU796  ALA797  LYS798  CYS799  TRP800  GLU811  SER814 

> <Gold.Protein.RotatedAtoms>
  152.3129  134.7475  160.0331 H   0  0  0  0  0  0  0  0  0  0  0  0  # atno 6907 bound_to 6896
  151.7950  133.3358  159.3518 H   0  0  0  0  0  0  0  0  0  0  0  0  # atno 6908 bound_to 6896
  150.7329  134.5738  159.5948 H   0  0  0  0  0  0  0  0  0  0  0  0  # atno 6909 bound_to 6896
  145.4848  140.9555  143.1844 H   0  0  0  0  0  0  0  0  0  0  0  0  # atno 7974 bound_to 7965
  154.4064  140.1619  156.2443 H   0  0  0  0  0  0  0  0  0  0  0  0  # atno 8008 bound_to 7997
  155.9174  140.3423  155.6123 H   0  0  0  0  0  0  0  0  0  0  0  0  # atno 8009 bound_to 7997
  155.7263  140.0774  157.2299 H   0  0  0  0  0  0  0  0  0  0  0  0  # atno 8010 bound_to 7997
  140.0412  143.5151  152.2129 H   0  0  0  0  0  0  0  0  0  0  0  0  # atno 10167 bound_to 10162
  156.2154  130.6945  151.0697 H   0  0  0  0  0  0  0  0  0  0  0  0  # atno 10718 bound_to 10713
  152.9819  135.6027  154.3502 H   0  0  0  0  0  0  0  0  0  0  0  0  # atno 10763 bound_to 10752
  154.3192  135.2770  155.2530 H   0  0  0  0  0  0  0  0  0  0  0  0  # atno 10764 bound_to 10752
  154.4704  135.5943  153.6373 H   0  0  0  0  0  0  0  0  0  0  0  0  # atno 10765 bound_to 10752
  140.9218  134.1435  157.4308 H   0  0  0  0  0  0  0  0  0  0  0  0  # atno 11005 bound_to 11000
  144.7868  139.6411  143.7131 LP  0  0  0  0  0  0  0  0  0  0  0  0  # atno 17320 bound_to 7965
  146.2319  139.5830  142.9549 LP  0  0  0  0  0  0  0  0  0  0  0  0  # atno 17321 bound_to 7965
  139.6012  144.7583  151.3166 LP  0  0  0  0  0  0  0  0  0  0  0  0  # atno 17342 bound_to 10162
  140.7259  143.7005  150.7849 LP  0  0  0  0  0  0  0  0  0  0  0  0  # atno 17343 bound_to 10162
  157.7060  131.0756  150.6663 LP  0  0  0  0  0  0  0  0  0  0  0  0  # atno 17370 bound_to 10713
  156.6724  130.4543  149.5653 LP  0  0  0  0  0  0  0  0  0  0  0  0  # atno 17371 bound_to 10713
  139.8777  134.9974  156.5844 LP  0  0  0  0  0  0  0  0  0  0  0  0  # atno 17394 bound_to 11000
  140.7978  133.8530  155.8701 LP  0  0  0  0  0  0  0  0  0  0  0  0  # atno 17395 bound_to 11000

$$$$
