AV-unprocessed.smi:1354|AV-procd|sdf|5534|dock7
  -GOLD-   22720 5123D 1   1.00000     0.00000
 Structure written by MMmdl.
 39 41  0  0  0  0  0  0  0  0  1 V2000
  153.8638  138.2634  155.4060 O   0  0  0  0  0  0  0  0  0  0  0  0
  152.7946  138.8551  154.6984 C   0  0  0  0  0  0  0  0  0  0  0  0
  151.5840  139.0953  155.6174 C   0  0  0  0  0  0  0  0  0  0  0  0
  151.8946  139.9760  156.7951 C   0  0  0  0  0  0  0  0  0  0  0  0
  152.8374  139.6411  157.6780 N   0  0  0  0  0  0  0  0  0  0  0  0
  152.7908  140.6790  158.5866 C   0  0  0  0  0  0  0  0  0  0  0  0
  153.5330  140.8975  159.7694 C   0  0  0  0  0  0  0  0  0  0  0  0
  153.3039  142.0468  160.5537 C   0  0  0  0  0  0  0  0  0  0  0  0
  152.3337  142.9930  160.1659 C   0  0  0  0  0  0  0  0  0  0  0  0
  151.5867  142.7963  158.9885 C   0  0  0  0  0  0  0  0  0  0  0  0
  151.8180  141.6464  158.2093 C   0  0  0  0  0  0  0  0  0  0  0  0
  151.2692  141.1607  157.0251 N   0  0  0  0  0  0  0  0  0  0  0  0
  150.2331  141.8190  156.2390 C   0  0  0  0  0  0  0  0  0  0  0  0
  149.0223  140.9089  155.9918 C   0  0  0  0  0  0  0  0  0  0  0  0
  147.8789  141.4912  156.6031 O   0  0  0  0  0  0  0  0  0  0  0  0
  146.9900  142.1874  155.8139 C   0  0  0  0  0  0  0  0  0  0  0  0
  147.0931  142.2822  154.4030 C   0  0  0  0  0  0  0  0  0  0  0  0
  146.1428  143.0151  153.6659 C   0  0  0  0  0  0  0  0  0  0  0  0
  145.0819  143.6614  154.3263 C   0  0  0  0  0  0  0  0  0  0  0  0
  144.9727  143.5751  155.7264 C   0  0  0  0  0  0  0  0  0  0  0  0
  145.9220  142.8427  156.4661 C   0  0  0  0  0  0  0  0  0  0  0  0
  145.7643  142.7453  158.1840 Cl  0  0  0  0  0  0  0  0  0  0  0  0
  154.3844  137.7601  154.7986 H   0  0  0  0  0  0  0  0  0  0  0  0
  153.1279  139.7828  154.2325 H   0  0  0  0  0  0  0  0  0  0  0  0
  152.5140  138.1772  153.8920 H   0  0  0  0  0  0  0  0  0  0  0  0
  150.7962  139.5840  155.0431 H   0  0  0  0  0  0  0  0  0  0  0  0
  151.1689  138.1404  155.9348 H   0  0  0  0  0  0  0  0  0  0  0  0
  154.2772  140.1773  160.0755 H   0  0  0  0  0  0  0  0  0  0  0  0
  153.8741  142.2024  161.4577 H   0  0  0  0  0  0  0  0  0  0  0  0
  152.1619  143.8696  160.7731 H   0  0  0  0  0  0  0  0  0  0  0  0
  150.8401  143.5179  158.6930 H   0  0  0  0  0  0  0  0  0  0  0  0
  149.9102  142.7105  156.7768 H   0  0  0  0  0  0  0  0  0  0  0  0
  150.6545  142.1775  155.3001 H   0  0  0  0  0  0  0  0  0  0  0  0
  148.8597  140.7909  154.9198 H   0  0  0  0  0  0  0  0  0  0  0  0
  149.2192  139.9217  156.4083 H   0  0  0  0  0  0  0  0  0  0  0  0
  147.8956  141.8034  153.8629 H   0  0  0  0  0  0  0  0  0  0  0  0
  146.2289  143.0816  152.5913 H   0  0  0  0  0  0  0  0  0  0  0  0
  144.3534  144.2230  153.7602 H   0  0  0  0  0  0  0  0  0  0  0  0
  144.1581  144.0711  156.2335 H   0  0  0  0  0  0  0  0  0  0  0  0
  1  2  1  0  0  0  0
  1 23  1  0  0  0  0
  2  3  1  0  0  0  0
  2 24  1  0  0  0  0
  2 25  1  0  0  0  0
  3  4  1  0  0  0  0
  3 26  1  0  0  0  0
  3 27  1  0  0  0  0
  4 12  1  0  0  0  0
  4  5  2  0  0  0  0
  5  6  1  0  0  0  0
  6 11  2  0  0  0  0
  6  7  1  0  0  0  0
  7  8  2  0  0  0  0
  7 28  1  0  0  0  0
  8  9  1  0  0  0  0
  8 29  1  0  0  0  0
  9 10  2  0  0  0  0
  9 30  1  0  0  0  0
 10 11  1  0  0  0  0
 10 31  1  0  0  0  0
 11 12  1  0  0  0  0
 12 13  1  0  0  0  0
 13 14  1  0  0  0  0
 13 32  1  0  0  0  0
 13 33  1  0  0  0  0
 14 15  1  0  0  0  0
 14 34  1  0  0  0  0
 14 35  1  0  0  0  0
 15 16  1  0  0  0  0
 16 21  1  0  0  0  0
 16 17  2  0  0  0  0
 17 18  1  0  0  0  0
 17 36  1  0  0  0  0
 18 19  2  0  0  0  0
 18 37  1  0  0  0  0
 19 20  1  0  0  0  0
 19 38  1  0  0  0  0
 20 21  2  0  0  0  0
 20 39  1  0  0  0  0
 21 22  1  0  0  0  0
M  END
> <s_m_source_file>
AV-unprocessed.smi

> <i_m_source_file_index>
1354

> <i_lp_mmshare_version>
43012

> <i_f3d_flags>
0

> <s_epik_input>
W2NIXTFbY0hdW2NIXVtjSF1jKGMxMiluKGMobjIpW0NIMl1bQ0gyXVtPSF0pW0NIMl1bQ0gyXU9jM1tjSF1bY0hdW2NIXVtjSF1jM0Ns

> <s_epik_cmdline>
J2VwaWtfcHl0aG9uJywgJy1waCcsICc3LjAnLCAnLXRuJywgJzgnLCAnLW1hJywgJzIwMCcsICctbWV0YWxfYmluZGluZycsICctaW1hZScsICc8aW5maWxlLm1hZT4nLCAnLW9tYWUnLCAnPG91dGZpbGUubWFlPic=

> <r_lp_tautomer_probability>
1

> <r_epik_Ionization_Penalty>
0.195126

> <r_epik_Ionization_Penalty_Charging>
0

> <r_epik_Ionization_Penalty_Neutral>
0.195126

> <r_epik_State_Penalty>
0.184862

> <r_epik_Charging_Adjusted_Penalty>
0.184862

> <i_epik_Tot_Q>
0

> <i_epik_Tot_abs_Q>
0

> <r_epik_Metal_State_Penalty>
0.000216911

> <b_epik_Metal_Only>
0

> <s_lp_Force_Field>
OPLS_2005

> <r_lp_Energy>
15.3671

> <b_lp_Chiralities_Consistent>
1

> <s_lp_Variant>
AV-unprocessed.smi:1354-1

> <Gold.Version>
5.8.1

> <Gold.Id.Protein>
6NUR|6NUR_protein|mol2

> <Gold.PLP.Fitness>
48.5767

> <Gold.PLP.PLP>
-46.8928

> <Gold.PLP.part.hbond>
-2.4557

> <Gold.PLP.part.metal>
0.0000

> <Gold.PLP.part.buried>
-5.7793

> <Gold.PLP.part.nonpolar>
-39.4225

> <Gold.PLP.part.repulsive>
0.1006

> <Gold.PLP.ligand.clash>
0.0000

> <Gold.PLP.ligand.torsion>
0.7098

> <Gold.PLP.Chemscore.Hbond>
1.0000

> <Gold.PLP.Chemscore.CHOScore>
0.0000

> <Gold.PLP.Chemscore.Metal>
0.0000

> <Gold.Chemscore.Hbonds>
donor molecule, donor type, donor heavy atom, donor atom, acceptor molecule, acceptor atom, score
      P1  H  7997  8009       L1     5  0.95

> <Gold.PLP.Chemscore.Internal.Correction>
0.1035

> <Gold.Rescore>
     Score         DG    S(hbond)    S(metal)    S(lipo)     H(rot)  DE(clash)    DE(int)     intcor
     13.13     -15.40       0.59        0.00     118.31       2.31       0.30       1.97       ----

> <Gold.Chemscore.Fitness>
13.1271

> <Gold.Chemscore.DG>
-15.3958

> <Gold.Chemscore.ZeroCoef>
-5.4800

> <Gold.Chemscore.Hbond>
0.5947

> <Gold.Chemscore.Metal>
0.0000

> <Gold.Chemscore.Lipo>
118.3135

> <Gold.Chemscore.Internal_Hbond>
0.0000

> <Gold.Chemscore.DEClash>
0.3032

> <Gold.Chemscore.DEInternal>
1.9655

> <Gold.Chemscore.Rot>
2.3098

> <Gold.Chemscore.Internal.Correction>
   9.000000E+99

> <Gold.Chemscore.Hbonds>
donor molecule, donor type, donor heavy atom, donor atom, acceptor molecule, acceptor atom, score
      P1  H  7997  8009       L1     5  0.10

> <Gold.Chemscore.Hbond.Weighted>
-1.9862

> <Gold.Chemscore.Metal.Weighted>
-0.0000

> <Gold.Chemscore.Lipo.Weighted>
-13.8427

> <Gold.Chemscore.Internal_Hbond.Weighted>
0.0000

> <Gold.Chemscore.DEClash.Weighted>
0.3032

> <Gold.Chemscore.DEInternal.Weighted>
1.9655

> <Gold.Chemscore.Rot.Weighted>
5.9131

> <Gold.Chemscore.Internal.Correction.Weighted>
   9.000000E+99

> <Gold.Protein.RotatedTorsions>
[ 6907 6896 6895 6894 ] final  116.24 input  -60.11 | X-H torsion
[ 7974 7965 7964 7962 ] final  158.83 input  175.53 | X-H torsion
[ 8008 7997 7996 7995 ] final  169.37 input   59.86 | X-H torsion
[ 10167 10162 10161 10158 ] final   19.96 input  -65.29 | X-H torsion
[ 10718 10713 10712 10709 ] final  112.12 input   66.30 | X-H torsion
[ 10763 10752 10751 10750 ] final   71.76 input  -60.55 | X-H torsion
[ 11005 11000 10999 10996 ] final -136.80 input  -57.11 | X-H torsion

> <Gold.Protein.ActiveResidues>
 VAL166  LYS551  ARG553  GLY616  TRP617  ASP618  TYR619  PRO620  LYS621  CYS622 
 ASP623  PHE694  ASN695  SER759  ASP760  ASP761  ALA762  ILE779  LEU786  VAL792 
 PHE793  MET794  SER795  GLU796  ALA797  LYS798  CYS799  TRP800  GLU811  SER814 

> <Gold.Protein.RotatedAtoms>
  152.4690  133.7988  159.6941 H   0  0  0  0  0  0  0  0  0  0  0  0  # atno 6907 bound_to 6896
  150.8669  133.7551  159.2980 H   0  0  0  0  0  0  0  0  0  0  0  0  # atno 6908 bound_to 6896
  151.5098  135.1068  159.9903 H   0  0  0  0  0  0  0  0  0  0  0  0  # atno 6909 bound_to 6896
  144.7824  139.7532  143.6254 H   0  0  0  0  0  0  0  0  0  0  0  0  # atno 7974 bound_to 7965
  156.1463  140.1566  156.8842 H   0  0  0  0  0  0  0  0  0  0  0  0  # atno 8008 bound_to 7997
  154.5031  140.0820  156.7876 H   0  0  0  0  0  0  0  0  0  0  0  0  # atno 8009 bound_to 7997
  155.3983  140.3413  155.4257 H   0  0  0  0  0  0  0  0  0  0  0  0  # atno 8010 bound_to 7997
  140.5540  143.9458  150.6597 H   0  0  0  0  0  0  0  0  0  0  0  0  # atno 10167 bound_to 10162
  157.6409  131.0962  150.6849 H   0  0  0  0  0  0  0  0  0  0  0  0  # atno 10718 bound_to 10713
  153.0418  135.5125  154.7641 H   0  0  0  0  0  0  0  0  0  0  0  0  # atno 10763 bound_to 10752
  154.6573  135.2933  154.9914 H   0  0  0  0  0  0  0  0  0  0  0  0  # atno 10764 bound_to 10752
  154.0777  135.6668  153.4886 H   0  0  0  0  0  0  0  0  0  0  0  0  # atno 10765 bound_to 10752
  140.8771  134.1979  157.4615 H   0  0  0  0  0  0  0  0  0  0  0  0  # atno 11005 bound_to 11000
  146.2039  139.5350  142.9725 LP  0  0  0  0  0  0  0  0  0  0  0  0  # atno 17320 bound_to 7965
  145.6014  141.0354  143.2016 LP  0  0  0  0  0  0  0  0  0  0  0  0  # atno 17321 bound_to 7965
  140.2891  143.3336  152.1079 LP  0  0  0  0  0  0  0  0  0  0  0  0  # atno 17342 bound_to 10162
  139.5040  144.6766  151.6113 LP  0  0  0  0  0  0  0  0  0  0  0  0  # atno 17343 bound_to 10162
  156.7173  130.4670  149.5532 LP  0  0  0  0  0  0  0  0  0  0  0  0  # atno 17370 bound_to 10713
  156.1689  130.6424  151.0813 LP  0  0  0  0  0  0  0  0  0  0  0  0  # atno 17371 bound_to 10713
  139.8716  134.9800  156.5060 LP  0  0  0  0  0  0  0  0  0  0  0  0  # atno 17394 bound_to 11000
  140.8505  133.8135  155.9164 LP  0  0  0  0  0  0  0  0  0  0  0  0  # atno 17395 bound_to 11000

$$$$
