AV-unprocessed.smi:2279|AV-procd|sdf|9184|dock9
  -GOLD-   2272012403D 1   1.00000     0.00000
 Structure written by MMmdl.
 58 60  0  0  0  0  0  0  0  0  3 V2000
  153.6469  142.3651  163.3010 C   0  0  0  0  0  0  0  0  0  0  0  0
  153.0703  142.7242  161.9475 C   0  0  0  0  0  0  0  0  0  0  0  0
  152.4611  143.9750  161.7306 C   0  0  0  0  0  0  0  0  0  0  0  0
  151.9417  144.2481  160.4501 C   0  0  0  0  0  0  0  0  0  0  0  0
  151.2790  145.5749  160.1451 C   0  0  0  0  0  0  0  0  0  0  0  0
  151.9982  143.3669  159.4288 N   0  0  0  0  0  0  0  0  0  0  0  0
  152.5828  142.1592  159.6259 C   0  0  0  0  0  0  0  0  0  0  0  0
  152.7045  141.1704  158.6133 N   0  0  0  0  0  0  0  0  0  0  0  0
  151.9115  140.9786  157.5442 C   0  0  0  0  0  0  0  0  0  0  0  0
  150.8841  141.6111  157.2975 O   0  0  0  0  0  0  0  0  0  0  0  0
  152.3689  139.9848  156.7678 N   0  0  0  0  0  0  0  0  0  0  0  0
  151.7241  139.5141  155.5450 C   0  0  2  0  0  0  0  0  0  0  0  0
  150.1974  139.4258  155.7360 C   0  0  0  0  0  0  0  0  0  0  0  0
  149.5145  138.7880  154.5088 C   0  0  0  0  0  0  0  0  0  0  0  0
  150.0821  137.4473  154.1805 N   0  3  2  0  0  0  0  0  0  0  0  0
  149.6850  136.3432  155.1209 C   0  0  2  0  0  0  0  0  0  0  0  0
  150.2461  134.9605  154.7004 C   0  0  0  0  0  0  0  0  0  0  0  0
  149.7655  133.8241  155.6190 C   0  0  0  0  0  0  0  0  0  0  0  0
  148.2867  133.7668  155.6717 N   0  3  1  0  0  0  0  0  0  0  0  0
  147.7944  132.6110  156.4523 C   0  0  0  0  0  0  0  0  0  0  0  0
  147.7129  135.0504  156.1371 C   0  0  0  0  0  0  0  0  0  0  0  0
  148.1448  136.2141  155.2283 C   0  0  0  0  0  0  0  0  0  0  0  0
  151.5435  137.5846  153.9164 C   0  0  0  0  0  0  0  0  0  0  0  0
  152.2932  138.1436  155.1404 C   0  0  0  0  0  0  0  0  0  0  0  0
  153.1336  141.8074  160.8787 C   0  0  0  0  0  0  0  0  0  0  0  0
  153.6400  143.2228  163.9741 H   0  0  0  0  0  0  0  0  0  0  0  0
  154.6767  142.0233  163.1968 H   0  0  0  0  0  0  0  0  0  0  0  0
  153.0632  141.5663  163.7590 H   0  0  0  0  0  0  0  0  0  0  0  0
  152.3945  144.7055  162.5237 H   0  0  0  0  0  0  0  0  0  0  0  0
  151.4157  146.2821  160.9637 H   0  0  0  0  0  0  0  0  0  0  0  0
  150.2090  145.4355  159.9884 H   0  0  0  0  0  0  0  0  0  0  0  0
  151.7049  146.0151  159.2430 H   0  0  0  0  0  0  0  0  0  0  0  0
  153.4885  140.5428  158.7129 H   0  0  0  0  0  0  0  0  0  0  0  0
  153.2218  139.5208  157.0441 H   0  0  0  0  0  0  0  0  0  0  0  0
  151.9335  140.2120  154.7316 H   0  0  0  0  0  0  0  0  0  0  0  0
  149.9624  138.8549  156.6346 H   0  0  0  0  0  0  0  0  0  0  0  0
  149.7884  140.4236  155.9002 H   0  0  0  0  0  0  0  0  0  0  0  0
  148.4359  138.7571  154.6447 H   0  0  0  0  0  0  0  0  0  0  0  0
  149.6667  139.4383  153.6460 H   0  0  0  0  0  0  0  0  0  0  0  0
  150.0802  136.5680  156.1117 H   0  0  0  0  0  0  0  0  0  0  0  0
  149.9618  134.7412  153.6700 H   0  0  0  0  0  0  0  0  0  0  0  0
  151.3349  134.9548  154.7359 H   0  0  0  0  0  0  0  0  0  0  0  0
  150.1538  132.8728  155.2528 H   0  0  0  0  0  0  0  0  0  0  0  0
  150.1631  133.9618  156.6261 H   0  0  0  0  0  0  0  0  0  0  0  0
  148.1028  132.6825  157.4961 H   0  0  0  0  0  0  0  0  0  0  0  0
  148.1826  131.6770  156.0441 H   0  0  0  0  0  0  0  0  0  0  0  0
  146.7055  132.5592  156.4197 H   0  0  0  0  0  0  0  0  0  0  0  0
  146.6244  134.9804  156.1446 H   0  0  0  0  0  0  0  0  0  0  0  0
  148.0249  135.2406  157.1654 H   0  0  0  0  0  0  0  0  0  0  0  0
  147.6987  137.1197  155.6350 H   0  0  0  0  0  0  0  0  0  0  0  0
  147.7160  136.0772  154.2343 H   0  0  0  0  0  0  0  0  0  0  0  0
  151.9900  136.6551  153.5686 H   0  0  0  0  0  0  0  0  0  0  0  0
  151.6719  138.2743  153.0808 H   0  0  0  0  0  0  0  0  0  0  0  0
  153.3543  138.2400  154.9071 H   0  0  0  0  0  0  0  0  0  0  0  0
  152.2257  137.4428  155.9734 H   0  0  0  0  0  0  0  0  0  0  0  0
  153.5979  140.8424  161.0228 H   0  0  0  0  0  0  0  0  0  0  0  0
  149.6765  137.1894  153.2918 H   0  0  0  0  0  0  0  0  0  0  0  0
  147.9646  133.6279  154.7242 H   0  0  0  0  0  0  0  0  0  0  0  0
  1  2  1  0  0  0  0
  1 26  1  0  0  0  0
  1 27  1  0  0  0  0
  1 28  1  0  0  0  0
  2 25  1  0  0  0  0
  2  3  2  0  0  0  0
  3  4  1  0  0  0  0
  3 29  1  0  0  0  0
  4  5  1  0  0  0  0
  4  6  2  0  0  0  0
  5 30  1  0  0  0  0
  5 31  1  0  0  0  0
  5 32  1  0  0  0  0
  6  7  1  0  0  0  0
  7  8  1  0  0  0  0
  7 25  2  0  0  0  0
  8  9  1  0  0  0  0
  8 33  1  0  0  0  0
  9 10  2  0  0  0  0
  9 11  1  0  0  0  0
 11 12  1  0  0  0  0
 11 34  1  0  0  0  0
 12 24  1  0  0  0  0
 12 13  1  0  0  0  0
 12 35  1  0  0  0  0
 13 14  1  0  0  0  0
 13 36  1  0  0  0  0
 13 37  1  0  0  0  0
 14 15  1  0  0  0  0
 14 38  1  0  0  0  0
 14 39  1  0  0  0  0
 15 16  1  0  0  0  0
 15 23  1  0  0  0  0
 15 57  1  0  0  0  0
 16 22  1  0  0  0  0
 16 17  1  0  0  0  0
 16 40  1  0  0  0  0
 17 18  1  0  0  0  0
 17 41  1  0  0  0  0
 17 42  1  0  0  0  0
 18 19  1  0  0  0  0
 18 43  1  0  0  0  0
 18 44  1  0  0  0  0
 19 20  1  0  0  0  0
 19 21  1  0  0  0  0
 19 58  1  0  0  0  0
 20 45  1  0  0  0  0
 20 46  1  0  0  0  0
 20 47  1  0  0  0  0
 21 22  1  0  0  0  0
 21 48  1  0  0  0  0
 21 49  1  0  0  0  0
 22 50  1  0  0  0  0
 22 51  1  0  0  0  0
 23 24  1  0  0  0  0
 23 52  1  0  0  0  0
 23 53  1  0  0  0  0
 24 54  1  0  0  0  0
 24 55  1  0  0  0  0
 25 56  1  0  0  0  0
M  CHG  1  15   1
M  CHG  1  19   1
M  END
> <s_m_source_file>
AV-unprocessed.smi

> <i_m_source_file_index>
2279

> <i_lp_mmshare_version>
43012

> <i_f3d_flags>
0

> <s_epik_input>
W0NIM11jMVtjSF1jKFtDSDNdKW5jKFtjSF0xKVtOSF1DKD1PKVtOSF1bQ0hdMltDSDJdW0NIMl1OKFtDSDJdW0NIMl0yKVtDSF0zW0NIMl1bQ0gyXU4oW0NIM10pW0NIMl1bQ0gyXTM=

> <s_epik_cmdline>
J2VwaWtfcHl0aG9uJywgJy1waCcsICc3LjAnLCAnLXRuJywgJzgnLCAnLW1hJywgJzIwMCcsICctbWV0YWxfYmluZGluZycsICctaW1hZScsICc8aW5maWxlLm1hZT4nLCAnLW9tYWUnLCAnPG91dGZpbGUubWFlPic=

> <r_epik_Ionization_Penalty>
0.180973

> <r_epik_Ionization_Penalty_Charging>
0.180787

> <r_epik_Ionization_Penalty_Neutral>
0.000186186

> <r_epik_State_Penalty>
0.153592

> <r_epik_Charging_Adjusted_Penalty>
0.334379

> <i_epik_Tot_Q>
2

> <i_epik_Tot_abs_Q>
2

> <r_epik_Metal_State_Penalty>
0.153604

> <b_epik_Metal_Only>
0

> <s_lp_Force_Field>
OPLS_2005

> <r_lp_Energy>
44.6219

> <b_lp_Chiralities_Consistent>
1

> <s_lp_Variant>
AV-unprocessed.smi:2279-2

> <Gold.Version>
5.8.1

> <Gold.Id.Protein>
6NUR|6NUR_protein|mol2

> <Gold.PLP.Fitness>
50.7465

> <Gold.PLP.PLP>
-45.4901

> <Gold.PLP.part.hbond>
-1.2859

> <Gold.PLP.part.metal>
0.0000

> <Gold.PLP.part.buried>
-4.9423

> <Gold.PLP.part.nonpolar>
-40.5344

> <Gold.PLP.part.repulsive>
1.4508

> <Gold.PLP.ligand.clash>
0.0000

> <Gold.PLP.ligand.torsion>
0.3978

> <Gold.PLP.Chemscore.Hbond>
2.0000

> <Gold.PLP.Chemscore.CHOScore>
0.0000

> <Gold.PLP.Chemscore.Metal>
0.0000

> <Gold.Chemscore.Hbonds>
donor molecule, donor type, donor heavy atom, donor atom, acceptor molecule, acceptor atom, score
      L1  H    15    57       P1  7948  2.00

> <Gold.PLP.Chemscore.Internal.Correction>
0.0520

> <Gold.Rescore>
     Score         DG    S(hbond)    S(metal)    S(lipo)     H(rot)  DE(clash)    DE(int)     intcor
     15.70     -19.64       0.94        0.00     120.66       1.21       0.97       2.97       ----

> <Gold.Chemscore.Fitness>
15.7026

> <Gold.Chemscore.DG>
-19.6424

> <Gold.Chemscore.ZeroCoef>
-5.4800

> <Gold.Chemscore.Hbond>
0.9407

> <Gold.Chemscore.Metal>
0.0000

> <Gold.Chemscore.Lipo>
120.6553

> <Gold.Chemscore.Internal_Hbond>
0.0000

> <Gold.Chemscore.DEClash>
0.9745

> <Gold.Chemscore.DEInternal>
2.9654

> <Gold.Chemscore.Rot>
1.2095

> <Gold.Chemscore.Internal.Correction>
   9.000000E+99

> <Gold.Chemscore.Hbonds>
donor molecule, donor type, donor heavy atom, donor atom, acceptor molecule, acceptor atom, score
      L1  H    15    57       P1  7948  0.65

> <Gold.Chemscore.Hbond.Weighted>
-3.1420

> <Gold.Chemscore.Metal.Weighted>
-0.0000

> <Gold.Chemscore.Lipo.Weighted>
-14.1167

> <Gold.Chemscore.Internal_Hbond.Weighted>
0.0000

> <Gold.Chemscore.DEClash.Weighted>
0.9745

> <Gold.Chemscore.DEInternal.Weighted>
2.9654

> <Gold.Chemscore.Rot.Weighted>
3.0963

> <Gold.Chemscore.Internal.Correction.Weighted>
   9.000000E+99

> <Gold.Protein.RotatedTorsions>
[ 6907 6896 6895 6894 ] final  123.15 input  -60.11 | X-H torsion
[ 7974 7965 7964 7962 ] final   -5.61 input  175.53 | X-H torsion
[ 8008 7997 7996 7995 ] final  161.89 input   59.86 | X-H torsion
[ 10167 10162 10161 10158 ] final -103.19 input  -65.29 | X-H torsion
[ 10718 10713 10712 10709 ] final   38.31 input   66.30 | X-H torsion
[ 10763 10752 10751 10750 ] final -142.76 input  -60.55 | X-H torsion
[ 11005 11000 10999 10996 ] final  128.97 input  -57.11 | X-H torsion

> <Gold.Protein.ActiveResidues>
 VAL166  LYS551  ARG553  GLY616  TRP617  ASP618  TYR619  PRO620  LYS621  CYS622 
 ASP623  PHE694  ASN695  SER759  ASP760  ASP761  ALA762  ILE779  LEU786  VAL792 
 PHE793  MET794  SER795  GLU796  ALA797  LYS798  CYS799  TRP800  GLU811  SER814 

> <Gold.Protein.RotatedAtoms>
  152.4185  133.7077  159.6460 H   0  0  0  0  0  0  0  0  0  0  0  0  # atno 6907 bound_to 6896
  150.8061  133.8496  159.3210 H   0  0  0  0  0  0  0  0  0  0  0  0  # atno 6908 bound_to 6896
  151.6219  135.1033  160.0155 H   0  0  0  0  0  0  0  0  0  0  0  0  # atno 6909 bound_to 6896
  146.2349  140.2046  142.8334 H   0  0  0  0  0  0  0  0  0  0  0  0  # atno 7974 bound_to 7965
  156.2071  140.1765  156.7776 H   0  0  0  0  0  0  0  0  0  0  0  0  # atno 8008 bound_to 7997
  154.5670  140.0689  156.8937 H   0  0  0  0  0  0  0  0  0  0  0  0  # atno 8009 bound_to 7997
  155.2742  140.3344  155.4265 H   0  0  0  0  0  0  0  0  0  0  0  0  # atno 8010 bound_to 7997
  140.2227  143.3664  152.0956 H   0  0  0  0  0  0  0  0  0  0  0  0  # atno 10167 bound_to 10162
  157.3573  130.7630  149.7021 H   0  0  0  0  0  0  0  0  0  0  0  0  # atno 10718 bound_to 10713
  154.8497  135.3487  154.6079 H   0  0  0  0  0  0  0  0  0  0  0  0  # atno 10763 bound_to 10752
  153.6687  135.6986  153.5158 H   0  0  0  0  0  0  0  0  0  0  0  0  # atno 10764 bound_to 10752
  153.2759  135.4278  155.0990 H   0  0  0  0  0  0  0  0  0  0  0  0  # atno 10765 bound_to 10752
  139.9589  134.9607  156.9079 H   0  0  0  0  0  0  0  0  0  0  0  0  # atno 11005 bound_to 11000
  144.9754  140.8409  143.5429 LP  0  0  0  0  0  0  0  0  0  0  0  0  # atno 17320 bound_to 7965
  145.2033  139.2241  143.5181 LP  0  0  0  0  0  0  0  0  0  0  0  0  # atno 17321 bound_to 7965
  139.5138  144.6939  151.5685 LP  0  0  0  0  0  0  0  0  0  0  0  0  # atno 17342 bound_to 10162
  140.6243  143.9198  150.6552 LP  0  0  0  0  0  0  0  0  0  0  0  0  # atno 17343 bound_to 10162
  155.9731  130.4124  150.4028 LP  0  0  0  0  0  0  0  0  0  0  0  0  # atno 17370 bound_to 10713
  157.2100  131.0458  151.2604 LP  0  0  0  0  0  0  0  0  0  0  0  0  # atno 17371 bound_to 10713
  140.5545  134.0595  155.7379 LP  0  0  0  0  0  0  0  0  0  0  0  0  # atno 17394 bound_to 11000
  141.1264  133.9375  157.2626 LP  0  0  0  0  0  0  0  0  0  0  0  0  # atno 17395 bound_to 11000

$$$$
