AV-unprocessed.smi:177|AV-procd|sdf|1439|dock1
  -GOLD-   2262019223D 1   1.00000     0.00000
 Structure written by MMmdl.
 61 65  0  0  0  0  0  0  0  0  1 V2000
  151.6185  145.1811  158.7453 C   0  0  0  0  0  0  0  0  0  0  0  0
  152.5774  144.1551  158.9521 O   0  0  0  0  0  0  0  0  0  0  0  0
  152.0222  142.8524  159.0813 C   0  0  2  0  0  0  0  0  0  0  0  0
  153.1803  141.8831  159.3653 C   0  0  0  0  0  0  0  0  0  0  0  0
  152.6781  140.4367  159.4911 C   0  0  0  0  0  0  0  0  0  0  0  0
  151.8899  139.9869  158.2489 C   0  0  2  0  0  0  0  0  0  0  0  0
  152.7807  139.8504  157.1444 O   0  0  0  0  0  0  0  0  0  0  0  0
  152.1295  139.3148  155.9973 C   0  0  0  0  0  0  0  0  0  0  0  0
  151.0081  140.2628  155.5443 C   0  0  0  0  0  0  0  0  0  0  0  0
  150.0992  140.5423  156.6564 N   0  0  0  0  0  0  0  0  0  0  0  0
  148.9029  141.1230  156.3716 C   0  0  0  0  0  0  0  0  0  0  0  0
  148.3594  140.9700  155.1338 N   0  0  0  0  0  0  0  0  0  0  0  0
  147.1933  141.5453  154.8289 C   0  0  0  0  0  0  0  0  0  0  0  0
  146.4135  142.3059  155.5979 N   0  0  0  0  0  0  0  0  0  0  0  0
  146.9475  142.4633  156.8424 C   0  0  0  0  0  0  0  0  0  0  0  0
  148.1707  141.9043  157.3117 C   0  0  0  0  0  0  0  0  0  0  0  0
  148.3653  142.2542  158.6428 N   0  0  0  0  0  0  0  0  0  0  0  0
  147.3276  142.9878  158.9370 C   0  0  0  0  0  0  0  0  0  0  0  0
  146.4346  143.1833  157.9080 N   0  0  0  0  0  0  0  0  0  0  0  0
  145.1979  143.9495  157.9637 C   0  0  0  0  0  0  0  0  0  0  0  0
  144.8016  144.4986  159.3684 C   0  0  0  0  0  0  0  0  0  0  0  0
  145.9005  145.4548  159.9225 C   0  0  0  0  0  0  0  0  0  0  0  0
  146.1062  146.6078  159.1312 O   0  0  0  0  0  0  0  0  0  0  0  0
  143.4099  145.1814  159.3312 C   0  0  0  0  0  0  0  0  0  0  0  0
  142.8414  145.4455  160.7355 C   0  0  0  0  0  0  0  0  0  0  0  0
  142.7448  144.2216  161.4522 O   0  0  0  0  0  0  0  0  0  0  0  0
  144.0077  143.6033  161.6608 C   0  0  0  0  0  0  0  0  0  0  0  0
  144.6701  143.2731  160.3086 C   0  0  0  0  0  0  0  0  0  0  0  0
  150.7599  140.9813  157.8895 C   0  0  2  0  0  0  0  0  0  0  0  0
  151.2853  142.4334  157.7945 C   0  0  0  0  0  0  0  0  0  0  0  0
  152.1252  146.1450  158.7007 H   0  0  0  0  0  0  0  0  0  0  0  0
  150.8999  145.2213  159.5645 H   0  0  0  0  0  0  0  0  0  0  0  0
  151.0757  145.0500  157.8096 H   0  0  0  0  0  0  0  0  0  0  0  0
  151.3347  142.8258  159.9291 H   0  0  0  0  0  0  0  0  0  0  0  0
  153.9197  141.9462  158.5655 H   0  0  0  0  0  0  0  0  0  0  0  0
  153.6926  142.1753  160.2824 H   0  0  0  0  0  0  0  0  0  0  0  0
  153.5172  139.7623  159.6642 H   0  0  0  0  0  0  0  0  0  0  0  0
  152.0364  140.3584  160.3694 H   0  0  0  0  0  0  0  0  0  0  0  0
  151.4563  139.0080  158.4630 H   0  0  0  0  0  0  0  0  0  0  0  0
  152.8604  139.1903  155.1985 H   0  0  0  0  0  0  0  0  0  0  0  0
  151.7321  138.3236  156.2214 H   0  0  0  0  0  0  0  0  0  0  0  0
  151.4331  141.1943  155.1692 H   0  0  0  0  0  0  0  0  0  0  0  0
  150.4620  139.8040  154.7190 H   0  0  0  0  0  0  0  0  0  0  0  0
  146.8350  141.3737  153.8246 H   0  0  0  0  0  0  0  0  0  0  0  0
  147.1890  143.4198  159.9174 H   0  0  0  0  0  0  0  0  0  0  0  0
  145.2969  144.7727  157.2547 H   0  0  0  0  0  0  0  0  0  0  0  0
  144.3969  143.3210  157.5718 H   0  0  0  0  0  0  0  0  0  0  0  0
  145.6540  145.8108  160.9209 H   0  0  0  0  0  0  0  0  0  0  0  0
  146.8493  144.9256  160.0179 H   0  0  0  0  0  0  0  0  0  0  0  0
  146.8880  146.4831  158.6149 H   0  0  0  0  0  0  0  0  0  0  0  0
  143.4410  146.1136  158.7671 H   0  0  0  0  0  0  0  0  0  0  0  0
  142.7074  144.5363  158.8021 H   0  0  0  0  0  0  0  0  0  0  0  0
  143.4513  146.1624  161.2865 H   0  0  0  0  0  0  0  0  0  0  0  0
  141.8443  145.8786  160.6549 H   0  0  0  0  0  0  0  0  0  0  0  0
  144.6397  144.2404  162.2797 H   0  0  0  0  0  0  0  0  0  0  0  0
  143.8520  142.6851  162.2274 H   0  0  0  0  0  0  0  0  0  0  0  0
  144.0633  142.5064  159.8244 H   0  0  0  0  0  0  0  0  0  0  0  0
  145.6469  142.8181  160.4773 H   0  0  0  0  0  0  0  0  0  0  0  0
  150.0470  140.9485  158.7113 H   0  0  0  0  0  0  0  0  0  0  0  0
  150.4505  143.1072  157.6036 H   0  0  0  0  0  0  0  0  0  0  0  0
  151.9644  142.5378  156.9481 H   0  0  0  0  0  0  0  0  0  0  0  0
  1  2  1  0  0  0  0
  1 31  1  0  0  0  0
  1 32  1  0  0  0  0
  1 33  1  0  0  0  0
  2  3  1  0  0  0  0
  3 30  1  0  0  0  0
  3  4  1  0  0  0  0
  3 34  1  0  0  0  0
  4  5  1  0  0  0  0
  4 35  1  0  0  0  0
  4 36  1  0  0  0  0
  5  6  1  0  0  0  0
  5 37  1  0  0  0  0
  5 38  1  0  0  0  0
  6 29  1  0  0  0  0
  6  7  1  0  0  0  0
  6 39  1  0  0  0  0
  7  8  1  0  0  0  0
  8  9  1  0  0  0  0
  8 40  1  0  0  0  0
  8 41  1  0  0  0  0
  9 10  1  0  0  0  0
  9 42  1  0  0  0  0
  9 43  1  0  0  0  0
 10 11  1  0  0  0  0
 10 29  1  0  0  0  0
 11 16  1  0  0  0  0
 11 12  2  0  0  0  0
 12 13  1  0  0  0  0
 13 14  2  0  0  0  0
 13 44  1  0  0  0  0
 14 15  1  0  0  0  0
 15 19  1  0  0  0  0
 15 16  2  0  0  0  0
 16 17  1  0  0  0  0
 17 18  2  0  0  0  0
 18 19  1  0  0  0  0
 18 45  1  0  0  0  0
 19 20  1  0  0  0  0
 20 21  1  0  0  0  0
 20 46  1  0  0  0  0
 20 47  1  0  0  0  0
 21 28  1  0  0  0  0
 21 22  1  0  0  0  0
 21 24  1  0  0  0  0
 22 23  1  0  0  0  0
 22 48  1  0  0  0  0
 22 49  1  0  0  0  0
 23 50  1  0  0  0  0
 24 25  1  0  0  0  0
 24 51  1  0  0  0  0
 24 52  1  0  0  0  0
 25 26  1  0  0  0  0
 25 53  1  0  0  0  0
 25 54  1  0  0  0  0
 26 27  1  0  0  0  0
 27 28  1  0  0  0  0
 27 55  1  0  0  0  0
 27 56  1  0  0  0  0
 28 57  1  0  0  0  0
 28 58  1  0  0  0  0
 29 30  1  0  0  0  0
 29 59  1  0  0  0  0
 30 60  1  0  0  0  0
 30 61  1  0  0  0  0
M  END
> <s_m_source_file>
AV-unprocessed.smi

> <i_m_source_file_index>
177

> <i_lp_mmshare_version>
43012

> <i_f3d_flags>
0

> <s_epik_input>
W0NIM11PW0NASF0oW0NIMl1bQ0gyXTEpW0NIMl1bQ0BIXShbQ0BASF0xMilOKFtDSDJdW0NIMl1PMiljKG5bY0hdbjMpYyhjMzQpbltjSF1uNFtDSDJdQzUoW0NIMl1bT0hdKVtDSDJdW0NIMl1PW0NIMl1bQ0gyXTU=

> <s_epik_cmdline>
J2VwaWtfcHl0aG9uJywgJy1waCcsICc3LjAnLCAnLXRuJywgJzgnLCAnLW1hJywgJzIwMCcsICctbWV0YWxfYmluZGluZycsICctaW1hZScsICc8aW5maWxlLm1hZT4nLCAnLW9tYWUnLCAnPG91dGZpbGUubWFlPic=

> <r_lp_tautomer_probability>
1

> <r_epik_Ionization_Penalty>
0.0065899

> <r_epik_Ionization_Penalty_Charging>
0

> <r_epik_Ionization_Penalty_Neutral>
0.0065899

> <r_epik_State_Penalty>
0.00470042

> <r_epik_Charging_Adjusted_Penalty>
0.00470042

> <i_epik_Tot_Q>
0

> <i_epik_Tot_abs_Q>
0

> <r_epik_Metal_State_Penalty>
-0

> <b_epik_Metal_Only>
0

> <s_lp_Force_Field>
OPLS_2005

> <r_lp_Energy>
44.7828

> <b_lp_Chiralities_Consistent>
1

> <s_lp_Variant>
AV-unprocessed.smi:177-3

> <Gold.Version>
5.8.1

> <Gold.Id.Protein>
6NUR|6NUR_protein|mol2

> <Gold.PLP.Fitness>
49.3768

> <Gold.PLP.PLP>
-43.9757

> <Gold.PLP.part.hbond>
-2.8600

> <Gold.PLP.part.metal>
0.0000

> <Gold.PLP.part.buried>
-5.6445

> <Gold.PLP.part.nonpolar>
-34.9051

> <Gold.PLP.part.repulsive>
0.4436

> <Gold.PLP.ligand.clash>
0.0000

> <Gold.PLP.ligand.torsion>
0.5510

> <Gold.PLP.Chemscore.Hbond>
2.0000

> <Gold.PLP.Chemscore.CHOScore>
0.0000

> <Gold.PLP.Chemscore.Metal>
0.0000

> <Gold.Chemscore.Hbonds>
donor molecule, donor type, donor heavy atom, donor atom, acceptor molecule, acceptor atom, score
      L1  H    23    50       P1  8029  1.00
      P1  H  7997  8010       L1     7  1.00

> <Gold.PLP.Chemscore.Internal.Correction>
0.5033

> <Gold.Rescore>
     Score         DG    S(hbond)    S(metal)    S(lipo)     H(rot)  DE(clash)    DE(int)     intcor
     13.55     -17.40       1.92        0.00     103.68       2.58       0.63       3.23       ----

> <Gold.Chemscore.Fitness>
13.5453

> <Gold.Chemscore.DG>
-17.4026

> <Gold.Chemscore.ZeroCoef>
-5.4800

> <Gold.Chemscore.Hbond>
1.9155

> <Gold.Chemscore.Metal>
0.0000

> <Gold.Chemscore.Lipo>
103.6834

> <Gold.Chemscore.Internal_Hbond>
0.0000

> <Gold.Chemscore.DEClash>
0.6281

> <Gold.Chemscore.DEInternal>
3.2293

> <Gold.Chemscore.Rot>
2.5806

> <Gold.Chemscore.Internal.Correction>
   9.000000E+99

> <Gold.Chemscore.Hbonds>
donor molecule, donor type, donor heavy atom, donor atom, acceptor molecule, acceptor atom, score
      L1  H    23    50       P1  8029  0.99
      P1  H  7997  8010       L1     7  0.50

> <Gold.Chemscore.Hbond.Weighted>
-6.3979

> <Gold.Chemscore.Metal.Weighted>
-0.0000

> <Gold.Chemscore.Lipo.Weighted>
-12.1310

> <Gold.Chemscore.Internal_Hbond.Weighted>
0.0000

> <Gold.Chemscore.DEClash.Weighted>
0.6281

> <Gold.Chemscore.DEInternal.Weighted>
3.2293

> <Gold.Chemscore.Rot.Weighted>
6.6062

> <Gold.Chemscore.Internal.Correction.Weighted>
   9.000000E+99

> <Gold.Protein.RotatedTorsions>
[ 6907 6896 6895 6894 ] final  -88.44 input  -60.11 | X-H torsion
[ 7974 7965 7964 7962 ] final  -26.70 input  175.53 | X-H torsion
[ 8008 7997 7996 7995 ] final   59.02 input   59.86 | X-H torsion
[ 10167 10162 10161 10158 ] final -170.61 input  -65.29 | X-H torsion
[ 10718 10713 10712 10709 ] final  173.56 input   66.30 | X-H torsion
[ 10763 10752 10751 10750 ] final -122.80 input  -60.55 | X-H torsion
[ 11005 11000 10999 10996 ] final   69.95 input  -57.11 | X-H torsion

> <Gold.Protein.ActiveResidues>
 VAL166  LYS551  ARG553  GLY616  TRP617  ASP618  TYR619  PRO620  LYS621  CYS622 
 ASP623  PHE694  ASN695  SER759  ASP760  ASP761  ALA762  ILE779  LEU786  VAL792 
 PHE793  MET794  SER795  GLU796  ALA797  LYS798  CYS799  TRP800  GLU811  SER814 

> <Gold.Protein.RotatedAtoms>
  150.6869  134.2742  159.4600 H   0  0  0  0  0  0  0  0  0  0  0  0  # atno 6907 bound_to 6896
  152.0662  134.9560  160.0584 H   0  0  0  0  0  0  0  0  0  0  0  0  # atno 6908 bound_to 6896
  152.0968  133.4194  159.4606 H   0  0  0  0  0  0  0  0  0  0  0  0  # atno 6909 bound_to 6896
  146.1408  140.5054  142.8653 H   0  0  0  0  0  0  0  0  0  0  0  0  # atno 7974 bound_to 7965
  155.5595  140.3488  155.4488 H   0  0  0  0  0  0  0  0  0  0  0  0  # atno 8008 bound_to 7997
  156.0524  140.1321  157.0060 H   0  0  0  0  0  0  0  0  0  0  0  0  # atno 8009 bound_to 7997
  154.4441  140.1002  156.6381 H   0  0  0  0  0  0  0  0  0  0  0  0  # atno 8010 bound_to 7997
  139.5851  144.1336  152.1565 H   0  0  0  0  0  0  0  0  0  0  0  0  # atno 10167 bound_to 10162
  156.9625  131.0065  151.2924 H   0  0  0  0  0  0  0  0  0  0  0  0  # atno 10718 bound_to 10713
  154.8696  135.4120  154.2841 H   0  0  0  0  0  0  0  0  0  0  0  0  # atno 10763 bound_to 10752
  153.3728  135.7008  153.6630 H   0  0  0  0  0  0  0  0  0  0  0  0  # atno 10764 bound_to 10752
  153.5484  135.3634  155.2721 H   0  0  0  0  0  0  0  0  0  0  0  0  # atno 10765 bound_to 10752
  139.9625  134.7037  156.0616 H   0  0  0  0  0  0  0  0  0  0  0  0  # atno 11005 bound_to 11000
  144.7790  140.5800  143.6618 LP  0  0  0  0  0  0  0  0  0  0  0  0  # atno 17320 bound_to 7965
  145.5052  139.1481  143.3635 LP  0  0  0  0  0  0  0  0  0  0  0  0  # atno 17321 bound_to 7965
  140.0898  144.5630  150.7063 LP  0  0  0  0  0  0  0  0  0  0  0  0  # atno 17342 bound_to 10162
  140.7124  143.2516  151.4540 LP  0  0  0  0  0  0  0  0  0  0  0  0  # atno 17343 bound_to 10162
  157.5648  130.8270  149.8312 LP  0  0  0  0  0  0  0  0  0  0  0  0  # atno 17370 bound_to 10713
  156.0316  130.3763  150.1672 LP  0  0  0  0  0  0  0  0  0  0  0  0  # atno 17371 bound_to 10713
  141.1303  133.6588  156.3446 LP  0  0  0  0  0  0  0  0  0  0  0  0  # atno 17394 bound_to 11000
  140.5469  134.6066  157.5396 LP  0  0  0  0  0  0  0  0  0  0  0  0  # atno 17395 bound_to 11000

$$$$
