AV-unprocessed.smi:467|AV-procd|sdf|2644|dock1
  -GOLD-   2262023 53D 1   1.00000     0.00000
 Structure written by MMmdl.
 44 46  0  0  0  0  0  0  0  0  1 V2000
  154.0121  141.7899  162.4160 C   0  0  0  0  0  0  0  0  0  0  0  0
  153.3122  141.7688  161.0686 C   0  0  0  0  0  0  0  0  0  0  0  0
  153.5120  140.6663  160.2072 C   0  0  0  0  0  0  0  0  0  0  0  0
  152.8742  140.6057  158.9486 C   0  0  0  0  0  0  0  0  0  0  0  0
  152.9209  139.6343  157.9629 N   0  0  0  0  0  0  0  0  0  0  0  0
  152.1168  140.1520  157.0387 C   0  0  0  0  0  0  0  0  0  0  0  0
  151.5555  141.3462  157.3080 N   0  0  0  0  0  0  0  0  0  0  0  0
  150.6510  142.0979  156.4557 C   0  0  0  0  0  0  0  0  0  0  0  0
  149.4844  141.2404  155.9287 C   0  0  1  0  0  0  0  0  0  0  0  0
  148.4064  142.0837  155.5726 O   0  0  0  0  0  0  0  0  0  0  0  0
  149.8971  140.4296  154.6842 C   0  0  0  0  0  0  0  0  0  0  0  0
  148.9240  139.4364  154.2252 N   0  0  0  0  0  0  0  0  0  0  0  0
  147.8220  140.0268  153.4670 C   0  0  0  0  0  0  0  0  0  0  0  0
  146.7993  138.9667  153.0214 C   0  0  0  0  0  0  0  0  0  0  0  0
  146.3133  138.2610  154.1582 O   0  0  0  0  0  0  0  0  0  0  0  0
  147.3537  137.6307  154.8977 C   0  0  0  0  0  0  0  0  0  0  0  0
  148.3744  138.6884  155.3512 C   0  0  0  0  0  0  0  0  0  0  0  0
  152.0290  141.6894  158.5698 C   0  0  0  0  0  0  0  0  0  0  0  0
  151.8247  142.7927  159.4170 C   0  0  0  0  0  0  0  0  0  0  0  0
  152.4642  142.8347  160.6735 C   0  0  0  0  0  0  0  0  0  0  0  0
  152.2271  144.0254  161.5853 C   0  0  0  0  0  0  0  0  0  0  0  0
  154.6659  140.9261  162.5391 H   0  0  0  0  0  0  0  0  0  0  0  0
  153.2810  141.7752  163.2246 H   0  0  0  0  0  0  0  0  0  0  0  0
  154.6228  142.6870  162.5173 H   0  0  0  0  0  0  0  0  0  0  0  0
  154.1561  139.8534  160.5082 H   0  0  0  0  0  0  0  0  0  0  0  0
  151.9235  139.6332  156.1111 H   0  0  0  0  0  0  0  0  0  0  0  0
  150.2760  142.9559  157.0155 H   0  0  0  0  0  0  0  0  0  0  0  0
  151.2270  142.5002  155.6211 H   0  0  0  0  0  0  0  0  0  0  0  0
  149.1565  140.5792  156.7299 H   0  0  0  0  0  0  0  0  0  0  0  0
  148.7479  142.9509  155.4146 H   0  0  0  0  0  0  0  0  0  0  0  0
  150.0968  141.1353  153.8762 H   0  0  0  0  0  0  0  0  0  0  0  0
  150.8476  139.9310  154.8807 H   0  0  0  0  0  0  0  0  0  0  0  0
  147.3183  140.7817  154.0725 H   0  0  0  0  0  0  0  0  0  0  0  0
  148.1969  140.5358  152.5802 H   0  0  0  0  0  0  0  0  0  0  0  0
  145.9611  139.4396  152.5097 H   0  0  0  0  0  0  0  0  0  0  0  0
  147.2515  138.2668  152.3166 H   0  0  0  0  0  0  0  0  0  0  0  0
  146.9222  137.1248  155.7615 H   0  0  0  0  0  0  0  0  0  0  0  0
  147.8350  136.8667  154.2849 H   0  0  0  0  0  0  0  0  0  0  0  0
  149.1800  138.1969  155.8981 H   0  0  0  0  0  0  0  0  0  0  0  0
  147.8946  139.3735  156.0522 H   0  0  0  0  0  0  0  0  0  0  0  0
  151.1742  143.5959  159.1034 H   0  0  0  0  0  0  0  0  0  0  0  0
  151.5342  144.7378  161.1366 H   0  0  0  0  0  0  0  0  0  0  0  0
  153.1630  144.5477  161.7840 H   0  0  0  0  0  0  0  0  0  0  0  0
  151.8021  143.7000  162.5351 H   0  0  0  0  0  0  0  0  0  0  0  0
  1  2  1  0  0  0  0
  1 22  1  0  0  0  0
  1 23  1  0  0  0  0
  1 24  1  0  0  0  0
  2 20  1  0  0  0  0
  2  3  2  0  0  0  0
  3  4  1  0  0  0  0
  3 25  1  0  0  0  0
  4 18  2  0  0  0  0
  4  5  1  0  0  0  0
  5  6  2  0  0  0  0
  6  7  1  0  0  0  0
  6 26  1  0  0  0  0
  7  8  1  0  0  0  0
  7 18  1  0  0  0  0
  8  9  1  0  0  0  0
  8 27  1  0  0  0  0
  8 28  1  0  0  0  0
  9 10  1  0  0  0  0
  9 11  1  0  0  0  0
  9 29  1  0  0  0  0
 10 30  1  0  0  0  0
 11 12  1  0  0  0  0
 11 31  1  0  0  0  0
 11 32  1  0  0  0  0
 12 17  1  0  0  0  0
 12 13  1  0  0  0  0
 13 14  1  0  0  0  0
 13 33  1  0  0  0  0
 13 34  1  0  0  0  0
 14 15  1  0  0  0  0
 14 35  1  0  0  0  0
 14 36  1  0  0  0  0
 15 16  1  0  0  0  0
 16 17  1  0  0  0  0
 16 37  1  0  0  0  0
 16 38  1  0  0  0  0
 17 39  1  0  0  0  0
 17 40  1  0  0  0  0
 18 19  1  0  0  0  0
 19 20  2  0  0  0  0
 19 41  1  0  0  0  0
 20 21  1  0  0  0  0
 21 42  1  0  0  0  0
 21 43  1  0  0  0  0
 21 44  1  0  0  0  0
M  END
> <s_m_source_file>
AV-unprocessed.smi

> <i_m_source_file_index>
467

> <i_lp_mmshare_version>
43012

> <i_f3d_flags>
0

> <s_epik_input>
W0NIM11jKFtjSF0xKWMoW0NIM10pW2NIXWMoYzEyKW4oW2NIXW4yKVtDSDJdW0NASF0oW09IXSlbQ0gyXU4zW0NIMl1bQ0gyXU9bQ0gyXVtDSDJdMw==

> <s_epik_cmdline>
J2VwaWtfcHl0aG9uJywgJy1waCcsICc3LjAnLCAnLXRuJywgJzgnLCAnLW1hJywgJzIwMCcsICctbWV0YWxfYmluZGluZycsICctaW1hZScsICc8aW5maWxlLm1hZT4nLCAnLW9tYWUnLCAnPG91dGZpbGUubWFlPic=

> <r_epik_Ionization_Penalty>
0.345029

> <r_epik_Ionization_Penalty_Charging>
0

> <r_epik_Ionization_Penalty_Neutral>
0.345029

> <r_epik_State_Penalty>
0.314465

> <r_epik_Charging_Adjusted_Penalty>
0.314465

> <i_epik_Tot_Q>
0

> <i_epik_Tot_abs_Q>
0

> <r_epik_Metal_State_Penalty>
0.239717

> <b_epik_Metal_Only>
0

> <s_lp_Force_Field>
OPLS_2005

> <r_lp_Energy>
29.8688

> <b_lp_Chiralities_Consistent>
1

> <s_lp_Variant>
AV-unprocessed.smi:467-2

> <Gold.Version>
5.8.1

> <Gold.Id.Protein>
6NUR|6NUR_protein|mol2

> <Gold.PLP.Fitness>
44.4724

> <Gold.PLP.PLP>
-39.4256

> <Gold.PLP.part.hbond>
-2.0000

> <Gold.PLP.part.metal>
0.0000

> <Gold.PLP.part.buried>
-0.0372

> <Gold.PLP.part.nonpolar>
-37.1195

> <Gold.PLP.part.repulsive>
0.2701

> <Gold.PLP.ligand.clash>
0.0000

> <Gold.PLP.ligand.torsion>
0.5138

> <Gold.PLP.Chemscore.Hbond>
2.0000

> <Gold.PLP.Chemscore.CHOScore>
0.0000

> <Gold.PLP.Chemscore.Metal>
0.0000

> <Gold.Chemscore.Hbonds>
donor molecule, donor type, donor heavy atom, donor atom, acceptor molecule, acceptor atom, score
      L1  H    10    30       P1  8028  1.00
      P1  H  7997  8009       L1     5  1.00

> <Gold.PLP.Chemscore.Internal.Correction>
0.0744

> <Gold.Rescore>
     Score         DG    S(hbond)    S(metal)    S(lipo)     H(rot)  DE(clash)    DE(int)     intcor
     17.45     -18.25       1.35        0.00     114.79       2.02       0.20       0.59       ----

> <Gold.Chemscore.Fitness>
17.4517

> <Gold.Chemscore.DG>
-18.2453

> <Gold.Chemscore.ZeroCoef>
-5.4800

> <Gold.Chemscore.Hbond>
1.3510

> <Gold.Chemscore.Metal>
0.0000

> <Gold.Chemscore.Lipo>
114.7939

> <Gold.Chemscore.Internal_Hbond>
0.0000

> <Gold.Chemscore.DEClash>
0.1999

> <Gold.Chemscore.DEInternal>
0.5938

> <Gold.Chemscore.Rot>
2.0227

> <Gold.Chemscore.Internal.Correction>
   9.000000E+99

> <Gold.Chemscore.Hbonds>
donor molecule, donor type, donor heavy atom, donor atom, acceptor molecule, acceptor atom, score
      L1  H    10    30       P1  8028  0.99
      P1  H  7997  8009       L1     5  0.07

> <Gold.Chemscore.Hbond.Weighted>
-4.5124

> <Gold.Chemscore.Metal.Weighted>
-0.0000

> <Gold.Chemscore.Lipo.Weighted>
-13.4309

> <Gold.Chemscore.Internal_Hbond.Weighted>
0.0000

> <Gold.Chemscore.DEClash.Weighted>
0.1999

> <Gold.Chemscore.DEInternal.Weighted>
0.5938

> <Gold.Chemscore.Rot.Weighted>
5.1780

> <Gold.Chemscore.Internal.Correction.Weighted>
   9.000000E+99

> <Gold.Protein.RotatedTorsions>
[ 6907 6896 6895 6894 ] final  -49.10 input  -60.11 | X-H torsion
[ 7974 7965 7964 7962 ] final -123.16 input  175.53 | X-H torsion
[ 8008 7997 7996 7995 ] final  145.19 input   59.86 | X-H torsion
[ 10167 10162 10161 10158 ] final  -11.13 input  -65.29 | X-H torsion
[ 10718 10713 10712 10709 ] final  158.57 input   66.30 | X-H torsion
[ 10763 10752 10751 10750 ] final -107.81 input  -60.55 | X-H torsion
[ 11005 11000 10999 10996 ] final   19.30 input  -57.11 | X-H torsion

> <Gold.Protein.ActiveResidues>
 VAL166  LYS551  ARG553  GLY616  TRP617  ASP618  TYR619  PRO620  LYS621  CYS622 
 ASP623  PHE694  ASN695  SER759  ASP760  ASP761  ALA762  ILE779  LEU786  VAL792 
 PHE793  MET794  SER795  GLU796  ALA797  LYS798  CYS799  TRP800  GLU811  SER814 

> <Gold.Protein.RotatedAtoms>
  150.8839  134.8234  159.7244 H   0  0  0  0  0  0  0  0  0  0  0  0  # atno 6907 bound_to 6896
  152.4795  134.4753  159.9658 H   0  0  0  0  0  0  0  0  0  0  0  0  # atno 6908 bound_to 6896
  151.4824  133.3504  159.2876 H   0  0  0  0  0  0  0  0  0  0  0  0  # atno 6909 bound_to 6896
  145.0216  140.7993  143.4377 H   0  0  0  0  0  0  0  0  0  0  0  0  # atno 7974 bound_to 7965
  156.2889  140.2215  156.5175 H   0  0  0  0  0  0  0  0  0  0  0  0  # atno 8008 bound_to 7997
  154.7556  140.0477  157.0952 H   0  0  0  0  0  0  0  0  0  0  0  0  # atno 8009 bound_to 7997
  155.0055  140.3106  155.4853 H   0  0  0  0  0  0  0  0  0  0  0  0  # atno 8010 bound_to 7997
  140.7131  143.5673  150.9130 H   0  0  0  0  0  0  0  0  0  0  0  0  # atno 10167 bound_to 10162
  157.1761  131.0621  151.2157 H   0  0  0  0  0  0  0  0  0  0  0  0  # atno 10718 bound_to 10713
  154.8098  135.4661  154.0487 H   0  0  0  0  0  0  0  0  0  0  0  0  # atno 10763 bound_to 10752
  153.1926  135.6857  153.8339 H   0  0  0  0  0  0  0  0  0  0  0  0  # atno 10764 bound_to 10752
  153.7851  135.3251  155.3348 H   0  0  0  0  0  0  0  0  0  0  0  0  # atno 10765 bound_to 10752
  140.4152  134.1576  155.7669 H   0  0  0  0  0  0  0  0  0  0  0  0  # atno 11005 bound_to 11000
  145.1888  139.2312  143.5254 LP  0  0  0  0  0  0  0  0  0  0  0  0  # atno 17320 bound_to 7965
  146.3486  140.1679  142.8590 LP  0  0  0  0  0  0  0  0  0  0  0  0  # atno 17321 bound_to 7965
  139.9399  143.6394  152.3056 LP  0  0  0  0  0  0  0  0  0  0  0  0  # atno 17342 bound_to 10162
  139.6875  144.7650  151.1498 LP  0  0  0  0  0  0  0  0  0  0  0  0  # atno 17343 bound_to 10162
  157.3997  130.7327  149.6758 LP  0  0  0  0  0  0  0  0  0  0  0  0  # atno 17370 bound_to 10713
  155.9731  130.4124  150.4030 LP  0  0  0  0  0  0  0  0  0  0  0  0  # atno 17371 bound_to 10713
  141.1805  133.8423  157.1272 LP  0  0  0  0  0  0  0  0  0  0  0  0  # atno 17394 bound_to 11000
  140.0239  134.9933  157.0647 LP  0  0  0  0  0  0  0  0  0  0  0  0  # atno 17395 bound_to 11000

$$$$
