AV-unprocessed.smi:218|AV-procd|sdf|1671|dock10
  -GOLD-   2262020 93D 1   1.00000     0.00000
 Structure written by MMmdl.
 54 57  0  0  0  0  0  0  0  0  1 V2000
  151.2782  145.5340  159.6307 C   0  0  0  0  0  0  0  0  0  0  0  0
  151.9109  144.3382  158.9086 C   0  0  0  0  0  0  0  0  0  0  0  0
  151.7541  144.4623  157.3832 C   0  0  0  0  0  0  0  0  0  0  0  0
  151.2449  143.1658  159.3823 O   0  0  0  0  0  0  0  0  0  0  0  0
  151.7723  141.9151  159.1232 C   0  0  0  0  0  0  0  0  0  0  0  0
  151.3863  141.2598  157.9358 C   0  0  0  0  0  0  0  0  0  0  0  0
  151.9111  139.9807  157.6627 C   0  0  0  0  0  0  0  0  0  0  0  0
  151.5303  139.2481  156.3943 C   0  0  0  0  0  0  0  0  0  0  0  0
  150.9383  137.9467  156.6570 N   0  0  0  0  0  0  0  0  0  0  0  0
  149.8396  137.5370  155.9887 C   0  0  0  0  0  0  0  0  0  0  0  0
  148.9672  138.5159  155.6487 N   0  0  0  0  0  0  0  0  0  0  0  0
  147.8481  138.2174  154.9836 C   0  0  0  0  0  0  0  0  0  0  0  0
  147.4184  137.0250  154.5689 N   0  0  0  0  0  0  0  0  0  0  0  0
  148.2908  136.0319  154.9067 C   0  0  0  0  0  0  0  0  0  0  0  0
  149.5166  136.1985  155.6134 C   0  0  0  0  0  0  0  0  0  0  0  0
  150.1238  134.9566  155.7723 N   0  0  0  0  0  0  0  0  0  0  0  0
  149.3064  134.1174  155.1969 C   0  0  0  0  0  0  0  0  0  0  0  0
  148.1820  134.6824  154.6417 N   0  0  0  0  0  0  0  0  0  0  0  0
  147.0693  133.9911  153.9254 C   0  0  1  0  0  0  0  0  0  0  0  0
  147.6329  133.2609  152.8821 O   0  0  0  0  0  0  0  0  0  0  0  0
  146.9353  132.0357  152.7204 C   0  0  2  0  0  0  0  0  0  0  0  0
  145.9006  132.1569  151.5814 C   0  0  0  0  0  0  0  0  0  0  0  0
  146.4924  132.2197  150.3001 O   0  0  0  0  0  0  0  0  0  0  0  0
  146.3781  131.6855  154.1084 C   0  0  1  0  0  0  0  0  0  0  0  0
  147.2664  130.7908  154.7494 O   0  0  0  0  0  0  0  0  0  0  0  0
  146.3271  133.0166  154.8613 C   0  0  2  0  0  0  0  0  0  0  0  0
  144.9810  133.4075  155.0433 O   0  0  0  0  0  0  0  0  0  0  0  0
  152.8065  139.4052  158.5856 C   0  0  0  0  0  0  0  0  0  0  0  0
  153.1325  140.1356  159.7444 C   0  0  0  0  0  0  0  0  0  0  0  0
  152.6313  141.3597  160.0141 N   0  0  0  0  0  0  0  0  0  0  0  0
  146.4384  134.7895  153.5315 H   0  0  0  0  0  0  0  0  0  0  0  0
  147.6666  131.2916  152.4004 H   0  0  0  0  0  0  0  0  0  0  0  0
  145.4066  131.1928  154.0457 H   0  0  0  0  0  0  0  0  0  0  0  0
  146.8131  132.9581  155.8367 H   0  0  0  0  0  0  0  0  0  0  0  0
  151.7468  146.4701  159.3255 H   0  0  0  0  0  0  0  0  0  0  0  0
  151.3941  145.4427  160.7109 H   0  0  0  0  0  0  0  0  0  0  0  0
  150.2118  145.6080  159.4154 H   0  0  0  0  0  0  0  0  0  0  0  0
  152.9689  144.3255  159.1747 H   0  0  0  0  0  0  0  0  0  0  0  0
  152.2294  145.3720  157.0155 H   0  0  0  0  0  0  0  0  0  0  0  0
  150.7023  144.4976  157.0981 H   0  0  0  0  0  0  0  0  0  0  0  0
  152.2101  143.6225  156.8595 H   0  0  0  0  0  0  0  0  0  0  0  0
  150.6999  141.7324  157.2483 H   0  0  0  0  0  0  0  0  0  0  0  0
  150.8295  139.8597  155.8245 H   0  0  0  0  0  0  0  0  0  0  0  0
  152.4268  139.1246  155.7857 H   0  0  0  0  0  0  0  0  0  0  0  0
  151.3790  137.4028  157.3846 H   0  0  0  0  0  0  0  0  0  0  0  0
  147.2058  139.0534  154.7489 H   0  0  0  0  0  0  0  0  0  0  0  0
  149.5052  133.0561  155.1595 H   0  0  0  0  0  0  0  0  0  0  0  0
  145.1940  131.3272  151.6163 H   0  0  0  0  0  0  0  0  0  0  0  0
  145.3206  133.0702  151.7162 H   0  0  0  0  0  0  0  0  0  0  0  0
  147.1201  131.5172  150.2240 H   0  0  0  0  0  0  0  0  0  0  0  0
  146.7651  130.0606  155.0812 H   0  0  0  0  0  0  0  0  0  0  0  0
  144.4226  132.7333  154.6878 H   0  0  0  0  0  0  0  0  0  0  0  0
  153.2360  138.4294  158.4126 H   0  0  0  0  0  0  0  0  0  0  0  0
  153.8149  139.7265  160.4746 H   0  0  0  0  0  0  0  0  0  0  0  0
  1  2  1  0  0  0  0
  1 35  1  0  0  0  0
  1 36  1  0  0  0  0
  1 37  1  0  0  0  0
  2  3  1  0  0  0  0
  2  4  1  0  0  0  0
  2 38  1  0  0  0  0
  3 39  1  0  0  0  0
  3 40  1  0  0  0  0
  3 41  1  0  0  0  0
  4  5  1  0  0  0  0
  5 30  1  0  0  0  0
  5  6  2  0  0  0  0
  6  7  1  0  0  0  0
  6 42  1  0  0  0  0
  7  8  1  0  0  0  0
  7 28  2  0  0  0  0
  8  9  1  0  0  0  0
  8 43  1  0  0  0  0
  8 44  1  0  0  0  0
  9 10  1  0  0  0  0
  9 45  1  0  0  0  0
 10 15  1  0  0  0  0
 10 11  2  0  0  0  0
 11 12  1  0  0  0  0
 12 13  2  0  0  0  0
 12 46  1  0  0  0  0
 13 14  1  0  0  0  0
 14 18  1  0  0  0  0
 14 15  2  0  0  0  0
 15 16  1  0  0  0  0
 16 17  2  0  0  0  0
 17 18  1  0  0  0  0
 17 47  1  0  0  0  0
 18 19  1  0  0  0  0
 19 31  1  0  0  0  0
 19 26  1  0  0  0  0
 19 20  1  0  0  0  0
 20 21  1  0  0  0  0
 21 32  1  0  0  0  0
 21 22  1  0  0  0  0
 21 24  1  0  0  0  0
 22 23  1  0  0  0  0
 22 48  1  0  0  0  0
 22 49  1  0  0  0  0
 23 50  1  0  0  0  0
 24 33  1  0  0  0  0
 24 25  1  0  0  0  0
 24 26  1  0  0  0  0
 25 51  1  0  0  0  0
 26 34  1  0  0  0  0
 26 27  1  0  0  0  0
 27 52  1  0  0  0  0
 28 29  1  0  0  0  0
 28 53  1  0  0  0  0
 29 30  2  0  0  0  0
 29 54  1  0  0  0  0
M  END
> <s_m_source_file>
AV-unprocessed.smi

> <i_m_source_file_index>
218

> <i_lp_mmshare_version>
43012

> <i_f3d_flags>
0

> <s_epik_input>
W0NIM11bQ0hdKFtDSDNdKU9jMVtjSF1jKFtjSF1bY0hdbjEpW0NIMl1bTkhdYyhuW2NIXW4yKWMoYzIzKW5bY0hdbjNbQ0BASF00T1tDQEhdKFtDSDJdW09IXSlbQ0BASF0oW09IXSlbQ0BIXTRbT0hd

> <s_epik_cmdline>
J2VwaWtfcHl0aG9uJywgJy1waCcsICc3LjAnLCAnLXRuJywgJzgnLCAnLW1hJywgJzIwMCcsICctbWV0YWxfYmluZGluZycsICctaW1hZScsICc8aW5maWxlLm1hZT4nLCAnLW9tYWUnLCAnPG91dGZpbGUubWFlPic=

> <r_lp_tautomer_probability>
1

> <r_epik_Ionization_Penalty>
0.00457014

> <r_epik_Ionization_Penalty_Charging>
0

> <r_epik_Ionization_Penalty_Neutral>
0.00457014

> <r_epik_State_Penalty>
-0

> <r_epik_Charging_Adjusted_Penalty>
0

> <i_epik_Tot_Q>
0

> <i_epik_Tot_abs_Q>
0

> <r_epik_Metal_State_Penalty>
-0

> <b_epik_Metal_Only>
0

> <s_epik_Chemistry_Notes>
This compound contains an acetal/aminal-like group ( X-CH(R)-Y where X, Y are N, S, or O) that may be acid/base labile, releasing an aldehyde.

> <s_lp_Force_Field>
OPLS_2005

> <r_lp_Energy>
37.7133

> <b_lp_Chiralities_Consistent>
1

> <s_lp_Variant>
AV-unprocessed.smi:218-10

> <Gold.Version>
5.8.1

> <Gold.Id.Protein>
6NUR|6NUR_protein|mol2

> <Gold.PLP.Fitness>
43.6434

> <Gold.PLP.PLP>
-39.9883

> <Gold.PLP.part.hbond>
-2.0000

> <Gold.PLP.part.metal>
0.0000

> <Gold.PLP.part.buried>
-7.6320

> <Gold.PLP.part.nonpolar>
-31.0586

> <Gold.PLP.part.repulsive>
0.3770

> <Gold.PLP.ligand.clash>
0.0000

> <Gold.PLP.ligand.torsion>
0.8906

> <Gold.PLP.Chemscore.Hbond>
1.7930

> <Gold.PLP.Chemscore.CHOScore>
0.0000

> <Gold.PLP.Chemscore.Metal>
0.0000

> <Gold.Chemscore.Hbonds>
donor molecule, donor type, donor heavy atom, donor atom, acceptor molecule, acceptor atom, score
      L1  H    23    50       P1 10747  1.00
      L1  H    27    52       P1 10957  0.96

> <Gold.PLP.Chemscore.Internal.Correction>
0.0573

> <Gold.Rescore>
     Score         DG    S(hbond)    S(metal)    S(lipo)     H(rot)  DE(clash)    DE(int)     intcor
      8.60      -9.42       1.87        0.00      87.60       4.90       0.00       0.82       ----

> <Gold.Chemscore.Fitness>
8.6013

> <Gold.Chemscore.DG>
-9.4220

> <Gold.Chemscore.ZeroCoef>
-5.4800

> <Gold.Chemscore.Hbond>
1.8695

> <Gold.Chemscore.Metal>
0.0000

> <Gold.Chemscore.Lipo>
87.6014

> <Gold.Chemscore.Internal_Hbond>
0.0000

> <Gold.Chemscore.DEClash>
0.0000

> <Gold.Chemscore.DEInternal>
0.8207

> <Gold.Chemscore.Rot>
4.9029

> <Gold.Chemscore.Internal.Correction>
   9.000000E+99

> <Gold.Chemscore.Hbonds>
donor molecule, donor type, donor heavy atom, donor atom, acceptor molecule, acceptor atom, score
      L1  H    23    50       P1 10747  0.94
      L1  H    27    52       P1 10957  0.87

> <Gold.Chemscore.Hbond.Weighted>
-6.2442

> <Gold.Chemscore.Metal.Weighted>
-0.0000

> <Gold.Chemscore.Lipo.Weighted>
-10.2494

> <Gold.Chemscore.Internal_Hbond.Weighted>
0.0000

> <Gold.Chemscore.DEClash.Weighted>
0.0000

> <Gold.Chemscore.DEInternal.Weighted>
0.8207

> <Gold.Chemscore.Rot.Weighted>
12.5515

> <Gold.Chemscore.Internal.Correction.Weighted>
   9.000000E+99

> <Gold.Protein.RotatedTorsions>
[ 6907 6896 6895 6894 ] final   71.57 input  -60.11 | X-H torsion
[ 7974 7965 7964 7962 ] final  -43.15 input  175.53 | X-H torsion
[ 8008 7997 7996 7995 ] final  -11.57 input   59.86 | X-H torsion
[ 10167 10162 10161 10158 ] final  -91.81 input  -65.29 | X-H torsion
[ 10718 10713 10712 10709 ] final    8.39 input   66.30 | X-H torsion
[ 10763 10752 10751 10750 ] final -129.37 input  -60.55 | X-H torsion
[ 11005 11000 10999 10996 ] final  146.28 input  -57.11 | X-H torsion

> <Gold.Protein.ActiveResidues>
 VAL166  LYS551  ARG553  GLY616  TRP617  ASP618  TYR619  PRO620  LYS621  CYS622 
 ASP623  PHE694  ASN695  SER759  ASP760  ASP761  ALA762  ILE779  LEU786  VAL792 
 PHE793  MET794  SER795  GLU796  ALA797  LYS798  CYS799  TRP800  GLU811  SER814 

> <Gold.Protein.RotatedAtoms>
  152.4818  134.4700  159.9632 H   0  0  0  0  0  0  0  0  0  0  0  0  # atno 6907 bound_to 6896
  151.4704  133.3564  159.2830 H   0  0  0  0  0  0  0  0  0  0  0  0  # atno 6908 bound_to 6896
  150.8896  134.8324  159.7344 H   0  0  0  0  0  0  0  0  0  0  0  0  # atno 6909 bound_to 6896
  146.0047  140.7034  142.9253 H   0  0  0  0  0  0  0  0  0  0  0  0  # atno 7974 bound_to 7965
  154.5453  140.2299  155.8574 H   0  0  0  0  0  0  0  0  0  0  0  0  # atno 8008 bound_to 7997
  156.1897  140.3080  155.9269 H   0  0  0  0  0  0  0  0  0  0  0  0  # atno 8009 bound_to 7997
  155.3177  140.0439  157.3028 H   0  0  0  0  0  0  0  0  0  0  0  0  # atno 8010 bound_to 7997
  140.3412  143.2941  151.9833 H   0  0  0  0  0  0  0  0  0  0  0  0  # atno 10167 bound_to 10162
  156.9510  130.5897  149.5656 H   0  0  0  0  0  0  0  0  0  0  0  0  # atno 10718 bound_to 10713
  154.8757  135.3898  154.3908 H   0  0  0  0  0  0  0  0  0  0  0  0  # atno 10763 bound_to 10752
  153.4644  135.7029  153.6036 H   0  0  0  0  0  0  0  0  0  0  0  0  # atno 10764 bound_to 10752
  153.4520  135.3831  155.2258 H   0  0  0  0  0  0  0  0  0  0  0  0  # atno 10765 bound_to 10752
  140.0780  134.9113  157.1454 H   0  0  0  0  0  0  0  0  0  0  0  0  # atno 11005 bound_to 11000
  144.6931  140.3294  143.7218 LP  0  0  0  0  0  0  0  0  0  0  0  0  # atno 17320 bound_to 7965
  145.7434  139.1771  143.2363 LP  0  0  0  0  0  0  0  0  0  0  0  0  # atno 17321 bound_to 7965
  139.4840  144.6155  151.7354 LP  0  0  0  0  0  0  0  0  0  0  0  0  # atno 17342 bound_to 10162
  140.5307  144.0734  150.6053 LP  0  0  0  0  0  0  0  0  0  0  0  0  # atno 17343 bound_to 10162
  156.0363  130.5450  150.8661 LP  0  0  0  0  0  0  0  0  0  0  0  0  # atno 17370 bound_to 10713
  157.5722  131.0946  150.9400 LP  0  0  0  0  0  0  0  0  0  0  0  0  # atno 17371 bound_to 10713
  140.3529  134.2578  155.7196 LP  0  0  0  0  0  0  0  0  0  0  0  0  # atno 17394 bound_to 11000
  141.2036  133.7907  157.0329 LP  0  0  0  0  0  0  0  0  0  0  0  0  # atno 17395 bound_to 11000

$$$$
