AV-unprocessed.smi:3100|AV-procd|sdf|11806|dock1
  -GOLD-   2272017183D 1   1.00000     0.00000
 Structure written by MMmdl.
 28 29  0  0  0  0  0  0  0  0  1 V2000
  151.5761  144.6793  158.5061 C   0  0  0  0  0  0  0  0  0  0  0  0
  151.9189  143.5150  159.4410 C   0  0  2  0  0  0  0  0  0  0  0  0
  153.4062  143.1872  159.5092 C   0  0  0  0  0  0  0  0  0  0  0  0
  153.3851  141.7695  160.0440 C   0  0  0  0  0  0  0  0  0  0  0  0
  152.0671  141.1949  159.4932 C   0  0  2  0  0  0  0  0  0  0  0  0
  152.2559  140.1716  158.3671 C   0  0  0  0  0  0  0  0  0  0  0  0
  153.2338  139.4229  158.3778 O   0  0  0  0  0  0  0  0  0  0  0  0
  151.3097  140.1779  157.4101 N   0  0  0  0  0  0  0  0  0  0  0  0
  151.2285  139.3610  156.2517 C   0  0  0  0  0  0  0  0  0  0  0  0
  151.9410  138.1397  156.3099 C   0  0  0  0  0  0  0  0  0  0  0  0
  151.9578  137.2555  155.2877 N   0  0  0  0  0  0  0  0  0  0  0  0
  151.2512  137.5914  154.1871 C   0  0  0  0  0  0  0  0  0  0  0  0
  150.5353  138.8029  154.1115 C   0  0  0  0  0  0  0  0  0  0  0  0
  150.5238  139.6828  155.1365 N   0  0  0  0  0  0  0  0  0  0  0  0
  151.3469  142.3067  158.9629 O   0  0  0  0  0  0  0  0  0  0  0  0
  152.0361  145.6057  158.8505 H   0  0  0  0  0  0  0  0  0  0  0  0
  150.4985  144.8379  158.4619 H   0  0  0  0  0  0  0  0  0  0  0  0
  151.9262  144.4874  157.4913 H   0  0  0  0  0  0  0  0  0  0  0  0
  151.5347  143.7100  160.4438 H   0  0  0  0  0  0  0  0  0  0  0  0
  153.8473  143.2018  158.5112 H   0  0  0  0  0  0  0  0  0  0  0  0
  153.9671  143.8749  160.1427 H   0  0  0  0  0  0  0  0  0  0  0  0
  154.2739  141.2072  159.7536 H   0  0  0  0  0  0  0  0  0  0  0  0
  153.3513  141.7835  161.1341 H   0  0  0  0  0  0  0  0  0  0  0  0
  151.4912  140.7549  160.3093 H   0  0  0  0  0  0  0  0  0  0  0  0
  150.5614  140.8455  157.5259 H   0  0  0  0  0  0  0  0  0  0  0  0
  152.5073  137.8656  157.1883 H   0  0  0  0  0  0  0  0  0  0  0  0
  151.2567  136.8921  153.3643 H   0  0  0  0  0  0  0  0  0  0  0  0
  149.9716  139.0666  153.2289 H   0  0  0  0  0  0  0  0  0  0  0  0
  1  2  1  0  0  0  0
  1 16  1  0  0  0  0
  1 17  1  0  0  0  0
  1 18  1  0  0  0  0
  2 15  1  0  0  0  0
  2  3  1  0  0  0  0
  2 19  1  0  0  0  0
  3  4  1  0  0  0  0
  3 20  1  0  0  0  0
  3 21  1  0  0  0  0
  4  5  1  0  0  0  0
  4 22  1  0  0  0  0
  4 23  1  0  0  0  0
  5  6  1  0  0  0  0
  5 15  1  0  0  0  0
  5 24  1  0  0  0  0
  6  7  2  0  0  0  0
  6  8  1  0  0  0  0
  8  9  1  0  0  0  0
  8 25  1  0  0  0  0
  9 14  1  0  0  0  0
  9 10  2  0  0  0  0
 10 11  1  0  0  0  0
 10 26  1  0  0  0  0
 11 12  2  0  0  0  0
 12 13  1  0  0  0  0
 12 27  1  0  0  0  0
 13 14  2  0  0  0  0
 13 28  1  0  0  0  0
M  END
> <s_m_source_file>
AV-unprocessed.smi

> <i_m_source_file_index>
3100

> <i_lp_mmshare_version>
43012

> <i_f3d_flags>
0

> <s_epik_input>
W0NIM11bQ0BASF0xW0NIMl1bQ0gyXVtDQEhdKE8xKUMoPU8pW05IXWMyW2NIXW5bY0hdW2NIXW4y

> <s_epik_cmdline>
J2VwaWtfcHl0aG9uJywgJy1waCcsICc3LjAnLCAnLXRuJywgJzgnLCAnLW1hJywgJzIwMCcsICctbWV0YWxfYmluZGluZycsICctaW1hZScsICc8aW5maWxlLm1hZT4nLCAnLW9tYWUnLCAnPG91dGZpbGUubWFlPic=

> <r_lp_tautomer_probability>
1

> <r_epik_Ionization_Penalty>
2.81186e-06

> <r_epik_Ionization_Penalty_Charging>
0

> <r_epik_Ionization_Penalty_Neutral>
2.81186e-06

> <r_epik_State_Penalty>
-0

> <r_epik_Charging_Adjusted_Penalty>
0

> <i_epik_Tot_Q>
0

> <i_epik_Tot_abs_Q>
0

> <r_epik_Metal_State_Penalty>
-0

> <b_epik_Metal_Only>
0

> <s_lp_Force_Field>
OPLS_2005

> <r_lp_Energy>
25.9651

> <b_lp_Chiralities_Consistent>
1

> <s_lp_Variant>
AV-unprocessed.smi:3100-3

> <Gold.Version>
5.8.1

> <Gold.Id.Protein>
6NUR|6NUR_protein|mol2

> <Gold.PLP.Fitness>
40.3384

> <Gold.PLP.PLP>
-30.2447

> <Gold.PLP.part.hbond>
-2.0032

> <Gold.PLP.part.metal>
0.0000

> <Gold.PLP.part.buried>
-4.0981

> <Gold.PLP.part.nonpolar>
-25.5492

> <Gold.PLP.part.repulsive>
0.1735

> <Gold.PLP.ligand.clash>
0.0000

> <Gold.PLP.ligand.torsion>
0.8366

> <Gold.PLP.Chemscore.Hbond>
1.9199

> <Gold.PLP.Chemscore.CHOScore>
2.0000

> <Gold.PLP.Chemscore.Metal>
0.0000

> <Gold.Chemscore.Hbonds>
donor molecule, donor type, donor heavy atom, donor atom, acceptor molecule, acceptor atom, score
      P1  H  7997  8009       L1     7  1.00
      P1  H 10752 10764       L1    11  0.90
      L1  C    12    27       P1  7949  1.00
      L1  C    13    28       P1  7957  1.00

> <Gold.PLP.Chemscore.Internal.Correction>
0.0073

> <Gold.Rescore>
     Score         DG    S(hbond)    S(metal)    S(lipo)     H(rot)  DE(clash)    DE(int)     intcor
     15.47     -17.77       1.78        0.00      76.13       1.00       0.03       2.27       ----

> <Gold.Chemscore.Fitness>
15.4691

> <Gold.Chemscore.DG>
-17.7671

> <Gold.Chemscore.ZeroCoef>
-5.4800

> <Gold.Chemscore.Hbond>
1.7785

> <Gold.Chemscore.Metal>
0.0000

> <Gold.Chemscore.Lipo>
76.1288

> <Gold.Chemscore.Internal_Hbond>
0.0000

> <Gold.Chemscore.DEClash>
0.0310

> <Gold.Chemscore.DEInternal>
2.2671

> <Gold.Chemscore.Rot>
1.0000

> <Gold.Chemscore.Internal.Correction>
   9.000000E+99

> <Gold.Chemscore.Hbonds>
donor molecule, donor type, donor heavy atom, donor atom, acceptor molecule, acceptor atom, score
      P1  H  7997  8009       L1     7  0.75
      P1  H 10752 10764       L1    11  0.33

> <Gold.Chemscore.Hbond.Weighted>
-5.9401

> <Gold.Chemscore.Metal.Weighted>
-0.0000

> <Gold.Chemscore.Lipo.Weighted>
-8.9071

> <Gold.Chemscore.Internal_Hbond.Weighted>
0.0000

> <Gold.Chemscore.DEClash.Weighted>
0.0310

> <Gold.Chemscore.DEInternal.Weighted>
2.2671

> <Gold.Chemscore.Rot.Weighted>
2.5600

> <Gold.Chemscore.Internal.Correction.Weighted>
   9.000000E+99

> <Gold.Protein.RotatedTorsions>
[ 6907 6896 6895 6894 ] final -112.96 input  -60.11 | X-H torsion
[ 7974 7965 7964 7962 ] final -116.95 input  175.53 | X-H torsion
[ 8008 7997 7996 7995 ] final  150.67 input   59.86 | X-H torsion
[ 10167 10162 10161 10158 ] final -133.52 input  -65.29 | X-H torsion
[ 10718 10713 10712 10709 ] final   80.18 input   66.30 | X-H torsion
[ 10763 10752 10751 10750 ] final  -53.94 input  -60.55 | X-H torsion
[ 11005 11000 10999 10996 ] final  151.60 input  -57.11 | X-H torsion

> <Gold.Protein.ActiveResidues>
 VAL166  LYS551  ARG553  GLY616  TRP617  ASP618  TYR619  PRO620  LYS621  CYS622 
 ASP623  PHE694  ASN695  SER759  ASP760  ASP761  ALA762  ILE779  LEU786  VAL792 
 PHE793  MET794  SER795  GLU796  ALA797  LYS798  CYS799  TRP800  GLU811  SER814 

> <Gold.Protein.RotatedAtoms>
  150.7795  133.9014  159.3342 H   0  0  0  0  0  0  0  0  0  0  0  0  # atno 6907 bound_to 6896
  151.6880  135.0949  160.0238 H   0  0  0  0  0  0  0  0  0  0  0  0  # atno 6908 bound_to 6896
  152.3842  133.6549  159.6221 H   0  0  0  0  0  0  0  0  0  0  0  0  # atno 6909 bound_to 6896
  145.0909  140.8489  143.3983 H   0  0  0  0  0  0  0  0  0  0  0  0  # atno 7974 bound_to 7965
  156.2706  140.2068  156.6054 H   0  0  0  0  0  0  0  0  0  0  0  0  # atno 8008 bound_to 7997
  154.6873  140.0534  157.0351 H   0  0  0  0  0  0  0  0  0  0  0  0  # atno 8009 bound_to 7997
  155.0915  140.3197  155.4575 H   0  0  0  0  0  0  0  0  0  0  0  0  # atno 8010 bound_to 7997
  139.8974  143.6649  152.2601 H   0  0  0  0  0  0  0  0  0  0  0  0  # atno 10167 bound_to 10162
  157.6799  130.9948  150.2041 H   0  0  0  0  0  0  0  0  0  0  0  0  # atno 10718 bound_to 10713
  154.1668  135.6465  153.4999 H   0  0  0  0  0  0  0  0  0  0  0  0  # atno 10763 bound_to 10752
  153.0095  135.5374  154.6653 H   0  0  0  0  0  0  0  0  0  0  0  0  # atno 10764 bound_to 10752
  154.5982  135.2941  155.0535 H   0  0  0  0  0  0  0  0  0  0  0  0  # atno 10765 bound_to 10752
  140.1233  134.8849  157.2103 H   0  0  0  0  0  0  0  0  0  0  0  0  # atno 11005 bound_to 11000
  145.1067  139.2785  143.5658 LP  0  0  0  0  0  0  0  0  0  0  0  0  # atno 17320 bound_to 7965
  146.3531  140.0651  142.8627 LP  0  0  0  0  0  0  0  0  0  0  0  0  # atno 17321 bound_to 7965
  139.7055  144.7628  151.1200 LP  0  0  0  0  0  0  0  0  0  0  0  0  # atno 17342 bound_to 10162
  140.7714  143.5400  150.9324 LP  0  0  0  0  0  0  0  0  0  0  0  0  # atno 17343 bound_to 10162
  156.2726  130.3723  149.8016 LP  0  0  0  0  0  0  0  0  0  0  0  0  # atno 17370 bound_to 10713
  156.5728  130.8432  151.3361 LP  0  0  0  0  0  0  0  0  0  0  0  0  # atno 17371 bound_to 10713
  140.2936  134.3212  155.7308 LP  0  0  0  0  0  0  0  0  0  0  0  0  # atno 17394 bound_to 11000
  141.2156  133.7549  156.9539 LP  0  0  0  0  0  0  0  0  0  0  0  0  # atno 17395 bound_to 11000

$$$$
