AV-unprocessed.smi:3295|AV-procd|sdf|12635|dock5
  -GOLD-   2272018573D 1   1.00000     0.00000
 Structure written by MMmdl.
 37 38  0  0  0  0  0  0  0  0  1 V2000
  147.7322  133.1914  152.3256 C   0  0  0  0  0  0  0  0  0  0  0  0
  146.2791  133.1758  151.8838 C   0  0  0  0  0  0  0  0  0  0  0  0
  145.5942  131.9475  151.7636 C   0  0  0  0  0  0  0  0  0  0  0  0
  144.3044  131.8462  151.3823 N   0  0  0  0  0  0  0  0  0  0  0  0
  143.6394  132.9868  151.1078 C   0  0  0  0  0  0  0  0  0  0  0  0
  144.2235  134.2656  151.1939 C   0  0  0  0  0  0  0  0  0  0  0  0
  145.5822  134.3709  151.5794 C   0  0  0  0  0  0  0  0  0  0  0  0
  146.2658  135.6132  151.7147 N   0  0  0  0  0  0  0  0  0  0  0  0
  145.7742  136.8176  152.0546 C   0  0  0  0  0  0  0  0  0  0  0  0
  144.5971  137.0603  152.3198 O   0  0  0  0  0  0  0  0  0  0  0  0
  146.7391  137.7479  152.0529 N   0  0  0  0  0  0  0  0  0  0  0  0
  146.5540  139.1564  152.3918 C   0  0  0  0  0  0  0  0  0  0  0  0
  147.5028  139.6423  153.5180 C   0  0  0  0  0  0  0  0  0  0  0  0
  148.7505  138.9952  153.3606 O   0  0  0  0  0  0  0  0  0  0  0  0
  147.6708  141.1679  153.6067 C   0  0  0  0  0  0  0  0  0  0  0  0
  146.4494  141.6508  154.3952 C   0  0  0  0  0  0  0  0  0  0  0  0
  146.0260  140.4705  155.2835 C   0  0  0  0  0  0  0  0  0  0  0  0
  146.9373  139.2947  154.9027 C   0  0  0  0  0  0  0  0  0  0  0  0
  148.1035  132.1815  152.5019 H   0  0  0  0  0  0  0  0  0  0  0  0
  147.8430  133.7573  153.2508 H   0  0  0  0  0  0  0  0  0  0  0  0
  148.3578  133.6521  151.5607 H   0  0  0  0  0  0  0  0  0  0  0  0
  146.0941  131.0150  151.9808 H   0  0  0  0  0  0  0  0  0  0  0  0
  142.6053  132.8781  150.8159 H   0  0  0  0  0  0  0  0  0  0  0  0
  143.6170  135.1309  150.9766 H   0  0  0  0  0  0  0  0  0  0  0  0
  147.2411  135.5948  151.4558 H   0  0  0  0  0  0  0  0  0  0  0  0
  147.6767  137.4599  151.8154 H   0  0  0  0  0  0  0  0  0  0  0  0
  146.7563  139.7146  151.4773 H   0  0  0  0  0  0  0  0  0  0  0  0
  145.5131  139.3709  152.6411 H   0  0  0  0  0  0  0  0  0  0  0  0
  149.2452  139.4515  152.6973 H   0  0  0  0  0  0  0  0  0  0  0  0
  148.5691  141.4042  154.1796 H   0  0  0  0  0  0  0  0  0  0  0  0
  147.7741  141.6650  152.6421 H   0  0  0  0  0  0  0  0  0  0  0  0
  146.6713  142.5460  154.9769 H   0  0  0  0  0  0  0  0  0  0  0  0
  145.6403  141.9004  153.7078 H   0  0  0  0  0  0  0  0  0  0  0  0
  146.1185  140.7092  156.3435 H   0  0  0  0  0  0  0  0  0  0  0  0
  144.9810  140.2206  155.0969 H   0  0  0  0  0  0  0  0  0  0  0  0
  146.4170  138.3363  154.9224 H   0  0  0  0  0  0  0  0  0  0  0  0
  147.7466  139.2348  155.6326 H   0  0  0  0  0  0  0  0  0  0  0  0
  1  2  1  0  0  0  0
  1 19  1  0  0  0  0
  1 20  1  0  0  0  0
  1 21  1  0  0  0  0
  2  7  1  0  0  0  0
  2  3  2  0  0  0  0
  3  4  1  0  0  0  0
  3 22  1  0  0  0  0
  4  5  2  0  0  0  0
  5  6  1  0  0  0  0
  5 23  1  0  0  0  0
  6  7  2  0  0  0  0
  6 24  1  0  0  0  0
  7  8  1  0  0  0  0
  8  9  1  0  0  0  0
  8 25  1  0  0  0  0
  9 10  2  0  0  0  0
  9 11  1  0  0  0  0
 11 12  1  0  0  0  0
 11 26  1  0  0  0  0
 12 13  1  0  0  0  0
 12 27  1  0  0  0  0
 12 28  1  0  0  0  0
 13 18  1  0  0  0  0
 13 14  1  0  0  0  0
 13 15  1  0  0  0  0
 14 29  1  0  0  0  0
 15 16  1  0  0  0  0
 15 30  1  0  0  0  0
 15 31  1  0  0  0  0
 16 17  1  0  0  0  0
 16 32  1  0  0  0  0
 16 33  1  0  0  0  0
 17 18  1  0  0  0  0
 17 34  1  0  0  0  0
 17 35  1  0  0  0  0
 18 36  1  0  0  0  0
 18 37  1  0  0  0  0
M  END
> <s_m_source_file>
AV-unprocessed.smi

> <i_m_source_file_index>
3295

> <i_lp_mmshare_version>
43012

> <i_f3d_flags>
0

> <s_epik_input>
W0NIM11jMVtjSF1uW2NIXVtjSF1jMVtOSF1DKD1PKVtOSF1bQ0gyXUMyKFtPSF0pW0NIMl1bQ0gyXVtDSDJdW0NIMl0y

> <s_epik_cmdline>
J2VwaWtfcHl0aG9uJywgJy1waCcsICc3LjAnLCAnLXRuJywgJzgnLCAnLW1hJywgJzIwMCcsICctbWV0YWxfYmluZGluZycsICctaW1hZScsICc8aW5maWxlLm1hZT4nLCAnLW9tYWUnLCAnPG91dGZpbGUubWFlPic=

> <r_epik_Ionization_Penalty>
0.224243

> <r_epik_Ionization_Penalty_Charging>
0

> <r_epik_Ionization_Penalty_Neutral>
0.224243

> <r_epik_State_Penalty>
0.214648

> <r_epik_Charging_Adjusted_Penalty>
0.214648

> <i_epik_Tot_Q>
0

> <i_epik_Tot_abs_Q>
0

> <r_epik_Metal_State_Penalty>
0.155078

> <b_epik_Metal_Only>
0

> <s_lp_Force_Field>
OPLS_2005

> <r_lp_Energy>
30.8814

> <b_lp_Chiralities_Consistent>
1

> <s_lp_Variant>
AV-unprocessed.smi:3295-1

> <Gold.Version>
5.8.1

> <Gold.Id.Protein>
6NUR|6NUR_protein|mol2

> <Gold.PLP.Fitness>
41.6947

> <Gold.PLP.PLP>
-30.9359

> <Gold.PLP.part.hbond>
-3.7403

> <Gold.PLP.part.metal>
0.0000

> <Gold.PLP.part.buried>
-4.5912

> <Gold.PLP.part.nonpolar>
-24.5348

> <Gold.PLP.part.repulsive>
1.3426

> <Gold.PLP.ligand.clash>
0.0000

> <Gold.PLP.ligand.torsion>
0.5400

> <Gold.PLP.Chemscore.Hbond>
2.9440

> <Gold.PLP.Chemscore.CHOScore>
0.9990

> <Gold.PLP.Chemscore.Metal>
0.0000

> <Gold.Chemscore.Hbonds>
donor molecule, donor type, donor heavy atom, donor atom, acceptor molecule, acceptor atom, score
      L1  H     8    25       P1  7948  0.94
      L1  H    11    26       P1  7948  1.00
      L1  H    14    29       P1  7957  1.00
      L1  C     5    23       P1 10186  0.95

> <Gold.PLP.Chemscore.Internal.Correction>
0.0097

> <Gold.Rescore>
     Score         DG    S(hbond)    S(metal)    S(lipo)     H(rot)  DE(clash)    DE(int)     intcor
     17.84     -18.54       2.84        0.00      67.94       1.71       0.14       0.56       ----

> <Gold.Chemscore.Fitness>
17.8421

> <Gold.Chemscore.DG>
-18.5365

> <Gold.Chemscore.ZeroCoef>
-5.4800

> <Gold.Chemscore.Hbond>
2.8402

> <Gold.Chemscore.Metal>
0.0000

> <Gold.Chemscore.Lipo>
67.9370

> <Gold.Chemscore.Internal_Hbond>
0.0000

> <Gold.Chemscore.DEClash>
0.1390

> <Gold.Chemscore.DEInternal>
0.5554

> <Gold.Chemscore.Rot>
1.7103

> <Gold.Chemscore.Internal.Correction>
   9.000000E+99

> <Gold.Chemscore.Hbonds>
donor molecule, donor type, donor heavy atom, donor atom, acceptor molecule, acceptor atom, score
      L1  H     8    25       P1  7948  0.89
      L1  H    11    26       P1  7948  0.95
      L1  H    14    29       P1  7957  0.99

> <Gold.Chemscore.Hbond.Weighted>
-9.4864

> <Gold.Chemscore.Metal.Weighted>
-0.0000

> <Gold.Chemscore.Lipo.Weighted>
-7.9486

> <Gold.Chemscore.Internal_Hbond.Weighted>
0.0000

> <Gold.Chemscore.DEClash.Weighted>
0.1390

> <Gold.Chemscore.DEInternal.Weighted>
0.5554

> <Gold.Chemscore.Rot.Weighted>
4.3785

> <Gold.Chemscore.Internal.Correction.Weighted>
   9.000000E+99

> <Gold.Protein.RotatedTorsions>
[ 6907 6896 6895 6894 ] final   62.05 input  -60.11 | X-H torsion
[ 7974 7965 7964 7962 ] final   80.59 input  175.53 | X-H torsion
[ 8008 7997 7996 7995 ] final -114.96 input   59.86 | X-H torsion
[ 10167 10162 10161 10158 ] final  -14.26 input  -65.29 | X-H torsion
[ 10718 10713 10712 10709 ] final   91.18 input   66.30 | X-H torsion
[ 10763 10752 10751 10750 ] final  -83.69 input  -60.55 | X-H torsion
[ 11005 11000 10999 10996 ] final   27.70 input  -57.11 | X-H torsion

> <Gold.Protein.ActiveResidues>
 VAL166  LYS551  ARG553  GLY616  TRP617  ASP618  TYR619  PRO620  LYS621  CYS622 
 ASP623  PHE694  ASN695  SER759  ASP760  ASP761  ALA762  ILE779  LEU786  VAL792 
 PHE793  MET794  SER795  GLU796  ALA797  LYS798  CYS799  TRP800  GLU811  SER814 

> <Gold.Protein.RotatedAtoms>
  152.4140  134.6075  160.0016 H   0  0  0  0  0  0  0  0  0  0  0  0  # atno 6907 bound_to 6896
  151.6244  133.3331  159.3103 H   0  0  0  0  0  0  0  0  0  0  0  0  # atno 6908 bound_to 6896
  150.8029  134.7174  159.6683 H   0  0  0  0  0  0  0  0  0  0  0  0  # atno 6909 bound_to 6896
  145.6492  139.2443  143.1986 H   0  0  0  0  0  0  0  0  0  0  0  0  # atno 7974 bound_to 7965
  155.0446  140.0392  157.2522 H   0  0  0  0  0  0  0  0  0  0  0  0  # atno 8008 bound_to 7997
  154.7188  140.2707  155.6536 H   0  0  0  0  0  0  0  0  0  0  0  0  # atno 8009 bound_to 7997
  156.2811  140.2707  156.1853 H   0  0  0  0  0  0  0  0  0  0  0  0  # atno 8010 bound_to 7997
  140.7198  143.5340  150.9486 H   0  0  0  0  0  0  0  0  0  0  0  0  # atno 10167 bound_to 10162
  157.6960  131.0398  150.3691 H   0  0  0  0  0  0  0  0  0  0  0  0  # atno 10718 bound_to 10713
  154.5907  135.5547  153.7275 H   0  0  0  0  0  0  0  0  0  0  0  0  # atno 10763 bound_to 10752
  153.0115  135.6342  154.1853 H   0  0  0  0  0  0  0  0  0  0  0  0  # atno 10764 bound_to 10752
  154.1794  135.2888  155.3036 H   0  0  0  0  0  0  0  0  0  0  0  0  # atno 10765 bound_to 10752
  140.3235  134.2517  155.7713 H   0  0  0  0  0  0  0  0  0  0  0  0  # atno 11005 bound_to 11000
  146.1217  140.7300  142.9454 LP  0  0  0  0  0  0  0  0  0  0  0  0  # atno 17320 bound_to 7965
  144.7129  140.4103  143.7067 LP  0  0  0  0  0  0  0  0  0  0  0  0  # atno 17321 bound_to 7965
  139.9061  143.6777  152.3123 LP  0  0  0  0  0  0  0  0  0  0  0  0  # atno 17342 bound_to 10162
  139.7143  144.7614  151.1059 LP  0  0  0  0  0  0  0  0  0  0  0  0  # atno 17343 bound_to 10162
  156.4118  130.3935  149.6886 LP  0  0  0  0  0  0  0  0  0  0  0  0  # atno 17370 bound_to 10713
  156.4168  130.7749  151.2764 LP  0  0  0  0  0  0  0  0  0  0  0  0  # atno 17371 bound_to 10713
  141.2081  133.7787  157.0080 LP  0  0  0  0  0  0  0  0  0  0  0  0  # atno 17394 bound_to 11000
  140.0922  134.9586  157.1793 LP  0  0  0  0  0  0  0  0  0  0  0  0  # atno 17395 bound_to 11000

$$$$
