#       Name:                AV-unprocessed.smi:2032
#       Creating user name   scv26
#       Creation time:       Fri Mar 27 10:52:27 2020


#       File generated by GOLD software.
#

@<TRIPOS>MOLECULE
AV-unprocessed.smi:2032
    48    49     1
SMALL
NO_CHARGES


@<TRIPOS>ATOM
      1 ****        -3.1097  -1.8292  -1.5540 C.3            1 S1                 0.0000
      2 ****        -2.3179  -1.1276  -0.4451 C.3            1 S1                 0.0000
      3 ****        -2.5135   0.4034  -0.4764 C.3            1 S1                 0.0000
      4 ****        -1.7917   1.0638   0.6463 N.4            1 S1                 1.0000
      5 ****        -0.2959   1.1327   0.5074 C.3            1 S1                 0.0000
      6 ****         0.3615   1.8222   1.7280 C.3            1 S1                 0.0000
      7 ****         0.1362   1.8525  -0.8013 C.3            1 S1                 0.0000
      8 ****         1.5854   1.9003  -0.9726 N.am           1 S1                 0.0000
      9 ****         2.3644   0.8643  -1.3158 C.2            1 S1                 0.0000
     10 ****         1.8575  -0.2385  -1.5356 O.2            1 S1                 0.0000
     11 ****         3.6799   1.1685  -1.3736 N.pl3          1 S1                -1.0000
     12 ****         4.5752   0.2165  -1.6829 C.2            1 S1                 0.0000
     13 ****         5.0959   0.0739  -2.9069 N.2            1 S1                 0.0000
     14 ****         6.0100  -0.9771  -3.0022 C.2            1 S1                 0.0000
     15 ****         6.1956  -1.6449  -1.8208 C.2            1 S1                 0.0000
     16 ****         5.2229  -0.9690  -0.5456 S.3            1 S1                 0.0000
     17 ****        -2.2897   0.4671   1.9163 C.3            1 S1                 0.0000
     18 ****        -2.0982  -1.0653   1.9259 C.3            1 S1                 0.0000
     19 ****        -2.6674  -1.7068   3.1962 C.3            1 S1                 0.0000
     20 ****        -2.7815  -1.6246   0.8075 O.3            1 S1                 0.0000
     21 ****        -2.7887  -1.4904  -2.5394 H              1 S1                 0.0000
     22 ****        -4.1781  -1.6313  -1.4633 H              1 S1                 0.0000
     23 ****        -2.9661  -2.9092  -1.5123 H              1 S1                 0.0000
     24 ****        -1.2643  -1.3812  -0.5685 H              1 S1                 0.0000
     25 ****        -2.2526   0.8159  -1.4475 H              1 S1                 0.0000
     26 ****        -3.5764   0.6238  -0.3649 H              1 S1                 0.0000
     27 ****         0.0908   0.1152   0.4708 H              1 S1                 0.0000
     28 ****         1.4336   1.9615   1.5928 H              1 S1                 0.0000
     29 ****         0.2663   1.2312   2.6379 H              1 S1                 0.0000
     30 ****        -0.0740   2.8050   1.9101 H              1 S1                 0.0000
     31 ****        -0.2620   1.3711  -1.6925 H              1 S1                 0.0000
     32 ****        -0.2406   2.8755  -0.8065 H              1 S1                 0.0000
     33 ****         2.0394   2.7868  -0.8071 H              1 S1                 0.0000
     34 ****         6.4836  -1.1783  -3.9515 H              1 S1                 0.0000
     35 ****         6.8421  -2.4863  -1.6229 H              1 S1                 0.0000
     36 ****        -1.8473   0.9288   2.7964 H              1 S1                 0.0000
     37 ****        -3.3547   0.6905   1.9963 H              1 S1                 0.0000
     38 ****        -1.0388  -1.3170   1.8636 H              1 S1                 0.0000
     39 ****        -2.1658  -1.3261   4.0863 H              1 S1                 0.0000
     40 ****        -2.5356  -2.7890   3.1790 H              1 S1                 0.0000
     41 ****        -3.7336  -1.5029   3.2994 H              1 S1                 0.0000
     42 ****        -2.0980   2.0261   0.6500 H              1 S1                 0.0000
     43 ****         0.8678  -0.3584  -1.4577 LP             1 S1                 0.0000
     44 ****         2.4363  -1.0128  -1.7917 LP             1 S1                 0.0000
     45 ****         3.9864   2.1017  -1.1862 LP             1 S1                 0.0000
     46 ****         4.8541   0.6625  -3.6783 LP             1 S1                 0.0000
     47 ****        -2.6542  -2.6164   0.8218 LP             1 S1                 0.0000
     48 ****        -3.7550  -1.4123   0.8921 LP             1 S1                 0.0000
@<TRIPOS>BOND
    1    1    2 1     
    2    1   21 1     
    3    1   22 1     
    4    1   23 1     
    5    2   20 1     
    6    2    3 1     
    7    2   24 1     
    8    3    4 1     
    9    3   25 1     
   10    3   26 1     
   11    4    5 1     
   12    4   17 1     
   13    4   42 1     
   14    5    6 1     
   15    5    7 1     
   16    5   27 1     
   17    6   28 1     
   18    6   29 1     
   19    6   30 1     
   20    7    8 1     
   21    7   31 1     
   22    7   32 1     
   23    8    9 am    
   24    8   33 1     
   25    9   10 2     
   26    9   11 1     
   27   11   12 1     
   28   12   16 1     
   29   12   13 2     
   30   13   14 1     
   31   14   15 2     
   32   14   34 1     
   33   15   16 1     
   34   15   35 1     
   35   17   18 1     
   36   17   36 1     
   37   17   37 1     
   38   18   19 1     
   39   18   20 1     
   40   18   38 1     
   41   19   39 1     
   42   19   40 1     
   43   19   41 1     
   44   10   43 1     
   45   10   44 1     
   46   11   45 1     
   47   13   46 1     
   48   20   47 1     
   49   20   48 1     
@<TRIPOS>SUBSTRUCTURE
      1 S1             1
@<TRIPOS>SET
LONE_PAIRS      STATIC     ATOMS    <user>   **** ""
6 43 44 45 46 47 48
DONOR_HYDROGENS      STATIC     ATOMS    <user>   **** ""
2 42 33
ATOM$BLUE        STATIC     ATOMS    COLORGROUP SYSTEM
6 43 44 45 46 47 48
ATOM$RED        STATIC     ATOMS    COLORGROUP SYSTEM
2 42 33
