AV-unprocessed.smi:3231|AV-procd|sdf|12335|dock2
  -GOLD-   2272018193D 1   1.00000     0.00000
 Structure written by MMmdl.
 42 43  0  0  0  0  0  0  0  0  3 V2000
  146.4597  137.2782  150.5859 O   0  0  0  0  0  0  0  0  0  0  0  0
  145.7203  137.3159  151.7917 C   0  0  2  0  0  0  0  0  0  0  0  0
  146.2710  138.4703  152.6490 C   0  0  0  0  0  0  0  0  0  0  0  0
  147.7368  138.3762  152.8076 N   0  3  0  0  0  0  0  0  0  0  0  0
  148.2252  138.7791  154.1406 C   0  0  0  0  0  0  0  0  0  0  0  0
  149.7587  138.8576  154.1643 C   0  0  0  0  0  0  0  0  0  0  0  0
  150.2398  139.6705  155.2646 N   0  0  0  0  0  0  0  0  0  0  0  0
  149.5391  140.1459  156.3534 C   0  0  0  0  0  0  0  0  0  0  0  0
  150.4134  140.8675  157.1147 C   0  0  0  0  0  0  0  0  0  0  0  0
  151.6400  140.7771  156.3989 C   0  0  0  0  0  0  0  0  0  0  0  0
  151.5325  140.0606  155.2914 N   0  0  0  0  0  0  0  0  0  0  0  0
  145.8696  135.9567  152.5098 C   0  0  0  0  0  0  0  0  0  0  0  0
  145.6271  134.7875  151.6239 N   0  3  0  0  0  0  0  0  0  0  0  0
  146.2183  133.5410  152.1682 C   0  0  0  0  0  0  0  0  0  0  0  0
  145.9938  132.3660  151.2011 C   0  0  0  0  0  0  0  0  0  0  0  0
  144.6020  132.2110  150.9563 O   0  0  0  0  0  0  0  0  0  0  0  0
  144.0379  133.3656  150.3483 C   0  0  0  0  0  0  0  0  0  0  0  0
  144.1969  134.5754  151.2862 C   0  0  0  0  0  0  0  0  0  0  0  0
  147.3590  137.0625  150.7817 H   0  0  0  0  0  0  0  0  0  0  0  0
  144.6745  137.5172  151.5616 H   0  0  0  0  0  0  0  0  0  0  0  0
  146.0399  139.4254  152.1752 H   0  0  0  0  0  0  0  0  0  0  0  0
  145.7931  138.4781  153.6301 H   0  0  0  0  0  0  0  0  0  0  0  0
  148.0110  137.4173  152.6452 H   0  0  0  0  0  0  0  0  0  0  0  0
  147.7978  139.7473  154.4052 H   0  0  0  0  0  0  0  0  0  0  0  0
  147.8741  138.0578  154.8801 H   0  0  0  0  0  0  0  0  0  0  0  0
  150.1924  137.8607  154.2568 H   0  0  0  0  0  0  0  0  0  0  0  0
  150.1324  139.2808  153.2309 H   0  0  0  0  0  0  0  0  0  0  0  0
  148.4892  139.9344  156.4952 H   0  0  0  0  0  0  0  0  0  0  0  0
  150.2080  141.3833  158.0411 H   0  0  0  0  0  0  0  0  0  0  0  0
  152.5982  141.2081  156.6490 H   0  0  0  0  0  0  0  0  0  0  0  0
  146.8780  135.8937  152.9228 H   0  0  0  0  0  0  0  0  0  0  0  0
  145.1906  135.9010  153.3623 H   0  0  0  0  0  0  0  0  0  0  0  0
  147.2877  133.6778  152.3320 H   0  0  0  0  0  0  0  0  0  0  0  0
  145.7712  133.3160  153.1380 H   0  0  0  0  0  0  0  0  0  0  0  0
  146.5267  132.5252  150.2622 H   0  0  0  0  0  0  0  0  0  0  0  0
  146.3812  131.4437  151.6341 H   0  0  0  0  0  0  0  0  0  0  0  0
  144.5136  133.5536  149.3843 H   0  0  0  0  0  0  0  0  0  0  0  0
  142.9820  133.1799  150.1505 H   0  0  0  0  0  0  0  0  0  0  0  0
  143.6240  134.4128  152.2005 H   0  0  0  0  0  0  0  0  0  0  0  0
  143.7810  135.4572  150.8008 H   0  0  0  0  0  0  0  0  0  0  0  0
  148.1775  138.9604  152.1117 H   0  0  0  0  0  0  0  0  0  0  0  0
  146.1135  134.9714  150.7580 H   0  0  0  0  0  0  0  0  0  0  0  0
  1  2  1  0  0  0  0
  1 19  1  0  0  0  0
  2  3  1  0  0  0  0
  2 12  1  0  0  0  0
  2 20  1  0  0  0  0
  3  4  1  0  0  0  0
  3 21  1  0  0  0  0
  3 22  1  0  0  0  0
  4  5  1  0  0  0  0
  4 23  1  0  0  0  0
  4 41  1  0  0  0  0
  5  6  1  0  0  0  0
  5 24  1  0  0  0  0
  5 25  1  0  0  0  0
  6  7  1  0  0  0  0
  6 26  1  0  0  0  0
  6 27  1  0  0  0  0
  7 11  1  0  0  0  0
  7  8  1  0  0  0  0
  8  9  2  0  0  0  0
  8 28  1  0  0  0  0
  9 10  1  0  0  0  0
  9 29  1  0  0  0  0
 10 11  2  0  0  0  0
 10 30  1  0  0  0  0
 12 13  1  0  0  0  0
 12 31  1  0  0  0  0
 12 32  1  0  0  0  0
 13 18  1  0  0  0  0
 13 14  1  0  0  0  0
 13 42  1  0  0  0  0
 14 15  1  0  0  0  0
 14 33  1  0  0  0  0
 14 34  1  0  0  0  0
 15 16  1  0  0  0  0
 15 35  1  0  0  0  0
 15 36  1  0  0  0  0
 16 17  1  0  0  0  0
 17 18  1  0  0  0  0
 17 37  1  0  0  0  0
 17 38  1  0  0  0  0
 18 39  1  0  0  0  0
 18 40  1  0  0  0  0
M  CHG  1   4   1
M  CHG  1  13   1
M  END
> <s_m_source_file>
AV-unprocessed.smi

> <i_m_source_file_index>
3231

> <i_lp_mmshare_version>
43012

> <i_f3d_flags>
0

> <s_epik_input>
W0NIMl0xW0NIMl1PW0NIMl1bQ0gyXU4xW0NIMl1bQ0BIXShbT0hdKVtDSDJdW05IXVtDSDJdW0NIMl1uMltjSF1bY0hdW2NIXW4y

> <s_epik_cmdline>
J2VwaWtfcHl0aG9uJywgJy1waCcsICc3LjAnLCAnLXRuJywgJzgnLCAnLW1hJywgJzIwMCcsICctbWV0YWxfYmluZGluZycsICctaW1hZScsICc8aW5maWxlLm1hZT4nLCAnLW9tYWUnLCAnPG91dGZpbGUubWFlPic=

> <r_lp_tautomer_probability>
1

> <r_epik_Ionization_Penalty>
2.09881

> <r_epik_Ionization_Penalty_Charging>
2.09628

> <r_epik_Ionization_Penalty_Neutral>
0.0025303

> <r_epik_State_Penalty>
1.58657

> <r_epik_Charging_Adjusted_Penalty>
3.68285

> <i_epik_Tot_Q>
2

> <i_epik_Tot_abs_Q>
2

> <r_epik_Metal_State_Penalty>
1.58685

> <b_epik_Metal_Only>
0

> <s_lp_Force_Field>
OPLS_2005

> <r_lp_Energy>
26.6316

> <b_lp_Chiralities_Consistent>
1

> <s_lp_Variant>
AV-unprocessed.smi:3231-5

> <Gold.Version>
5.8.1

> <Gold.Id.Protein>
6NUR|6NUR_protein|mol2

> <Gold.PLP.Fitness>
44.4378

> <Gold.PLP.PLP>
-30.5839

> <Gold.PLP.part.hbond>
-6.0000

> <Gold.PLP.part.metal>
0.0000

> <Gold.PLP.part.buried>
-1.9543

> <Gold.PLP.part.nonpolar>
-23.2196

> <Gold.PLP.part.repulsive>
0.2444

> <Gold.PLP.ligand.clash>
0.0000

> <Gold.PLP.ligand.torsion>
0.7429

> <Gold.PLP.Chemscore.Hbond>
4.9920

> <Gold.PLP.Chemscore.CHOScore>
0.0000

> <Gold.PLP.Chemscore.Metal>
0.0000

> <Gold.Chemscore.Hbonds>
donor molecule, donor type, donor heavy atom, donor atom, acceptor molecule, acceptor atom, score
      L1  H     1    19       P1  7948  0.98
      L1  H     4    23       P1  7948  2.00
      L1  H     4    41       P1  7957  1.00
      P1  H  7989  7998       L1    11  0.95

> <Gold.PLP.Chemscore.Internal.Correction>
0.3637

> <Gold.Rescore>
     Score         DG    S(hbond)    S(metal)    S(lipo)     H(rot)  DE(clash)    DE(int)     intcor
     15.73     -16.90       3.33        0.00      66.84       2.94       0.34       0.84       ----

> <Gold.Chemscore.Fitness>
15.7254

> <Gold.Chemscore.DG>
-16.9033

> <Gold.Chemscore.ZeroCoef>
-5.4800

> <Gold.Chemscore.Hbond>
3.3349

> <Gold.Chemscore.Metal>
0.0000

> <Gold.Chemscore.Lipo>
66.8440

> <Gold.Chemscore.Internal_Hbond>
0.0000

> <Gold.Chemscore.DEClash>
0.3387

> <Gold.Chemscore.DEInternal>
0.8392

> <Gold.Chemscore.Rot>
2.9437

> <Gold.Chemscore.Internal.Correction>
   9.000000E+99

> <Gold.Chemscore.Hbonds>
donor molecule, donor type, donor heavy atom, donor atom, acceptor molecule, acceptor atom, score
      L1  H     1    19       P1  7948  0.89
      L1  H     4    23       P1  7948  0.95
      L1  H     4    41       P1  7957  0.95
      P1  H  7989  7998       L1    11  0.20

> <Gold.Chemscore.Hbond.Weighted>
-11.1384

> <Gold.Chemscore.Metal.Weighted>
-0.0000

> <Gold.Chemscore.Lipo.Weighted>
-7.8207

> <Gold.Chemscore.Internal_Hbond.Weighted>
0.0000

> <Gold.Chemscore.DEClash.Weighted>
0.3387

> <Gold.Chemscore.DEInternal.Weighted>
0.8392

> <Gold.Chemscore.Rot.Weighted>
7.5359

> <Gold.Chemscore.Internal.Correction.Weighted>
   9.000000E+99

> <Gold.Protein.RotatedTorsions>
[ 6907 6896 6895 6894 ] final   -6.48 input  -60.11 | X-H torsion
[ 7974 7965 7964 7962 ] final   48.63 input  175.53 | X-H torsion
[ 8008 7997 7996 7995 ] final  179.99 input   59.86 | X-H torsion
[ 10167 10162 10161 10158 ] final   38.08 input  -65.29 | X-H torsion
[ 10718 10713 10712 10709 ] final   22.97 input   66.30 | X-H torsion
[ 10763 10752 10751 10750 ] final  169.70 input  -60.55 | X-H torsion
[ 11005 11000 10999 10996 ] final  173.26 input  -57.11 | X-H torsion

> <Gold.Protein.ActiveResidues>
 VAL166  LYS551  ARG553  GLY616  TRP617  ASP618  TYR619  PRO620  LYS621  CYS622 
 ASP623  PHE694  ASN695  SER759  ASP760  ASP761  ALA762  ILE779  LEU786  VAL792 
 PHE793  MET794  SER795  GLU796  ALA797  LYS798  CYS799  TRP800  GLU811  SER814 

> <Gold.Protein.RotatedAtoms>
  151.4649  135.1041  159.9734 H   0  0  0  0  0  0  0  0  0  0  0  0  # atno 6907 bound_to 6896
  152.4839  133.8318  159.7118 H   0  0  0  0  0  0  0  0  0  0  0  0  # atno 6908 bound_to 6896
  150.8932  133.7155  159.2926 H   0  0  0  0  0  0  0  0  0  0  0  0  # atno 6909 bound_to 6896
  146.0186  139.4625  142.9911 H   0  0  0  0  0  0  0  0  0  0  0  0  # atno 7974 bound_to 7965
  156.0371  140.1295  157.0196 H   0  0  0  0  0  0  0  0  0  0  0  0  # atno 8008 bound_to 7997
  154.4375  140.1038  156.6254 H   0  0  0  0  0  0  0  0  0  0  0  0  # atno 8009 bound_to 7997
  155.5722  140.3466  155.4520 H   0  0  0  0  0  0  0  0  0  0  0  0  # atno 8010 bound_to 7997
  140.3971  144.1774  150.6132 H   0  0  0  0  0  0  0  0  0  0  0  0  # atno 10167 bound_to 10162
  157.1596  130.6711  149.6039 H   0  0  0  0  0  0  0  0  0  0  0  0  # atno 10718 bound_to 10713
  154.3869  135.2754  155.2178 H   0  0  0  0  0  0  0  0  0  0  0  0  # atno 10763 bound_to 10752
  154.4260  135.5988  153.6043 H   0  0  0  0  0  0  0  0  0  0  0  0  # atno 10764 bound_to 10752
  152.9833  135.5984  154.4119 H   0  0  0  0  0  0  0  0  0  0  0  0  # atno 10765 bound_to 10752
  140.3386  134.7296  157.4186 H   0  0  0  0  0  0  0  0  0  0  0  0  # atno 11005 bound_to 11000
  145.7229  141.0069  143.1393 LP  0  0  0  0  0  0  0  0  0  0  0  0  # atno 17320 bound_to 7965
  144.6981  139.8892  143.7452 LP  0  0  0  0  0  0  0  0  0  0  0  0  # atno 17321 bound_to 7965
  140.4779  143.2389  151.8997 LP  0  0  0  0  0  0  0  0  0  0  0  0  # atno 17342 bound_to 10162
  139.4786  144.5301  151.8679 LP  0  0  0  0  0  0  0  0  0  0  0  0  # atno 17343 bound_to 10162
  155.9756  130.4716  150.6471 LP  0  0  0  0  0  0  0  0  0  0  0  0  # atno 17370 bound_to 10713
  157.4145  131.0828  151.1190 LP  0  0  0  0  0  0  0  0  0  0  0  0  # atno 17371 bound_to 10713
  140.0800  134.5744  155.8550 LP  0  0  0  0  0  0  0  0  0  0  0  0  # atno 17394 bound_to 11000
  141.2044  133.6639  156.6122 LP  0  0  0  0  0  0  0  0  0  0  0  0  # atno 17395 bound_to 11000

$$$$
