AV-unprocessed.smi:3030|AV-procd|sdf|11535|dock8
  -GOLD-   2272016483D 1   1.00000     0.00000
 Structure written by MMmdl.
 52 53  0  0  0  0  0  0  0  0  1 V2000
  152.3521  129.7606  155.1910 C   0  0  0  0  0  0  0  0  0  0  0  0
  151.3802  130.6706  155.9503 C   0  0  0  0  0  0  0  0  0  0  0  0
  150.4277  131.3089  155.0537 N   0  0  0  0  0  0  0  0  0  0  0  0
  149.5196  130.5604  154.3117 C   0  0  0  0  0  0  0  0  0  0  0  0
  148.5924  131.0937  153.4927 C   0  0  0  0  0  0  0  0  0  0  0  0
  148.5064  132.5621  153.3562 C   0  0  0  0  0  0  0  0  0  0  0  0
  147.6804  133.0836  152.6071 O   0  0  0  0  0  0  0  0  0  0  0  0
  149.4627  133.3620  154.1657 C   0  0  0  0  0  0  0  0  0  0  0  0
  149.3860  134.7567  154.0286 N   0  0  0  0  0  0  0  0  0  0  0  0
  149.5755  135.7080  154.9606 C   0  0  0  0  0  0  0  0  0  0  0  0
  149.7986  135.5091  156.1545 O   0  0  0  0  0  0  0  0  0  0  0  0
  149.4789  136.9302  154.4171 N   0  0  0  0  0  0  0  0  0  0  0  0
  149.6010  138.2047  155.1252 C   0  0  2  0  0  0  0  0  0  0  0  0
  148.3728  139.0656  154.7663 C   0  0  0  0  0  0  0  0  0  0  0  0
  148.4285  140.4634  155.4059 C   0  0  2  0  0  0  0  0  0  0  0  0
  147.1971  141.3018  155.0347 C   0  0  0  0  0  0  0  0  0  0  0  0
  149.7315  141.1724  155.0048 C   0  0  0  0  0  0  0  0  0  0  0  0
  150.9604  140.3386  155.3935 C   0  0  0  0  0  0  0  0  0  0  0  0
  150.9298  138.9268  154.7598 C   0  0  1  0  0  0  0  0  0  0  0  0
  152.2119  138.0949  155.0656 C   0  0  0  0  0  0  0  0  0  0  0  0
  152.3981  137.7510  156.5554 C   0  0  0  0  0  0  0  0  0  0  0  0
  153.4838  138.7474  154.4974 C   0  0  0  0  0  0  0  0  0  0  0  0
  150.3509  132.6961  154.9463 C   0  0  0  0  0  0  0  0  0  0  0  0
  153.0596  129.2926  155.8756 H   0  0  0  0  0  0  0  0  0  0  0  0
  152.9246  130.3240  154.4533 H   0  0  0  0  0  0  0  0  0  0  0  0
  151.8202  128.9658  154.6674 H   0  0  0  0  0  0  0  0  0  0  0  0
  150.8416  130.0916  156.7012 H   0  0  0  0  0  0  0  0  0  0  0  0
  151.9361  131.4349  156.4947 H   0  0  0  0  0  0  0  0  0  0  0  0
  149.6165  129.4915  154.4364 H   0  0  0  0  0  0  0  0  0  0  0  0
  147.9095  130.4718  152.9329 H   0  0  0  0  0  0  0  0  0  0  0  0
  149.1323  135.0744  153.1045 H   0  0  0  0  0  0  0  0  0  0  0  0
  149.2952  136.9868  153.4261 H   0  0  0  0  0  0  0  0  0  0  0  0
  149.5750  138.0404  156.2033 H   0  0  0  0  0  0  0  0  0  0  0  0
  148.3015  139.1677  153.6821 H   0  0  0  0  0  0  0  0  0  0  0  0
  147.4634  138.5545  155.0858 H   0  0  0  0  0  0  0  0  0  0  0  0
  148.4289  140.3405  156.4901 H   0  0  0  0  0  0  0  0  0  0  0  0
  147.1324  141.4558  153.9571 H   0  0  0  0  0  0  0  0  0  0  0  0
  147.2316  142.2828  155.5096 H   0  0  0  0  0  0  0  0  0  0  0  0
  146.2773  140.8132  155.3570 H   0  0  0  0  0  0  0  0  0  0  0  0
  149.7391  141.3574  153.9297 H   0  0  0  0  0  0  0  0  0  0  0  0
  149.7874  142.1493  155.4861 H   0  0  0  0  0  0  0  0  0  0  0  0
  151.8562  140.8776  155.0876 H   0  0  0  0  0  0  0  0  0  0  0  0
  151.0019  140.2627  156.4802 H   0  0  0  0  0  0  0  0  0  0  0  0
  150.9101  139.0722  153.6781 H   0  0  0  0  0  0  0  0  0  0  0  0
  152.1236  137.1464  154.5368 H   0  0  0  0  0  0  0  0  0  0  0  0
  152.5663  138.6420  157.1598 H   0  0  0  0  0  0  0  0  0  0  0  0
  153.2602  137.0985  156.6961 H   0  0  0  0  0  0  0  0  0  0  0  0
  151.5339  137.2284  156.9629 H   0  0  0  0  0  0  0  0  0  0  0  0
  153.7338  139.6731  155.0153 H   0  0  0  0  0  0  0  0  0  0  0  0
  153.3717  138.9745  153.4370 H   0  0  0  0  0  0  0  0  0  0  0  0
  154.3398  138.0795  154.5976 H   0  0  0  0  0  0  0  0  0  0  0  0
  151.0995  133.1987  155.5387 H   0  0  0  0  0  0  0  0  0  0  0  0
  1  2  1  0  0  0  0
  1 24  1  0  0  0  0
  1 25  1  0  0  0  0
  1 26  1  0  0  0  0
  2  3  1  0  0  0  0
  2 27  1  0  0  0  0
  2 28  1  0  0  0  0
  3 23  1  0  0  0  0
  3  4  1  0  0  0  0
  4  5  2  0  0  0  0
  4 29  1  0  0  0  0
  5  6  1  0  0  0  0
  5 30  1  0  0  0  0
  6  7  2  0  0  0  0
  6  8  1  0  0  0  0
  8  9  1  0  0  0  0
  8 23  2  0  0  0  0
  9 10  1  0  0  0  0
  9 31  1  0  0  0  0
 10 11  2  0  0  0  0
 10 12  1  0  0  0  0
 12 13  1  0  0  0  0
 12 32  1  0  0  0  0
 13 19  1  0  0  0  0
 13 14  1  0  0  0  0
 13 33  1  0  0  0  0
 14 15  1  0  0  0  0
 14 34  1  0  0  0  0
 14 35  1  0  0  0  0
 15 16  1  0  0  0  0
 15 17  1  0  0  0  0
 15 36  1  0  0  0  0
 16 37  1  0  0  0  0
 16 38  1  0  0  0  0
 16 39  1  0  0  0  0
 17 18  1  0  0  0  0
 17 40  1  0  0  0  0
 17 41  1  0  0  0  0
 18 19  1  0  0  0  0
 18 42  1  0  0  0  0
 18 43  1  0  0  0  0
 19 20  1  0  0  0  0
 19 44  1  0  0  0  0
 20 21  1  0  0  0  0
 20 22  1  0  0  0  0
 20 45  1  0  0  0  0
 21 46  1  0  0  0  0
 21 47  1  0  0  0  0
 21 48  1  0  0  0  0
 22 49  1  0  0  0  0
 22 50  1  0  0  0  0
 22 51  1  0  0  0  0
 23 52  1  0  0  0  0
M  END
> <s_m_source_file>
AV-unprocessed.smi

> <i_m_source_file_index>
3030

> <i_lp_mmshare_version>
43012

> <i_f3d_flags>
0

> <s_epik_input>
W0NIM11bQ0gyXW4xW2NIXVtjSF1jKD1PKWMoW2NIXTEpW05IXUMoPU8pW05IXVtDQEBIXTJbQ0gyXVtDQEBIXShbQ0gzXSlbQ0gyXVtDSDJdW0NASF0yW0NIXShbQ0gzXSlbQ0gzXQ==

> <s_epik_cmdline>
J2VwaWtfcHl0aG9uJywgJy1waCcsICc3LjAnLCAnLXRuJywgJzgnLCAnLW1hJywgJzIwMCcsICctbWV0YWxfYmluZGluZycsICctaW1hZScsICc8aW5maWxlLm1hZT4nLCAnLW9tYWUnLCAnPG91dGZpbGUubWFlPic=

> <r_lp_tautomer_probability>
1

> <r_epik_Ionization_Penalty>
0.00147933

> <r_epik_Ionization_Penalty_Charging>
0.00145753

> <r_epik_Ionization_Penalty_Neutral>
2.17987e-05

> <r_epik_State_Penalty>
0.00097457

> <r_epik_Charging_Adjusted_Penalty>
0.0024321

> <i_epik_Tot_Q>
0

> <i_epik_Tot_abs_Q>
0

> <r_epik_Metal_State_Penalty>
-0

> <b_epik_Metal_Only>
0

> <s_lp_Force_Field>
OPLS_2005

> <r_lp_Energy>
10.2365

> <b_lp_Chiralities_Consistent>
1

> <s_lp_Variant>
AV-unprocessed.smi:3030-3

> <Gold.Version>
5.8.1

> <Gold.Id.Protein>
6NUR|6NUR_protein|mol2

> <Gold.PLP.Fitness>
44.1242

> <Gold.PLP.PLP>
-39.1152

> <Gold.PLP.part.hbond>
-2.0000

> <Gold.PLP.part.metal>
0.0000

> <Gold.PLP.part.buried>
-1.0964

> <Gold.PLP.part.nonpolar>
-35.0254

> <Gold.PLP.part.repulsive>
0.2322

> <Gold.PLP.ligand.clash>
0.0000

> <Gold.PLP.ligand.torsion>
0.3835

> <Gold.PLP.Chemscore.Hbond>
1.9000

> <Gold.PLP.Chemscore.CHOScore>
0.0000

> <Gold.PLP.Chemscore.Metal>
0.0000

> <Gold.Chemscore.Hbonds>
donor molecule, donor type, donor heavy atom, donor atom, acceptor molecule, acceptor atom, score
      L1  H     9    31       P1  7948  0.75
      L1  H    12    32       P1  7948  1.00

> <Gold.PLP.Chemscore.Internal.Correction>
0.0761

> <Gold.Rescore>
     Score         DG    S(hbond)    S(metal)    S(lipo)     H(rot)  DE(clash)    DE(int)     intcor
     17.34     -17.89       1.59        0.00      88.46       1.27       0.16       0.39       ----

> <Gold.Chemscore.Fitness>
17.3404

> <Gold.Chemscore.DG>
-17.8920

> <Gold.Chemscore.ZeroCoef>
-5.4800

> <Gold.Chemscore.Hbond>
1.5897

> <Gold.Chemscore.Metal>
0.0000

> <Gold.Chemscore.Lipo>
88.4594

> <Gold.Chemscore.Internal_Hbond>
0.0000

> <Gold.Chemscore.DEClash>
0.1587

> <Gold.Chemscore.DEInternal>
0.3929

> <Gold.Chemscore.Rot>
1.2685

> <Gold.Chemscore.Internal.Correction>
   9.000000E+99

> <Gold.Chemscore.Hbonds>
donor molecule, donor type, donor heavy atom, donor atom, acceptor molecule, acceptor atom, score
      L1  H     9    31       P1  7948  0.09
      L1  H    12    32       P1  7948  0.93

> <Gold.Chemscore.Hbond.Weighted>
-5.3096

> <Gold.Chemscore.Metal.Weighted>
-0.0000

> <Gold.Chemscore.Lipo.Weighted>
-10.3497

> <Gold.Chemscore.Internal_Hbond.Weighted>
0.0000

> <Gold.Chemscore.DEClash.Weighted>
0.1587

> <Gold.Chemscore.DEInternal.Weighted>
0.3929

> <Gold.Chemscore.Rot.Weighted>
3.2474

> <Gold.Chemscore.Internal.Correction.Weighted>
   9.000000E+99

> <Gold.Protein.RotatedTorsions>
[ 6907 6896 6895 6894 ] final   44.24 input  -60.11 | X-H torsion
[ 7974 7965 7964 7962 ] final   11.06 input  175.53 | X-H torsion
[ 8008 7997 7996 7995 ] final  -27.74 input   59.86 | X-H torsion
[ 10167 10162 10161 10158 ] final -103.28 input  -65.29 | X-H torsion
[ 10718 10713 10712 10709 ] final  171.54 input   66.30 | X-H torsion
[ 10763 10752 10751 10750 ] final  -51.70 input  -60.55 | X-H torsion
[ 11005 11000 10999 10996 ] final  -14.10 input  -57.11 | X-H torsion

> <Gold.Protein.ActiveResidues>
 VAL166  LYS551  ARG553  GLY616  TRP617  ASP618  TYR619  PRO620  LYS621  CYS622 
 ASP623  PHE694  ASN695  SER759  ASP760  ASP761  ALA762  ILE779  LEU786  VAL792 
 PHE793  MET794  SER795  GLU796  ALA797  LYS798  CYS799  TRP800  GLU811  SER814 

> <Gold.Protein.RotatedAtoms>
  152.2300  134.8331  160.0474 H   0  0  0  0  0  0  0  0  0  0  0  0  # atno 6907 bound_to 6896
  151.9083  133.3550  159.3863 H   0  0  0  0  0  0  0  0  0  0  0  0  # atno 6908 bound_to 6896
  150.7023  134.4684  159.5457 H   0  0  0  0  0  0  0  0  0  0  0  0  # atno 6909 bound_to 6896
  146.2378  139.9542  142.8466 H   0  0  0  0  0  0  0  0  0  0  0  0  # atno 7974 bound_to 7965
  154.4363  140.1864  156.0980 H   0  0  0  0  0  0  0  0  0  0  0  0  # atno 8008 bound_to 7997
  156.0314  140.3330  155.7118 H   0  0  0  0  0  0  0  0  0  0  0  0  # atno 8009 bound_to 7997
  155.5834  140.0624  157.2768 H   0  0  0  0  0  0  0  0  0  0  0  0  # atno 8010 bound_to 7997
  140.2217  143.3671  152.0964 H   0  0  0  0  0  0  0  0  0  0  0  0  # atno 10167 bound_to 10162
  156.9921  131.0150  151.2854 H   0  0  0  0  0  0  0  0  0  0  0  0  # atno 10718 bound_to 10713
  154.1308  135.6520  153.4921 H   0  0  0  0  0  0  0  0  0  0  0  0  # atno 10763 bound_to 10752
  153.0196  135.5292  154.7003 H   0  0  0  0  0  0  0  0  0  0  0  0  # atno 10764 bound_to 10752
  154.6237  135.2968  155.0267 H   0  0  0  0  0  0  0  0  0  0  0  0  # atno 10765 bound_to 10752
  140.7829  133.8348  155.9309 H   0  0  0  0  0  0  0  0  0  0  0  0  # atno 11005 bound_to 11000
  145.1833  140.9777  143.4254 LP  0  0  0  0  0  0  0  0  0  0  0  0  # atno 17320 bound_to 7965
  144.9923  139.3678  143.6209 LP  0  0  0  0  0  0  0  0  0  0  0  0  # atno 17321 bound_to 7965
  139.5142  144.6944  151.5672 LP  0  0  0  0  0  0  0  0  0  0  0  0  # atno 17342 bound_to 10162
  140.6250  143.9186  150.6557 LP  0  0  0  0  0  0  0  0  0  0  0  0  # atno 17343 bound_to 10162
  157.5451  130.8145  149.8076 LP  0  0  0  0  0  0  0  0  0  0  0  0  # atno 17370 bound_to 10713
  156.0203  130.3798  150.1982 LP  0  0  0  0  0  0  0  0  0  0  0  0  # atno 17371 bound_to 10713
  140.9465  134.1834  157.4760 LP  0  0  0  0  0  0  0  0  0  0  0  0  # atno 17394 bound_to 11000
  139.8740  134.9892  156.5448 LP  0  0  0  0  0  0  0  0  0  0  0  0  # atno 17395 bound_to 11000

$$$$
