AV-unprocessed.smi:2541|AV-procd|sdf|9989|dock1
  -GOLD-   2272014 43D 1   1.00000     0.00000
 Structure written by MMmdl.
 38 39  0  0  0  0  0  0  0  0  1 V2000
  149.8511  141.0265  153.7752 O   0  0  0  0  0  0  0  0  0  0  0  0
  148.9400  141.1171  154.5999 C   0  0  0  0  0  0  0  0  0  0  0  0
  147.4729  141.2070  154.1593 C   0  0  0  0  0  0  0  0  0  0  0  0
  147.0601  140.0389  153.3004 C   0  0  0  0  0  0  0  0  0  0  0  0
  146.8232  140.0150  151.8975 C   0  0  0  0  0  0  0  0  0  0  0  0
  146.4831  138.7160  151.6531 C   0  0  0  0  0  0  0  0  0  0  0  0
  146.5136  137.9927  152.8008 O   0  0  0  0  0  0  0  0  0  0  0  0
  146.8861  138.8449  153.8468 N   0  0  0  0  0  0  0  0  0  0  0  0
  149.1512  141.1399  155.9251 N   0  0  0  0  0  0  0  0  0  0  0  0
  150.4582  141.0874  156.5744 C   0  0  0  0  0  0  0  0  0  0  0  0
  150.6629  142.2804  157.5360 C   0  0  2  0  0  0  0  0  0  0  0  0
  150.8183  143.4353  156.7314 O   0  0  0  0  0  0  0  0  0  0  0  0
  151.9135  142.1616  158.4508 C   0  0  0  0  0  0  0  0  0  0  0  0
  152.0048  140.7932  159.1709 C   0  0  0  0  0  0  0  0  0  0  0  0
  153.2312  140.6986  160.0936 C   0  0  0  0  0  0  0  0  0  0  0  0
  153.2478  141.8348  161.1237 C   0  0  0  0  0  0  0  0  0  0  0  0
  153.1796  143.1988  160.4259 C   0  0  0  0  0  0  0  0  0  0  0  0
  151.9495  143.2930  159.5097 C   0  0  0  0  0  0  0  0  0  0  0  0
  146.8464  141.2529  155.0507 H   0  0  0  0  0  0  0  0  0  0  0  0
  147.3192  142.1458  153.6247 H   0  0  0  0  0  0  0  0  0  0  0  0
  146.8872  140.8247  151.1860 H   0  0  0  0  0  0  0  0  0  0  0  0
  146.2073  138.1768  150.7588 H   0  0  0  0  0  0  0  0  0  0  0  0
  148.3470  141.2170  156.5306 H   0  0  0  0  0  0  0  0  0  0  0  0
  150.4626  140.1471  157.1217 H   0  0  0  0  0  0  0  0  0  0  0  0
  151.2736  141.0207  155.8518 H   0  0  0  0  0  0  0  0  0  0  0  0
  149.7749  142.4072  158.1571 H   0  0  0  0  0  0  0  0  0  0  0  0
  149.9675  143.6993  156.4157 H   0  0  0  0  0  0  0  0  0  0  0  0
  152.8002  142.2627  157.8226 H   0  0  0  0  0  0  0  0  0  0  0  0
  151.0975  140.6210  159.7515 H   0  0  0  0  0  0  0  0  0  0  0  0
  152.0717  139.9791  158.4514 H   0  0  0  0  0  0  0  0  0  0  0  0
  153.2374  139.7354  160.6047 H   0  0  0  0  0  0  0  0  0  0  0  0
  154.1419  140.7355  159.4945 H   0  0  0  0  0  0  0  0  0  0  0  0
  152.4020  141.7268  161.8040 H   0  0  0  0  0  0  0  0  0  0  0  0
  154.1485  141.7720  161.7349 H   0  0  0  0  0  0  0  0  0  0  0  0
  153.1494  143.9946  161.1705 H   0  0  0  0  0  0  0  0  0  0  0  0
  154.0856  143.3575  159.8396 H   0  0  0  0  0  0  0  0  0  0  0  0
  151.9534  144.2713  159.0289 H   0  0  0  0  0  0  0  0  0  0  0  0
  151.0438  143.2558  160.1166 H   0  0  0  0  0  0  0  0  0  0  0  0
  1  2  2  0  0  0  0
  2  3  1  0  0  0  0
  2  9  1  0  0  0  0
  3  4  1  0  0  0  0
  3 19  1  0  0  0  0
  3 20  1  0  0  0  0
  4  8  2  0  0  0  0
  4  5  1  0  0  0  0
  5  6  2  0  0  0  0
  5 21  1  0  0  0  0
  6  7  1  0  0  0  0
  6 22  1  0  0  0  0
  7  8  1  0  0  0  0
  9 10  1  0  0  0  0
  9 23  1  0  0  0  0
 10 11  1  0  0  0  0
 10 24  1  0  0  0  0
 10 25  1  0  0  0  0
 11 12  1  0  0  0  0
 11 13  1  0  0  0  0
 11 26  1  0  0  0  0
 12 27  1  0  0  0  0
 13 18  1  0  0  0  0
 13 14  1  0  0  0  0
 13 28  1  0  0  0  0
 14 15  1  0  0  0  0
 14 29  1  0  0  0  0
 14 30  1  0  0  0  0
 15 16  1  0  0  0  0
 15 31  1  0  0  0  0
 15 32  1  0  0  0  0
 16 17  1  0  0  0  0
 16 33  1  0  0  0  0
 16 34  1  0  0  0  0
 17 18  1  0  0  0  0
 17 35  1  0  0  0  0
 17 36  1  0  0  0  0
 18 37  1  0  0  0  0
 18 38  1  0  0  0  0
M  END
> <s_m_source_file>
AV-unprocessed.smi

> <i_m_source_file_index>
2541

> <i_lp_mmshare_version>
43012

> <i_f3d_flags>
0

> <s_epik_input>
bjFvW2NIXVtjSF1jMVtDSDJdQyg9TylbTkhdW0NIMl1bQ0BIXShbT0hdKVtDSF0yW0NIMl1bQ0gyXVtDSDJdW0NIMl1bQ0gyXTI=

> <s_epik_cmdline>
J2VwaWtfcHl0aG9uJywgJy1waCcsICc3LjAnLCAnLXRuJywgJzgnLCAnLW1hJywgJzIwMCcsICctbWV0YWxfYmluZGluZycsICctaW1hZScsICc8aW5maWxlLm1hZT4nLCAnLW9tYWUnLCAnPG91dGZpbGUubWFlPic=

> <r_lp_tautomer_probability>
1

> <r_epik_Ionization_Penalty>
2.3322e-07

> <r_epik_Ionization_Penalty_Charging>
0

> <r_epik_Ionization_Penalty_Neutral>
2.3322e-07

> <r_epik_State_Penalty>
-0

> <r_epik_Charging_Adjusted_Penalty>
0

> <i_epik_Tot_Q>
0

> <i_epik_Tot_abs_Q>
0

> <r_epik_Metal_State_Penalty>
-0

> <b_epik_Metal_Only>
0

> <s_lp_Force_Field>
OPLS_2005

> <r_lp_Energy>
14.1188

> <b_lp_Chiralities_Consistent>
1

> <s_lp_Variant>
AV-unprocessed.smi:2541-1

> <Gold.Version>
5.8.1

> <Gold.Id.Protein>
6NUR|6NUR_protein|mol2

> <Gold.PLP.Fitness>
43.2479

> <Gold.PLP.PLP>
-34.8434

> <Gold.PLP.part.hbond>
-2.6038

> <Gold.PLP.part.metal>
0.0000

> <Gold.PLP.part.buried>
-0.7905

> <Gold.PLP.part.nonpolar>
-35.0635

> <Gold.PLP.part.repulsive>
2.7965

> <Gold.PLP.ligand.clash>
0.0000

> <Gold.PLP.ligand.torsion>
0.3263

> <Gold.PLP.Chemscore.Hbond>
2.2800

> <Gold.PLP.Chemscore.CHOScore>
0.7077

> <Gold.PLP.Chemscore.Metal>
0.0000

> <Gold.Chemscore.Hbonds>
donor molecule, donor type, donor heavy atom, donor atom, acceptor molecule, acceptor atom, score
      L1  H    12    27       P1  8028  1.00
      P1  H  7989  7998       L1     1  0.35
      P1  H  8011  8017       L1     1  0.90
      L1  C     6    22       P1 10171  0.73

> <Gold.PLP.Chemscore.Internal.Correction>
0.0938

> <Gold.Rescore>
     Score         DG    S(hbond)    S(metal)    S(lipo)     H(rot)  DE(clash)    DE(int)     intcor
     16.64     -18.75       2.22        0.00     103.10       2.42       1.73       0.38       ----

> <Gold.Chemscore.Fitness>
16.6400

> <Gold.Chemscore.DG>
-18.7537

> <Gold.Chemscore.ZeroCoef>
-5.4800

> <Gold.Chemscore.Hbond>
2.2153

> <Gold.Chemscore.Metal>
0.0000

> <Gold.Chemscore.Lipo>
103.0997

> <Gold.Chemscore.Internal_Hbond>
0.0000

> <Gold.Chemscore.DEClash>
1.7302

> <Gold.Chemscore.DEInternal>
0.3834

> <Gold.Chemscore.Rot>
2.4172

> <Gold.Chemscore.Internal.Correction>
   9.000000E+99

> <Gold.Chemscore.Hbonds>
donor molecule, donor type, donor heavy atom, donor atom, acceptor molecule, acceptor atom, score
      L1  H    12    27       P1  8028  0.97
      P1  H  7989  7998       L1     1  0.36
      P1  H  8011  8017       L1     1  0.77

> <Gold.Chemscore.Hbond.Weighted>
-7.3990

> <Gold.Chemscore.Metal.Weighted>
-0.0000

> <Gold.Chemscore.Lipo.Weighted>
-12.0627

> <Gold.Chemscore.Internal_Hbond.Weighted>
0.0000

> <Gold.Chemscore.DEClash.Weighted>
1.7302

> <Gold.Chemscore.DEInternal.Weighted>
0.3834

> <Gold.Chemscore.Rot.Weighted>
6.1880

> <Gold.Chemscore.Internal.Correction.Weighted>
   9.000000E+99

> <Gold.Protein.RotatedTorsions>
[ 6907 6896 6895 6894 ] final -170.84 input  -60.11 | X-H torsion
[ 7974 7965 7964 7962 ] final   91.19 input  175.53 | X-H torsion
[ 8008 7997 7996 7995 ] final -136.03 input   59.86 | X-H torsion
[ 10167 10162 10161 10158 ] final  149.83 input  -65.29 | X-H torsion
[ 10718 10713 10712 10709 ] final -129.27 input   66.30 | X-H torsion
[ 10763 10752 10751 10750 ] final -117.76 input  -60.55 | X-H torsion
[ 11005 11000 10999 10996 ] final -171.81 input  -57.11 | X-H torsion

> <Gold.Protein.ActiveResidues>
 VAL166  LYS551  ARG553  GLY616  TRP617  ASP618  TYR619  PRO620  LYS621  CYS622 
 ASP623  PHE694  ASN695  SER759  ASP760  ASP761  ALA762  ILE779  LEU786  VAL792 
 PHE793  MET794  SER795  GLU796  ALA797  LYS798  CYS799  TRP800  GLU811  SER814 

> <Gold.Protein.RotatedAtoms>
  151.5142  133.3479  159.2889 H   0  0  0  0  0  0  0  0  0  0  0  0  # atno 6907 bound_to 6896
  150.8693  134.8066  159.7154 H   0  0  0  0  0  0  0  0  0  0  0  0  # atno 6908 bound_to 6896
  152.4687  134.5023  159.9780 H   0  0  0  0  0  0  0  0  0  0  0  0  # atno 6909 bound_to 6896
  145.5089  139.2276  143.2735 H   0  0  0  0  0  0  0  0  0  0  0  0  # atno 7974 bound_to 7965
  155.3884  140.0498  157.3041 H   0  0  0  0  0  0  0  0  0  0  0  0  # atno 8008 bound_to 7997
  154.5048  140.2170  155.9235 H   0  0  0  0  0  0  0  0  0  0  0  0  # atno 8009 bound_to 7997
  156.1512  140.3135  155.8656 H   0  0  0  0  0  0  0  0  0  0  0  0  # atno 8010 bound_to 7997
  139.4857  144.5571  151.7298 H   0  0  0  0  0  0  0  0  0  0  0  0  # atno 10167 bound_to 10162
  156.2030  130.6870  151.0562 H   0  0  0  0  0  0  0  0  0  0  0  0  # atno 10718 bound_to 10713
  154.8565  135.4298  154.2031 H   0  0  0  0  0  0  0  0  0  0  0  0  # atno 10763 bound_to 10752
  153.3073  135.6973  153.7153 H   0  0  0  0  0  0  0  0  0  0  0  0  # atno 10764 bound_to 10752
  153.6260  135.3493  155.3000 H   0  0  0  0  0  0  0  0  0  0  0  0  # atno 10765 bound_to 10752
  140.5041  134.5865  157.4997 H   0  0  0  0  0  0  0  0  0  0  0  0  # atno 11005 bound_to 11000
  146.2179  140.5895  142.9030 LP  0  0  0  0  0  0  0  0  0  0  0  0  # atno 17320 bound_to 7965
  144.7738  140.5696  143.6652 LP  0  0  0  0  0  0  0  0  0  0  0  0  # atno 17321 bound_to 7965
  140.5134  144.0990  150.6001 LP  0  0  0  0  0  0  0  0  0  0  0  0  # atno 17342 bound_to 10162
  140.3923  143.2746  152.0045 LP  0  0  0  0  0  0  0  0  0  0  0  0  # atno 17343 bound_to 10162
  157.6997  131.0781  150.6860 LP  0  0  0  0  0  0  0  0  0  0  0  0  # atno 17370 bound_to 10713
  156.6918  130.4597  149.5597 LP  0  0  0  0  0  0  0  0  0  0  0  0  # atno 17371 bound_to 10713
  139.9696  134.7314  156.0067 LP  0  0  0  0  0  0  0  0  0  0  0  0  # atno 17394 bound_to 11000
  141.1420  133.6563  156.3758 LP  0  0  0  0  0  0  0  0  0  0  0  0  # atno 17395 bound_to 11000

$$$$
