#       Name:                AV-unprocessed.smi:2309
#       Creating user name   scv26
#       Creation time:       Fri Mar 27 12:47:26 2020


#       File generated by GOLD software.
#

@<TRIPOS>MOLECULE
AV-unprocessed.smi:2309
    39    40     1
SMALL
NO_CHARGES


@<TRIPOS>ATOM
      1 ****        -4.9907   0.9045   0.8228 C.3            1 S1                 0.0000
      2 ****        -3.5320   0.4862   0.7663 C.2            1 S1                 0.0000
      3 ****        -2.6043   1.5317   0.7558 N.2            1 S1                 0.0000
      4 ****        -1.3394   1.2700   0.7076 C.2            1 S1                 0.0000
      5 ****        -0.8585  -0.0498   0.6665 N.am           1 S1                 0.0000
      6 ****         0.6048  -0.2105   0.6075 C.3            1 S1                 0.0000
      7 ****         1.1505  -0.1040  -0.8345 C.3            1 S1                 0.0000
      8 ****         0.8995  -1.3226  -1.5083 O.3            1 S1                 0.0000
      9 ****         2.6380   0.2451  -0.8243 C.ar           1 S1                 0.0000
     10 ****         3.6039  -0.7850  -0.7401 C.ar           1 S1                 0.0000
     11 ****         4.9784  -0.4816  -0.7202 C.ar           1 S1                 0.0000
     12 ****         6.1410  -1.7523  -0.6201 Cl             1 S1                 0.0000
     13 ****         5.4033   0.8580  -0.7789 C.ar           1 S1                 0.0000
     14 ****         4.4517   1.8917  -0.8498 C.ar           1 S1                 0.0000
     15 ****         3.0742   1.5940  -0.8680 C.ar           1 S1                 0.0000
     16 ****         1.9514   2.9080  -0.9283 Cl             1 S1                 0.0000
     17 ****        -1.6949  -1.1277   0.6729 C.2            1 S1                 0.0000
     18 ****        -1.2656  -2.2823   0.6358 O.2            1 S1                 0.0000
     19 ****        -3.1322  -0.8142   0.7273 C.2            1 S1                 0.0000
     20 ****        -4.0971  -1.9935   0.7349 C.3            1 S1                 0.0000
     21 ****        -5.5326   0.5217  -0.0425 H              1 S1                 0.0000
     22 ****        -5.0929   1.9905   0.8262 H              1 S1                 0.0000
     23 ****        -5.4622   0.5220   1.7285 H              1 S1                 0.0000
     24 ****        -0.5747   2.0487   0.6921 H              1 S1                 0.0000
     25 ****         1.0577   0.5729   1.2192 H              1 S1                 0.0000
     26 ****         0.9383  -1.1376   1.0774 H              1 S1                 0.0000
     27 ****         0.6097   0.6626  -1.3884 H              1 S1                 0.0000
     28 ****         1.1516  -1.2233  -2.4136 H              1 S1                 0.0000
     29 ****         3.2957  -1.8189  -0.6852 H              1 S1                 0.0000
     30 ****         6.4571   1.0946  -0.7633 H              1 S1                 0.0000
     31 ****         4.7817   2.9197  -0.8855 H              1 S1                 0.0000
     32 ****        -3.8978  -2.6374   1.5922 H              1 S1                 0.0000
     33 ****        -3.9712  -2.5875  -0.1710 H              1 S1                 0.0000
     34 ****        -5.1424  -1.6934   0.7876 H              1 S1                 0.0000
     35 ****        -2.9187   2.4805   0.7856 LP             1 S1                 0.0000
     36 ****        -0.0739  -1.5447  -1.4519 LP             1 S1                 0.0000
     37 ****         1.4336  -2.0563  -1.0882 LP             1 S1                 0.0000
     38 ****        -0.2802  -2.4484   0.5999 LP             1 S1                 0.0000
     39 ****        -1.9027  -3.0531   0.6417 LP             1 S1                 0.0000
@<TRIPOS>BOND
    1    1    2 1     
    2    1   21 1     
    3    1   22 1     
    4    1   23 1     
    5    2   19 2     
    6    2    3 1     
    7    3    4 2     
    8    4    5 1     
    9    4   24 1     
   10    5    6 1     
   11    5   17 am    
   12    6    7 1     
   13    6   25 1     
   14    6   26 1     
   15    7    8 1     
   16    7    9 1     
   17    7   27 1     
   18    8   28 1     
   19    9   15 ar    
   20    9   10 ar    
   21   10   11 ar    
   22   10   29 1     
   23   11   12 1     
   24   11   13 ar    
   25   13   14 ar    
   26   13   30 1     
   27   14   15 ar    
   28   14   31 1     
   29   15   16 1     
   30   17   18 2     
   31   17   19 1     
   32   19   20 1     
   33   20   32 1     
   34   20   33 1     
   35   20   34 1     
   36    3   35 1     
   37    8   36 1     
   38    8   37 1     
   39   18   38 1     
   40   18   39 1     
@<TRIPOS>SUBSTRUCTURE
      1 S1             1
@<TRIPOS>SET
LONE_PAIRS      STATIC     ATOMS    <user>   **** ""
5 35 36 37 38 39
DONOR_HYDROGENS      STATIC     ATOMS    <user>   **** ""
1 28
ATOM$BLUE        STATIC     ATOMS    COLORGROUP SYSTEM
5 35 36 37 38 39
ATOM$RED        STATIC     ATOMS    COLORGROUP SYSTEM
1 28
