AV-unprocessed.smi:1976|AV-procd|sdf|7985|dock3
  -GOLD-   2272010163D 1   1.00000     0.00000
 Structure written by MMmdl.
 45 47  0  0  0  0  0  0  0  0  2 V2000
  150.6554  139.9693  154.7149 O   0  0  0  0  0  0  0  0  0  0  0  0
  150.0818  140.8898  155.2983 C   0  0  0  0  0  0  0  0  0  0  0  0
  150.8424  142.1574  155.7116 C   0  0  0  0  0  0  0  0  0  0  0  0
  151.3565  142.0942  157.0896 N   0  0  0  0  0  0  0  0  0  0  0  0
  151.0799  143.1990  157.9184 C   0  0  0  0  0  0  0  0  0  0  0  0
  151.4682  143.2660  159.2058 C   0  0  0  0  0  0  0  0  0  0  0  0
  151.1878  144.4942  160.0577 C   0  0  0  0  0  0  0  0  0  0  0  0
  151.6215  144.3258  161.3071 F   0  0  0  0  0  0  0  0  0  0  0  0
  151.7829  145.5737  159.5491 F   0  0  0  0  0  0  0  0  0  0  0  0
  149.8765  144.7267  160.0992 F   0  0  0  0  0  0  0  0  0  0  0  0
  152.2326  142.1412  159.7082 C   0  0  0  0  0  0  0  0  0  0  0  0
  152.5085  141.0778  158.9281 C   0  0  0  0  0  0  0  0  0  0  0  0
  152.0537  141.0073  157.5376 C   0  0  0  0  0  0  0  0  0  0  0  0
  152.2838  140.0327  156.8215 O   0  0  0  0  0  0  0  0  0  0  0  0
  148.7757  140.8613  155.6045 N   0  0  0  0  0  0  0  0  0  0  0  0
  147.8702  139.7503  155.3263 C   0  0  2  0  0  0  0  0  0  0  0  0
  148.2722  138.4595  156.0303 C   0  0  0  0  0  0  0  0  0  0  0  0
  147.5176  137.4016  155.2224 C   0  0  0  0  0  0  0  0  0  0  0  0
  147.4746  137.9035  153.8292 N   0  3  1  0  0  0  0  0  0  0  0  0
  146.2196  137.5921  153.1022 C   0  0  0  0  0  0  0  0  0  0  0  0
  146.2760  138.1240  151.6575 C   0  0  0  0  0  0  0  0  0  0  0  0
  146.7514  139.5889  151.5677 C   0  0  0  0  0  0  0  0  0  0  0  0
  146.9576  140.2216  152.9517 C   0  0  0  0  0  0  0  0  0  0  0  0
  147.8653  139.3420  153.8426 C   0  0  1  0  0  0  0  0  0  0  0  0
  151.6479  142.3274  154.9954 H   0  0  0  0  0  0  0  0  0  0  0  0
  150.1845  143.0218  155.6074 H   0  0  0  0  0  0  0  0  0  0  0  0
  150.5221  143.9905  157.4387 H   0  0  0  0  0  0  0  0  0  0  0  0
  152.5870  142.1471  160.7284 H   0  0  0  0  0  0  0  0  0  0  0  0
  153.0780  140.2557  159.3365 H   0  0  0  0  0  0  0  0  0  0  0  0
  148.3830  141.6658  156.0719 H   0  0  0  0  0  0  0  0  0  0  0  0
  146.8560  140.0019  155.6446 H   0  0  0  0  0  0  0  0  0  0  0  0
  149.3480  138.2961  155.9460 H   0  0  0  0  0  0  0  0  0  0  0  0
  148.0093  138.4504  157.0887 H   0  0  0  0  0  0  0  0  0  0  0  0
  147.9885  136.4198  155.2771 H   0  0  0  0  0  0  0  0  0  0  0  0
  146.5041  137.3064  155.6159 H   0  0  0  0  0  0  0  0  0  0  0  0
  146.0597  136.5133  153.0956 H   0  0  0  0  0  0  0  0  0  0  0  0
  145.3721  138.0314  153.6309 H   0  0  0  0  0  0  0  0  0  0  0  0
  146.9451  137.4972  151.0671 H   0  0  0  0  0  0  0  0  0  0  0  0
  145.2916  138.0251  151.1989 H   0  0  0  0  0  0  0  0  0  0  0  0
  147.6927  139.6262  151.0179 H   0  0  0  0  0  0  0  0  0  0  0  0
  146.0416  140.1811  150.9892 H   0  0  0  0  0  0  0  0  0  0  0  0
  147.3906  141.2158  152.8392 H   0  0  0  0  0  0  0  0  0  0  0  0
  145.9879  140.3670  153.4296 H   0  0  0  0  0  0  0  0  0  0  0  0
  148.8846  139.3787  153.4543 H   0  0  0  0  0  0  0  0  0  0  0  0
  148.2132  137.4295  153.3294 H   0  0  0  0  0  0  0  0  0  0  0  0
  1  2  2  0  0  0  0
  2  3  1  0  0  0  0
  2 15  1  0  0  0  0
  3  4  1  0  0  0  0
  3 25  1  0  0  0  0
  3 26  1  0  0  0  0
  4 13  1  0  0  0  0
  4  5  1  0  0  0  0
  5  6  2  0  0  0  0
  5 27  1  0  0  0  0
  6  7  1  0  0  0  0
  6 11  1  0  0  0  0
  7  8  1  0  0  0  0
  7  9  1  0  0  0  0
  7 10  1  0  0  0  0
 11 12  2  0  0  0  0
 11 28  1  0  0  0  0
 12 13  1  0  0  0  0
 12 29  1  0  0  0  0
 13 14  2  0  0  0  0
 15 16  1  0  0  0  0
 15 30  1  0  0  0  0
 16 24  1  0  0  0  0
 16 17  1  0  0  0  0
 16 31  1  0  0  0  0
 17 18  1  0  0  0  0
 17 32  1  0  0  0  0
 17 33  1  0  0  0  0
 18 19  1  0  0  0  0
 18 34  1  0  0  0  0
 18 35  1  0  0  0  0
 19 24  1  0  0  0  0
 19 20  1  0  0  0  0
 19 45  1  0  0  0  0
 20 21  1  0  0  0  0
 20 36  1  0  0  0  0
 20 37  1  0  0  0  0
 21 22  1  0  0  0  0
 21 38  1  0  0  0  0
 21 39  1  0  0  0  0
 22 23  1  0  0  0  0
 22 40  1  0  0  0  0
 22 41  1  0  0  0  0
 23 24  1  0  0  0  0
 23 42  1  0  0  0  0
 23 43  1  0  0  0  0
 24 44  1  0  0  0  0
M  CHG  1  19   1
M  END
> <s_m_source_file>
AV-unprocessed.smi

> <i_m_source_file_index>
1976

> <i_lp_mmshare_version>
43012

> <i_f3d_flags>
0

> <s_epik_input>
W0NIMl0xW0NIMl1bQ0gyXVtDSDJdW0NASF0oTjEyKVtDQEBIXShbQ0gyXVtDSDJdMilbTkhdQyg9TylbQ0gyXW4zW2NIXWMoQyhGKShGKUYpW2NIXVtjSF1jMz1P

> <s_epik_cmdline>
J2VwaWtfcHl0aG9uJywgJy1waCcsICc3LjAnLCAnLXRuJywgJzgnLCAnLW1hJywgJzIwMCcsICctbWV0YWxfYmluZGluZycsICctaW1hZScsICc8aW5maWxlLm1hZT4nLCAnLW9tYWUnLCAnPG91dGZpbGUubWFlPic=

> <r_lp_tautomer_probability>
1

> <r_epik_Ionization_Penalty>
0.00171506

> <r_epik_Ionization_Penalty_Charging>
0.00171498

> <r_epik_Ionization_Penalty_Neutral>
7.81737e-08

> <r_epik_State_Penalty>
0.00115937

> <r_epik_Charging_Adjusted_Penalty>
0.00287436

> <i_epik_Tot_Q>
1

> <i_epik_Tot_abs_Q>
1

> <r_epik_Metal_State_Penalty>
-0

> <b_epik_Metal_Only>
0

> <s_lp_Force_Field>
OPLS_2005

> <r_lp_Energy>
51.6

> <b_lp_Chiralities_Consistent>
1

> <s_lp_Variant>
AV-unprocessed.smi:1976-3

> <Gold.Version>
5.8.1

> <Gold.Id.Protein>
6NUR|6NUR_protein|mol2

> <Gold.PLP.Fitness>
54.4200

> <Gold.PLP.PLP>
-41.0082

> <Gold.PLP.part.hbond>
-3.0000

> <Gold.PLP.part.metal>
0.0000

> <Gold.PLP.part.buried>
1.5469

> <Gold.PLP.part.nonpolar>
-38.0759

> <Gold.PLP.part.repulsive>
0.1300

> <Gold.PLP.ligand.clash>
0.0000

> <Gold.PLP.ligand.torsion>
0.5358

> <Gold.PLP.Chemscore.Hbond>
3.9263

> <Gold.PLP.Chemscore.CHOScore>
0.8897

> <Gold.PLP.Chemscore.Metal>
0.0000

> <Gold.Chemscore.Hbonds>
donor molecule, donor type, donor heavy atom, donor atom, acceptor molecule, acceptor atom, score
      L1  H    19    45       P1  7948  2.00
      P1  H  7989  7998       L1     1  1.00
      P1  H  7997  8010       L1    14  0.76
      L1  C     5    27       P1  8028  1.00

> <Gold.PLP.Chemscore.Internal.Correction>
0.0355

> <Gold.Rescore>
     Score         DG    S(hbond)    S(metal)    S(lipo)     H(rot)  DE(clash)    DE(int)     intcor
     13.79     -18.89       2.03        0.00      91.22       1.58       0.77       4.34       ----

> <Gold.Chemscore.Fitness>
13.7873

> <Gold.Chemscore.DG>
-18.8895

> <Gold.Chemscore.ZeroCoef>
-5.4800

> <Gold.Chemscore.Hbond>
2.0328

> <Gold.Chemscore.Metal>
0.0000

> <Gold.Chemscore.Lipo>
91.2173

> <Gold.Chemscore.Internal_Hbond>
0.0000

> <Gold.Chemscore.DEClash>
0.7652

> <Gold.Chemscore.DEInternal>
4.3370

> <Gold.Chemscore.Rot>
1.5830

> <Gold.Chemscore.Internal.Correction>
   9.000000E+99

> <Gold.Chemscore.Hbonds>
donor molecule, donor type, donor heavy atom, donor atom, acceptor molecule, acceptor atom, score
      L1  H    19    45       P1  7948  0.92
      P1  H  7989  7998       L1     1  0.30
      P1  H  7997  8010       L1    14  0.21

> <Gold.Chemscore.Hbond.Weighted>
-6.7895

> <Gold.Chemscore.Metal.Weighted>
-0.0000

> <Gold.Chemscore.Lipo.Weighted>
-10.6724

> <Gold.Chemscore.Internal_Hbond.Weighted>
0.0000

> <Gold.Chemscore.DEClash.Weighted>
0.7652

> <Gold.Chemscore.DEInternal.Weighted>
4.3370

> <Gold.Chemscore.Rot.Weighted>
4.0524

> <Gold.Chemscore.Internal.Correction.Weighted>
   9.000000E+99

> <Gold.Protein.RotatedTorsions>
[ 6907 6896 6895 6894 ] final  -38.00 input  -60.11 | X-H torsion
[ 7974 7965 7964 7962 ] final -178.14 input  175.53 | X-H torsion
[ 8008 7997 7996 7995 ] final   53.15 input   59.86 | X-H torsion
[ 10167 10162 10161 10158 ] final  -76.47 input  -65.29 | X-H torsion
[ 10718 10713 10712 10709 ] final   45.24 input   66.30 | X-H torsion
[ 10763 10752 10751 10750 ] final   72.59 input  -60.55 | X-H torsion
[ 11005 11000 10999 10996 ] final  109.83 input  -57.11 | X-H torsion

> <Gold.Protein.ActiveResidues>
 VAL166  LYS551  ARG553  GLY616  TRP617  ASP618  TYR619  PRO620  LYS621  CYS622 
 ASP623  PHE694  ASN695  SER759  ASP760  ASP761  ALA762  ILE779  LEU786  VAL792 
 PHE793  MET794  SER795  GLU796  ALA797  LYS798  CYS799  TRP800  GLU811  SER814 

> <Gold.Protein.RotatedAtoms>
  151.0078  134.9373  159.7989 H   0  0  0  0  0  0  0  0  0  0  0  0  # atno 6907 bound_to 6896
  152.5294  134.3069  159.9109 H   0  0  0  0  0  0  0  0  0  0  0  0  # atno 6908 bound_to 6896
  151.3075  133.4053  159.2678 H   0  0  0  0  0  0  0  0  0  0  0  0  # atno 6909 bound_to 6896
  144.7130  140.0913  143.6421 H   0  0  0  0  0  0  0  0  0  0  0  0  # atno 7974 bound_to 7965
  155.4635  140.3462  155.4316 H   0  0  0  0  0  0  0  0  0  0  0  0  # atno 8008 bound_to 7997
  156.1145  140.1470  156.9321 H   0  0  0  0  0  0  0  0  0  0  0  0  # atno 8009 bound_to 7997
  154.4780  140.0879  156.7287 H   0  0  0  0  0  0  0  0  0  0  0  0  # atno 8010 bound_to 7997
  140.4854  143.2392  151.7992 H   0  0  0  0  0  0  0  0  0  0  0  0  # atno 10167 bound_to 10162
  157.4354  130.8050  149.7643 H   0  0  0  0  0  0  0  0  0  0  0  0  # atno 10718 bound_to 10713
  153.0468  135.5094  154.7766 H   0  0  0  0  0  0  0  0  0  0  0  0  # atno 10763 bound_to 10752
  154.6660  135.2945  154.9807 H   0  0  0  0  0  0  0  0  0  0  0  0  # atno 10764 bound_to 10752
  154.0642  135.6686  153.4868 H   0  0  0  0  0  0  0  0  0  0  0  0  # atno 10765 bound_to 10752
  139.8869  134.9468  156.6186 H   0  0  0  0  0  0  0  0  0  0  0  0  # atno 11005 bound_to 11000
  145.9618  139.2806  143.1151 LP  0  0  0  0  0  0  0  0  0  0  0  0  # atno 17320 bound_to 7965
  145.9212  140.9114  143.0404 LP  0  0  0  0  0  0  0  0  0  0  0  0  # atno 17321 bound_to 7965
  139.4841  144.4718  151.9415 LP  0  0  0  0  0  0  0  0  0  0  0  0  # atno 17342 bound_to 10162
  140.3804  144.2743  150.5909 LP  0  0  0  0  0  0  0  0  0  0  0  0  # atno 17343 bound_to 10162
  155.9928  130.3928  150.2924 LP  0  0  0  0  0  0  0  0  0  0  0  0  # atno 17370 bound_to 10713
  157.1085  131.0215  151.3057 LP  0  0  0  0  0  0  0  0  0  0  0  0  # atno 17371 bound_to 10713
  140.7757  133.8702  155.8527 LP  0  0  0  0  0  0  0  0  0  0  0  0  # atno 17394 bound_to 11000
  140.9804  134.1413  157.4499 LP  0  0  0  0  0  0  0  0  0  0  0  0  # atno 17395 bound_to 11000

$$$$
