AV-unprocessed.smi:1521|AV-procd|sdf|6131|dock10
  -GOLD-   22720 6273D 1   1.00000     0.00000
 Structure written by MMmdl.
 36 37  0  0  0  0  0  0  0  0  1 V2000
  146.0907  137.1770  154.6076 O   0  0  0  0  0  0  0  0  0  0  0  0
  147.0741  136.5238  154.2601 C   0  0  0  0  0  0  0  0  0  0  0  0
  148.2333  136.5240  154.9332 N   0  0  0  0  0  0  0  0  0  0  0  0
  148.4893  137.2568  156.1690 C   0  0  0  0  0  0  0  0  0  0  0  0
  149.5956  138.3091  155.9815 C   0  0  1  0  0  0  0  0  0  0  0  0
  149.4912  139.0185  154.6164 C   0  0  0  0  0  0  0  0  0  0  0  0
  150.5186  139.9963  154.5158 O   0  0  0  0  0  0  0  0  0  0  0  0
  150.4045  140.9730  155.5417 C   0  0  0  0  0  0  0  0  0  0  0  0
  150.4994  140.2772  156.9092 C   0  0  0  0  0  0  0  0  0  0  0  0
  149.4740  139.2975  156.9995 O   0  0  0  0  0  0  0  0  0  0  0  0
  147.1408  135.7069  153.1927 N   0  0  0  0  0  0  0  0  0  0  0  0
  146.1609  135.4214  152.2268 C   0  0  0  0  0  0  0  0  0  0  0  0
  145.9169  134.1905  151.7055 C   0  0  0  0  0  0  0  0  0  0  0  0
  144.8778  133.9638  150.7151 C   0  0  0  0  0  0  0  0  0  0  0  0
  144.6692  132.5965  150.0831 C   0  0  0  0  0  0  0  0  0  0  0  0
  144.0927  131.7757  150.9599 F   0  0  0  0  0  0  0  0  0  0  0  0
  143.8854  132.6721  149.0067 F   0  0  0  0  0  0  0  0  0  0  0  0
  145.8327  132.0593  149.7165 F   0  0  0  0  0  0  0  0  0  0  0  0
  144.1695  135.0417  150.3307 C   0  0  0  0  0  0  0  0  0  0  0  0
  144.3997  136.3063  150.8767 N   0  0  0  0  0  0  0  0  0  0  0  0
  145.3474  136.5733  151.8032 C   0  0  0  0  0  0  0  0  0  0  0  0
  145.4877  137.7167  152.2360 O   0  0  0  0  0  0  0  0  0  0  0  0
  143.8164  137.0618  150.5468 H   0  0  0  0  0  0  0  0  0  0  0  0
  148.9883  135.9555  154.5785 H   0  0  0  0  0  0  0  0  0  0  0  0
  147.5599  137.7504  156.4536 H   0  0  0  0  0  0  0  0  0  0  0  0
  148.7376  136.5764  156.9856 H   0  0  0  0  0  0  0  0  0  0  0  0
  150.5687  137.8205  156.0619 H   0  0  0  0  0  0  0  0  0  0  0  0
  149.6098  138.3007  153.8045 H   0  0  0  0  0  0  0  0  0  0  0  0
  148.5135  139.4867  154.4904 H   0  0  0  0  0  0  0  0  0  0  0  0
  151.2064  141.7031  155.4310 H   0  0  0  0  0  0  0  0  0  0  0  0
  149.4613  141.5130  155.4451 H   0  0  0  0  0  0  0  0  0  0  0  0
  151.4777  139.8133  157.0446 H   0  0  0  0  0  0  0  0  0  0  0  0
  150.3722  141.0017  157.7137 H   0  0  0  0  0  0  0  0  0  0  0  0
  147.9997  135.1880  153.0815 H   0  0  0  0  0  0  0  0  0  0  0  0
  146.4774  133.3282  152.0274 H   0  0  0  0  0  0  0  0  0  0  0  0
  143.3887  135.0231  149.5848 H   0  0  0  0  0  0  0  0  0  0  0  0
  1  2  2  0  0  0  0
  2  3  1  0  0  0  0
  2 11  1  0  0  0  0
  3  4  1  0  0  0  0
  3 24  1  0  0  0  0
  4  5  1  0  0  0  0
  4 25  1  0  0  0  0
  4 26  1  0  0  0  0
  5 10  1  0  0  0  0
  5  6  1  0  0  0  0
  5 27  1  0  0  0  0
  6  7  1  0  0  0  0
  6 28  1  0  0  0  0
  6 29  1  0  0  0  0
  7  8  1  0  0  0  0
  8  9  1  0  0  0  0
  8 30  1  0  0  0  0
  8 31  1  0  0  0  0
  9 10  1  0  0  0  0
  9 32  1  0  0  0  0
  9 33  1  0  0  0  0
 11 12  1  0  0  0  0
 11 34  1  0  0  0  0
 12 21  1  0  0  0  0
 12 13  2  0  0  0  0
 13 14  1  0  0  0  0
 13 35  1  0  0  0  0
 14 15  1  0  0  0  0
 14 19  2  0  0  0  0
 15 16  1  0  0  0  0
 15 17  1  0  0  0  0
 15 18  1  0  0  0  0
 19 20  1  0  0  0  0
 19 36  1  0  0  0  0
 20 23  1  0  0  0  0
 20 21  1  0  0  0  0
 21 22  2  0  0  0  0
M  END
> <s_m_source_file>
AV-unprocessed.smi

> <i_m_source_file_index>
1521

> <i_lp_mmshare_version>
43012

> <i_f3d_flags>
0

> <s_epik_input>
Tz1jMVtuSF1bY0hdYyhDKEYpKEYpRilbY0hdYzFbTkhdQyg9TylbTkhdW0NIMl1bQ0BASF0yW0NIMl1PW0NIMl1bQ0gyXU8y

> <s_epik_cmdline>
J2VwaWtfcHl0aG9uJywgJy1waCcsICc3LjAnLCAnLXRuJywgJzgnLCAnLW1hJywgJzIwMCcsICctbWV0YWxfYmluZGluZycsICctaW1hZScsICc8aW5maWxlLm1hZT4nLCAnLW9tYWUnLCAnPG91dGZpbGUubWFlPic=

> <r_lp_tautomer_probability>
1

> <r_epik_Ionization_Penalty>
0.00396636

> <r_epik_Ionization_Penalty_Charging>
0.00394789

> <r_epik_Ionization_Penalty_Neutral>
1.84676e-05

> <r_epik_State_Penalty>
-0

> <r_epik_Charging_Adjusted_Penalty>
0.00394789

> <i_epik_Tot_Q>
0

> <i_epik_Tot_abs_Q>
0

> <r_epik_Metal_State_Penalty>
0.372669

> <b_epik_Metal_Only>
0

> <s_lp_Force_Field>
OPLS_2005

> <r_lp_Energy>
19.2224

> <b_lp_Chiralities_Consistent>
1

> <s_lp_Variant>
AV-unprocessed.smi:1521-2

> <Gold.Version>
5.8.1

> <Gold.Id.Protein>
6NUR|6NUR_protein|mol2

> <Gold.PLP.Fitness>
39.1221

> <Gold.PLP.PLP>
-32.8349

> <Gold.PLP.part.hbond>
-2.7567

> <Gold.PLP.part.metal>
0.0000

> <Gold.PLP.part.buried>
-2.9036

> <Gold.PLP.part.nonpolar>
-27.7825

> <Gold.PLP.part.repulsive>
0.7675

> <Gold.PLP.ligand.clash>
0.7511

> <Gold.PLP.ligand.torsion>
0.9121

> <Gold.PLP.Chemscore.Hbond>
1.9440

> <Gold.PLP.Chemscore.CHOScore>
1.0000

> <Gold.PLP.Chemscore.Metal>
0.0000

> <Gold.Chemscore.Hbonds>
donor molecule, donor type, donor heavy atom, donor atom, acceptor molecule, acceptor atom, score
      L1  H    11    34       P1  7948  0.08
      L1  H    20    23       P1 10171  0.88
      P1  H  7989  7998       L1     7  0.90
      L1  C    19    36       P1 10186  1.00

> <Gold.PLP.Chemscore.Internal.Correction>
0.0305

> <Gold.Rescore>
     Score         DG    S(hbond)    S(metal)    S(lipo)     H(rot)  DE(clash)    DE(int)     intcor
      9.37     -14.23       2.04        0.00      46.57       1.37       1.29       3.58       ----

> <Gold.Chemscore.Fitness>
9.3720

> <Gold.Chemscore.DG>
-14.2344

> <Gold.Chemscore.ZeroCoef>
-5.4800

> <Gold.Chemscore.Hbond>
2.0424

> <Gold.Chemscore.Metal>
0.0000

> <Gold.Chemscore.Lipo>
46.5735

> <Gold.Chemscore.Internal_Hbond>
0.0000

> <Gold.Chemscore.DEClash>
1.2866

> <Gold.Chemscore.DEInternal>
3.5758

> <Gold.Chemscore.Rot>
1.3735

> <Gold.Chemscore.Internal.Correction>
   9.000000E+99

> <Gold.Chemscore.Hbonds>
donor molecule, donor type, donor heavy atom, donor atom, acceptor molecule, acceptor atom, score
      L1  H    11    34       P1  7948  0.10
      L1  H    20    23       P1 10171  0.86
      P1  H  7989  7998       L1     7  0.18

> <Gold.Chemscore.Hbond.Weighted>
-6.8215

> <Gold.Chemscore.Metal.Weighted>
-0.0000

> <Gold.Chemscore.Lipo.Weighted>
-5.4491

> <Gold.Chemscore.Internal_Hbond.Weighted>
0.0000

> <Gold.Chemscore.DEClash.Weighted>
1.2866

> <Gold.Chemscore.DEInternal.Weighted>
3.5758

> <Gold.Chemscore.Rot.Weighted>
3.5162

> <Gold.Chemscore.Internal.Correction.Weighted>
   9.000000E+99

> <Gold.Protein.RotatedTorsions>
[ 6907 6896 6895 6894 ] final  -50.76 input  -60.11 | X-H torsion
[ 7974 7965 7964 7962 ] final    4.33 input  175.53 | X-H torsion
[ 8008 7997 7996 7995 ] final -123.35 input   59.86 | X-H torsion
[ 10167 10162 10161 10158 ] final  156.13 input  -65.29 | X-H torsion
[ 10718 10713 10712 10709 ] final    7.05 input   66.30 | X-H torsion
[ 10763 10752 10751 10750 ] final   33.61 input  -60.55 | X-H torsion
[ 11005 11000 10999 10996 ] final -119.03 input  -57.11 | X-H torsion

> <Gold.Protein.ActiveResidues>
 VAL166  LYS551  ARG553  GLY616  TRP617  ASP618  TYR619  PRO620  LYS621  CYS622 
 ASP623  PHE694  ASN695  SER759  ASP760  ASP761  ALA762  ILE779  LEU786  VAL792 
 PHE793  MET794  SER795  GLU796  ALA797  LYS798  CYS799  TRP800  GLU811  SER814 

> <Gold.Protein.RotatedAtoms>
  150.8676  134.8042  159.7129 H   0  0  0  0  0  0  0  0  0  0  0  0  # atno 6907 bound_to 6896
  152.4692  134.4999  159.9731 H   0  0  0  0  0  0  0  0  0  0  0  0  # atno 6908 bound_to 6896
  151.5093  133.3450  159.2918 H   0  0  0  0  0  0  0  0  0  0  0  0  # atno 6909 bound_to 6896
  146.2444  140.0550  142.8372 H   0  0  0  0  0  0  0  0  0  0  0  0  # atno 7974 bound_to 7965
  155.1791  140.0410  157.2878 H   0  0  0  0  0  0  0  0  0  0  0  0  # atno 8008 bound_to 7997
  154.6216  140.2502  155.7514 H   0  0  0  0  0  0  0  0  0  0  0  0  # atno 8009 bound_to 7997
  156.2437  140.2893  156.0527 H   0  0  0  0  0  0  0  0  0  0  0  0  # atno 8010 bound_to 7997
  139.4821  144.5036  151.8131 H   0  0  0  0  0  0  0  0  0  0  0  0  # atno 10167 bound_to 10162
  156.9312  130.5826  149.5649 H   0  0  0  0  0  0  0  0  0  0  0  0  # atno 10718 bound_to 10713
  153.0204  135.6382  154.1538 H   0  0  0  0  0  0  0  0  0  0  0  0  # atno 10763 bound_to 10752
  154.1273  135.2843  155.3195 H   0  0  0  0  0  0  0  0  0  0  0  0  # atno 10764 bound_to 10752
  154.6220  135.5521  153.7647 H   0  0  0  0  0  0  0  0  0  0  0  0  # atno 10765 bound_to 10752
  141.0244  134.0075  157.3235 H   0  0  0  0  0  0  0  0  0  0  0  0  # atno 11005 bound_to 11000
  145.0950  140.9309  143.4746 LP  0  0  0  0  0  0  0  0  0  0  0  0  # atno 17320 bound_to 7965
  145.0731  139.3016  143.5822 LP  0  0  0  0  0  0  0  0  0  0  0  0  # atno 17321 bound_to 7965
  140.4532  144.1826  150.5899 LP  0  0  0  0  0  0  0  0  0  0  0  0  # atno 17342 bound_to 10162
  140.4563  143.2466  151.9280 LP  0  0  0  0  0  0  0  0  0  0  0  0  # atno 17343 bound_to 10162
  156.0446  130.5524  150.8851 LP  0  0  0  0  0  0  0  0  0  0  0  0  # atno 17370 bound_to 10713
  157.5846  131.0946  150.9217 LP  0  0  0  0  0  0  0  0  0  0  0  0  # atno 17371 bound_to 10713
  139.9167  135.0197  156.7907 LP  0  0  0  0  0  0  0  0  0  0  0  0  # atno 17394 bound_to 11000
  140.6516  133.9726  155.7758 LP  0  0  0  0  0  0  0  0  0  0  0  0  # atno 17395 bound_to 11000

$$$$
