AV-unprocessed.smi:754|AV-procd|sdf|3609|dock5
  -GOLD-   22720 1 03D 1   1.00000     0.00000
 Structure written by MMmdl.
 37 38  0  0  0  0  0  0  0  0  1 V2000
  148.2801  144.9884  161.5110 C   0  0  0  0  0  0  0  0  0  0  0  0
  149.2631  144.8950  160.3424 C   0  0  0  0  0  0  0  0  0  0  0  0
  149.3553  143.5422  159.9290 O   0  0  0  0  0  0  0  0  0  0  0  0
  149.7388  143.4049  158.5699 C   0  0  2  0  0  0  0  0  0  0  0  0
  149.4865  142.0166  157.9738 C   0  0  0  0  0  0  0  0  0  0  0  0
  150.8198  142.2054  157.2489 C   0  0  2  0  0  0  0  0  0  0  0  0
  151.5959  140.9742  157.1726 N   0  0  0  0  0  0  0  0  0  0  0  0
  151.5752  140.1289  156.1314 C   0  0  0  0  0  0  0  0  0  0  0  0
  150.8168  140.2543  155.1705 O   0  0  0  0  0  0  0  0  0  0  0  0
  152.5858  138.9827  156.1660 C   0  0  0  0  0  0  0  0  0  0  0  0
  152.0296  137.8310  156.8521 N   0  0  0  0  0  0  0  0  0  0  0  0
  151.4958  137.7086  158.0693 C   0  0  0  0  0  0  0  0  0  0  0  0
  151.1322  136.4605  158.3208 N   0  0  0  0  0  0  0  0  0  0  0  0
  151.4776  135.7921  157.1580 N   0  0  0  0  0  0  0  0  0  0  0  0
  152.0105  136.6000  156.2829 N   0  0  0  0  0  0  0  0  0  0  0  0
  151.2579  143.1680  158.3863 C   0  0  0  0  0  0  0  0  0  0  0  0
  152.0690  144.3879  157.9504 C   0  0  0  0  0  0  0  0  0  0  0  0
  151.9955  142.5477  159.5874 C   0  0  0  0  0  0  0  0  0  0  0  0
  148.1848  146.0170  161.8590 H   0  0  0  0  0  0  0  0  0  0  0  0
  148.6135  144.3797  162.3519 H   0  0  0  0  0  0  0  0  0  0  0  0
  147.2893  144.6411  161.2173 H   0  0  0  0  0  0  0  0  0  0  0  0
  148.9207  145.5225  159.5186 H   0  0  0  0  0  0  0  0  0  0  0  0
  150.2434  145.2605  160.6510 H   0  0  0  0  0  0  0  0  0  0  0  0
  149.3665  144.2116  157.9336 H   0  0  0  0  0  0  0  0  0  0  0  0
  149.4934  141.2198  158.7199 H   0  0  0  0  0  0  0  0  0  0  0  0
  148.6156  141.9533  157.3209 H   0  0  0  0  0  0  0  0  0  0  0  0
  150.6882  142.7119  156.2896 H   0  0  0  0  0  0  0  0  0  0  0  0
  152.2420  140.7923  157.9268 H   0  0  0  0  0  0  0  0  0  0  0  0
  152.8598  138.6943  155.1504 H   0  0  0  0  0  0  0  0  0  0  0  0
  153.4993  139.2967  156.6731 H   0  0  0  0  0  0  0  0  0  0  0  0
  151.3838  138.5242  158.7684 H   0  0  0  0  0  0  0  0  0  0  0  0
  153.0831  144.1110  157.6606 H   0  0  0  0  0  0  0  0  0  0  0  0
  152.1432  145.1250  158.7505 H   0  0  0  0  0  0  0  0  0  0  0  0
  151.6145  144.8858  157.0935 H   0  0  0  0  0  0  0  0  0  0  0  0
  153.0152  142.2592  159.3290 H   0  0  0  0  0  0  0  0  0  0  0  0
  151.4952  141.6544  159.9614 H   0  0  0  0  0  0  0  0  0  0  0  0
  152.0591  143.2486  160.4201 H   0  0  0  0  0  0  0  0  0  0  0  0
  1  2  1  0  0  0  0
  1 19  1  0  0  0  0
  1 20  1  0  0  0  0
  1 21  1  0  0  0  0
  2  3  1  0  0  0  0
  2 22  1  0  0  0  0
  2 23  1  0  0  0  0
  3  4  1  0  0  0  0
  4 16  1  0  0  0  0
  4  5  1  0  0  0  0
  4 24  1  0  0  0  0
  5  6  1  0  0  0  0
  5 25  1  0  0  0  0
  5 26  1  0  0  0  0
  6  7  1  0  0  0  0
  6 16  1  0  0  0  0
  6 27  1  0  0  0  0
  7  8  1  0  0  0  0
  7 28  1  0  0  0  0
  8  9  2  0  0  0  0
  8 10  1  0  0  0  0
 10 11  1  0  0  0  0
 10 29  1  0  0  0  0
 10 30  1  0  0  0  0
 11 15  1  0  0  0  0
 11 12  1  0  0  0  0
 12 13  2  0  0  0  0
 12 31  1  0  0  0  0
 13 14  1  0  0  0  0
 14 15  2  0  0  0  0
 16 17  1  0  0  0  0
 16 18  1  0  0  0  0
 17 32  1  0  0  0  0
 17 33  1  0  0  0  0
 17 34  1  0  0  0  0
 18 35  1  0  0  0  0
 18 36  1  0  0  0  0
 18 37  1  0  0  0  0
M  END
> <s_m_source_file>
AV-unprocessed.smi

> <i_m_source_file_index>
754

> <i_lp_mmshare_version>
43012

> <i_f3d_flags>
0

> <s_epik_input>
W0NIM11bQ0gyXU9bQ0BASF0oQzEoW0NIM10pW0NIM10pW0NIMl1bQ0BIXTFbTkhdQyg9TylbQ0gyXW4yW2NIXW5ubjI=

> <s_epik_cmdline>
J2VwaWtfcHl0aG9uJywgJy1waCcsICc3LjAnLCAnLXRuJywgJzgnLCAnLW1hJywgJzIwMCcsICctbWV0YWxfYmluZGluZycsICctaW1hZScsICc8aW5maWxlLm1hZT4nLCAnLW9tYWUnLCAnPG91dGZpbGUubWFlPic=

> <r_lp_tautomer_probability>
1

> <r_epik_Ionization_Penalty>
8.28422e-07

> <r_epik_Ionization_Penalty_Charging>
0

> <r_epik_Ionization_Penalty_Neutral>
8.28422e-07

> <r_epik_State_Penalty>
-0

> <r_epik_Charging_Adjusted_Penalty>
0

> <i_epik_Tot_Q>
0

> <i_epik_Tot_abs_Q>
0

> <r_epik_Metal_State_Penalty>
-0

> <b_epik_Metal_Only>
0

> <s_lp_Force_Field>
OPLS_2005

> <r_lp_Energy>
20.4803

> <b_lp_Chiralities_Consistent>
1

> <s_lp_Variant>
AV-unprocessed.smi:754-3

> <Gold.Version>
5.8.1

> <Gold.Id.Protein>
6NUR|6NUR_protein|mol2

> <Gold.PLP.Fitness>
39.7702

> <Gold.PLP.PLP>
-32.6979

> <Gold.PLP.part.hbond>
-4.4652

> <Gold.PLP.part.metal>
0.0000

> <Gold.PLP.part.buried>
-5.0029

> <Gold.PLP.part.nonpolar>
-24.4372

> <Gold.PLP.part.repulsive>
0.2685

> <Gold.PLP.ligand.clash>
0.0000

> <Gold.PLP.ligand.torsion>
1.1173

> <Gold.PLP.Chemscore.Hbond>
2.9938

> <Gold.PLP.Chemscore.CHOScore>
0.0000

> <Gold.PLP.Chemscore.Metal>
0.0000

> <Gold.Chemscore.Hbonds>
donor molecule, donor type, donor heavy atom, donor atom, acceptor molecule, acceptor atom, score
      P1  H  6896  6908       L1    13  0.64
      P1  H  6933  6944       L1     3  0.31
      P1  H  7989  7998       L1     9  1.00
      P1  H 10752 10765       L1    15  1.00

> <Gold.PLP.Chemscore.Internal.Correction>
0.3257

> <Gold.Rescore>
     Score         DG    S(hbond)    S(metal)    S(lipo)     H(rot)  DE(clash)    DE(int)     intcor
     14.81     -15.93       2.50        0.00      71.88       2.46       0.07       1.05       ----

> <Gold.Chemscore.Fitness>
14.8114

> <Gold.Chemscore.DG>
-15.9345

> <Gold.Chemscore.ZeroCoef>
-5.4800

> <Gold.Chemscore.Hbond>
2.4989

> <Gold.Chemscore.Metal>
0.0000

> <Gold.Chemscore.Lipo>
71.8784

> <Gold.Chemscore.Internal_Hbond>
0.0000

> <Gold.Chemscore.DEClash>
0.0707

> <Gold.Chemscore.DEInternal>
1.0524

> <Gold.Chemscore.Rot>
2.4616

> <Gold.Chemscore.Internal.Correction>
   9.000000E+99

> <Gold.Chemscore.Hbonds>
donor molecule, donor type, donor heavy atom, donor atom, acceptor molecule, acceptor atom, score
      P1  H  6896  6908       L1    13  0.34
      P1  H  6933  6944       L1     3  0.19
      P1  H  7989  7998       L1     9  0.90
      P1  H 10752 10765       L1    15  0.62

> <Gold.Chemscore.Hbond.Weighted>
-8.3464

> <Gold.Chemscore.Metal.Weighted>
-0.0000

> <Gold.Chemscore.Lipo.Weighted>
-8.4098

> <Gold.Chemscore.Internal_Hbond.Weighted>
0.0000

> <Gold.Chemscore.DEClash.Weighted>
0.0707

> <Gold.Chemscore.DEInternal.Weighted>
1.0524

> <Gold.Chemscore.Rot.Weighted>
6.3016

> <Gold.Chemscore.Internal.Correction.Weighted>
   9.000000E+99

> <Gold.Protein.RotatedTorsions>
[ 6907 6896 6895 6894 ] final -152.89 input  -60.11 | X-H torsion
[ 7974 7965 7964 7962 ] final -175.26 input  175.53 | X-H torsion
[ 8008 7997 7996 7995 ] final -171.28 input   59.86 | X-H torsion
[ 10167 10162 10161 10158 ] final   26.48 input  -65.29 | X-H torsion
[ 10718 10713 10712 10709 ] final  -28.09 input   66.30 | X-H torsion
[ 10763 10752 10751 10750 ] final -153.91 input  -60.55 | X-H torsion
[ 11005 11000 10999 10996 ] final    3.41 input  -57.11 | X-H torsion

> <Gold.Protein.ActiveResidues>
 VAL166  LYS551  ARG553  GLY616  TRP617  ASP618  TYR619  PRO620  LYS621  CYS622 
 ASP623  PHE694  ASN695  SER759  ASP760  ASP761  ALA762  ILE779  LEU786  VAL792 
 PHE793  MET794  SER795  GLU796  ALA797  LYS798  CYS799  TRP800  GLU811  SER814 

> <Gold.Protein.RotatedAtoms>
  151.2344  133.4433  159.2604 H   0  0  0  0  0  0  0  0  0  0  0  0  # atno 6907 bound_to 6896
  151.0764  134.9831  159.8344 H   0  0  0  0  0  0  0  0  0  0  0  0  # atno 6908 bound_to 6896
  152.5419  134.2287  159.8869 H   0  0  0  0  0  0  0  0  0  0  0  0  # atno 6909 bound_to 6896
  144.7129  140.1347  143.6396 H   0  0  0  0  0  0  0  0  0  0  0  0  # atno 7974 bound_to 7965
  155.9295  140.1088  157.1144 H   0  0  0  0  0  0  0  0  0  0  0  0  # atno 8008 bound_to 7997
  154.4068  140.1240  156.4849 H   0  0  0  0  0  0  0  0  0  0  0  0  # atno 8009 bound_to 7997
  155.7098  140.3471  155.4971 H   0  0  0  0  0  0  0  0  0  0  0  0  # atno 8010 bound_to 7997
  140.5019  144.0300  150.6336 H   0  0  0  0  0  0  0  0  0  0  0  0  # atno 10167 bound_to 10162
  156.4297  130.4442  149.7126 H   0  0  0  0  0  0  0  0  0  0  0  0  # atno 10718 bound_to 10713
  154.7895  135.3202  154.7809 H   0  0  0  0  0  0  0  0  0  0  0  0  # atno 10763 bound_to 10752
  153.8501  135.6863  153.4797 H   0  0  0  0  0  0  0  0  0  0  0  0  # atno 10764 bound_to 10752
  153.1560  135.4680  154.9644 H   0  0  0  0  0  0  0  0  0  0  0  0  # atno 10765 bound_to 10752
  140.5935  133.9902  155.8099 H   0  0  0  0  0  0  0  0  0  0  0  0  # atno 11005 bound_to 11000
  145.9255  139.2573  143.1356 LP  0  0  0  0  0  0  0  0  0  0  0  0  # atno 17320 bound_to 7965
  145.9576  140.8860  143.0227 LP  0  0  0  0  0  0  0  0  0  0  0  0  # atno 17321 bound_to 7965
  140.3599  143.2914  152.0395 LP  0  0  0  0  0  0  0  0  0  0  0  0  # atno 17342 bound_to 10162
  139.4874  144.6311  151.7068 LP  0  0  0  0  0  0  0  0  0  0  0  0  # atno 17343 bound_to 10162
  156.4034  130.7686  151.2695 LP  0  0  0  0  0  0  0  0  0  0  0  0  # atno 17370 bound_to 10713
  157.7508  131.0233  150.3828 LP  0  0  0  0  0  0  0  0  0  0  0  0  # atno 17371 bound_to 10713
  141.0919  133.9903  157.3222 LP  0  0  0  0  0  0  0  0  0  0  0  0  # atno 17394 bound_to 11000
  139.9264  135.0201  156.8248 LP  0  0  0  0  0  0  0  0  0  0  0  0  # atno 17395 bound_to 11000

$$$$
