AV-unprocessed.smi:1831|AV-procd|sdf|7460|dock1
  -GOLD-   22720 9153D 1   1.00000     0.00000
 Structure written by MMmdl.
 40 41  0  0  0  0  0  0  0  0  3 V2000
  151.5531  141.3068  158.1937 C   0  0  0  0  0  0  0  0  0  0  0  0
  151.2290  140.5348  156.9611 C   0  0  0  0  0  0  0  0  0  0  0  0
  151.0321  141.1177  155.7762 N   0  0  0  0  0  0  0  0  0  0  0  0
  150.7473  140.1947  154.7802 N   0  0  0  0  0  0  0  0  0  0  0  0
  150.7402  138.9297  155.2227 C   0  0  0  0  0  0  0  0  0  0  0  0
  150.4868  137.8850  154.4175 N   0  5  0  0  0  0  0  0  0  0  0  0
  150.7800  136.6321  154.8289 C   0  0  0  0  0  0  0  0  0  0  0  0
  151.5641  136.3236  155.7287 O   0  0  0  0  0  0  0  0  0  0  0  0
  150.0875  135.6807  154.1863 N   0  0  0  0  0  0  0  0  0  0  0  0
  150.0860  134.2501  154.4916 C   0  0  0  0  0  0  0  0  0  0  0  0
  148.6655  133.6721  154.7160 C   0  0  2  0  0  0  0  0  0  0  0  0
  148.3673  132.4228  153.8734 C   0  0  0  0  0  0  0  0  0  0  0  0
  147.4340  132.8853  152.7437 C   0  0  0  0  0  0  0  0  0  0  0  0
  147.2357  134.3424  152.9153 N   0  3  1  0  0  0  0  0  0  0  0  0
  145.9494  134.8844  152.3977 C   0  0  0  0  0  0  0  0  0  0  0  0
  144.7470  134.2666  153.1360 C   0  0  0  0  0  0  0  0  0  0  0  0
  145.8067  134.6405  150.8839 C   0  0  0  0  0  0  0  0  0  0  0  0
  147.5342  134.6329  154.3331 C   0  0  0  0  0  0  0  0  0  0  0  0
  151.0743  138.7861  156.9480 S   0  0  0  0  0  0  0  0  0  0  0  0
  152.5330  141.7739  158.0946 H   0  0  0  0  0  0  0  0  0  0  0  0
  151.5656  140.6483  159.0622 H   0  0  0  0  0  0  0  0  0  0  0  0
  150.8067  142.0846  158.3566 H   0  0  0  0  0  0  0  0  0  0  0  0
  149.4737  135.9841  153.4443 H   0  0  0  0  0  0  0  0  0  0  0  0
  150.5499  133.7398  153.6472 H   0  0  0  0  0  0  0  0  0  0  0  0
  150.7223  134.0364  155.3518 H   0  0  0  0  0  0  0  0  0  0  0  0
  148.5811  133.4284  155.7758 H   0  0  0  0  0  0  0  0  0  0  0  0
  149.2749  131.9576  153.4871 H   0  0  0  0  0  0  0  0  0  0  0  0
  147.8607  131.6727  154.4821 H   0  0  0  0  0  0  0  0  0  0  0  0
  147.8581  132.6770  151.7609 H   0  0  0  0  0  0  0  0  0  0  0  0
  146.4816  132.3584  152.8182 H   0  0  0  0  0  0  0  0  0  0  0  0
  145.9387  135.9615  152.5714 H   0  0  0  0  0  0  0  0  0  0  0  0
  143.8055  134.6342  152.7269 H   0  0  0  0  0  0  0  0  0  0  0  0
  144.7480  134.5137  154.1976 H   0  0  0  0  0  0  0  0  0  0  0  0
  144.7432  133.1799  153.0472 H   0  0  0  0  0  0  0  0  0  0  0  0
  144.8355  134.9802  150.5229 H   0  0  0  0  0  0  0  0  0  0  0  0
  145.8964  133.5806  150.6429 H   0  0  0  0  0  0  0  0  0  0  0  0
  146.5613  135.1794  150.3111 H   0  0  0  0  0  0  0  0  0  0  0  0
  146.6504  134.4156  154.9354 H   0  0  0  0  0  0  0  0  0  0  0  0
  147.8001  135.6764  154.5010 H   0  0  0  0  0  0  0  0  0  0  0  0
  147.9769  134.7844  152.3880 H   0  0  0  0  0  0  0  0  0  0  0  0
  1  2  1  0  0  0  0
  1 20  1  0  0  0  0
  1 21  1  0  0  0  0
  1 22  1  0  0  0  0
  2 19  1  0  0  0  0
  2  3  2  0  0  0  0
  3  4  1  0  0  0  0
  4  5  2  0  0  0  0
  5  6  1  0  0  0  0
  5 19  1  0  0  0  0
  6  7  1  0  0  0  0
  7  8  2  0  0  0  0
  7  9  1  0  0  0  0
  9 10  1  0  0  0  0
  9 23  1  0  0  0  0
 10 11  1  0  0  0  0
 10 24  1  0  0  0  0
 10 25  1  0  0  0  0
 11 18  1  0  0  0  0
 11 12  1  0  0  0  0
 11 26  1  0  0  0  0
 12 13  1  0  0  0  0
 12 27  1  0  0  0  0
 12 28  1  0  0  0  0
 13 14  1  0  0  0  0
 13 29  1  0  0  0  0
 13 30  1  0  0  0  0
 14 15  1  0  0  0  0
 14 18  1  0  0  0  0
 14 40  1  0  0  0  0
 15 16  1  0  0  0  0
 15 17  1  0  0  0  0
 15 31  1  0  0  0  0
 16 32  1  0  0  0  0
 16 33  1  0  0  0  0
 16 34  1  0  0  0  0
 17 35  1  0  0  0  0
 17 36  1  0  0  0  0
 17 37  1  0  0  0  0
 18 38  1  0  0  0  0
 18 39  1  0  0  0  0
M  CHG  1   6  -1
M  CHG  1  14   1
M  END
> <s_m_source_file>
AV-unprocessed.smi

> <i_m_source_file_index>
1831

> <i_lp_mmshare_version>
43012

> <i_f3d_flags>
0

> <s_epik_input>
W0NIM11jMW5uYyhzMSlbTkhdQyg9TylbTkhdW0NIMl1bQ0BASF0yW0NIMl1bQ0gyXU4oW0NIMl0yKVtDSF0oW0NIM10pW0NIM10=

> <s_epik_cmdline>
J2VwaWtfcHl0aG9uJywgJy1waCcsICc3LjAnLCAnLXRuJywgJzgnLCAnLW1hJywgJzIwMCcsICctbWV0YWxfYmluZGluZycsICctaW1hZScsICc8aW5maWxlLm1hZT4nLCAnLW9tYWUnLCAnPG91dGZpbGUubWFlPic=

> <r_lp_tautomer_probability>
1

> <r_epik_Ionization_Penalty>
4.24531

> <r_epik_Ionization_Penalty_Charging>
4.11954

> <r_epik_Ionization_Penalty_Neutral>
0.125766

> <r_epik_State_Penalty>
4.11879

> <r_epik_Charging_Adjusted_Penalty>
8.23833

> <i_epik_Tot_Q>
0

> <i_epik_Tot_abs_Q>
2

> <r_epik_Metal_State_Penalty>
0.659341

> <b_epik_Metal_Only>
1

> <s_lp_Force_Field>
OPLS_2005

> <r_lp_Energy>
22.0545

> <b_lp_Chiralities_Consistent>
1

> <s_lp_Variant>
AV-unprocessed.smi:1831-5

> <Gold.Version>
5.8.1

> <Gold.Id.Protein>
6NUR|6NUR_protein|mol2

> <Gold.PLP.Fitness>
40.2891

> <Gold.PLP.PLP>
-26.8834

> <Gold.PLP.part.hbond>
-5.7452

> <Gold.PLP.part.metal>
0.0000

> <Gold.PLP.part.buried>
-2.4600

> <Gold.PLP.part.nonpolar>
-19.2462

> <Gold.PLP.part.repulsive>
0.4562

> <Gold.PLP.ligand.clash>
0.0000

> <Gold.PLP.ligand.torsion>
0.8789

> <Gold.PLP.Chemscore.Hbond>
5.0000

> <Gold.PLP.Chemscore.CHOScore>
0.0000

> <Gold.PLP.Chemscore.Metal>
0.0000

> <Gold.Chemscore.Hbonds>
donor molecule, donor type, donor heavy atom, donor atom, acceptor molecule, acceptor atom, score
      L1  H     9    23       P1  7948  1.00
      L1  H    14    40       P1  7948  2.00
      P1  H  7989  7998       L1     4  1.00
      P1  H 10752 10763       L1     8  1.00

> <Gold.PLP.Chemscore.Internal.Correction>
0.1636

> <Gold.Rescore>
     Score         DG    S(hbond)    S(metal)    S(lipo)     H(rot)  DE(clash)    DE(int)     intcor
     15.86     -19.00       3.37        0.00      52.35       1.51       0.84       2.29       ----

> <Gold.Chemscore.Fitness>
15.8644

> <Gold.Chemscore.DG>
-19.0008

> <Gold.Chemscore.ZeroCoef>
-5.4800

> <Gold.Chemscore.Hbond>
3.3742

> <Gold.Chemscore.Metal>
0.0000

> <Gold.Chemscore.Lipo>
52.3459

> <Gold.Chemscore.Internal_Hbond>
0.0000

> <Gold.Chemscore.DEClash>
0.8436

> <Gold.Chemscore.DEInternal>
2.2928

> <Gold.Chemscore.Rot>
1.5131

> <Gold.Chemscore.Internal.Correction>
   9.000000E+99

> <Gold.Chemscore.Hbonds>
donor molecule, donor type, donor heavy atom, donor atom, acceptor molecule, acceptor atom, score
      L1  H     9    23       P1  7948  0.39
      L1  H    14    40       P1  7948  0.64
      P1  H  7989  7998       L1     4  0.26
      P1  H 10752 10763       L1     8  0.55

> <Gold.Chemscore.Hbond.Weighted>
-11.2698

> <Gold.Chemscore.Metal.Weighted>
-0.0000

> <Gold.Chemscore.Lipo.Weighted>
-6.1245

> <Gold.Chemscore.Internal_Hbond.Weighted>
0.0000

> <Gold.Chemscore.DEClash.Weighted>
0.8436

> <Gold.Chemscore.DEInternal.Weighted>
2.2928

> <Gold.Chemscore.Rot.Weighted>
3.8735

> <Gold.Chemscore.Internal.Correction.Weighted>
   9.000000E+99

> <Gold.Protein.RotatedTorsions>
[ 6907 6896 6895 6894 ] final  -19.80 input  -60.11 | X-H torsion
[ 7974 7965 7964 7962 ] final -171.56 input  175.53 | X-H torsion
[ 8008 7997 7996 7995 ] final -113.98 input   59.86 | X-H torsion
[ 10167 10162 10161 10158 ] final   45.03 input  -65.29 | X-H torsion
[ 10718 10713 10712 10709 ] final   12.28 input   66.30 | X-H torsion
[ 10763 10752 10751 10750 ] final   77.38 input  -60.55 | X-H torsion
[ 11005 11000 10999 10996 ] final  152.51 input  -57.11 | X-H torsion

> <Gold.Protein.ActiveResidues>
 VAL166  LYS551  ARG553  GLY616  TRP617  ASP618  TYR619  PRO620  LYS621  CYS622 
 ASP623  PHE694  ASN695  SER759  ASP760  ASP761  ALA762  ILE779  LEU786  VAL792 
 PHE793  MET794  SER795  GLU796  ALA797  LYS798  CYS799  TRP800  GLU811  SER814 

> <Gold.Protein.RotatedAtoms>
  151.2576  135.0643  159.9085 H   0  0  0  0  0  0  0  0  0  0  0  0  # atno 6907 bound_to 6896
  152.5371  134.0265  159.8015 H   0  0  0  0  0  0  0  0  0  0  0  0  # atno 6908 bound_to 6896
  151.0483  133.5596  159.2676 H   0  0  0  0  0  0  0  0  0  0  0  0  # atno 6909 bound_to 6896
  144.7155  140.1903  143.6349 H   0  0  0  0  0  0  0  0  0  0  0  0  # atno 7974 bound_to 7965
  155.0292  140.0393  157.2467 H   0  0  0  0  0  0  0  0  0  0  0  0  # atno 8008 bound_to 7997
  154.7311  140.2730  155.6432 H   0  0  0  0  0  0  0  0  0  0  0  0  # atno 8009 bound_to 7997
  156.2841  140.2684  156.2011 H   0  0  0  0  0  0  0  0  0  0  0  0  # atno 8010 bound_to 7997
  140.3283  144.2620  150.6172 H   0  0  0  0  0  0  0  0  0  0  0  0  # atno 10167 bound_to 10162
  157.0079  130.6105  149.5704 H   0  0  0  0  0  0  0  0  0  0  0  0  # atno 10718 bound_to 10713
  153.0795  135.4916  154.8473 H   0  0  0  0  0  0  0  0  0  0  0  0  # atno 10763 bound_to 10752
  154.7131  135.3024  154.9168 H   0  0  0  0  0  0  0  0  0  0  0  0  # atno 10764 bound_to 10752
  153.9855  135.6784  153.4805 H   0  0  0  0  0  0  0  0  0  0  0  0  # atno 10765 bound_to 10752
  140.1314  134.8799  157.2208 H   0  0  0  0  0  0  0  0  0  0  0  0  # atno 11005 bound_to 11000
  145.8774  139.2304  143.1625 LP  0  0  0  0  0  0  0  0  0  0  0  0  # atno 17320 bound_to 7965
  146.0027  140.8506  143.0010 LP  0  0  0  0  0  0  0  0  0  0  0  0  # atno 17321 bound_to 7965
  140.5421  143.2221  151.8068 LP  0  0  0  0  0  0  0  0  0  0  0  0  # atno 17342 bound_to 10162
  139.4861  144.4587  151.9567 LP  0  0  0  0  0  0  0  0  0  0  0  0  # atno 17343 bound_to 10162
  156.0147  130.5240  150.8097 LP  0  0  0  0  0  0  0  0  0  0  0  0  # atno 17370 bound_to 10713
  157.5342  131.0938  150.9914 LP  0  0  0  0  0  0  0  0  0  0  0  0  # atno 17371 bound_to 10713
  140.2837  134.3320  155.7335 LP  0  0  0  0  0  0  0  0  0  0  0  0  # atno 17394 bound_to 11000
  141.2171  133.7494  156.9402 LP  0  0  0  0  0  0  0  0  0  0  0  0  # atno 17395 bound_to 11000

$$$$
