AV-unprocessed.smi:890|AV-procd|sdf|4061|dock10
  -GOLD-   22720 1553D 1   1.00000     0.00000
 Structure written by MMmdl.
 53 56  0  0  0  0  0  0  0  0  3 V2000
  147.7334  132.4771  153.5057 O   0  0  0  0  0  0  0  0  0  0  0  0
  147.0320  133.4209  153.8656 C   0  0  0  0  0  0  0  0  0  0  0  0
  145.9032  133.8368  153.2654 N   0  0  0  0  0  0  0  0  0  0  0  0
  145.2436  133.3435  152.0994 C   0  0  0  0  0  0  0  0  0  0  0  0
  145.8346  132.4416  151.1752 C   0  0  0  0  0  0  0  0  0  0  0  0
  145.1037  132.0137  150.0492 C   0  0  0  0  0  0  0  0  0  0  0  0
  143.7946  132.4902  149.8582 C   0  0  0  0  0  0  0  0  0  0  0  0
  143.2595  133.3466  150.7522 N   0  3  0  0  0  0  0  0  0  0  0  0
  143.9184  133.7881  151.8515 C   0  0  0  0  0  0  0  0  0  0  0  0
  143.2669  134.6859  152.7156 N   0  0  0  0  0  0  0  0  0  0  0  0
  141.8453  134.4553  152.9123 C   0  0  0  0  0  0  0  0  0  0  0  0
  141.3095  135.7403  153.5492 C   0  0  0  0  0  0  0  0  0  0  0  0
  142.3351  136.8203  153.1817 C   0  0  0  0  0  0  0  0  0  0  0  0
  143.4009  136.0888  152.3612 C   0  0  0  0  0  0  0  0  0  0  0  0
  147.3129  134.1792  154.9352 N   0  0  0  0  0  0  0  0  0  0  0  0
  148.4691  134.0071  155.8105 C   0  0  2  0  0  0  0  0  0  0  0  0
  149.7640  134.1181  154.9873 C   0  0  0  0  0  0  0  0  0  0  0  0
  151.0061  133.8364  155.8543 C   0  0  0  0  0  0  0  0  0  0  0  0
  150.9240  132.5197  156.5368 N   0  3  2  0  0  0  0  0  0  0  0  0
  151.1459  131.3718  155.6258 C   0  0  0  0  0  0  0  0  0  0  0  0
  151.5772  130.1089  156.3341 C   0  0  0  0  0  0  0  0  0  0  0  0
  152.5870  130.9237  155.5572 C   0  0  0  0  0  0  0  0  0  0  0  0
  149.6902  132.3929  157.3538 C   0  0  0  0  0  0  0  0  0  0  0  0
  148.4166  132.6422  156.5241 C   0  0  0  0  0  0  0  0  0  0  0  0
  145.4468  134.6230  153.7041 H   0  0  0  0  0  0  0  0  0  0  0  0
  146.8361  132.0618  151.2926 H   0  0  0  0  0  0  0  0  0  0  0  0
  145.5450  131.3283  149.3401 H   0  0  0  0  0  0  0  0  0  0  0  0
  143.1648  132.2163  149.0243 H   0  0  0  0  0  0  0  0  0  0  0  0
  141.3480  134.2762  151.9582 H   0  0  0  0  0  0  0  0  0  0  0  0
  141.6729  133.5882  153.5509 H   0  0  0  0  0  0  0  0  0  0  0  0
  140.3081  135.9789  153.1898 H   0  0  0  0  0  0  0  0  0  0  0  0
  141.2562  135.6331  154.6333 H   0  0  0  0  0  0  0  0  0  0  0  0
  141.8898  137.6412  152.6190 H   0  0  0  0  0  0  0  0  0  0  0  0
  142.7740  137.2393  154.0882 H   0  0  0  0  0  0  0  0  0  0  0  0
  144.4027  136.4575  152.5837 H   0  0  0  0  0  0  0  0  0  0  0  0
  143.2179  136.2322  151.2955 H   0  0  0  0  0  0  0  0  0  0  0  0
  146.6804  134.9326  155.1622 H   0  0  0  0  0  0  0  0  0  0  0  0
  148.4720  134.8016  156.5595 H   0  0  0  0  0  0  0  0  0  0  0  0
  149.7346  133.4209  154.1489 H   0  0  0  0  0  0  0  0  0  0  0  0
  149.8427  135.1144  154.5510 H   0  0  0  0  0  0  0  0  0  0  0  0
  151.9121  133.8866  155.2492 H   0  0  0  0  0  0  0  0  0  0  0  0
  151.1027  134.6124  156.6148 H   0  0  0  0  0  0  0  0  0  0  0  0
  150.5121  131.3139  154.7430 H   0  0  0  0  0  0  0  0  0  0  0  0
  151.6493  130.1238  157.4201 H   0  0  0  0  0  0  0  0  0  0  0  0
  151.2646  129.1603  155.9020 H   0  0  0  0  0  0  0  0  0  0  0  0
  152.9408  130.5108  154.6146 H   0  0  0  0  0  0  0  0  0  0  0  0
  153.3283  131.4804  156.1279 H   0  0  0  0  0  0  0  0  0  0  0  0
  149.6531  131.4085  157.8220 H   0  0  0  0  0  0  0  0  0  0  0  0
  149.7410  133.1174  158.1677 H   0  0  0  0  0  0  0  0  0  0  0  0
  147.5448  132.5934  157.1777 H   0  0  0  0  0  0  0  0  0  0  0  0
  148.2916  131.8435  155.7920 H   0  0  0  0  0  0  0  0  0  0  0  0
  151.6950  132.4937  157.1890 H   0  0  0  0  0  0  0  0  0  0  0  0
  142.3088  133.6800  150.5908 H   0  0  0  0  0  0  0  0  0  0  0  0
  1  2  2  0  0  0  0
  2  3  1  0  0  0  0
  2 15  1  0  0  0  0
  3  4  1  0  0  0  0
  3 25  1  0  0  0  0
  4  9  1  0  0  0  0
  4  5  2  0  0  0  0
  5  6  1  0  0  0  0
  5 26  1  0  0  0  0
  6  7  2  0  0  0  0
  6 27  1  0  0  0  0
  7  8  1  0  0  0  0
  7 28  1  0  0  0  0
  8  9  2  0  0  0  0
  8 53  1  0  0  0  0
  9 10  1  0  0  0  0
 10 14  1  0  0  0  0
 10 11  1  0  0  0  0
 11 12  1  0  0  0  0
 11 29  1  0  0  0  0
 11 30  1  0  0  0  0
 12 13  1  0  0  0  0
 12 31  1  0  0  0  0
 12 32  1  0  0  0  0
 13 14  1  0  0  0  0
 13 33  1  0  0  0  0
 13 34  1  0  0  0  0
 14 35  1  0  0  0  0
 14 36  1  0  0  0  0
 15 16  1  0  0  0  0
 15 37  1  0  0  0  0
 16 24  1  0  0  0  0
 16 17  1  0  0  0  0
 16 38  1  0  0  0  0
 17 18  1  0  0  0  0
 17 39  1  0  0  0  0
 17 40  1  0  0  0  0
 18 19  1  0  0  0  0
 18 41  1  0  0  0  0
 18 42  1  0  0  0  0
 19 20  1  0  0  0  0
 19 23  1  0  0  0  0
 19 52  1  0  0  0  0
 20 22  1  0  0  0  0
 20 21  1  0  0  0  0
 20 43  1  0  0  0  0
 21 22  1  0  0  0  0
 21 44  1  0  0  0  0
 21 45  1  0  0  0  0
 22 46  1  0  0  0  0
 22 47  1  0  0  0  0
 23 24  1  0  0  0  0
 23 48  1  0  0  0  0
 23 49  1  0  0  0  0
 24 50  1  0  0  0  0
 24 51  1  0  0  0  0
M  CHG  1   8   1
M  CHG  1  19   1
M  END
> <s_m_source_file>
AV-unprocessed.smi

> <i_m_source_file_index>
890

> <i_lp_mmshare_version>
43012

> <i_f3d_flags>
0

> <s_epik_input>
W0NIMl0xW0NIMl1bQ0hdMU4oW0NIMl1bQ0gyXTIpW0NIMl1bQ0gyXVtDSF0yW05IXUMoPU8pW05IXWMzW2NIXVtjSF1bY0hdbmMzTjRbQ0gyXVtDSDJdW0NIMl1bQ0gyXTQ=

> <s_epik_cmdline>
J2VwaWtfcHl0aG9uJywgJy1waCcsICc3LjAnLCAnLXRuJywgJzgnLCAnLW1hJywgJzIwMCcsICctbWV0YWxfYmluZGluZycsICctaW1hZScsICc8aW5maWxlLm1hZT4nLCAnLW9tYWUnLCAnPG91dGZpbGUubWFlPic=

> <r_lp_tautomer_probability>
0.999994

> <r_epik_Ionization_Penalty>
1.36901

> <r_epik_Ionization_Penalty_Charging>
1.36899

> <r_epik_Ionization_Penalty_Neutral>
1.88098e-05

> <r_epik_State_Penalty>
1.38441

> <r_epik_Charging_Adjusted_Penalty>
2.7534

> <i_epik_Tot_Q>
2

> <i_epik_Tot_abs_Q>
2

> <r_epik_Metal_State_Penalty>
1.45718

> <b_epik_Metal_Only>
0

> <s_lp_Force_Field>
OPLS_2005

> <r_lp_Energy>
67.0325

> <b_lp_Chiralities_Consistent>
1

> <s_lp_Variant>
AV-unprocessed.smi:890-5

> <Gold.Version>
5.8.1

> <Gold.Id.Protein>
6NUR|6NUR_protein|mol2

> <Gold.PLP.Fitness>
40.0976

> <Gold.PLP.PLP>
-35.5767

> <Gold.PLP.part.hbond>
-1.0000

> <Gold.PLP.part.metal>
0.0000

> <Gold.PLP.part.buried>
-8.2515

> <Gold.PLP.part.nonpolar>
-26.3128

> <Gold.PLP.part.repulsive>
0.3484

> <Gold.PLP.ligand.clash>
0.0000

> <Gold.PLP.ligand.torsion>
1.3846

> <Gold.PLP.Chemscore.Hbond>
2.0000

> <Gold.PLP.Chemscore.CHOScore>
0.0000

> <Gold.PLP.Chemscore.Metal>
0.0000

> <Gold.Chemscore.Hbonds>
donor molecule, donor type, donor heavy atom, donor atom, acceptor molecule, acceptor atom, score
      L1  H     8    53       P1 10186  2.00

> <Gold.PLP.Chemscore.Internal.Correction>
1.2900

> <Gold.Rescore>
     Score         DG    S(hbond)    S(metal)    S(lipo)     H(rot)  DE(clash)    DE(int)     intcor
     12.92     -16.22       0.99        0.00      93.13       1.35       0.01       3.30       ----

> <Gold.Chemscore.Fitness>
12.9196

> <Gold.Chemscore.DG>
-16.2242

> <Gold.Chemscore.ZeroCoef>
-5.4800

> <Gold.Chemscore.Hbond>
0.9883

> <Gold.Chemscore.Metal>
0.0000

> <Gold.Chemscore.Lipo>
93.1322

> <Gold.Chemscore.Internal_Hbond>
0.0000

> <Gold.Chemscore.DEClash>
0.0052

> <Gold.Chemscore.DEInternal>
3.2994

> <Gold.Chemscore.Rot>
1.3489

> <Gold.Chemscore.Internal.Correction>
   9.000000E+99

> <Gold.Chemscore.Hbonds>
donor molecule, donor type, donor heavy atom, donor atom, acceptor molecule, acceptor atom, score
      L1  H     8    53       P1 10186  0.90

> <Gold.Chemscore.Hbond.Weighted>
-3.3009

> <Gold.Chemscore.Metal.Weighted>
-0.0000

> <Gold.Chemscore.Lipo.Weighted>
-10.8965

> <Gold.Chemscore.Internal_Hbond.Weighted>
0.0000

> <Gold.Chemscore.DEClash.Weighted>
0.0052

> <Gold.Chemscore.DEInternal.Weighted>
3.2994

> <Gold.Chemscore.Rot.Weighted>
3.4532

> <Gold.Chemscore.Internal.Correction.Weighted>
   9.000000E+99

> <Gold.Protein.RotatedTorsions>
[ 6907 6896 6895 6894 ] final   96.21 input  -60.11 | X-H torsion
[ 7974 7965 7964 7962 ] final -105.83 input  175.53 | X-H torsion
[ 8008 7997 7996 7995 ] final   79.51 input   59.86 | X-H torsion
[ 10167 10162 10161 10158 ] final   97.85 input  -65.29 | X-H torsion
[ 10718 10713 10712 10709 ] final   19.78 input   66.30 | X-H torsion
[ 10763 10752 10751 10750 ] final -113.69 input  -60.55 | X-H torsion
[ 11005 11000 10999 10996 ] final   80.31 input  -57.11 | X-H torsion

> <Gold.Protein.ActiveResidues>
 VAL166  LYS551  ARG553  GLY616  TRP617  ASP618  TYR619  PRO620  LYS621  CYS622 
 ASP623  PHE694  ASN695  SER759  ASP760  ASP761  ALA762  ILE779  LEU786  VAL792 
 PHE793  MET794  SER795  GLU796  ALA797  LYS798  CYS799  TRP800  GLU811  SER814 

> <Gold.Protein.RotatedAtoms>
  152.5437  134.0921  159.8281 H   0  0  0  0  0  0  0  0  0  0  0  0  # atno 6907 bound_to 6896
  151.1009  133.5237  159.2617 H   0  0  0  0  0  0  0  0  0  0  0  0  # atno 6908 bound_to 6896
  151.1992  135.0444  159.8919 H   0  0  0  0  0  0  0  0  0  0  0  0  # atno 6909 bound_to 6896
  145.2255  140.9151  143.3235 H   0  0  0  0  0  0  0  0  0  0  0  0  # atno 7974 bound_to 7965
  155.8707  140.3449  155.5819 H   0  0  0  0  0  0  0  0  0  0  0  0  # atno 8008 bound_to 7997
  155.7830  140.0861  157.2068 H   0  0  0  0  0  0  0  0  0  0  0  0  # atno 8009 bound_to 7997
  154.4017  140.1497  156.3062 H   0  0  0  0  0  0  0  0  0  0  0  0  # atno 8010 bound_to 7997
  139.7762  144.6905  151.0085 H   0  0  0  0  0  0  0  0  0  0  0  0  # atno 10167 bound_to 10162
  157.1153  130.6526  149.5908 H   0  0  0  0  0  0  0  0  0  0  0  0  # atno 10718 bound_to 10713
  154.8407  135.4445  154.1389 H   0  0  0  0  0  0  0  0  0  0  0  0  # atno 10763 bound_to 10752
  153.2580  135.6933  153.7615 H   0  0  0  0  0  0  0  0  0  0  0  0  # atno 10764 bound_to 10752
  153.6902  135.3388  155.3176 H   0  0  0  0  0  0  0  0  0  0  0  0  # atno 10765 bound_to 10752
  139.9139  134.7910  156.1893 H   0  0  0  0  0  0  0  0  0  0  0  0  # atno 11005 bound_to 11000
  144.9725  139.3865  143.6302 LP  0  0  0  0  0  0  0  0  0  0  0  0  # atno 17320 bound_to 7965
  146.3366  139.8829  142.8821 LP  0  0  0  0  0  0  0  0  0  0  0  0  # atno 17321 bound_to 7965
  140.7816  143.4533  151.0382 LP  0  0  0  0  0  0  0  0  0  0  0  0  # atno 17342 bound_to 10162
  139.8215  143.7814  152.3177 LP  0  0  0  0  0  0  0  0  0  0  0  0  # atno 17343 bound_to 10162
  155.9841  130.4864  150.6965 LP  0  0  0  0  0  0  0  0  0  0  0  0  # atno 17370 bound_to 10713
  157.4524  131.0874  151.0832 LP  0  0  0  0  0  0  0  0  0  0  0  0  # atno 17371 bound_to 10713
  141.0594  133.6849  156.1923 LP  0  0  0  0  0  0  0  0  0  0  0  0  # atno 17394 bound_to 11000
  140.6685  134.4892  157.5586 LP  0  0  0  0  0  0  0  0  0  0  0  0  # atno 17395 bound_to 11000

$$$$
