AV-unprocessed.smi:156|AV-procd|sdf|1287|dock1
  -GOLD-   2262018563D 1   1.00000     0.00000
 Structure written by MMmdl.
 51 53  0  0  0  0  0  0  0  0  1 V2000
  151.1928  140.6051  157.9406 C   0  0  0  0  0  0  0  0  0  0  0  0
  150.3233  139.5185  157.2699 C   0  0  2  0  0  0  0  0  0  0  0  0
  150.8560  138.9813  155.9047 C   0  0  2  0  0  0  0  0  0  0  0  0
  149.8741  137.9617  155.2935 C   0  0  0  0  0  0  0  0  0  0  0  0
  152.5432  138.2131  156.0755 S   0  0  0  0  0  0  0  0  0  0  0  0
  153.4395  138.7981  154.5763 C   0  0  0  0  0  0  0  0  0  0  0  0
  153.2123  138.8062  157.2435 O   0  0  0  0  0  0  0  0  0  0  0  0
  152.4048  136.7516  155.9833 O   0  0  0  0  0  0  0  0  0  0  0  0
  148.9049  139.9107  157.2222 N   0  0  0  0  0  0  0  0  0  0  0  0
  148.4688  140.7794  156.1337 C   0  0  0  0  0  0  0  0  0  0  0  0
  147.9196  139.1269  157.7375 C   0  0  0  0  0  0  0  0  0  0  0  0
  146.6161  139.4840  157.5966 N   0  0  0  0  0  0  0  0  0  0  0  0
  145.6444  138.7240  158.1085 C   0  0  0  0  0  0  0  0  0  0  0  0
  145.7511  137.5836  158.7915 N   0  0  0  0  0  0  0  0  0  0  0  0
  147.0557  137.2175  158.9423 C   0  0  0  0  0  0  0  0  0  0  0  0
  148.1903  137.9240  158.4510 C   0  0  0  0  0  0  0  0  0  0  0  0
  149.3515  137.2366  158.7827 N   0  0  0  0  0  0  0  0  0  0  0  0
  148.9290  136.1894  159.4361 C   0  0  0  0  0  0  0  0  0  0  0  0
  147.5636  136.1043  159.5913 N   0  0  0  0  0  0  0  0  0  0  0  0
  146.8245  135.0477  160.2683 C   0  0  0  0  0  0  0  0  0  0  0  0
  146.8670  135.1276  161.8097 C   0  0  0  0  0  0  0  0  0  0  0  0
  147.9162  136.1536  162.2702 C   0  0  0  0  0  0  0  0  0  0  0  0
  147.4334  137.4741  162.1312 O   0  0  0  0  0  0  0  0  0  0  0  0
  145.4944  135.2427  162.4868 C   0  0  0  0  0  0  0  0  0  0  0  0
  145.5338  133.8791  162.9562 O   0  0  0  0  0  0  0  0  0  0  0  0
  146.9120  133.7776  162.5418 C   0  0  0  0  0  0  0  0  0  0  0  0
  152.1499  140.2024  158.2699 H   0  0  0  0  0  0  0  0  0  0  0  0
  150.7101  141.0087  158.8306 H   0  0  0  0  0  0  0  0  0  0  0  0
  151.3979  141.4396  157.2706 H   0  0  0  0  0  0  0  0  0  0  0  0
  150.3547  138.6658  157.9496 H   0  0  0  0  0  0  0  0  0  0  0  0
  150.9820  139.8017  155.2002 H   0  0  0  0  0  0  0  0  0  0  0  0
  148.8700  138.3749  155.1992 H   0  0  0  0  0  0  0  0  0  0  0  0
  149.8040  137.0636  155.9076 H   0  0  0  0  0  0  0  0  0  0  0  0
  150.1736  137.6626  154.2905 H   0  0  0  0  0  0  0  0  0  0  0  0
  154.4928  138.5325  154.6643 H   0  0  0  0  0  0  0  0  0  0  0  0
  153.3484  139.8810  154.4927 H   0  0  0  0  0  0  0  0  0  0  0  0
  153.0320  138.3214  153.6857 H   0  0  0  0  0  0  0  0  0  0  0  0
  147.7074  140.2947  155.5211 H   0  0  0  0  0  0  0  0  0  0  0  0
  149.3011  141.0427  155.4804 H   0  0  0  0  0  0  0  0  0  0  0  0
  148.0553  141.7066  156.5299 H   0  0  0  0  0  0  0  0  0  0  0  0
  144.6380  139.0819  157.9489 H   0  0  0  0  0  0  0  0  0  0  0  0
  149.6102  135.4443  159.8192 H   0  0  0  0  0  0  0  0  0  0  0  0
  145.7942  135.0665  159.9116 H   0  0  0  0  0  0  0  0  0  0  0  0
  147.2295  134.0938  159.9279 H   0  0  0  0  0  0  0  0  0  0  0  0
  148.1669  136.0032  163.3208 H   0  0  0  0  0  0  0  0  0  0  0  0
  148.8518  136.0522  161.7203 H   0  0  0  0  0  0  0  0  0  0  0  0
  146.8794  137.6718  162.8709 H   0  0  0  0  0  0  0  0  0  0  0  0
  145.4654  135.9547  163.3131 H   0  0  0  0  0  0  0  0  0  0  0  0
  144.6720  135.4212  161.7931 H   0  0  0  0  0  0  0  0  0  0  0  0
  147.0808  132.9163  161.8970 H   0  0  0  0  0  0  0  0  0  0  0  0
  147.5904  133.7578  163.3960 H   0  0  0  0  0  0  0  0  0  0  0  0
  1  2  1  0  0  0  0
  1 27  1  0  0  0  0
  1 28  1  0  0  0  0
  1 29  1  0  0  0  0
  2  3  1  0  0  0  0
  2  9  1  0  0  0  0
  2 30  1  0  0  0  0
  3  4  1  0  0  0  0
  3  5  1  0  0  0  0
  3 31  1  0  0  0  0
  4 32  1  0  0  0  0
  4 33  1  0  0  0  0
  4 34  1  0  0  0  0
  5  6  1  0  0  0  0
  5  7  2  0  0  0  0
  5  8  2  0  0  0  0
  6 35  1  0  0  0  0
  6 36  1  0  0  0  0
  6 37  1  0  0  0  0
  9 10  1  0  0  0  0
  9 11  1  0  0  0  0
 10 38  1  0  0  0  0
 10 39  1  0  0  0  0
 10 40  1  0  0  0  0
 11 16  1  0  0  0  0
 11 12  2  0  0  0  0
 12 13  1  0  0  0  0
 13 14  2  0  0  0  0
 13 41  1  0  0  0  0
 14 15  1  0  0  0  0
 15 19  1  0  0  0  0
 15 16  2  0  0  0  0
 16 17  1  0  0  0  0
 17 18  2  0  0  0  0
 18 19  1  0  0  0  0
 18 42  1  0  0  0  0
 19 20  1  0  0  0  0
 20 21  1  0  0  0  0
 20 43  1  0  0  0  0
 20 44  1  0  0  0  0
 21 26  1  0  0  0  0
 21 22  1  0  0  0  0
 21 24  1  0  0  0  0
 22 23  1  0  0  0  0
 22 45  1  0  0  0  0
 22 46  1  0  0  0  0
 23 47  1  0  0  0  0
 24 25  1  0  0  0  0
 24 48  1  0  0  0  0
 24 49  1  0  0  0  0
 25 26  1  0  0  0  0
 26 50  1  0  0  0  0
 26 51  1  0  0  0  0
M  END
> <s_m_source_file>
AV-unprocessed.smi

> <i_m_source_file_index>
156

> <i_lp_mmshare_version>
43012

> <i_f3d_flags>
0

> <s_epik_input>
W0NIM11TKD1PKSg9TylbQ0BASF0oW0NIM10pW0NAQEhdKFtDSDNdKU4oW0NIM10pYyhuW2NIXW4xKWMoYzEyKW5bY0hdbjJbQ0gyXUMzKFtDSDJdW09IXSlbQ0gyXU9bQ0gyXTM=

> <s_epik_cmdline>
J2VwaWtfcHl0aG9uJywgJy1waCcsICc3LjAnLCAnLXRuJywgJzgnLCAnLW1hJywgJzIwMCcsICctbWV0YWxfYmluZGluZycsICctaW1hZScsICc8aW5maWxlLm1hZT4nLCAnLW9tYWUnLCAnPG91dGZpbGUubWFlPic=

> <r_lp_tautomer_probability>
1

> <r_epik_Ionization_Penalty>
0.00107697

> <r_epik_Ionization_Penalty_Charging>
0

> <r_epik_Ionization_Penalty_Neutral>
0.00107697

> <r_epik_State_Penalty>
0.000614712

> <r_epik_Charging_Adjusted_Penalty>
0.000614712

> <i_epik_Tot_Q>
0

> <i_epik_Tot_abs_Q>
0

> <r_epik_Metal_State_Penalty>
-0

> <b_epik_Metal_Only>
0

> <s_lp_Force_Field>
OPLS_2005

> <r_lp_Energy>
28.4574

> <b_lp_Chiralities_Consistent>
1

> <s_lp_Variant>
AV-unprocessed.smi:156-1

> <Gold.Version>
5.8.1

> <Gold.Id.Protein>
6NUR|6NUR_protein|mol2

> <Gold.PLP.Fitness>
39.9177

> <Gold.PLP.PLP>
-33.7770

> <Gold.PLP.part.hbond>
-4.9747

> <Gold.PLP.part.metal>
0.0000

> <Gold.PLP.part.buried>
-5.7097

> <Gold.PLP.part.nonpolar>
-22.9168

> <Gold.PLP.part.repulsive>
0.0747

> <Gold.PLP.ligand.clash>
0.0000

> <Gold.PLP.ligand.torsion>
2.8348

> <Gold.PLP.Chemscore.Hbond>
3.3920

> <Gold.PLP.Chemscore.CHOScore>
0.0000

> <Gold.PLP.Chemscore.Metal>
0.0000

> <Gold.Chemscore.Hbonds>
donor molecule, donor type, donor heavy atom, donor atom, acceptor molecule, acceptor atom, score
      P1  H  6931  6943       L1    23  0.64
      P1  H  6934  6947       L1    23  0.58
      P1  H  7997  8008       L1     7  1.00
      P1  H 10752 10765       L1     8  0.99

> <Gold.PLP.Chemscore.Internal.Correction>
1.6343

> <Gold.Rescore>
     Score         DG    S(hbond)    S(metal)    S(lipo)     H(rot)  DE(clash)    DE(int)     intcor
      6.63     -14.24       2.69        0.00      68.28       3.21       0.01       7.60       ----

> <Gold.Chemscore.Fitness>
6.6286

> <Gold.Chemscore.DG>
-14.2371

> <Gold.Chemscore.ZeroCoef>
-5.4800

> <Gold.Chemscore.Hbond>
2.6915

> <Gold.Chemscore.Metal>
0.0000

> <Gold.Chemscore.Lipo>
68.2824

> <Gold.Chemscore.Internal_Hbond>
0.0000

> <Gold.Chemscore.DEClash>
0.0119

> <Gold.Chemscore.DEInternal>
7.5966

> <Gold.Chemscore.Rot>
3.2115

> <Gold.Chemscore.Internal.Correction>
   9.000000E+99

> <Gold.Chemscore.Hbonds>
donor molecule, donor type, donor heavy atom, donor atom, acceptor molecule, acceptor atom, score
      P1  H  6931  6943       L1    23  0.11
      P1  H  6934  6947       L1    23  0.23
      P1  H  7997  8008       L1     7  0.94
      P1  H 10752 10765       L1     8  0.94

> <Gold.Chemscore.Hbond.Weighted>
-8.9895

> <Gold.Chemscore.Metal.Weighted>
-0.0000

> <Gold.Chemscore.Lipo.Weighted>
-7.9890

> <Gold.Chemscore.Internal_Hbond.Weighted>
0.0000

> <Gold.Chemscore.DEClash.Weighted>
0.0119

> <Gold.Chemscore.DEInternal.Weighted>
7.5966

> <Gold.Chemscore.Rot.Weighted>
8.2215

> <Gold.Chemscore.Internal.Correction.Weighted>
   9.000000E+99

> <Gold.Protein.RotatedTorsions>
[ 6907 6896 6895 6894 ] final  139.41 input  -60.11 | X-H torsion
[ 7974 7965 7964 7962 ] final   67.96 input  175.53 | X-H torsion
[ 8008 7997 7996 7995 ] final  -78.09 input   59.86 | X-H torsion
[ 10167 10162 10161 10158 ] final  162.06 input  -65.29 | X-H torsion
[ 10718 10713 10712 10709 ] final  121.87 input   66.30 | X-H torsion
[ 10763 10752 10751 10750 ] final -156.14 input  -60.55 | X-H torsion
[ 11005 11000 10999 10996 ] final   82.40 input  -57.11 | X-H torsion

> <Gold.Protein.ActiveResidues>
 VAL166  LYS551  ARG553  GLY616  TRP617  ASP618  TYR619  PRO620  LYS621  CYS622 
 ASP623  PHE694  ASN695  SER759  ASP760  ASP761  ALA762  ILE779  LEU786  VAL792 
 PHE793  MET794  SER795  GLU796  ALA797  LYS798  CYS799  TRP800  GLU811  SER814 

> <Gold.Protein.RotatedAtoms>
  152.2552  133.5249  159.5348 H   0  0  0  0  0  0  0  0  0  0  0  0  # atno 6907 bound_to 6896
  150.7106  134.0905  159.3939 H   0  0  0  0  0  0  0  0  0  0  0  0  # atno 6908 bound_to 6896
  151.8824  135.0448  160.0541 H   0  0  0  0  0  0  0  0  0  0  0  0  # atno 6909 bound_to 6896
  145.8084  139.3019  143.1114 H   0  0  0  0  0  0  0  0  0  0  0  0  # atno 7974 bound_to 7965
  154.5656  140.0700  156.8887 H   0  0  0  0  0  0  0  0  0  0  0  0  # atno 8008 bound_to 7997
  155.2729  140.3366  155.4246 H   0  0  0  0  0  0  0  0  0  0  0  0  # atno 8009 bound_to 7997
  156.2078  140.1747  156.7747 H   0  0  0  0  0  0  0  0  0  0  0  0  # atno 8010 bound_to 7997
  139.4856  144.4475  151.8873 H   0  0  0  0  0  0  0  0  0  0  0  0  # atno 10167 bound_to 10162
  157.5785  131.1077  150.8233 H   0  0  0  0  0  0  0  0  0  0  0  0  # atno 10718 bound_to 10713
  154.7735  135.3152  154.8140 H   0  0  0  0  0  0  0  0  0  0  0  0  # atno 10763 bound_to 10752
  153.8870  135.6829  153.4767 H   0  0  0  0  0  0  0  0  0  0  0  0  # atno 10764 bound_to 10752
  153.1354  135.4762  154.9349 H   0  0  0  0  0  0  0  0  0  0  0  0  # atno 10765 bound_to 10752
  139.9065  134.8068  156.2169 H   0  0  0  0  0  0  0  0  0  0  0  0  # atno 11005 bound_to 11000
  145.9804  140.8687  143.0117 LP  0  0  0  0  0  0  0  0  0  0  0  0  # atno 17320 bound_to 7965
  144.6760  140.2072  143.7381 LP  0  0  0  0  0  0  0  0  0  0  0  0  # atno 17321 bound_to 7965
  140.3930  144.2592  150.5898 LP  0  0  0  0  0  0  0  0  0  0  0  0  # atno 17342 bound_to 10162
  140.5129  143.2286  151.8508 LP  0  0  0  0  0  0  0  0  0  0  0  0  # atno 17343 bound_to 10162
  156.8685  130.5138  149.5298 LP  0  0  0  0  0  0  0  0  0  0  0  0  # atno 17370 bound_to 10713
  156.0830  130.5836  150.9597 LP  0  0  0  0  0  0  0  0  0  0  0  0  # atno 17371 bound_to 10713
  141.0430  133.6928  156.1632 LP  0  0  0  0  0  0  0  0  0  0  0  0  # atno 17394 bound_to 11000
  140.6927  134.4649  157.5588 LP  0  0  0  0  0  0  0  0  0  0  0  0  # atno 17395 bound_to 11000

$$$$
