AV-unprocessed.smi:1434|AV-procd|sdf|5854|dock4
  -GOLD-   22720 5523D 1   1.00000     0.00000
 Structure written by MMmdl.
 43 44  0  0  0  0  0  0  0  0  2 V2000
  152.6045  131.3448  163.7029 C   0  0  0  0  0  0  0  0  0  0  0  0
  153.6598  132.4792  164.7026 S   0  0  0  0  0  0  0  0  0  0  0  0
  152.7460  133.2148  165.5938 O   0  0  0  0  0  0  0  0  0  0  0  0
  154.6525  131.6059  165.3466 O   0  0  0  0  0  0  0  0  0  0  0  0
  154.3491  133.4026  163.5539 N   0  5  0  0  0  0  0  0  0  0  0  0
  153.8976  134.7668  163.3150 C   0  0  1  0  0  0  0  0  0  0  0  0
  153.8305  135.5640  164.6441 C   0  0  0  0  0  0  0  0  0  0  0  0
  153.5943  137.0870  164.4431 C   0  0  0  0  0  0  0  0  0  0  0  0
  154.5589  137.7065  163.4042 C   0  0  0  0  0  0  0  0  0  0  0  0
  154.4323  136.9087  162.1650 N   0  0  0  0  0  0  0  0  0  0  0  0
  153.8885  137.3427  160.9974 C   0  0  0  0  0  0  0  0  0  0  0  0
  153.3904  136.5859  160.1626 O   0  0  0  0  0  0  0  0  0  0  0  0
  153.8342  138.6809  160.8728 N   0  0  0  0  0  0  0  0  0  0  0  0
  153.0738  139.4105  159.8606 C   0  0  0  0  0  0  0  0  0  0  0  0
  153.8293  140.6607  159.3644 C   0  0  0  0  0  0  0  0  0  0  0  0
  153.1092  141.9684  159.6542 C   0  0  0  0  0  0  0  0  0  0  0  0
  152.8308  142.3590  160.9823 C   0  0  0  0  0  0  0  0  0  0  0  0
  152.1192  143.5554  161.1955 C   0  0  0  0  0  0  0  0  0  0  0  0
  151.7185  144.3129  160.0789 C   0  0  0  0  0  0  0  0  0  0  0  0
  152.0505  143.8398  158.7938 C   0  0  0  0  0  0  0  0  0  0  0  0
  152.7344  142.6952  158.5778 N   0  0  0  0  0  0  0  0  0  0  0  0
  154.8648  135.5044  162.3484 C   0  0  0  0  0  0  0  0  0  0  0  0
  152.1385  130.6142  164.3629 H   0  0  0  0  0  0  0  0  0  0  0  0
  153.2220  130.8271  162.9694 H   0  0  0  0  0  0  0  0  0  0  0  0
  151.8281  131.9110  163.1900 H   0  0  0  0  0  0  0  0  0  0  0  0
  152.9081  134.7852  162.8577 H   0  0  0  0  0  0  0  0  0  0  0  0
  153.0512  135.1534  165.2870 H   0  0  0  0  0  0  0  0  0  0  0  0
  154.7692  135.4354  165.1855 H   0  0  0  0  0  0  0  0  0  0  0  0
  152.5643  137.2624  164.1268 H   0  0  0  0  0  0  0  0  0  0  0  0
  153.7039  137.6015  165.3979 H   0  0  0  0  0  0  0  0  0  0  0  0
  154.3572  138.7703  163.2782 H   0  0  0  0  0  0  0  0  0  0  0  0
  155.5867  137.6427  163.7645 H   0  0  0  0  0  0  0  0  0  0  0  0
  154.2576  139.2326  161.6045 H   0  0  0  0  0  0  0  0  0  0  0  0
  152.8845  138.7398  159.0225 H   0  0  0  0  0  0  0  0  0  0  0  0
  152.0939  139.6975  160.2453 H   0  0  0  0  0  0  0  0  0  0  0  0
  154.8168  140.6942  159.8267 H   0  0  0  0  0  0  0  0  0  0  0  0
  154.0038  140.5826  158.2905 H   0  0  0  0  0  0  0  0  0  0  0  0
  153.1374  141.7485  161.8185 H   0  0  0  0  0  0  0  0  0  0  0  0
  151.8761  143.8804  162.1964 H   0  0  0  0  0  0  0  0  0  0  0  0
  151.1650  145.2317  160.2051 H   0  0  0  0  0  0  0  0  0  0  0  0
  151.7578  144.3957  157.9156 H   0  0  0  0  0  0  0  0  0  0  0  0
  155.8791  135.4985  162.7513 H   0  0  0  0  0  0  0  0  0  0  0  0
  154.9222  134.9618  161.4035 H   0  0  0  0  0  0  0  0  0  0  0  0
  1  2  1  0  0  0  0
  1 23  1  0  0  0  0
  1 24  1  0  0  0  0
  1 25  1  0  0  0  0
  2  3  2  0  0  0  0
  2  4  2  0  0  0  0
  2  5  1  0  0  0  0
  5  6  1  0  0  0  0
  6 22  1  0  0  0  0
  6  7  1  0  0  0  0
  6 26  1  0  0  0  0
  7  8  1  0  0  0  0
  7 27  1  0  0  0  0
  7 28  1  0  0  0  0
  8  9  1  0  0  0  0
  8 29  1  0  0  0  0
  8 30  1  0  0  0  0
  9 10  1  0  0  0  0
  9 31  1  0  0  0  0
  9 32  1  0  0  0  0
 10 11  1  0  0  0  0
 10 22  1  0  0  0  0
 11 12  2  0  0  0  0
 11 13  1  0  0  0  0
 13 14  1  0  0  0  0
 13 33  1  0  0  0  0
 14 15  1  0  0  0  0
 14 34  1  0  0  0  0
 14 35  1  0  0  0  0
 15 16  1  0  0  0  0
 15 36  1  0  0  0  0
 15 37  1  0  0  0  0
 16 21  1  0  0  0  0
 16 17  2  0  0  0  0
 17 18  1  0  0  0  0
 17 38  1  0  0  0  0
 18 19  2  0  0  0  0
 18 39  1  0  0  0  0
 19 20  1  0  0  0  0
 19 40  1  0  0  0  0
 20 21  2  0  0  0  0
 20 41  1  0  0  0  0
 22 42  1  0  0  0  0
 22 43  1  0  0  0  0
M  CHG  1   5  -1
M  END
> <s_m_source_file>
AV-unprocessed.smi

> <i_m_source_file_index>
1434

> <i_lp_mmshare_version>
43012

> <i_f3d_flags>
0

> <s_epik_input>
W0NIM11TKD1PKSg9TylbTkhdW0NAQEhdMVtDSDJdW0NIMl1bQ0gyXU4oW0NIMl0xKUMoPU8pW05IXVtDSDJdW0NIMl1jMltjSF1bY0hdW2NIXVtjSF1uMg==

> <s_epik_cmdline>
J2VwaWtfcHl0aG9uJywgJy1waCcsICc3LjAnLCAnLXRuJywgJzgnLCAnLW1hJywgJzIwMCcsICctbWV0YWxfYmluZGluZycsICctaW1hZScsICc8aW5maWxlLm1hZT4nLCAnLW9tYWUnLCAnPG91dGZpbGUubWFlPic=

> <r_epik_Ionization_Penalty>
6.57847

> <r_epik_Ionization_Penalty_Charging>
6.53351

> <r_epik_Ionization_Penalty_Neutral>
0.0449527

> <r_epik_State_Penalty>
6.57157

> <r_epik_Charging_Adjusted_Penalty>
13.1051

> <i_epik_Tot_Q>
-1

> <i_epik_Tot_abs_Q>
1

> <r_epik_Metal_State_Penalty>
2.53928

> <b_epik_Metal_Only>
1

> <s_lp_Force_Field>
OPLS_2005

> <r_lp_Energy>
21.2682

> <b_lp_Chiralities_Consistent>
1

> <s_lp_Variant>
AV-unprocessed.smi:1434-6

> <Gold.Version>
5.8.1

> <Gold.Id.Protein>
6NUR|6NUR_protein|mol2

> <Gold.PLP.Fitness>
46.9847

> <Gold.PLP.PLP>
-45.5848

> <Gold.PLP.part.hbond>
-1.0000

> <Gold.PLP.part.metal>
0.0000

> <Gold.PLP.part.buried>
-6.6249

> <Gold.PLP.part.nonpolar>
-38.3011

> <Gold.PLP.part.repulsive>
0.1093

> <Gold.PLP.ligand.clash>
0.0000

> <Gold.PLP.ligand.torsion>
1.2980

> <Gold.PLP.Chemscore.Hbond>
1.0000

> <Gold.PLP.Chemscore.CHOScore>
0.0000

> <Gold.PLP.Chemscore.Metal>
0.0000

> <Gold.Chemscore.Hbonds>
donor molecule, donor type, donor heavy atom, donor atom, acceptor molecule, acceptor atom, score
      P1  H  6896  6908       L1    12  1.00

> <Gold.PLP.Chemscore.Internal.Correction>
0.9960

> <Gold.Rescore>
     Score         DG    S(hbond)    S(metal)    S(lipo)     H(rot)  DE(clash)    DE(int)     intcor
     15.59     -18.18       0.99        0.00     117.10       1.68       0.04       2.55       ----

> <Gold.Chemscore.Fitness>
15.5869

> <Gold.Chemscore.DG>
-18.1805

> <Gold.Chemscore.ZeroCoef>
-5.4800

> <Gold.Chemscore.Hbond>
0.9893

> <Gold.Chemscore.Metal>
0.0000

> <Gold.Chemscore.Lipo>
117.0972

> <Gold.Chemscore.Internal_Hbond>
0.0000

> <Gold.Chemscore.DEClash>
0.0433

> <Gold.Chemscore.DEInternal>
2.5504

> <Gold.Chemscore.Rot>
1.6813

> <Gold.Chemscore.Internal.Correction>
   9.000000E+99

> <Gold.Chemscore.Hbonds>
donor molecule, donor type, donor heavy atom, donor atom, acceptor molecule, acceptor atom, score
      P1  H  6896  6908       L1    12  0.93

> <Gold.Chemscore.Hbond.Weighted>
-3.3044

> <Gold.Chemscore.Metal.Weighted>
-0.0000

> <Gold.Chemscore.Lipo.Weighted>
-13.7004

> <Gold.Chemscore.Internal_Hbond.Weighted>
0.0000

> <Gold.Chemscore.DEClash.Weighted>
0.0433

> <Gold.Chemscore.DEInternal.Weighted>
2.5504

> <Gold.Chemscore.Rot.Weighted>
4.3042

> <Gold.Chemscore.Internal.Correction.Weighted>
   9.000000E+99

> <Gold.Protein.RotatedTorsions>
[ 6907 6896 6895 6894 ] final  -80.38 input  -60.11 | X-H torsion
[ 7974 7965 7964 7962 ] final   92.96 input  175.53 | X-H torsion
[ 8008 7997 7996 7995 ] final   87.17 input   59.86 | X-H torsion
[ 10167 10162 10161 10158 ] final -120.55 input  -65.29 | X-H torsion
[ 10718 10713 10712 10709 ] final -103.55 input   66.30 | X-H torsion
[ 10763 10752 10751 10750 ] final -170.50 input  -60.55 | X-H torsion
[ 11005 11000 10999 10996 ] final   21.09 input  -57.11 | X-H torsion

> <Gold.Protein.ActiveResidues>
 VAL166  LYS551  ARG553  GLY616  TRP617  ASP618  TYR619  PRO620  LYS621  CYS622 
 ASP623  PHE694  ASN695  SER759  ASP760  ASP761  ALA762  ILE779  LEU786  VAL792 
 PHE793  MET794  SER795  GLU796  ALA797  LYS798  CYS799  TRP800  GLU811  SER814 

> <Gold.Protein.RotatedAtoms>
  150.6930  134.3978  159.5104 H   0  0  0  0  0  0  0  0  0  0  0  0  # atno 6907 bound_to 6896
  152.1756  134.8795  160.0540 H   0  0  0  0  0  0  0  0  0  0  0  0  # atno 6908 bound_to 6896
  151.9804  133.3721  159.4142 H   0  0  0  0  0  0  0  0  0  0  0  0  # atno 6909 bound_to 6896
  145.4854  139.2277  143.2859 H   0  0  0  0  0  0  0  0  0  0  0  0  # atno 7974 bound_to 7965
  155.9721  140.3384  155.6585 H   0  0  0  0  0  0  0  0  0  0  0  0  # atno 8008 bound_to 7997
  155.6661  140.0721  157.2555 H   0  0  0  0  0  0  0  0  0  0  0  0  # atno 8009 bound_to 7997
  154.4169  140.1700  156.1816 H   0  0  0  0  0  0  0  0  0  0  0  0  # atno 8010 bound_to 7997
  140.0346  143.5214  152.2160 H   0  0  0  0  0  0  0  0  0  0  0  0  # atno 10167 bound_to 10162
  156.0270  130.5473  150.7269 H   0  0  0  0  0  0  0  0  0  0  0  0  # atno 10718 bound_to 10713
  154.6408  135.2898  155.0106 H   0  0  0  0  0  0  0  0  0  0  0  0  # atno 10763 bound_to 10752
  154.1233  135.6545  153.4911 H   0  0  0  0  0  0  0  0  0  0  0  0  # atno 10764 bound_to 10752
  153.0325  135.5293  154.7274 H   0  0  0  0  0  0  0  0  0  0  0  0  # atno 10765 bound_to 10752
  140.3954  134.1775  155.7663 H   0  0  0  0  0  0  0  0  0  0  0  0  # atno 11005 bound_to 11000
  146.2316  140.5643  142.8973 LP  0  0  0  0  0  0  0  0  0  0  0  0  # atno 17320 bound_to 7965
  144.7865  140.5946  143.6570 LP  0  0  0  0  0  0  0  0  0  0  0  0  # atno 17321 bound_to 7965
  139.6054  144.7594  151.3075 LP  0  0  0  0  0  0  0  0  0  0  0  0  # atno 17342 bound_to 10162
  140.7287  143.6928  150.7908 LP  0  0  0  0  0  0  0  0  0  0  0  0  # atno 17343 bound_to 10162
  157.4871  131.0907  151.0469 LP  0  0  0  0  0  0  0  0  0  0  0  0  # atno 17370 bound_to 10713
  157.0886  130.5933  149.5435 LP  0  0  0  0  0  0  0  0  0  0  0  0  # atno 17371 bound_to 10713
  141.1876  133.8278  157.1026 LP  0  0  0  0  0  0  0  0  0  0  0  0  # atno 17394 bound_to 11000
  140.0375  134.9871  157.0900 LP  0  0  0  0  0  0  0  0  0  0  0  0  # atno 17395 bound_to 11000

$$$$
