AV-unprocessed.smi:3177|AV-procd|sdf|12128|dock2
  -GOLD-   2272017563D 1   1.00000     0.00000
 Structure written by MMmdl.
 30 31  0  0  0  0  0  0  0  0  1 V2000
  154.7572  140.5658  160.8946 C   0  0  0  0  0  0  0  0  0  0  0  0
  154.1349  141.8404  160.7745 O   0  0  0  0  0  0  0  0  0  0  0  0
  153.2029  142.0227  159.7737 C   0  0  0  0  0  0  0  0  0  0  0  0
  152.5963  143.2874  159.6401 C   0  0  0  0  0  0  0  0  0  0  0  0
  151.6456  143.4829  158.6200 C   0  0  0  0  0  0  0  0  0  0  0  0
  151.3374  142.4047  157.7568 C   0  0  0  0  0  0  0  0  0  0  0  0
  150.3816  142.4719  156.7079 N   0  0  0  0  0  0  0  0  0  0  0  0
  150.2261  141.6413  155.6601 C   0  0  0  0  0  0  0  0  0  0  0  0
  150.8836  140.6152  155.4868 O   0  0  0  0  0  0  0  0  0  0  0  0
  149.1050  142.0130  154.6694 C   0  0  2  0  0  0  0  0  0  0  0  0
  147.6898  141.7006  155.1672 C   0  0  0  0  0  0  0  0  0  0  0  0
  147.5344  140.2169  154.8783 C   0  0  0  0  0  0  0  0  0  0  0  0
  148.5094  139.9654  153.7229 C   0  0  0  0  0  0  0  0  0  0  0  0
  149.1869  141.2017  153.5005 O   0  0  0  0  0  0  0  0  0  0  0  0
  151.9882  141.1744  157.9848 C   0  0  0  0  0  0  0  0  0  0  0  0
  152.9009  140.9806  158.9601 N   0  0  0  0  0  0  0  0  0  0  0  0
  155.4651  140.5869  161.7229 H   0  0  0  0  0  0  0  0  0  0  0  0
  155.3123  140.3060  159.9921 H   0  0  0  0  0  0  0  0  0  0  0  0
  154.0265  139.7834  161.1044 H   0  0  0  0  0  0  0  0  0  0  0  0
  152.8519  144.0932  160.3124 H   0  0  0  0  0  0  0  0  0  0  0  0
  151.1645  144.4445  158.5306 H   0  0  0  0  0  0  0  0  0  0  0  0
  149.7049  143.2180  156.7817 H   0  0  0  0  0  0  0  0  0  0  0  0
  149.2098  143.0661  154.4064 H   0  0  0  0  0  0  0  0  0  0  0  0
  147.5196  141.9468  156.2161 H   0  0  0  0  0  0  0  0  0  0  0  0
  146.9671  142.2675  154.5791 H   0  0  0  0  0  0  0  0  0  0  0  0
  147.8277  139.6282  155.7485 H   0  0  0  0  0  0  0  0  0  0  0  0
  146.5072  139.9527  154.6256 H   0  0  0  0  0  0  0  0  0  0  0  0
  149.2285  139.1881  153.9842 H   0  0  0  0  0  0  0  0  0  0  0  0
  147.9941  139.6570  152.8129 H   0  0  0  0  0  0  0  0  0  0  0  0
  151.7745  140.3177  157.3623 H   0  0  0  0  0  0  0  0  0  0  0  0
  1  2  1  0  0  0  0
  1 17  1  0  0  0  0
  1 18  1  0  0  0  0
  1 19  1  0  0  0  0
  2  3  1  0  0  0  0
  3 16  1  0  0  0  0
  3  4  2  0  0  0  0
  4  5  1  0  0  0  0
  4 20  1  0  0  0  0
  5  6  2  0  0  0  0
  5 21  1  0  0  0  0
  6  7  1  0  0  0  0
  6 15  1  0  0  0  0
  7  8  1  0  0  0  0
  7 22  1  0  0  0  0
  8  9  2  0  0  0  0
  8 10  1  0  0  0  0
 10 14  1  0  0  0  0
 10 11  1  0  0  0  0
 10 23  1  0  0  0  0
 11 12  1  0  0  0  0
 11 24  1  0  0  0  0
 11 25  1  0  0  0  0
 12 13  1  0  0  0  0
 12 26  1  0  0  0  0
 12 27  1  0  0  0  0
 13 14  1  0  0  0  0
 13 28  1  0  0  0  0
 13 29  1  0  0  0  0
 15 16  2  0  0  0  0
 15 30  1  0  0  0  0
M  END
> <s_m_source_file>
AV-unprocessed.smi

> <i_m_source_file_index>
3177

> <i_lp_mmshare_version>
43012

> <i_f3d_flags>
0

> <s_epik_input>
W0NIM11PYzFbY0hdW2NIXWMoW2NIXW4xKVtOSF1DKD1PKVtDQEBIXTJbQ0gyXVtDSDJdW0NIMl1PMg==

> <s_epik_cmdline>
J2VwaWtfcHl0aG9uJywgJy1waCcsICc3LjAnLCAnLXRuJywgJzgnLCAnLW1hJywgJzIwMCcsICctbWV0YWxfYmluZGluZycsICctaW1hZScsICc8aW5maWxlLm1hZT4nLCAnLW9tYWUnLCAnPG91dGZpbGUubWFlPic=

> <r_lp_tautomer_probability>
1

> <r_epik_Ionization_Penalty>
2.59882e-05

> <r_epik_Ionization_Penalty_Charging>
0

> <r_epik_Ionization_Penalty_Neutral>
2.59882e-05

> <r_epik_State_Penalty>
-0

> <r_epik_Charging_Adjusted_Penalty>
0

> <i_epik_Tot_Q>
0

> <i_epik_Tot_abs_Q>
0

> <r_epik_Metal_State_Penalty>
-0

> <b_epik_Metal_Only>
0

> <s_lp_Force_Field>
OPLS_2005

> <r_lp_Energy>
23.6564

> <b_lp_Chiralities_Consistent>
1

> <s_lp_Variant>
AV-unprocessed.smi:3177-1

> <Gold.Version>
5.8.1

> <Gold.Id.Protein>
6NUR|6NUR_protein|mol2

> <Gold.PLP.Fitness>
34.0125

> <Gold.PLP.PLP>
-27.4919

> <Gold.PLP.part.hbond>
-4.3791

> <Gold.PLP.part.metal>
0.0000

> <Gold.PLP.part.buried>
1.6468

> <Gold.PLP.part.nonpolar>
-26.6413

> <Gold.PLP.part.repulsive>
3.3438

> <Gold.PLP.ligand.clash>
0.0000

> <Gold.PLP.ligand.torsion>
0.4077

> <Gold.PLP.Chemscore.Hbond>
2.4278

> <Gold.PLP.Chemscore.CHOScore>
0.0000

> <Gold.PLP.Chemscore.Metal>
0.0000

> <Gold.Chemscore.Hbonds>
donor molecule, donor type, donor heavy atom, donor atom, acceptor molecule, acceptor atom, score
      L1  H     7    22       P1  8028  0.80
      P1  H  7989  7998       L1     9  0.67
      P1  H  8011  8017       L1    14  1.00

> <Gold.PLP.Chemscore.Internal.Correction>
0.0526

> <Gold.Rescore>
     Score         DG    S(hbond)    S(metal)    S(lipo)     H(rot)  DE(clash)    DE(int)     intcor
     10.60     -14.09       0.99        0.00      72.29       1.24       1.41       2.08       ----

> <Gold.Chemscore.Fitness>
10.5982

> <Gold.Chemscore.DG>
-14.0856

> <Gold.Chemscore.ZeroCoef>
-5.4800

> <Gold.Chemscore.Hbond>
0.9932

> <Gold.Chemscore.Metal>
0.0000

> <Gold.Chemscore.Lipo>
72.2885

> <Gold.Chemscore.Internal_Hbond>
0.0000

> <Gold.Chemscore.DEClash>
1.4073

> <Gold.Chemscore.DEInternal>
2.0801

> <Gold.Chemscore.Rot>
1.2381

> <Gold.Chemscore.Internal.Correction>
   9.000000E+99

> <Gold.Chemscore.Hbonds>
donor molecule, donor type, donor heavy atom, donor atom, acceptor molecule, acceptor atom, score
      L1  H     7    22       P1  8028  0.74
      P1  H  7989  7998       L1     9  0.22
      P1  H  8011  8017       L1    14  0.24

> <Gold.Chemscore.Hbond.Weighted>
-3.3173

> <Gold.Chemscore.Metal.Weighted>
-0.0000

> <Gold.Chemscore.Lipo.Weighted>
-8.4578

> <Gold.Chemscore.Internal_Hbond.Weighted>
0.0000

> <Gold.Chemscore.DEClash.Weighted>
1.4073

> <Gold.Chemscore.DEInternal.Weighted>
2.0801

> <Gold.Chemscore.Rot.Weighted>
3.1694

> <Gold.Chemscore.Internal.Correction.Weighted>
   9.000000E+99

> <Gold.Protein.RotatedTorsions>
[ 6907 6896 6895 6894 ] final  -73.26 input  -60.11 | X-H torsion
[ 7974 7965 7964 7962 ] final -114.11 input  175.53 | X-H torsion
[ 8008 7997 7996 7995 ] final   79.17 input   59.86 | X-H torsion
[ 10167 10162 10161 10158 ] final   97.77 input  -65.29 | X-H torsion
[ 10718 10713 10712 10709 ] final   82.63 input   66.30 | X-H torsion
[ 10763 10752 10751 10750 ] final   54.68 input  -60.55 | X-H torsion
[ 11005 11000 10999 10996 ] final -131.78 input  -57.11 | X-H torsion

> <Gold.Protein.ActiveResidues>
 VAL166  LYS551  ARG553  GLY616  TRP617  ASP618  TYR619  PRO620  LYS621  CYS622 
 ASP623  PHE694  ASN695  SER759  ASP760  ASP761  ALA762  ILE779  LEU786  VAL792 
 PHE793  MET794  SER795  GLU796  ALA797  LYS798  CYS799  TRP800  GLU811  SER814 

> <Gold.Protein.RotatedAtoms>
  150.7137  134.5042  159.5575 H   0  0  0  0  0  0  0  0  0  0  0  0  # atno 6907 bound_to 6896
  152.2632  134.8008  160.0436 H   0  0  0  0  0  0  0  0  0  0  0  0  # atno 6908 bound_to 6896
  151.8714  133.3441  159.3773 H   0  0  0  0  0  0  0  0  0  0  0  0  # atno 6909 bound_to 6896
  145.1241  140.8686  143.3796 H   0  0  0  0  0  0  0  0  0  0  0  0  # atno 7974 bound_to 7965
  155.8659  140.3451  155.5788 H   0  0  0  0  0  0  0  0  0  0  0  0  # atno 8008 bound_to 7997
  155.7881  140.0868  157.2043 H   0  0  0  0  0  0  0  0  0  0  0  0  # atno 8009 bound_to 7997
  154.4014  140.1488  156.3118 H   0  0  0  0  0  0  0  0  0  0  0  0  # atno 8010 bound_to 7997
  139.7770  144.6902  151.0075 H   0  0  0  0  0  0  0  0  0  0  0  0  # atno 10167 bound_to 10162
  157.6861  131.0056  150.2403 H   0  0  0  0  0  0  0  0  0  0  0  0  # atno 10718 bound_to 10713
  152.9807  135.5736  154.4944 H   0  0  0  0  0  0  0  0  0  0  0  0  # atno 10763 bound_to 10752
  154.4473  135.2777  155.1808 H   0  0  0  0  0  0  0  0  0  0  0  0  # atno 10764 bound_to 10752
  154.3450  135.6221  153.5668 H   0  0  0  0  0  0  0  0  0  0  0  0  # atno 10765 bound_to 10752
  140.9228  134.1422  157.4300 H   0  0  0  0  0  0  0  0  0  0  0  0  # atno 11005 bound_to 11000
  145.0708  139.3033  143.5833 LP  0  0  0  0  0  0  0  0  0  0  0  0  # atno 17320 bound_to 7965
  146.3519  140.0181  142.8661 LP  0  0  0  0  0  0  0  0  0  0  0  0  # atno 17321 bound_to 7965
  140.7817  143.4525  151.0393 LP  0  0  0  0  0  0  0  0  0  0  0  0  # atno 17342 bound_to 10162
  139.8207  143.7824  152.3176 LP  0  0  0  0  0  0  0  0  0  0  0  0  # atno 17343 bound_to 10162
  156.3019  130.3759  149.7742 LP  0  0  0  0  0  0  0  0  0  0  0  0  # atno 17370 bound_to 10713
  156.5370  130.8283  151.3256 LP  0  0  0  0  0  0  0  0  0  0  0  0  # atno 17371 bound_to 10713
  139.8779  134.9977  156.5863 LP  0  0  0  0  0  0  0  0  0  0  0  0  # atno 17394 bound_to 11000
  140.7965  133.8540  155.8690 LP  0  0  0  0  0  0  0  0  0  0  0  0  # atno 17395 bound_to 11000

$$$$
