AV-unprocessed.smi:1967|AV-procd|sdf|7954|dock10
  -GOLD-   2272010123D 1   1.00000     0.00000
 Structure written by MMmdl.
 37 38  0  0  0  0  0  0  0  0  1 V2000
  151.1564  139.9310  155.0127 O   0  0  0  0  0  0  0  0  0  0  0  0
  151.8584  139.4109  156.1960 S   0  0  0  0  0  0  0  0  0  0  0  0
  153.1877  138.7924  156.0760 O   0  0  0  0  0  0  0  0  0  0  0  0
  151.9638  140.6672  157.3690 N   0  0  0  0  0  0  0  0  0  0  0  0
  152.4103  140.3254  158.7186 C   0  0  0  0  0  0  0  0  0  0  0  0
  153.1816  141.4936  159.3532 C   0  0  0  0  0  0  0  0  0  0  0  0
  152.3803  142.7832  159.4006 C   0  0  0  0  0  0  0  0  0  0  0  0
  152.2837  143.5295  160.5950 C   0  0  0  0  0  0  0  0  0  0  0  0
  151.5354  144.7226  160.5823 C   0  0  0  0  0  0  0  0  0  0  0  0
  150.9154  145.1213  159.3824 C   0  0  0  0  0  0  0  0  0  0  0  0
  151.0729  144.3065  158.2435 C   0  0  0  0  0  0  0  0  0  0  0  0
  151.7893  143.1616  158.2447 N   0  0  0  0  0  0  0  0  0  0  0  0
  150.8020  138.3224  157.0341 N   0  0  0  0  0  0  0  0  0  0  0  0
  149.8443  137.5459  156.2169 C   0  0  0  0  0  0  0  0  0  0  0  0
  148.7528  136.8964  157.0837 C   0  0  0  0  0  0  0  0  0  0  0  0
  149.3649  136.0418  158.1962 C   0  0  0  0  0  0  0  0  0  0  0  0
  150.3110  136.9087  159.0310 C   0  0  0  0  0  0  0  0  0  0  0  0
  151.3925  137.5596  158.1526 C   0  0  0  0  0  0  0  0  0  0  0  0
  151.1324  141.2579  157.3685 H   0  0  0  0  0  0  0  0  0  0  0  0
  151.5461  140.0581  159.3277 H   0  0  0  0  0  0  0  0  0  0  0  0
  153.0502  139.4443  158.6647 H   0  0  0  0  0  0  0  0  0  0  0  0
  153.4716  141.2264  160.3703 H   0  0  0  0  0  0  0  0  0  0  0  0
  154.1125  141.6633  158.8103 H   0  0  0  0  0  0  0  0  0  0  0  0
  152.7740  143.1984  161.4989 H   0  0  0  0  0  0  0  0  0  0  0  0
  151.4396  145.3212  161.4762 H   0  0  0  0  0  0  0  0  0  0  0  0
  150.3328  146.0294  159.3350 H   0  0  0  0  0  0  0  0  0  0  0  0
  150.6111  144.5818  157.3070 H   0  0  0  0  0  0  0  0  0  0  0  0
  149.3767  138.1918  155.4745 H   0  0  0  0  0  0  0  0  0  0  0  0
  150.3919  136.7808  155.6651 H   0  0  0  0  0  0  0  0  0  0  0  0
  148.1225  137.6723  157.5205 H   0  0  0  0  0  0  0  0  0  0  0  0
  148.1012  136.2835  156.4603 H   0  0  0  0  0  0  0  0  0  0  0  0
  148.5805  135.6215  158.8261 H   0  0  0  0  0  0  0  0  0  0  0  0
  149.9096  135.2008  157.7652 H   0  0  0  0  0  0  0  0  0  0  0  0
  149.7411  137.6853  159.5432 H   0  0  0  0  0  0  0  0  0  0  0  0
  150.7791  136.3053  159.8092 H   0  0  0  0  0  0  0  0  0  0  0  0
  152.0618  136.7994  157.7475 H   0  0  0  0  0  0  0  0  0  0  0  0
  152.0027  138.2222  158.7664 H   0  0  0  0  0  0  0  0  0  0  0  0
  1  2  2  0  0  0  0
  2  3  2  0  0  0  0
  2  4  1  0  0  0  0
  2 13  1  0  0  0  0
  4  5  1  0  0  0  0
  4 19  1  0  0  0  0
  5  6  1  0  0  0  0
  5 20  1  0  0  0  0
  5 21  1  0  0  0  0
  6  7  1  0  0  0  0
  6 22  1  0  0  0  0
  6 23  1  0  0  0  0
  7 12  1  0  0  0  0
  7  8  2  0  0  0  0
  8  9  1  0  0  0  0
  8 24  1  0  0  0  0
  9 10  2  0  0  0  0
  9 25  1  0  0  0  0
 10 11  1  0  0  0  0
 10 26  1  0  0  0  0
 11 12  2  0  0  0  0
 11 27  1  0  0  0  0
 13 18  1  0  0  0  0
 13 14  1  0  0  0  0
 14 15  1  0  0  0  0
 14 28  1  0  0  0  0
 14 29  1  0  0  0  0
 15 16  1  0  0  0  0
 15 30  1  0  0  0  0
 15 31  1  0  0  0  0
 16 17  1  0  0  0  0
 16 32  1  0  0  0  0
 16 33  1  0  0  0  0
 17 18  1  0  0  0  0
 17 34  1  0  0  0  0
 17 35  1  0  0  0  0
 18 36  1  0  0  0  0
 18 37  1  0  0  0  0
M  END
> <s_m_source_file>
AV-unprocessed.smi

> <i_m_source_file_index>
1967

> <i_lp_mmshare_version>
43012

> <i_f3d_flags>
0

> <s_epik_input>
W0NIMl0xW0NIMl1bQ0gyXVtDSDJdW0NIMl1OMVMoPU8pKD1PKVtOSF1bQ0gyXVtDSDJdYzJbY0hdW2NIXVtjSF1bY0hdbjI=

> <s_epik_cmdline>
J2VwaWtfcHl0aG9uJywgJy1waCcsICc3LjAnLCAnLXRuJywgJzgnLCAnLW1hJywgJzIwMCcsICctbWV0YWxfYmluZGluZycsICctaW1hZScsICc8aW5maWxlLm1hZT4nLCAnLW9tYWUnLCAnPG91dGZpbGUubWFlPic=

> <r_epik_Ionization_Penalty>
0.0252758

> <r_epik_Ionization_Penalty_Charging>
0

> <r_epik_Ionization_Penalty_Neutral>
0.0252758

> <r_epik_State_Penalty>
0.0138562

> <r_epik_Charging_Adjusted_Penalty>
0.0138562

> <i_epik_Tot_Q>
0

> <i_epik_Tot_abs_Q>
0

> <r_epik_Metal_State_Penalty>
0.204365

> <b_epik_Metal_Only>
0

> <s_lp_Force_Field>
OPLS_2005

> <r_lp_Energy>
9.86341

> <b_lp_Chiralities_Consistent>
1

> <s_lp_Variant>
AV-unprocessed.smi:1967-1

> <Gold.Version>
5.8.1

> <Gold.Id.Protein>
6NUR|6NUR_protein|mol2

> <Gold.PLP.Fitness>
42.4604

> <Gold.PLP.PLP>
-34.9688

> <Gold.PLP.part.hbond>
-2.0000

> <Gold.PLP.part.metal>
0.0000

> <Gold.PLP.part.buried>
-5.0377

> <Gold.PLP.part.nonpolar>
-27.8756

> <Gold.PLP.part.repulsive>
0.0770

> <Gold.PLP.ligand.clash>
0.0000

> <Gold.PLP.ligand.torsion>
1.1338

> <Gold.PLP.Chemscore.Hbond>
2.0000

> <Gold.PLP.Chemscore.CHOScore>
1.0000

> <Gold.PLP.Chemscore.Metal>
0.0000

> <Gold.Chemscore.Hbonds>
donor molecule, donor type, donor heavy atom, donor atom, acceptor molecule, acceptor atom, score
      P1  H  7989  7998       L1     1  1.00
      P1  H  7997  8008       L1     3  1.00
      L1  C    11    27       P1  8028  1.00

> <Gold.PLP.Chemscore.Internal.Correction>
0.7593

> <Gold.Rescore>
     Score         DG    S(hbond)    S(metal)    S(lipo)     H(rot)  DE(clash)    DE(int)     intcor
     15.57     -18.26       1.87        0.00      92.63       1.69       0.08       2.61       ----

> <Gold.Chemscore.Fitness>
15.5679

> <Gold.Chemscore.DG>
-18.2550

> <Gold.Chemscore.ZeroCoef>
-5.4800

> <Gold.Chemscore.Hbond>
1.8747

> <Gold.Chemscore.Metal>
0.0000

> <Gold.Chemscore.Lipo>
92.6289

> <Gold.Chemscore.Internal_Hbond>
0.0000

> <Gold.Chemscore.DEClash>
0.0766

> <Gold.Chemscore.DEInternal>
2.6106

> <Gold.Chemscore.Rot>
1.6891

> <Gold.Chemscore.Internal.Correction>
   9.000000E+99

> <Gold.Chemscore.Hbonds>
donor molecule, donor type, donor heavy atom, donor atom, acceptor molecule, acceptor atom, score
      P1  H  7989  7998       L1     1  1.00
      P1  H  7997  8008       L1     3  0.54

> <Gold.Chemscore.Hbond.Weighted>
-6.2616

> <Gold.Chemscore.Metal.Weighted>
-0.0000

> <Gold.Chemscore.Lipo.Weighted>
-10.8376

> <Gold.Chemscore.Internal_Hbond.Weighted>
0.0000

> <Gold.Chemscore.DEClash.Weighted>
0.0766

> <Gold.Chemscore.DEInternal.Weighted>
2.6106

> <Gold.Chemscore.Rot.Weighted>
4.3241

> <Gold.Chemscore.Internal.Correction.Weighted>
   9.000000E+99

> <Gold.Protein.RotatedTorsions>
[ 6907 6896 6895 6894 ] final   99.77 input  -60.11 | X-H torsion
[ 7974 7965 7964 7962 ] final  136.79 input  175.53 | X-H torsion
[ 8008 7997 7996 7995 ] final  -44.43 input   59.86 | X-H torsion
[ 10167 10162 10161 10158 ] final  -82.87 input  -65.29 | X-H torsion
[ 10718 10713 10712 10709 ] final   35.35 input   66.30 | X-H torsion
[ 10763 10752 10751 10750 ] final  161.24 input  -60.55 | X-H torsion
[ 11005 11000 10999 10996 ] final   13.74 input  -57.11 | X-H torsion

> <Gold.Protein.ActiveResidues>
 VAL166  LYS551  ARG553  GLY616  TRP617  ASP618  TYR619  PRO620  LYS621  CYS622 
 ASP623  PHE694  ASN695  SER759  ASP760  ASP761  ALA762  ILE779  LEU786  VAL792 
 PHE793  MET794  SER795  GLU796  ALA797  LYS798  CYS799  TRP800  GLU811  SER814 

> <Gold.Protein.RotatedAtoms>
  152.5385  134.0379  159.8053 H   0  0  0  0  0  0  0  0  0  0  0  0  # atno 6907 bound_to 6896
  151.0539  133.5593  159.2647 H   0  0  0  0  0  0  0  0  0  0  0  0  # atno 6908 bound_to 6896
  151.2517  135.0632  159.9118 H   0  0  0  0  0  0  0  0  0  0  0  0  # atno 6909 bound_to 6896
  144.9531  139.4796  143.5516 H   0  0  0  0  0  0  0  0  0  0  0  0  # atno 7974 bound_to 7965
  154.3997  140.1422  156.3683 H   0  0  0  0  0  0  0  0  0  0  0  0  # atno 8008 bound_to 7997
  155.8117  140.3472  155.5441 H   0  0  0  0  0  0  0  0  0  0  0  0  # atno 8009 bound_to 7997
  155.8380  140.0922  157.1743 H   0  0  0  0  0  0  0  0  0  0  0  0  # atno 8010 bound_to 7997
  140.4280  143.2559  151.8799 H   0  0  0  0  0  0  0  0  0  0  0  0  # atno 10167 bound_to 10162
  157.3216  130.7451  149.6789 H   0  0  0  0  0  0  0  0  0  0  0  0  # atno 10718 bound_to 10713
  154.2598  135.2769  155.2782 H   0  0  0  0  0  0  0  0  0  0  0  0  # atno 10763 bound_to 10752
  154.5393  135.5707  153.6829 H   0  0  0  0  0  0  0  0  0  0  0  0  # atno 10764 bound_to 10752
  152.9964  135.6247  154.2748 H   0  0  0  0  0  0  0  0  0  0  0  0  # atno 10765 bound_to 10752
  140.4774  134.0970  155.7744 H   0  0  0  0  0  0  0  0  0  0  0  0  # atno 11005 bound_to 11000
  146.3328  139.8630  142.8853 LP  0  0  0  0  0  0  0  0  0  0  0  0  # atno 17320 bound_to 7965
  145.2814  141.0139  143.3715 LP  0  0  0  0  0  0  0  0  0  0  0  0  # atno 17321 bound_to 7965
  139.4784  144.5366  151.8589 LP  0  0  0  0  0  0  0  0  0  0  0  0  # atno 17342 bound_to 10162
  140.4460  144.1921  150.5894 LP  0  0  0  0  0  0  0  0  0  0  0  0  # atno 17343 bound_to 10162
  155.9686  130.4221  150.4502 LP  0  0  0  0  0  0  0  0  0  0  0  0  # atno 17370 bound_to 10713
  157.2518  131.0548  151.2374 LP  0  0  0  0  0  0  0  0  0  0  0  0  # atno 17371 bound_to 10713
  141.1548  133.8903  157.2006 LP  0  0  0  0  0  0  0  0  0  0  0  0  # atno 17394 bound_to 11000
  139.9847  135.0086  156.9835 LP  0  0  0  0  0  0  0  0  0  0  0  0  # atno 17395 bound_to 11000

$$$$
