#       Name:                AV-unprocessed.smi:72
#       Creating user name   scv26
#       Creation time:       Thu Mar 26 16:57:36 2020


#       File generated by GOLD software.
#

@<TRIPOS>MOLECULE
AV-unprocessed.smi:72
    41    42     1
SMALL
NO_CHARGES


@<TRIPOS>ATOM
      1 ****        -2.1494   4.6306  -0.8706 N.2            1 S1                 0.0000
      2 ****        -1.6897   3.4695  -0.5671 C.2            1 S1                 0.0000
      3 ****        -0.3654   3.0470  -0.7585 N.2            1 S1                 0.0000
      4 ****        -0.0387   1.8442  -0.3987 C.2            1 S1                 0.0000
      5 ****        -0.9964   0.9268   0.1995 N.am           1 S1                 0.0000
      6 ****        -0.5760  -0.4678   0.6150 C.3            1 S1                 0.0000
      7 ****         0.6936  -0.3890   1.1860 O.3            1 S1                 0.0000
      8 ****         1.4661  -1.5077   0.7786 C.3            1 S1                 0.0000
      9 ****         2.9581  -1.1555   0.8880 C.3            1 S1                 0.0000
     10 ****         3.7558  -2.3068   0.7138 O.3            1 S1                 0.0000
     11 ****         0.9710  -1.7951  -0.6439 C.3            1 S1                 0.0000
     12 ****         1.1622  -3.1564  -0.9739 O.3            1 S1                 0.0000
     13 ****        -0.5158  -1.4694  -0.5619 C.3            1 S1                 0.0000
     14 ****        -0.9904  -0.9616  -1.7960 O.3            1 S1                 0.0000
     15 ****        -2.3410   1.3307   0.3838 C.2            1 S1                 0.0000
     16 ****        -3.1994   0.5856   0.8553 O.2            1 S1                 0.0000
     17 ****        -2.6275   2.5923  -0.0048 N.am           1 S1                 0.0000
     18 ****        -1.2681  -0.7879   1.3949 H              1 S1                 0.0000
     19 ****         1.2144  -2.3334   1.4475 H              1 S1                 0.0000
     20 ****         1.4745  -1.1463  -1.3625 H              1 S1                 0.0000
     21 ****        -1.0975  -2.3476  -0.2775 H              1 S1                 0.0000
     22 ****        -3.1301   4.6954  -0.6401 H              1 S1                 0.0000
     23 ****         0.9674   1.4412  -0.5238 H              1 S1                 0.0000
     24 ****         3.2376  -0.3972   0.1563 H              1 S1                 0.0000
     25 ****         3.1722  -0.7442   1.8747 H              1 S1                 0.0000
     26 ****         4.6639  -2.0587   0.7951 H              1 S1                 0.0000
     27 ****         0.7356  -3.6875  -0.3194 H              1 S1                 0.0000
     28 ****        -1.9094  -0.7622  -1.7044 H              1 S1                 0.0000
     29 ****        -3.5778   2.9110   0.1152 H              1 S1                 0.0000
     30 ****        -1.6105   5.3676  -1.2786 LP             1 S1                 0.0000
     31 ****         0.3125   3.6603  -1.1639 LP             1 S1                 0.0000
     32 ****         0.6112  -0.3860   2.1826 LP             1 S1                 0.0000
     33 ****         1.1423   0.4529   0.8860 LP             1 S1                 0.0000
     34 ****         3.5926  -2.6959  -0.1928 LP             1 S1                 0.0000
     35 ****         3.5275  -2.9840   1.4132 LP             1 S1                 0.0000
     36 ****         2.1401  -3.3647  -0.9920 LP             1 S1                 0.0000
     37 ****         0.7647  -3.3445  -1.8721 LP             1 S1                 0.0000
     38 ****        -0.8636  -1.6463  -2.5137 LP             1 S1                 0.0000
     39 ****        -0.4872  -0.1312  -2.0351 LP             1 S1                 0.0000
     40 ****        -2.9586  -0.3466   1.1256 LP             1 S1                 0.0000
     41 ****        -4.1378   0.9123   0.9681 LP             1 S1                 0.0000
@<TRIPOS>BOND
    1    1    2 2     
    2    1   22 1     
    3    2   17 1     
    4    2    3 1     
    5    3    4 2     
    6    4    5 1     
    7    4   23 1     
    8    5    6 1     
    9    5   15 am    
   10    6   18 1     
   11    6   13 1     
   12    6    7 1     
   13    7    8 1     
   14    8   19 1     
   15    8    9 1     
   16    8   11 1     
   17    9   10 1     
   18    9   24 1     
   19    9   25 1     
   20   10   26 1     
   21   11   20 1     
   22   11   12 1     
   23   11   13 1     
   24   12   27 1     
   25   13   21 1     
   26   13   14 1     
   27   14   28 1     
   28   15   16 2     
   29   15   17 am    
   30   17   29 1     
   31    1   30 1     
   32    3   31 1     
   33    7   32 1     
   34    7   33 1     
   35   10   34 1     
   36   10   35 1     
   37   12   36 1     
   38   12   37 1     
   39   14   38 1     
   40   14   39 1     
   41   16   40 1     
   42   16   41 1     
@<TRIPOS>SUBSTRUCTURE
      1 S1             1
@<TRIPOS>SET
LONE_PAIRS      STATIC     ATOMS    <user>   **** ""
12 30 31 32 33 34 35 36 37 38 39 40 41
DONOR_HYDROGENS      STATIC     ATOMS    <user>   **** ""
5 22 26 27 28 29
ATOM$BLUE        STATIC     ATOMS    COLORGROUP SYSTEM
12 30 31 32 33 34 35 36 37 38 39 40 41
ATOM$RED        STATIC     ATOMS    COLORGROUP SYSTEM
5 22 26 27 28 29
