#       Name:                AV-unprocessed.smi:1224
#       Creating user name   scv26
#       Creation time:       Fri Mar 27 04:18:58 2020


#       File generated by GOLD software.
#

@<TRIPOS>MOLECULE
AV-unprocessed.smi:1224
    47    49     1
SMALL
NO_CHARGES


@<TRIPOS>ATOM
      1 ****        -3.2945   4.3514   3.2639 C.3            1 S1                 0.0000
      2 ****        -2.7834   3.3812   2.2123 C.ar           1 S1                 0.0000
      3 ****        -2.8420   3.7674   0.8541 C.ar           1 S1                 0.0000
      4 ****        -2.3676   2.8590  -0.0845 C.ar           1 S1                 0.0000
      5 ****        -2.2918   2.9368  -1.4768 N.pl3          1 S1                 1.0000
      6 ****        -1.7492   1.7883  -1.9676 C.2            1 S1                 0.0000
      7 ****        -1.4718   0.9805  -0.9076 N.pl3          1 S1                 0.0000
      8 ****        -0.8839  -0.3657  -0.8757 C.3            1 S1                 0.0000
      9 ****         0.6173  -0.3635  -0.5227 C.3            1 S1                 0.0000
     10 ****         1.3092   0.4707  -1.4321 O.3            1 S1                 0.0000
     11 ****         1.2206  -1.7758  -0.5943 C.3            1 S1                 0.0000
     12 ****         2.6139  -1.7933  -0.0986 N.4            1 S1                 1.0000
     13 ****         3.2743  -3.1145  -0.1403 C.3            1 S1                 0.0000
     14 ****         3.5212  -3.5857  -1.5369 C.2            1 S1                 0.0000
     15 ****         2.8307  -4.5441  -2.2354 C.2            1 S1                 0.0000
     16 ****         3.3251  -4.7389  -3.5585 C.2            1 S1                 0.0000
     17 ****         4.3876  -3.9267  -3.8527 C.2            1 S1                 0.0000
     18 ****         4.8035  -2.9032  -2.5055 S.3            1 S1                 0.0000
     19 ****        -1.8463   1.6045   0.2870 C.ar           1 S1                 0.0000
     20 ****        -1.7822   1.2071   1.6202 C.ar           1 S1                 0.0000
     21 ****        -2.2615   2.1167   2.5902 C.ar           1 S1                 0.0000
     22 ****        -2.2075   1.7111   4.0534 C.3            1 S1                 0.0000
     23 ****        -3.6253   5.2885   2.8149 H              1 S1                 0.0000
     24 ****        -2.5099   4.5869   3.9831 H              1 S1                 0.0000
     25 ****        -4.1403   3.9221   3.8012 H              1 S1                 0.0000
     26 ****        -3.2401   4.7275   0.5589 H              1 S1                 0.0000
     27 ****        -1.5698   1.5609  -3.0088 H              1 S1                 0.0000
     28 ****        -1.4515  -0.9741  -0.1703 H              1 S1                 0.0000
     29 ****        -1.0393  -0.8093  -1.8605 H              1 S1                 0.0000
     30 ****         0.7514   0.0410   0.4814 H              1 S1                 0.0000
     31 ****         0.9524   1.3440  -1.3700 H              1 S1                 0.0000
     32 ****         0.6302  -2.4608   0.0158 H              1 S1                 0.0000
     33 ****         1.1788  -2.1462  -1.6194 H              1 S1                 0.0000
     34 ****         3.1578  -1.1466  -0.6525 H              1 S1                 0.0000
     35 ****         4.2243  -3.0363   0.3889 H              1 S1                 0.0000
     36 ****         2.6736  -3.8410   0.4082 H              1 S1                 0.0000
     37 ****         1.9932  -5.1056  -1.8480 H              1 S1                 0.0000
     38 ****         2.8904  -5.4572  -4.2381 H              1 S1                 0.0000
     39 ****         4.9489  -3.8678  -4.7738 H              1 S1                 0.0000
     40 ****        -1.3863   0.2444   1.9076 H              1 S1                 0.0000
     41 ****        -1.8057   0.7047   4.1746 H              1 S1                 0.0000
     42 ****        -3.2054   1.7257   4.4922 H              1 S1                 0.0000
     43 ****        -1.5709   2.3940   4.6165 H              1 S1                 0.0000
     44 ****         2.6110  -1.4717   0.8586 H              1 S1                 0.0000
     45 ****        -2.5910   3.7139  -2.0525 H              1 S1                 0.0000
     46 ****         1.1929   0.1243  -2.3629 LP             1 S1                 0.0000
     47 ****         2.2822   0.4868  -1.2016 LP             1 S1                 0.0000
@<TRIPOS>BOND
    1    1    2 1     
    2    1   23 1     
    3    1   24 1     
    4    1   25 1     
    5    2   21 ar    
    6    2    3 ar    
    7    3    4 ar    
    8    3   26 1     
    9    4   19 ar    
   10    4    5 1     
   11    5    6 2     
   12    5   45 1     
   13    6    7 1     
   14    6   27 1     
   15    7    8 1     
   16    7   19 1     
   17    8    9 1     
   18    8   28 1     
   19    8   29 1     
   20    9   10 1     
   21    9   11 1     
   22    9   30 1     
   23   10   31 1     
   24   11   12 1     
   25   11   32 1     
   26   11   33 1     
   27   12   13 1     
   28   12   34 1     
   29   12   44 1     
   30   13   14 1     
   31   13   35 1     
   32   13   36 1     
   33   14   18 1     
   34   14   15 2     
   35   15   16 1     
   36   15   37 1     
   37   16   17 2     
   38   16   38 1     
   39   17   18 1     
   40   17   39 1     
   41   19   20 ar    
   42   20   21 ar    
   43   20   40 1     
   44   21   22 1     
   45   22   41 1     
   46   22   42 1     
   47   22   43 1     
   48   10   46 1     
   49   10   47 1     
@<TRIPOS>SUBSTRUCTURE
      1 S1             1
@<TRIPOS>SET
LONE_PAIRS      STATIC     ATOMS    <user>   **** ""
2 46 47
DONOR_HYDROGENS      STATIC     ATOMS    <user>   **** ""
4 45 31 34 44
ATOM$BLUE        STATIC     ATOMS    COLORGROUP SYSTEM
2 46 47
ATOM$RED        STATIC     ATOMS    COLORGROUP SYSTEM
4 45 31 34 44
