#       Name:                AV-unprocessed.smi:1279
#       Creating user name   scv26
#       Creation time:       Fri Mar 27 04:49:19 2020


#       File generated by GOLD software.
#

@<TRIPOS>MOLECULE
AV-unprocessed.smi:1279
    49    50     1
SMALL
NO_CHARGES


@<TRIPOS>ATOM
      1 ****        -6.0096   4.3070   0.2427 C.3            1 S1                 0.0000
      2 ****        -5.3682   3.0005   0.6061 C.2            1 S1                 0.0000
      3 ****        -3.9789   2.6838   0.6375 C.2            1 S1                 0.0000
      4 ****        -3.9776   1.3739   1.0322 C.2            1 S1                 0.0000
      5 ****        -2.9205   0.5446   1.2403 N.am           1 S1                 0.0000
      6 ****        -1.6132   0.7830   1.0357 C.2            1 S1                 0.0000
      7 ****        -1.1349   1.8340   0.6086 O.2            1 S1                 0.0000
      8 ****        -0.8694  -0.2871   1.3510 N.am           1 S1                 0.0000
      9 ****         0.5833  -0.3562   1.2405 C.3            1 S1                 0.0000
     10 ****         1.0296  -0.5893  -0.2162 C.3            1 S1                 0.0000
     11 ****         2.5070  -0.6299  -0.3590 N.4            1 S1                 1.0000
     12 ****         2.9431  -0.3087  -1.7428 C.3            1 S1                 0.0000
     13 ****         4.4770  -0.2273  -1.8439 C.3            1 S1                 0.0000
     14 ****         5.1624  -1.5129  -1.3477 C.3            1 S1                 0.0000
     15 ****         5.0190  -2.6834  -2.3366 C.3            1 S1                 0.0000
     16 ****         4.6445  -1.8547   0.0611 C.3            1 S1                 0.0000
     17 ****         3.1071  -1.9029   0.1221 C.3            1 S1                 0.0000
     18 ****        -5.2792   0.9637   1.2176 N.pl3          1 S1                 0.0000
     19 ****        -5.7876  -0.3285   1.6352 C.3            1 S1                 0.0000
     20 ****        -6.1361   1.9734   0.9525 N.2            1 S1                 0.0000
     21 ****        -5.2605   5.0549  -0.0177 H              1 S1                 0.0000
     22 ****        -6.5960   4.7009   1.0732 H              1 S1                 0.0000
     23 ****        -6.6751   4.1931  -0.6132 H              1 S1                 0.0000
     24 ****        -3.1422   3.3259   0.4076 H              1 S1                 0.0000
     25 ****        -3.1584  -0.3745   1.5831 H              1 S1                 0.0000
     26 ****        -1.3411  -1.1101   1.6972 H              1 S1                 0.0000
     27 ****         1.0302   0.5577   1.6359 H              1 S1                 0.0000
     28 ****         0.9159  -1.1685   1.8854 H              1 S1                 0.0000
     29 ****         0.5935  -1.5070  -0.6143 H              1 S1                 0.0000
     30 ****         0.6390   0.2251  -0.8278 H              1 S1                 0.0000
     31 ****         2.5515  -1.0563  -2.4340 H              1 S1                 0.0000
     32 ****         2.5202   0.6498  -2.0468 H              1 S1                 0.0000
     33 ****         4.7739  -0.0126  -2.8711 H              1 S1                 0.0000
     34 ****         4.8261   0.6166  -1.2471 H              1 S1                 0.0000
     35 ****         6.2305  -1.3073  -1.2660 H              1 S1                 0.0000
     36 ****         3.9789  -2.9689  -2.4906 H              1 S1                 0.0000
     37 ****         5.5524  -3.5645  -1.9788 H              1 S1                 0.0000
     38 ****         5.4359  -2.4241  -3.3103 H              1 S1                 0.0000
     39 ****         5.0629  -2.8040   0.3975 H              1 S1                 0.0000
     40 ****         5.0016  -1.1017   0.7651 H              1 S1                 0.0000
     41 ****         2.8075  -2.0964   1.1513 H              1 S1                 0.0000
     42 ****         2.7285  -2.7350  -0.4728 H              1 S1                 0.0000
     43 ****        -5.3438  -1.1138   1.0229 H              1 S1                 0.0000
     44 ****        -6.8724  -0.3681   1.5257 H              1 S1                 0.0000
     45 ****        -5.5297  -0.5015   2.6803 H              1 S1                 0.0000
     46 ****         2.8711   0.1085   0.2263 H              1 S1                 0.0000
     47 ****        -1.7353   2.6009   0.3823 LP             1 S1                 0.0000
     48 ****        -0.1459   1.9207   0.4881 LP             1 S1                 0.0000
     49 ****        -7.1344   1.9523   1.0056 LP             1 S1                 0.0000
@<TRIPOS>BOND
    1    1    2 1     
    2    1   21 1     
    3    1   22 1     
    4    1   23 1     
    5    2   20 2     
    6    2    3 1     
    7    3    4 2     
    8    3   24 1     
    9    4    5 1     
   10    4   18 1     
   11    5    6 am    
   12    5   25 1     
   13    6    7 2     
   14    6    8 am    
   15    8    9 1     
   16    8   26 1     
   17    9   10 1     
   18    9   27 1     
   19    9   28 1     
   20   10   11 1     
   21   10   29 1     
   22   10   30 1     
   23   11   17 1     
   24   11   12 1     
   25   11   46 1     
   26   12   13 1     
   27   12   31 1     
   28   12   32 1     
   29   13   14 1     
   30   13   33 1     
   31   13   34 1     
   32   14   15 1     
   33   14   16 1     
   34   14   35 1     
   35   15   36 1     
   36   15   37 1     
   37   15   38 1     
   38   16   17 1     
   39   16   39 1     
   40   16   40 1     
   41   17   41 1     
   42   17   42 1     
   43   18   19 1     
   44   18   20 1     
   45   19   43 1     
   46   19   44 1     
   47   19   45 1     
   48    7   47 1     
   49    7   48 1     
   50   20   49 1     
@<TRIPOS>SUBSTRUCTURE
      1 S1             1
@<TRIPOS>SET
LONE_PAIRS      STATIC     ATOMS    <user>   **** ""
3 47 48 49
DONOR_HYDROGENS      STATIC     ATOMS    <user>   **** ""
3 25 26 46
ATOM$BLUE        STATIC     ATOMS    COLORGROUP SYSTEM
3 47 48 49
ATOM$RED        STATIC     ATOMS    COLORGROUP SYSTEM
3 25 26 46
