AV-unprocessed.smi:3026|AV-procd|sdf|11514|dock3
  -GOLD-   2272016453D 1   1.00000     0.00000
 Structure written by MMmdl.
 33 34  0  0  0  0  0  0  0  0  1 V2000
  151.0632  144.9618  160.1294 C   0  0  0  0  0  0  0  0  0  0  0  0
  151.7192  143.6512  159.7512 C   0  0  0  0  0  0  0  0  0  0  0  0
  152.8692  143.1813  160.4191 C   0  0  0  0  0  0  0  0  0  0  0  0
  153.3868  141.9491  159.9728 C   0  0  0  0  0  0  0  0  0  0  0  0
  152.8110  141.2591  158.9647 N   0  0  0  0  0  0  0  0  0  0  0  0
  151.7144  141.7917  158.4087 C   0  0  0  0  0  0  0  0  0  0  0  0
  151.1237  141.1098  157.3525 N   0  0  0  0  0  0  0  0  0  0  0  0
  150.7480  141.9967  156.2555 C   0  0  0  0  0  0  0  0  0  0  0  0
  149.8215  141.2852  155.2629 C   0  0  0  0  0  0  0  0  0  0  0  0
  150.4773  140.1211  154.7847 O   0  0  0  0  0  0  0  0  0  0  0  0
  150.7346  139.2000  155.8363 C   0  0  0  0  0  0  0  0  0  0  0  0
  151.6709  139.8191  156.9043 C   0  0  2  0  0  0  0  0  0  0  0  0
  151.8806  138.8272  158.0800 C   0  0  0  0  0  0  0  0  0  0  0  0
  150.6131  138.0578  158.4860 C   0  0  0  0  0  0  0  0  0  0  0  0
  150.9458  137.0424  159.4082 O   0  0  0  0  0  0  0  0  0  0  0  0
  151.1474  142.9554  158.7441 N   0  0  0  0  0  0  0  0  0  0  0  0
  151.6823  145.5237  160.8291 H   0  0  0  0  0  0  0  0  0  0  0  0
  150.0962  144.7785  160.5985 H   0  0  0  0  0  0  0  0  0  0  0  0
  150.9054  145.5787  159.2444 H   0  0  0  0  0  0  0  0  0  0  0  0
  153.3312  143.7314  161.2256 H   0  0  0  0  0  0  0  0  0  0  0  0
  154.2671  141.5163  160.4245 H   0  0  0  0  0  0  0  0  0  0  0  0
  150.2501  142.8866  156.6433 H   0  0  0  0  0  0  0  0  0  0  0  0
  151.6513  142.3345  155.7455 H   0  0  0  0  0  0  0  0  0  0  0  0
  148.8690  141.0259  155.7282 H   0  0  0  0  0  0  0  0  0  0  0  0
  149.5993  141.9399  154.4201 H   0  0  0  0  0  0  0  0  0  0  0  0
  149.7920  138.8782  156.2825 H   0  0  0  0  0  0  0  0  0  0  0  0
  151.1893  138.3169  155.3895 H   0  0  0  0  0  0  0  0  0  0  0  0
  152.6373  140.0199  156.4394 H   0  0  0  0  0  0  0  0  0  0  0  0
  152.6355  138.0854  157.8214 H   0  0  0  0  0  0  0  0  0  0  0  0
  152.2762  139.3634  158.9440 H   0  0  0  0  0  0  0  0  0  0  0  0
  149.8796  138.7146  158.9526 H   0  0  0  0  0  0  0  0  0  0  0  0
  150.1430  137.6033  157.6134 H   0  0  0  0  0  0  0  0  0  0  0  0
  150.8580  137.3899  160.2827 H   0  0  0  0  0  0  0  0  0  0  0  0
  1  2  1  0  0  0  0
  1 17  1  0  0  0  0
  1 18  1  0  0  0  0
  1 19  1  0  0  0  0
  2 16  1  0  0  0  0
  2  3  2  0  0  0  0
  3  4  1  0  0  0  0
  3 20  1  0  0  0  0
  4  5  2  0  0  0  0
  4 21  1  0  0  0  0
  5  6  1  0  0  0  0
  6  7  1  0  0  0  0
  6 16  2  0  0  0  0
  7 12  1  0  0  0  0
  7  8  1  0  0  0  0
  8  9  1  0  0  0  0
  8 22  1  0  0  0  0
  8 23  1  0  0  0  0
  9 10  1  0  0  0  0
  9 24  1  0  0  0  0
  9 25  1  0  0  0  0
 10 11  1  0  0  0  0
 11 12  1  0  0  0  0
 11 26  1  0  0  0  0
 11 27  1  0  0  0  0
 12 13  1  0  0  0  0
 12 28  1  0  0  0  0
 13 14  1  0  0  0  0
 13 29  1  0  0  0  0
 13 30  1  0  0  0  0
 14 15  1  0  0  0  0
 14 31  1  0  0  0  0
 14 32  1  0  0  0  0
 15 33  1  0  0  0  0
M  END
> <s_m_source_file>
AV-unprocessed.smi

> <i_m_source_file_index>
3026

> <i_lp_mmshare_version>
43012

> <i_f3d_flags>
0

> <s_epik_input>
W0NIM11jMVtjSF1bY0hdbmMobjEpTjJbQ0gyXVtDSDJdT1tDSDJdW0NASF0yW0NIMl1bQ0gyXVtPSF0=

> <s_epik_cmdline>
J2VwaWtfcHl0aG9uJywgJy1waCcsICc3LjAnLCAnLXRuJywgJzgnLCAnLW1hJywgJzIwMCcsICctbWV0YWxfYmluZGluZycsICctaW1hZScsICc8aW5maWxlLm1hZT4nLCAnLW9tYWUnLCAnPG91dGZpbGUubWFlPic=

> <r_lp_tautomer_probability>
1

> <r_epik_Ionization_Penalty>
6.52665e-05

> <r_epik_Ionization_Penalty_Charging>
0

> <r_epik_Ionization_Penalty_Neutral>
6.52665e-05

> <r_epik_State_Penalty>
-0

> <r_epik_Charging_Adjusted_Penalty>
0

> <i_epik_Tot_Q>
0

> <i_epik_Tot_abs_Q>
0

> <r_epik_Metal_State_Penalty>
-0

> <b_epik_Metal_Only>
0

> <s_lp_Force_Field>
OPLS_2005

> <r_lp_Energy>
13.9454

> <b_lp_Chiralities_Consistent>
1

> <s_lp_Variant>
AV-unprocessed.smi:3026-2

> <Gold.Version>
5.8.1

> <Gold.Id.Protein>
6NUR|6NUR_protein|mol2

> <Gold.PLP.Fitness>
36.9195

> <Gold.PLP.PLP>
-31.5303

> <Gold.PLP.part.hbond>
-2.0000

> <Gold.PLP.part.metal>
0.0000

> <Gold.PLP.part.buried>
-6.0825

> <Gold.PLP.part.nonpolar>
-24.4886

> <Gold.PLP.part.repulsive>
0.1450

> <Gold.PLP.ligand.clash>
0.0007

> <Gold.PLP.ligand.torsion>
0.4621

> <Gold.PLP.Chemscore.Hbond>
2.0000

> <Gold.PLP.Chemscore.CHOScore>
0.0000

> <Gold.PLP.Chemscore.Metal>
0.0000

> <Gold.Chemscore.Hbonds>
donor molecule, donor type, donor heavy atom, donor atom, acceptor molecule, acceptor atom, score
      P1  H  6896  6907       L1    15  0.95
      P1  H  7989  7998       L1    10  1.00

> <Gold.PLP.Chemscore.Internal.Correction>
0.3141

> <Gold.Rescore>
     Score         DG    S(hbond)    S(metal)    S(lipo)     H(rot)  DE(clash)    DE(int)     intcor
     12.47     -14.23       1.45        0.00      76.97       1.99       0.00       1.76       ----

> <Gold.Chemscore.Fitness>
12.4664

> <Gold.Chemscore.DG>
-14.2337

> <Gold.Chemscore.ZeroCoef>
-5.4800

> <Gold.Chemscore.Hbond>
1.4472

> <Gold.Chemscore.Metal>
0.0000

> <Gold.Chemscore.Lipo>
76.9669

> <Gold.Chemscore.Internal_Hbond>
0.0000

> <Gold.Chemscore.DEClash>
0.0038

> <Gold.Chemscore.DEInternal>
1.7635

> <Gold.Chemscore.Rot>
1.9864

> <Gold.Chemscore.Internal.Correction>
   9.000000E+99

> <Gold.Chemscore.Hbonds>
donor molecule, donor type, donor heavy atom, donor atom, acceptor molecule, acceptor atom, score
      P1  H  6896  6907       L1    15  0.21
      P1  H  7989  7998       L1    10  0.30

> <Gold.Chemscore.Hbond.Weighted>
-4.8337

> <Gold.Chemscore.Metal.Weighted>
-0.0000

> <Gold.Chemscore.Lipo.Weighted>
-9.0051

> <Gold.Chemscore.Internal_Hbond.Weighted>
0.0000

> <Gold.Chemscore.DEClash.Weighted>
0.0038

> <Gold.Chemscore.DEInternal.Weighted>
1.7635

> <Gold.Chemscore.Rot.Weighted>
5.0851

> <Gold.Chemscore.Internal.Correction.Weighted>
   9.000000E+99

> <Gold.Protein.RotatedTorsions>
[ 6907 6896 6895 6894 ] final  -22.62 input  -60.11 | X-H torsion
[ 7974 7965 7964 7962 ] final  -24.08 input  175.53 | X-H torsion
[ 8008 7997 7996 7995 ] final  -48.00 input   59.86 | X-H torsion
[ 10167 10162 10161 10158 ] final   27.52 input  -65.29 | X-H torsion
[ 10718 10713 10712 10709 ] final -153.00 input   66.30 | X-H torsion
[ 10763 10752 10751 10750 ] final  -81.83 input  -60.55 | X-H torsion
[ 11005 11000 10999 10996 ] final   73.83 input  -57.11 | X-H torsion

> <Gold.Protein.ActiveResidues>
 VAL166  LYS551  ARG553  GLY616  TRP617  ASP618  TYR619  PRO620  LYS621  CYS622 
 ASP623  PHE694  ASN695  SER759  ASP760  ASP761  ALA762  ILE779  LEU786  VAL792 
 PHE793  MET794  SER795  GLU796  ALA797  LYS798  CYS799  TRP800  GLU811  SER814 

> <Gold.Protein.RotatedAtoms>
  151.2159  135.0499  159.8929 H   0  0  0  0  0  0  0  0  0  0  0  0  # atno 6907 bound_to 6896
  152.5420  134.0694  159.8197 H   0  0  0  0  0  0  0  0  0  0  0  0  # atno 6908 bound_to 6896
  151.0853  133.5310  159.2650 H   0  0  0  0  0  0  0  0  0  0  0  0  # atno 6909 bound_to 6896
  146.1577  140.4703  142.8584 H   0  0  0  0  0  0  0  0  0  0  0  0  # atno 7974 bound_to 7965
  154.4023  140.1332  156.4268 H   0  0  0  0  0  0  0  0  0  0  0  0  # atno 8008 bound_to 7997
  155.7589  140.3486  155.5168 H   0  0  0  0  0  0  0  0  0  0  0  0  # atno 8009 bound_to 7997
  155.8878  140.0998  157.1430 H   0  0  0  0  0  0  0  0  0  0  0  0  # atno 8010 bound_to 7997
  140.4931  144.0435  150.6304 H   0  0  0  0  0  0  0  0  0  0  0  0  # atno 10167 bound_to 10162
  156.4799  130.8298  151.2525 H   0  0  0  0  0  0  0  0  0  0  0  0  # atno 10718 bound_to 10713
  154.5684  135.5612  153.7072 H   0  0  0  0  0  0  0  0  0  0  0  0  # atno 10763 bound_to 10752
  153.0040  135.6291  154.2148 H   0  0  0  0  0  0  0  0  0  0  0  0  # atno 10764 bound_to 10752
  154.2087  135.2874  155.2945 H   0  0  0  0  0  0  0  0  0  0  0  0  # atno 10765 bound_to 10752
  139.9421  134.7380  156.1073 H   0  0  0  0  0  0  0  0  0  0  0  0  # atno 11005 bound_to 11000
  144.7985  140.6168  143.6494 LP  0  0  0  0  0  0  0  0  0  0  0  0  # atno 17320 bound_to 7965
  145.4667  139.1507  143.3836 LP  0  0  0  0  0  0  0  0  0  0  0  0  # atno 17321 bound_to 7965
  140.3710  143.2854  152.0278 LP  0  0  0  0  0  0  0  0  0  0  0  0  # atno 17342 bound_to 10162
  139.4855  144.6230  151.7219 LP  0  0  0  0  0  0  0  0  0  0  0  0  # atno 17343 bound_to 10162
  157.7484  131.0048  150.3090 LP  0  0  0  0  0  0  0  0  0  0  0  0  # atno 17370 bound_to 10713
  156.3532  130.3834  149.7312 LP  0  0  0  0  0  0  0  0  0  0  0  0  # atno 17371 bound_to 10713
  141.1059  133.6660  156.2862 LP  0  0  0  0  0  0  0  0  0  0  0  0  # atno 17394 bound_to 11000
  140.5926  134.5635  157.5502 LP  0  0  0  0  0  0  0  0  0  0  0  0  # atno 17395 bound_to 11000

$$$$
