AV-unprocessed.smi:171|AV-procd|sdf|1419|dock4
  -GOLD-   2262019183D 1   1.00000     0.00000
 Structure written by MMmdl.
 56 59  0  0  0  0  0  0  0  0  1 V2000
  152.7694  144.5230  158.5751 C   0  0  0  0  0  0  0  0  0  0  0  0
  151.8459  143.2993  158.7003 C   0  0  0  0  0  0  0  0  0  0  0  0
  152.4772  142.2418  159.6184 C   0  0  0  0  0  0  0  0  0  0  0  0
  151.4867  142.6816  157.3282 C   0  0  0  0  0  0  0  0  0  0  0  0
  150.4169  141.5627  157.3628 C   0  0  1  0  0  0  0  0  0  0  0  0
  149.0215  142.1642  157.6455 C   0  0  0  0  0  0  0  0  0  0  0  0
  148.7810  142.6427  158.7520 O   0  0  0  0  0  0  0  0  0  0  0  0
  148.0911  142.1518  156.6737 N   0  0  0  0  0  0  0  0  0  0  0  0
  148.2608  141.5918  155.3334 C   0  0  0  0  0  0  0  0  0  0  0  0
  149.7374  141.3665  154.9669 C   0  0  0  0  0  0  0  0  0  0  0  0
  150.4534  140.7999  156.1056 N   0  0  0  0  0  0  0  0  0  0  0  0
  150.4677  139.4445  156.1569 C   0  0  0  0  0  0  0  0  0  0  0  0
  150.5156  138.7156  155.0104 N   0  0  0  0  0  0  0  0  0  0  0  0
  150.5411  137.3806  155.0630 C   0  0  0  0  0  0  0  0  0  0  0  0
  150.5293  136.5868  156.1361 N   0  0  0  0  0  0  0  0  0  0  0  0
  150.4832  137.3147  157.2887 C   0  0  0  0  0  0  0  0  0  0  0  0
  150.4493  138.7337  157.3878 C   0  0  0  0  0  0  0  0  0  0  0  0
  150.3937  139.1163  158.7225 N   0  0  0  0  0  0  0  0  0  0  0  0
  150.4014  137.9869  159.3761 C   0  0  0  0  0  0  0  0  0  0  0  0
  150.4616  136.8554  158.5939 N   0  0  0  0  0  0  0  0  0  0  0  0
  150.4891  135.4767  159.0558 C   0  0  0  0  0  0  0  0  0  0  0  0
  151.6988  135.1591  159.9663 C   0  0  1  0  0  0  0  0  0  0  0  0
  151.4082  135.6113  161.2798 O   0  0  0  0  0  0  0  0  0  0  0  0
  152.0454  133.6787  160.0414 C   0  0  0  0  0  0  0  0  0  0  0  0
  153.5209  133.7059  160.4170 C   0  0  0  0  0  0  0  0  0  0  0  0
  154.0467  134.8051  159.6866 O   0  0  0  0  0  0  0  0  0  0  0  0
  153.0226  135.7704  159.4491 C   0  0  2  0  0  0  0  0  0  0  0  0
  153.4221  137.1379  160.0275 C   0  0  0  0  0  0  0  0  0  0  0  0
  153.6895  144.2734  158.0455 H   0  0  0  0  0  0  0  0  0  0  0  0
  153.0452  144.9075  159.5574 H   0  0  0  0  0  0  0  0  0  0  0  0
  152.2844  145.3391  158.0399 H   0  0  0  0  0  0  0  0  0  0  0  0
  150.9265  143.6276  159.1865 H   0  0  0  0  0  0  0  0  0  0  0  0
  153.4104  141.8610  159.2017 H   0  0  0  0  0  0  0  0  0  0  0  0
  151.8066  141.3944  159.7629 H   0  0  0  0  0  0  0  0  0  0  0  0
  152.6974  142.6557  160.6029 H   0  0  0  0  0  0  0  0  0  0  0  0
  151.1487  143.4800  156.6655 H   0  0  0  0  0  0  0  0  0  0  0  0
  152.3978  142.2916  156.8718 H   0  0  0  0  0  0  0  0  0  0  0  0
  150.6494  140.9168  158.2100 H   0  0  0  0  0  0  0  0  0  0  0  0
  147.1891  142.5530  156.8860 H   0  0  0  0  0  0  0  0  0  0  0  0
  147.7288  140.6401  155.3066 H   0  0  0  0  0  0  0  0  0  0  0  0
  147.7806  142.2416  154.6016 H   0  0  0  0  0  0  0  0  0  0  0  0
  149.8117  140.7423  154.0758 H   0  0  0  0  0  0  0  0  0  0  0  0
  150.2037  142.3171  154.7063 H   0  0  0  0  0  0  0  0  0  0  0  0
  150.5767  136.8762  154.1087 H   0  0  0  0  0  0  0  0  0  0  0  0
  150.3679  137.9481  160.4552 H   0  0  0  0  0  0  0  0  0  0  0  0
  149.5556  135.2825  159.5857 H   0  0  0  0  0  0  0  0  0  0  0  0
  150.4875  134.8190  158.1855 H   0  0  0  0  0  0  0  0  0  0  0  0
  152.1040  135.3301  161.8544 H   0  0  0  0  0  0  0  0  0  0  0  0
  151.4329  133.1182  160.7490 H   0  0  0  0  0  0  0  0  0  0  0  0
  151.9345  133.2142  159.0605 H   0  0  0  0  0  0  0  0  0  0  0  0
  153.6435  133.8949  161.4843 H   0  0  0  0  0  0  0  0  0  0  0  0
  154.0372  132.7776  160.1725 H   0  0  0  0  0  0  0  0  0  0  0  0
  152.9645  135.8675  158.3643 H   0  0  0  0  0  0  0  0  0  0  0  0
  152.6401  137.8790  159.8597 H   0  0  0  0  0  0  0  0  0  0  0  0
  154.3331  137.5043  159.5539 H   0  0  0  0  0  0  0  0  0  0  0  0
  153.6125  137.0819  161.0999 H   0  0  0  0  0  0  0  0  0  0  0  0
  1  2  1  0  0  0  0
  1 29  1  0  0  0  0
  1 30  1  0  0  0  0
  1 31  1  0  0  0  0
  2  3  1  0  0  0  0
  2  4  1  0  0  0  0
  2 32  1  0  0  0  0
  3 33  1  0  0  0  0
  3 34  1  0  0  0  0
  3 35  1  0  0  0  0
  4  5  1  0  0  0  0
  4 36  1  0  0  0  0
  4 37  1  0  0  0  0
  5 11  1  0  0  0  0
  5  6  1  0  0  0  0
  5 38  1  0  0  0  0
  6  7  2  0  0  0  0
  6  8  1  0  0  0  0
  8  9  1  0  0  0  0
  8 39  1  0  0  0  0
  9 10  1  0  0  0  0
  9 40  1  0  0  0  0
  9 41  1  0  0  0  0
 10 11  1  0  0  0  0
 10 42  1  0  0  0  0
 10 43  1  0  0  0  0
 11 12  1  0  0  0  0
 12 17  1  0  0  0  0
 12 13  2  0  0  0  0
 13 14  1  0  0  0  0
 14 15  2  0  0  0  0
 14 44  1  0  0  0  0
 15 16  1  0  0  0  0
 16 20  1  0  0  0  0
 16 17  2  0  0  0  0
 17 18  1  0  0  0  0
 18 19  2  0  0  0  0
 19 20  1  0  0  0  0
 19 45  1  0  0  0  0
 20 21  1  0  0  0  0
 21 22  1  0  0  0  0
 21 46  1  0  0  0  0
 21 47  1  0  0  0  0
 22 27  1  0  0  0  0
 22 23  1  0  0  0  0
 22 24  1  0  0  0  0
 23 48  1  0  0  0  0
 24 25  1  0  0  0  0
 24 49  1  0  0  0  0
 24 50  1  0  0  0  0
 25 26  1  0  0  0  0
 25 51  1  0  0  0  0
 25 52  1  0  0  0  0
 26 27  1  0  0  0  0
 27 28  1  0  0  0  0
 27 53  1  0  0  0  0
 28 54  1  0  0  0  0
 28 55  1  0  0  0  0
 28 56  1  0  0  0  0
M  END
> <s_m_source_file>
AV-unprocessed.smi

> <i_m_source_file_index>
171

> <i_lp_mmshare_version>
43012

> <i_f3d_flags>
0

> <s_epik_input>
W0NIM11bQ0hdKFtDSDNdKVtDSDJdW0NAQEhdMUMoPU8pW05IXVtDSDJdW0NIMl1OMWMobltjSF1uMiljKGMyMyluW2NIXW4zW0NIMl1bQ0BAXTQoW09IXSlbQ0gyXVtDSDJdT1tDQEhdNFtDSDNd

> <s_epik_cmdline>
J2VwaWtfcHl0aG9uJywgJy1waCcsICc3LjAnLCAnLXRuJywgJzgnLCAnLW1hJywgJzIwMCcsICctbWV0YWxfYmluZGluZycsICctaW1hZScsICc8aW5maWxlLm1hZT4nLCAnLW9tYWUnLCAnPG91dGZpbGUubWFlPic=

> <r_lp_tautomer_probability>
1

> <r_epik_Ionization_Penalty>
0.000670584

> <r_epik_Ionization_Penalty_Charging>
0

> <r_epik_Ionization_Penalty_Neutral>
0.000670584

> <r_epik_State_Penalty>
0.000304767

> <r_epik_Charging_Adjusted_Penalty>
0.000304767

> <i_epik_Tot_Q>
0

> <i_epik_Tot_abs_Q>
0

> <r_epik_Metal_State_Penalty>
-0

> <b_epik_Metal_Only>
0

> <s_lp_Force_Field>
OPLS_2005

> <r_lp_Energy>
42.7998

> <b_lp_Chiralities_Consistent>
1

> <s_lp_Variant>
AV-unprocessed.smi:171-6

> <Gold.Version>
5.8.1

> <Gold.Id.Protein>
6NUR|6NUR_protein|mol2

> <Gold.PLP.Fitness>
49.1160

> <Gold.PLP.PLP>
-38.3486

> <Gold.PLP.part.hbond>
-4.7216

> <Gold.PLP.part.metal>
0.0000

> <Gold.PLP.part.buried>
-1.3355

> <Gold.PLP.part.nonpolar>
-32.9331

> <Gold.PLP.part.repulsive>
0.3362

> <Gold.PLP.ligand.clash>
0.0000

> <Gold.PLP.ligand.torsion>
0.6381

> <Gold.PLP.Chemscore.Hbond>
2.8960

> <Gold.PLP.Chemscore.CHOScore>
0.9928

> <Gold.PLP.Chemscore.Metal>
0.0000

> <Gold.Chemscore.Hbonds>
donor molecule, donor type, donor heavy atom, donor atom, acceptor molecule, acceptor atom, score
      L1  C    14    44       P1  7948  0.23
      L1  C    14    44       P1  7949  0.17

> <Gold.PLP.Chemscore.Internal.Correction>
0.3773

> <Gold.Rescore>
     Score         DG    S(hbond)    S(metal)    S(lipo)     H(rot)  DE(clash)    DE(int)     intcor
     13.25     -16.79       2.20        0.00      84.03       2.29       1.13       2.41       ----

> <Gold.Chemscore.Fitness>
13.2550

> <Gold.Chemscore.DG>
-16.7866

> <Gold.Chemscore.ZeroCoef>
-5.4800

> <Gold.Chemscore.Hbond>
2.1989

> <Gold.Chemscore.Metal>
0.0000

> <Gold.Chemscore.Lipo>
84.0319

> <Gold.Chemscore.Internal_Hbond>
0.0000

> <Gold.Chemscore.DEClash>
1.1257

> <Gold.Chemscore.DEInternal>
2.4060

> <Gold.Chemscore.Rot>
2.2928

> <Gold.Chemscore.Internal.Correction>
   9.000000E+99

> <Gold.Chemscore.Hbond.Weighted>
-7.3445

> <Gold.Chemscore.Metal.Weighted>
-0.0000

> <Gold.Chemscore.Lipo.Weighted>
-9.8317

> <Gold.Chemscore.Internal_Hbond.Weighted>
0.0000

> <Gold.Chemscore.DEClash.Weighted>
1.1257

> <Gold.Chemscore.DEInternal.Weighted>
2.4060

> <Gold.Chemscore.Rot.Weighted>
5.8696

> <Gold.Chemscore.Internal.Correction.Weighted>
   9.000000E+99

> <Gold.Protein.RotatedTorsions>
[ 6907 6896 6895 6894 ] final  -75.48 input  -60.11 | X-H torsion
[ 7974 7965 7964 7962 ] final  131.41 input  175.53 | X-H torsion
[ 8008 7997 7996 7995 ] final   95.69 input   59.86 | X-H torsion
[ 10167 10162 10161 10158 ] final -125.89 input  -65.29 | X-H torsion
[ 10718 10713 10712 10709 ] final   15.25 input   66.30 | X-H torsion
[ 10763 10752 10751 10750 ] final  177.60 input  -60.55 | X-H torsion
[ 11005 11000 10999 10996 ] final  101.83 input  -57.11 | X-H torsion

> <Gold.Protein.ActiveResidues>
 VAL166  LYS551  ARG553  GLY616  TRP617  ASP618  TYR619  PRO620  LYS621  CYS622 
 ASP623  PHE694  ASN695  SER759  ASP760  ASP761  ALA762  ILE779  LEU786  VAL792 
 PHE793  MET794  SER795  GLU796  ALA797  LYS798  CYS799  TRP800  GLU811  SER814 

> <Gold.Protein.RotatedAtoms>
  150.7057  134.4714  159.5426 H   0  0  0  0  0  0  0  0  0  0  0  0  # atno 6907 bound_to 6896
  152.2370  134.8264  160.0475 H   0  0  0  0  0  0  0  0  0  0  0  0  # atno 6908 bound_to 6896
  151.9059  133.3514  159.3883 H   0  0  0  0  0  0  0  0  0  0  0  0  # atno 6909 bound_to 6896
  145.0076  139.4251  143.5261 H   0  0  0  0  0  0  0  0  0  0  0  0  # atno 7974 bound_to 7965
  156.0716  140.3283  155.7582 H   0  0  0  0  0  0  0  0  0  0  0  0  # atno 8008 bound_to 7997
  155.5297  140.0592  157.2909 H   0  0  0  0  0  0  0  0  0  0  0  0  # atno 8009 bound_to 7997
  154.4533  140.1929  156.0471 H   0  0  0  0  0  0  0  0  0  0  0  0  # atno 8010 bound_to 7997
  139.9773  143.5781  152.2391 H   0  0  0  0  0  0  0  0  0  0  0  0  # atno 10167 bound_to 10162
  157.0508  130.6269  149.5767 H   0  0  0  0  0  0  0  0  0  0  0  0  # atno 10718 bound_to 10713
  154.4966  135.2781  155.1454 H   0  0  0  0  0  0  0  0  0  0  0  0  # atno 10763 bound_to 10752
  154.3104  135.6230  153.5467 H   0  0  0  0  0  0  0  0  0  0  0  0  # atno 10764 bound_to 10752
  152.9896  135.5718  154.5399 H   0  0  0  0  0  0  0  0  0  0  0  0  # atno 10765 bound_to 10752
  139.8775  134.9199  156.4966 H   0  0  0  0  0  0  0  0  0  0  0  0  # atno 11005 bound_to 11000
  146.3464  139.9502  142.8730 LP  0  0  0  0  0  0  0  0  0  0  0  0  # atno 17320 bound_to 7965
  145.2067  140.9878  143.4124 LP  0  0  0  0  0  0  0  0  0  0  0  0  # atno 17321 bound_to 7965
  139.6436  144.7656  151.2289 LP  0  0  0  0  0  0  0  0  0  0  0  0  # atno 17342 bound_to 10162
  140.7501  143.6276  150.8454 LP  0  0  0  0  0  0  0  0  0  0  0  0  # atno 17343 bound_to 10162
  156.0008  130.5087  150.7655 LP  0  0  0  0  0  0  0  0  0  0  0  0  # atno 17370 bound_to 10713
  157.5031  131.0920  151.0290 LP  0  0  0  0  0  0  0  0  0  0  0  0  # atno 17371 bound_to 10713
  140.8620  133.8053  155.9275 LP  0  0  0  0  0  0  0  0  0  0  0  0  # atno 17394 bound_to 11000
  140.9040  134.2343  157.5025 LP  0  0  0  0  0  0  0  0  0  0  0  0  # atno 17395 bound_to 11000

$$$$
