AV-unprocessed.smi:2987|AV-procd|sdf|11385|dock3
  -GOLD-   2272016313D 1   1.00000     0.00000
 Structure written by MMmdl.
 25 26  0  0  0  0  0  0  0  0  1 V2000
  152.0030  139.1784  155.9962 C   0  0  0  0  0  0  0  0  0  0  0  0
  152.1919  140.1220  157.1412 C   0  0  0  0  0  0  0  0  0  0  0  0
  153.1011  139.9145  158.0941 N   0  0  0  0  0  0  0  0  0  0  0  0
  152.9236  141.0052  158.9240 C   0  0  0  0  0  0  0  0  0  0  0  0
  153.5848  141.3679  160.1193 C   0  0  0  0  0  0  0  0  0  0  0  0
  153.2238  142.5461  160.8055 C   0  0  0  0  0  0  0  0  0  0  0  0
  152.1984  143.3765  160.3084 C   0  0  0  0  0  0  0  0  0  0  0  0
  151.5270  143.0340  159.1189 C   0  0  0  0  0  0  0  0  0  0  0  0
  151.8920  141.8578  158.4374 C   0  0  0  0  0  0  0  0  0  0  0  0
  151.4440  141.2447  157.2721 N   0  0  0  0  0  0  0  0  0  0  0  0
  150.3854  141.7241  156.3989 C   0  0  0  0  0  0  0  0  0  0  0  0
  149.0200  141.6866  157.0986 C   0  0  0  0  0  0  0  0  0  0  0  0
  148.0146  142.1116  156.2050 O   0  0  0  0  0  0  0  0  0  0  0  0
  152.6233  138.2908  156.1255 H   0  0  0  0  0  0  0  0  0  0  0  0
  152.2852  139.6617  155.0606 H   0  0  0  0  0  0  0  0  0  0  0  0
  150.9617  138.8624  155.9315 H   0  0  0  0  0  0  0  0  0  0  0  0
  154.3705  140.7379  160.5091 H   0  0  0  0  0  0  0  0  0  0  0  0
  153.7364  142.8140  161.7178 H   0  0  0  0  0  0  0  0  0  0  0  0
  151.9277  144.2765  160.8406 H   0  0  0  0  0  0  0  0  0  0  0  0
  150.7412  143.6676  158.7355 H   0  0  0  0  0  0  0  0  0  0  0  0
  150.6256  142.7433  156.0935 H   0  0  0  0  0  0  0  0  0  0  0  0
  150.3697  141.1261  155.4873 H   0  0  0  0  0  0  0  0  0  0  0  0
  148.7871  140.6783  157.4424 H   0  0  0  0  0  0  0  0  0  0  0  0
  149.0169  142.3386  157.9726 H   0  0  0  0  0  0  0  0  0  0  0  0
  148.2690  142.9464  155.8418 H   0  0  0  0  0  0  0  0  0  0  0  0
  1  2  1  0  0  0  0
  1 14  1  0  0  0  0
  1 15  1  0  0  0  0
  1 16  1  0  0  0  0
  2 10  1  0  0  0  0
  2  3  2  0  0  0  0
  3  4  1  0  0  0  0
  4  9  2  0  0  0  0
  4  5  1  0  0  0  0
  5  6  2  0  0  0  0
  5 17  1  0  0  0  0
  6  7  1  0  0  0  0
  6 18  1  0  0  0  0
  7  8  2  0  0  0  0
  7 19  1  0  0  0  0
  8  9  1  0  0  0  0
  8 20  1  0  0  0  0
  9 10  1  0  0  0  0
 10 11  1  0  0  0  0
 11 12  1  0  0  0  0
 11 21  1  0  0  0  0
 11 22  1  0  0  0  0
 12 13  1  0  0  0  0
 12 23  1  0  0  0  0
 12 24  1  0  0  0  0
 13 25  1  0  0  0  0
M  END
> <s_m_source_file>
AV-unprocessed.smi

> <i_m_source_file_index>
2987

> <i_lp_mmshare_version>
43012

> <i_f3d_flags>
0

> <s_epik_input>
W09IXVtDSDJdW0NIMl1uKGMobjEpW0NIM10pYyhjMTIpW2NIXVtjSF1bY0hdW2NIXTI=

> <s_epik_cmdline>
J2VwaWtfcHl0aG9uJywgJy1waCcsICc3LjAnLCAnLXRuJywgJzgnLCAnLW1hJywgJzIwMCcsICctbWV0YWxfYmluZGluZycsICctaW1hZScsICc8aW5maWxlLm1hZT4nLCAnLW9tYWUnLCAnPG91dGZpbGUubWFlPic=

> <r_epik_Ionization_Penalty>
0.129663

> <r_epik_Ionization_Penalty_Charging>
0

> <r_epik_Ionization_Penalty_Neutral>
0.129663

> <r_epik_State_Penalty>
0.119073

> <r_epik_Charging_Adjusted_Penalty>
0.119073

> <i_epik_Tot_Q>
0

> <i_epik_Tot_abs_Q>
0

> <r_epik_Metal_State_Penalty>
0.000131867

> <b_epik_Metal_Only>
0

> <s_lp_Force_Field>
OPLS_2005

> <r_lp_Energy>
7.88102

> <b_lp_Chiralities_Consistent>
1

> <s_lp_Variant>
AV-unprocessed.smi:2987-1

> <Gold.Version>
5.8.1

> <Gold.Id.Protein>
6NUR|6NUR_protein|mol2

> <Gold.PLP.Fitness>
34.7303

> <Gold.PLP.PLP>
-28.8182

> <Gold.PLP.part.hbond>
-2.0000

> <Gold.PLP.part.metal>
0.0000

> <Gold.PLP.part.buried>
-2.3418

> <Gold.PLP.part.nonpolar>
-24.1284

> <Gold.PLP.part.repulsive>
0.0000

> <Gold.PLP.ligand.clash>
0.0000

> <Gold.PLP.ligand.torsion>
0.0440

> <Gold.PLP.Chemscore.Hbond>
2.0000

> <Gold.PLP.Chemscore.CHOScore>
0.0000

> <Gold.PLP.Chemscore.Metal>
0.0000

> <Gold.Chemscore.Hbonds>
donor molecule, donor type, donor heavy atom, donor atom, acceptor molecule, acceptor atom, score
      L1  H    13    25       P1  8028  1.00
      P1  H  7997  8009       L1     3  0.99

> <Gold.PLP.Chemscore.Internal.Correction>
0.0001

> <Gold.Rescore>
     Score         DG    S(hbond)    S(metal)    S(lipo)     H(rot)  DE(clash)    DE(int)     intcor
     14.79     -14.84       1.31        0.00      79.81       1.70       0.04       0.01       ----

> <Gold.Chemscore.Fitness>
14.7866

> <Gold.Chemscore.DG>
-14.8351

> <Gold.Chemscore.ZeroCoef>
-5.4800

> <Gold.Chemscore.Hbond>
1.3099

> <Gold.Chemscore.Metal>
0.0000

> <Gold.Chemscore.Lipo>
79.8107

> <Gold.Chemscore.Internal_Hbond>
0.0000

> <Gold.Chemscore.DEClash>
0.0352

> <Gold.Chemscore.DEInternal>
0.0133

> <Gold.Chemscore.Rot>
1.7023

> <Gold.Chemscore.Internal.Correction>
   9.000000E+99

> <Gold.Chemscore.Hbonds>
donor molecule, donor type, donor heavy atom, donor atom, acceptor molecule, acceptor atom, score
      L1  H    13    25       P1  8028  0.93
      P1  H  7997  8009       L1     3  0.25

> <Gold.Chemscore.Hbond.Weighted>
-4.3751

> <Gold.Chemscore.Metal.Weighted>
-0.0000

> <Gold.Chemscore.Lipo.Weighted>
-9.3379

> <Gold.Chemscore.Internal_Hbond.Weighted>
0.0000

> <Gold.Chemscore.DEClash.Weighted>
0.0352

> <Gold.Chemscore.DEInternal.Weighted>
0.0133

> <Gold.Chemscore.Rot.Weighted>
4.3579

> <Gold.Chemscore.Internal.Correction.Weighted>
   9.000000E+99

> <Gold.Protein.RotatedTorsions>
[ 6907 6896 6895 6894 ] final -117.37 input  -60.11 | X-H torsion
[ 7974 7965 7964 7962 ] final  -94.62 input  175.53 | X-H torsion
[ 8008 7997 7996 7995 ] final  144.61 input   59.86 | X-H torsion
[ 10167 10162 10161 10158 ] final -152.93 input  -65.29 | X-H torsion
[ 10718 10713 10712 10709 ] final   85.58 input   66.30 | X-H torsion
[ 10763 10752 10751 10750 ] final   83.23 input  -60.55 | X-H torsion
[ 11005 11000 10999 10996 ] final  -98.11 input  -57.11 | X-H torsion

> <Gold.Protein.ActiveResidues>
 VAL166  LYS551  ARG553  GLY616  TRP617  ASP618  TYR619  PRO620  LYS621  CYS622 
 ASP623  PHE694  ASN695  SER759  ASP760  ASP761  ALA762  ILE779  LEU786  VAL792 
 PHE793  MET794  SER795  GLU796  ALA797  LYS798  CYS799  TRP800  GLU811  SER814 

> <Gold.Protein.RotatedAtoms>
  150.8131  133.8386  159.3172 H   0  0  0  0  0  0  0  0  0  0  0  0  # atno 6907 bound_to 6896
  151.6166  135.1034  160.0102 H   0  0  0  0  0  0  0  0  0  0  0  0  # atno 6908 bound_to 6896
  152.4223  133.7096  159.6528 H   0  0  0  0  0  0  0  0  0  0  0  0  # atno 6909 bound_to 6896
  145.3708  140.9505  143.2448 H   0  0  0  0  0  0  0  0  0  0  0  0  # atno 7974 bound_to 7965
  156.2904  140.2231  156.5080 H   0  0  0  0  0  0  0  0  0  0  0  0  # atno 8008 bound_to 7997
  154.7633  140.0472  157.1013 H   0  0  0  0  0  0  0  0  0  0  0  0  # atno 8009 bound_to 7997
  154.9964  140.3096  155.4888 H   0  0  0  0  0  0  0  0  0  0  0  0  # atno 8010 bound_to 7997
  139.7140  143.9064  152.2479 H   0  0  0  0  0  0  0  0  0  0  0  0  # atno 10167 bound_to 10162
  157.6916  131.0180  150.2843 H   0  0  0  0  0  0  0  0  0  0  0  0  # atno 10718 bound_to 10713
  153.1272  135.4699  154.9292 H   0  0  0  0  0  0  0  0  0  0  0  0  # atno 10763 bound_to 10752
  154.7631  135.3137  154.8341 H   0  0  0  0  0  0  0  0  0  0  0  0  # atno 10764 bound_to 10752
  153.8892  135.6886  153.4815 H   0  0  0  0  0  0  0  0  0  0  0  0  # atno 10765 bound_to 10752
  141.1356  133.8221  157.0796 H   0  0  0  0  0  0  0  0  0  0  0  0  # atno 11005 bound_to 11000
  144.8577  139.5224  143.6826 LP  0  0  0  0  0  0  0  0  0  0  0  0  # atno 17320 bound_to 7965
  146.2886  139.7074  142.9177 LP  0  0  0  0  0  0  0  0  0  0  0  0  # atno 17321 bound_to 7965
  139.8941  144.6949  150.8738 LP  0  0  0  0  0  0  0  0  0  0  0  0  # atno 17342 bound_to 10162
  140.7739  143.3564  151.1913 LP  0  0  0  0  0  0  0  0  0  0  0  0  # atno 17343 bound_to 10162
  156.3385  130.3811  149.7430 LP  0  0  0  0  0  0  0  0  0  0  0  0  # atno 17370 bound_to 10713
  156.4946  130.8101  151.3108 LP  0  0  0  0  0  0  0  0  0  0  0  0  # atno 17371 bound_to 10713
  140.0460  134.9830  157.1049 LP  0  0  0  0  0  0  0  0  0  0  0  0  # atno 17394 bound_to 11000
  140.4063  134.2029  155.7163 LP  0  0  0  0  0  0  0  0  0  0  0  0  # atno 17395 bound_to 11000

$$$$
