AV-unprocessed.smi:1813|AV-procd|sdf|7346|dock8
  -GOLD-   22720 9 03D 1   1.00000     0.00000
 Structure written by MMmdl.
 39 40  0  0  0  0  0  0  0  0  3 V2000
  145.8852  135.5499  153.6048 C   0  0  0  0  0  0  0  0  0  0  0  0
  146.4324  136.6764  152.8638 N   0  0  0  0  0  0  0  0  0  0  0  0
  146.0376  137.9469  153.0242 C   0  0  0  0  0  0  0  0  0  0  0  0
  145.1692  138.2870  153.8285 O   0  0  0  0  0  0  0  0  0  0  0  0
  146.7464  138.9909  152.1553 C   0  0  0  0  0  0  0  0  0  0  0  0
  147.6615  139.8683  152.9294 N   0  3  2  0  0  0  0  0  0  0  0  0
  148.4889  139.1240  153.9161 C   0  0  0  0  0  0  0  0  0  0  0  0
  149.5155  140.0502  154.5875 C   0  0  0  0  0  0  0  0  0  0  0  0
  148.8252  141.2482  155.2581 C   0  0  1  0  0  0  0  0  0  0  0  0
  149.8300  142.1514  155.8100 N   0  0  0  0  0  0  0  0  0  0  0  0
  150.7448  141.8371  156.7384 C   0  0  0  0  0  0  0  0  0  0  0  0
  150.7843  140.6946  157.2010 O   0  0  0  0  0  0  0  0  0  0  0  0
  151.5525  142.8676  157.0747 N   0  5  0  0  0  0  0  0  0  0  0  0
  152.1627  142.8792  158.2710 C   0  0  0  0  0  0  0  0  0  0  0  0
  152.1007  143.9184  159.1113 N   0  0  0  0  0  0  0  0  0  0  0  0
  152.8041  143.7138  160.2997 C   0  0  0  0  0  0  0  0  0  0  0  0
  153.4080  142.4866  160.3699 C   0  0  0  0  0  0  0  0  0  0  0  0
  153.1090  141.5452  158.9369 S   0  0  0  0  0  0  0  0  0  0  0  0
  147.9398  141.9759  154.2297 C   0  0  0  0  0  0  0  0  0  0  0  0
  146.9502  141.0065  153.5645 C   0  0  0  0  0  0  0  0  0  0  0  0
  146.3756  134.6272  153.2942 H   0  0  0  0  0  0  0  0  0  0  0  0
  144.8153  135.4457  153.4203 H   0  0  0  0  0  0  0  0  0  0  0  0
  146.0438  135.6753  154.6767 H   0  0  0  0  0  0  0  0  0  0  0  0
  147.1574  136.4757  152.1901 H   0  0  0  0  0  0  0  0  0  0  0  0
  147.3151  138.4370  151.4073 H   0  0  0  0  0  0  0  0  0  0  0  0
  146.0195  139.5963  151.6109 H   0  0  0  0  0  0  0  0  0  0  0  0
  147.8412  138.6741  154.6703 H   0  0  0  0  0  0  0  0  0  0  0  0
  149.0158  138.3054  153.4255 H   0  0  0  0  0  0  0  0  0  0  0  0
  150.0907  139.4897  155.3256 H   0  0  0  0  0  0  0  0  0  0  0  0
  150.2293  140.4013  153.8406 H   0  0  0  0  0  0  0  0  0  0  0  0
  148.1987  140.8719  156.0692 H   0  0  0  0  0  0  0  0  0  0  0  0
  149.8373  143.0984  155.4603 H   0  0  0  0  0  0  0  0  0  0  0  0
  152.8198  144.4968  161.0430 H   0  0  0  0  0  0  0  0  0  0  0  0
  154.0055  142.0800  161.1715 H   0  0  0  0  0  0  0  0  0  0  0  0
  147.3900  142.7862  154.7096 H   0  0  0  0  0  0  0  0  0  0  0  0
  148.5647  142.4388  153.4642 H   0  0  0  0  0  0  0  0  0  0  0  0
  146.3730  141.5471  152.8136 H   0  0  0  0  0  0  0  0  0  0  0  0
  146.2395  140.6284  154.3011 H   0  0  0  0  0  0  0  0  0  0  0  0
  148.2986  140.2727  152.2573 H   0  0  0  0  0  0  0  0  0  0  0  0
  1  2  1  0  0  0  0
  1 21  1  0  0  0  0
  1 22  1  0  0  0  0
  1 23  1  0  0  0  0
  2  3  1  0  0  0  0
  2 24  1  0  0  0  0
  3  4  2  0  0  0  0
  3  5  1  0  0  0  0
  5  6  1  0  0  0  0
  5 25  1  0  0  0  0
  5 26  1  0  0  0  0
  6 20  1  0  0  0  0
  6  7  1  0  0  0  0
  6 39  1  0  0  0  0
  7  8  1  0  0  0  0
  7 27  1  0  0  0  0
  7 28  1  0  0  0  0
  8  9  1  0  0  0  0
  8 29  1  0  0  0  0
  8 30  1  0  0  0  0
  9 10  1  0  0  0  0
  9 19  1  0  0  0  0
  9 31  1  0  0  0  0
 10 11  1  0  0  0  0
 10 32  1  0  0  0  0
 11 12  2  0  0  0  0
 11 13  1  0  0  0  0
 13 14  1  0  0  0  0
 14 18  1  0  0  0  0
 14 15  2  0  0  0  0
 15 16  1  0  0  0  0
 16 17  2  0  0  0  0
 16 33  1  0  0  0  0
 17 18  1  0  0  0  0
 17 34  1  0  0  0  0
 19 20  1  0  0  0  0
 19 35  1  0  0  0  0
 19 36  1  0  0  0  0
 20 37  1  0  0  0  0
 20 38  1  0  0  0  0
M  CHG  1   6   1
M  CHG  1  13  -1
M  END
> <s_m_source_file>
AV-unprocessed.smi

> <i_m_source_file_index>
1813

> <i_lp_mmshare_version>
43012

> <i_f3d_flags>
0

> <s_epik_input>
W0NIM11bTkhdQyg9TylbQ0gyXU4xW0NIMl1bQ0gyXVtDSF0oW0NIMl1bQ0gyXTEpW05IXUMoPU8pW05IXWMybltjSF1bY0hdczI=

> <s_epik_cmdline>
J2VwaWtfcHl0aG9uJywgJy1waCcsICc3LjAnLCAnLXRuJywgJzgnLCAnLW1hJywgJzIwMCcsICctbWV0YWxfYmluZGluZycsICctaW1hZScsICc8aW5maWxlLm1hZT4nLCAnLW9tYWUnLCAnPG91dGZpbGUubWFlPic=

> <r_lp_tautomer_probability>
0.999

> <r_epik_Ionization_Penalty>
7.12128

> <r_epik_Ionization_Penalty_Charging>
6.25357

> <r_epik_Ionization_Penalty_Neutral>
0.867707

> <r_epik_State_Penalty>
6.33838

> <r_epik_Charging_Adjusted_Penalty>
12.592

> <i_epik_Tot_Q>
0

> <i_epik_Tot_abs_Q>
2

> <r_epik_Metal_State_Penalty>
2.34161

> <b_epik_Metal_Only>
1

> <s_lp_Force_Field>
OPLS_2005

> <r_lp_Energy>
3.88073

> <b_lp_Chiralities_Consistent>
1

> <s_lp_Variant>
AV-unprocessed.smi:1813-7

> <Gold.Version>
5.8.1

> <Gold.Id.Protein>
6NUR|6NUR_protein|mol2

> <Gold.PLP.Fitness>
44.3550

> <Gold.PLP.PLP>
-37.3642

> <Gold.PLP.part.hbond>
-3.0000

> <Gold.PLP.part.metal>
0.0000

> <Gold.PLP.part.buried>
-5.0388

> <Gold.PLP.part.nonpolar>
-31.3990

> <Gold.PLP.part.repulsive>
0.7043

> <Gold.PLP.ligand.clash>
0.0000

> <Gold.PLP.ligand.torsion>
0.8801

> <Gold.PLP.Chemscore.Hbond>
2.9040

> <Gold.PLP.Chemscore.CHOScore>
0.0000

> <Gold.PLP.Chemscore.Metal>
0.0000

> <Gold.Chemscore.Hbonds>
donor molecule, donor type, donor heavy atom, donor atom, acceptor molecule, acceptor atom, score
      L1  H     2    24       P1  7948  0.98
      L1  H     6    39       P1  7957  0.98
      L1  H    10    32       P1  8028  0.82

> <Gold.PLP.Chemscore.Internal.Correction>
0.0390

> <Gold.Rescore>
     Score         DG    S(hbond)    S(metal)    S(lipo)     H(rot)  DE(clash)    DE(int)     intcor
     16.62     -19.56       2.89        0.00      76.25       1.76       0.03       2.91       ----

> <Gold.Chemscore.Fitness>
16.6213

> <Gold.Chemscore.DG>
-19.5589

> <Gold.Chemscore.ZeroCoef>
-5.4800

> <Gold.Chemscore.Hbond>
2.8934

> <Gold.Chemscore.Metal>
0.0000

> <Gold.Chemscore.Lipo>
76.2522

> <Gold.Chemscore.Internal_Hbond>
0.0000

> <Gold.Chemscore.DEClash>
0.0326

> <Gold.Chemscore.DEInternal>
2.9051

> <Gold.Chemscore.Rot>
1.7603

> <Gold.Chemscore.Internal.Correction>
   9.000000E+99

> <Gold.Chemscore.Hbonds>
donor molecule, donor type, donor heavy atom, donor atom, acceptor molecule, acceptor atom, score
      L1  H     2    24       P1  7948  0.93
      L1  H     6    39       P1  7957  0.93
      L1  H    10    32       P1  8028  0.81

> <Gold.Chemscore.Hbond.Weighted>
-9.6638

> <Gold.Chemscore.Metal.Weighted>
-0.0000

> <Gold.Chemscore.Lipo.Weighted>
-8.9215

> <Gold.Chemscore.Internal_Hbond.Weighted>
0.0000

> <Gold.Chemscore.DEClash.Weighted>
0.0326

> <Gold.Chemscore.DEInternal.Weighted>
2.9051

> <Gold.Chemscore.Rot.Weighted>
4.5064

> <Gold.Chemscore.Internal.Correction.Weighted>
   9.000000E+99

> <Gold.Protein.RotatedTorsions>
[ 6907 6896 6895 6894 ] final  177.72 input  -60.11 | X-H torsion
[ 7974 7965 7964 7962 ] final   22.49 input  175.53 | X-H torsion
[ 8008 7997 7996 7995 ] final  -38.11 input   59.86 | X-H torsion
[ 10167 10162 10161 10158 ] final   46.74 input  -65.29 | X-H torsion
[ 10718 10713 10712 10709 ] final  161.60 input   66.30 | X-H torsion
[ 10763 10752 10751 10750 ] final  146.45 input  -60.55 | X-H torsion
[ 11005 11000 10999 10996 ] final   80.90 input  -57.11 | X-H torsion

> <Gold.Protein.ActiveResidues>
 VAL166  LYS551  ARG553  GLY616  TRP617  ASP618  TYR619  PRO620  LYS621  CYS622 
 ASP623  PHE694  ASN695  SER759  ASP760  ASP761  ALA762  ILE779  LEU786  VAL792 
 PHE793  MET794  SER795  GLU796  ALA797  LYS798  CYS799  TRP800  GLU811  SER814 

> <Gold.Protein.RotatedAtoms>
  151.6994  133.3311  159.3262 H   0  0  0  0  0  0  0  0  0  0  0  0  # atno 6907 bound_to 6896
  150.7743  134.6629  159.6359 H   0  0  0  0  0  0  0  0  0  0  0  0  # atno 6908 bound_to 6896
  152.3779  134.6639  160.0205 H   0  0  0  0  0  0  0  0  0  0  0  0  # atno 6909 bound_to 6896
  146.2026  139.7878  142.8750 H   0  0  0  0  0  0  0  0  0  0  0  0  # atno 7974 bound_to 7965
  154.4042  140.1586  156.2646 H   0  0  0  0  0  0  0  0  0  0  0  0  # atno 8008 bound_to 7997
  155.9007  140.3433  155.6002 H   0  0  0  0  0  0  0  0  0  0  0  0  # atno 8009 bound_to 7997
  155.7451  140.0797  157.2218 H   0  0  0  0  0  0  0  0  0  0  0  0  # atno 8010 bound_to 7997
  140.3108  144.2823  150.6200 H   0  0  0  0  0  0  0  0  0  0  0  0  # atno 10167 bound_to 10162
  157.1343  131.0524  151.2357 H   0  0  0  0  0  0  0  0  0  0  0  0  # atno 10718 bound_to 10713
  154.0221  135.2905  155.3379 H   0  0  0  0  0  0  0  0  0  0  0  0  # atno 10763 bound_to 10752
  154.7039  135.5177  153.8570 H   0  0  0  0  0  0  0  0  0  0  0  0  # atno 10764 bound_to 10752
  153.0676  135.6636  154.0442 H   0  0  0  0  0  0  0  0  0  0  0  0  # atno 10765 bound_to 10752
  139.9117  134.7955  156.1970 H   0  0  0  0  0  0  0  0  0  0  0  0  # atno 11005 bound_to 11000
  145.3430  141.0292  143.3381 LP  0  0  0  0  0  0  0  0  0  0  0  0  # atno 17320 bound_to 7965
  144.8719  139.5026  143.6764 LP  0  0  0  0  0  0  0  0  0  0  0  0  # atno 17321 bound_to 7965
  140.5570  143.2197  151.7830 LP  0  0  0  0  0  0  0  0  0  0  0  0  # atno 17342 bound_to 10162
  139.4894  144.4400  151.9775 LP  0  0  0  0  0  0  0  0  0  0  0  0  # atno 17343 bound_to 10162
  157.4364  130.7519  149.7033 LP  0  0  0  0  0  0  0  0  0  0  0  0  # atno 17370 bound_to 10713
  155.9801  130.4032  150.3546 LP  0  0  0  0  0  0  0  0  0  0  0  0  # atno 17371 bound_to 10713
  141.0548  133.6870  156.1840 LP  0  0  0  0  0  0  0  0  0  0  0  0  # atno 17394 bound_to 11000
  140.6753  134.4824  157.5588 LP  0  0  0  0  0  0  0  0  0  0  0  0  # atno 17395 bound_to 11000

$$$$
