AV-unprocessed.smi:16|AV-procd|sdf|89|dock2
  -GOLD-   2262015223D 1   1.00000     0.00000
 Structure written by MMmdl.
 60 64  0  0  0  0  0  0  0  0  2 V2000
  150.3379  144.3214  159.6855 C   0  0  0  0  0  0  0  0  0  0  0  0
  151.4960  144.1999  158.6841 C   0  0  0  0  0  0  0  0  0  0  0  0
  152.3295  142.9925  158.9150 N   0  3  1  0  0  0  0  0  0  0  0  0
  152.9511  142.9947  160.2652 C   0  0  0  0  0  0  0  0  0  0  0  0
  153.9041  141.8022  160.4454 C   0  0  0  0  0  0  0  0  0  0  0  0
  153.1662  140.4842  160.1885 C   0  0  2  0  0  0  0  0  0  0  0  0
  154.0757  139.3958  160.3036 O   0  0  0  0  0  0  0  0  0  0  0  0
  153.4203  138.1430  160.1345 C   0  0  0  0  0  0  0  0  0  0  0  0
  152.7956  138.0800  158.7316 C   0  0  0  0  0  0  0  0  0  0  0  0
  151.8963  139.2126  158.5225 N   0  0  0  0  0  0  0  0  0  0  0  0
  151.2198  139.1400  157.3535 C   0  0  0  0  0  0  0  0  0  0  0  0
  151.8175  139.5179  156.1928 N   0  0  0  0  0  0  0  0  0  0  0  0
  151.1352  139.4664  155.0447 C   0  0  0  0  0  0  0  0  0  0  0  0
  149.8704  139.0905  154.8417 N   0  0  0  0  0  0  0  0  0  0  0  0
  149.2662  138.7251  156.0090 C   0  0  0  0  0  0  0  0  0  0  0  0
  149.8672  138.7144  157.2978 C   0  0  0  0  0  0  0  0  0  0  0  0
  148.9547  138.2778  158.2489 N   0  0  0  0  0  0  0  0  0  0  0  0
  147.8741  138.0332  157.5580 C   0  0  0  0  0  0  0  0  0  0  0  0
  147.9637  138.3040  156.2104 N   0  0  0  0  0  0  0  0  0  0  0  0
  146.9467  138.0957  155.2221 C   0  0  0  0  0  0  0  0  0  0  0  0
  147.2508  137.3440  153.9223 C   0  0  0  0  0  0  0  0  0  0  0  0
  146.2225  138.2308  153.1840 C   0  0  0  0  0  0  0  0  0  0  0  0
  146.5972  138.6787  151.7575 C   0  0  0  0  0  0  0  0  0  0  0  0
  146.5772  137.6124  150.8293 O   0  0  0  0  0  0  0  0  0  0  0  0
  144.8074  137.6255  153.1145 C   0  0  0  0  0  0  0  0  0  0  0  0
  144.7370  136.5771  152.1694 O   0  0  0  0  0  0  0  0  0  0  0  0
  146.4573  139.2415  154.3308 C   0  0  0  0  0  0  0  0  0  0  0  0
  152.5516  140.4993  158.7731 C   0  0  1  0  0  0  0  0  0  0  0  0
  151.6084  141.7202  158.6399 C   0  0  0  0  0  0  0  0  0  0  0  0
  152.3794  140.3709  160.9375 H   0  0  0  0  0  0  0  0  0  0  0  0
  153.3577  140.6071  158.0449 H   0  0  0  0  0  0  0  0  0  0  0  0
  149.6901  145.1570  159.4193 H   0  0  0  0  0  0  0  0  0  0  0  0
  150.6885  144.5004  160.7015 H   0  0  0  0  0  0  0  0  0  0  0  0
  149.7258  143.4192  159.6927 H   0  0  0  0  0  0  0  0  0  0  0  0
  151.0624  144.1484  157.6845 H   0  0  0  0  0  0  0  0  0  0  0  0
  152.1186  145.0955  158.7044 H   0  0  0  0  0  0  0  0  0  0  0  0
  153.5077  143.9207  160.4139 H   0  0  0  0  0  0  0  0  0  0  0  0
  152.1690  142.9687  161.0258 H   0  0  0  0  0  0  0  0  0  0  0  0
  154.7473  141.8959  159.7595 H   0  0  0  0  0  0  0  0  0  0  0  0
  154.3204  141.8068  161.4533 H   0  0  0  0  0  0  0  0  0  0  0  0
  154.1477  137.3409  160.2585 H   0  0  0  0  0  0  0  0  0  0  0  0
  152.6609  138.0072  160.9062 H   0  0  0  0  0  0  0  0  0  0  0  0
  153.5886  138.0903  157.9825 H   0  0  0  0  0  0  0  0  0  0  0  0
  152.2481  137.1444  158.6097 H   0  0  0  0  0  0  0  0  0  0  0  0
  151.6776  139.7743  154.1628 H   0  0  0  0  0  0  0  0  0  0  0  0
  146.9732  137.6535  158.0183 H   0  0  0  0  0  0  0  0  0  0  0  0
  146.1095  137.6334  155.7479 H   0  0  0  0  0  0  0  0  0  0  0  0
  148.2807  137.4920  153.5933 H   0  0  0  0  0  0  0  0  0  0  0  0
  147.0044  136.2821  153.9505 H   0  0  0  0  0  0  0  0  0  0  0  0
  145.9100  139.4459  151.3996 H   0  0  0  0  0  0  0  0  0  0  0  0
  147.5961  139.1147  151.7328 H   0  0  0  0  0  0  0  0  0  0  0  0
  145.7273  137.5902  150.4169 H   0  0  0  0  0  0  0  0  0  0  0  0
  144.4961  137.2421  154.0868 H   0  0  0  0  0  0  0  0  0  0  0  0
  144.0676  138.3754  152.8337 H   0  0  0  0  0  0  0  0  0  0  0  0
  144.3963  136.9250  151.3595 H   0  0  0  0  0  0  0  0  0  0  0  0
  145.5605  139.7423  154.6970 H   0  0  0  0  0  0  0  0  0  0  0  0
  147.2444  139.9663  154.1167 H   0  0  0  0  0  0  0  0  0  0  0  0
  150.7609  141.6229  159.3207 H   0  0  0  0  0  0  0  0  0  0  0  0
  151.2007  141.7594  157.6310 H   0  0  0  0  0  0  0  0  0  0  0  0
  153.0927  143.0438  158.2551 H   0  0  0  0  0  0  0  0  0  0  0  0
  1  2  1  0  0  0  0
  1 32  1  0  0  0  0
  1 33  1  0  0  0  0
  1 34  1  0  0  0  0
  2  3  1  0  0  0  0
  2 35  1  0  0  0  0
  2 36  1  0  0  0  0
  3 29  1  0  0  0  0
  3  4  1  0  0  0  0
  3 60  1  0  0  0  0
  4  5  1  0  0  0  0
  4 37  1  0  0  0  0
  4 38  1  0  0  0  0
  5  6  1  0  0  0  0
  5 39  1  0  0  0  0
  5 40  1  0  0  0  0
  6 30  1  0  0  0  0
  6 28  1  0  0  0  0
  6  7  1  0  0  0  0
  7  8  1  0  0  0  0
  8  9  1  0  0  0  0
  8 41  1  0  0  0  0
  8 42  1  0  0  0  0
  9 10  1  0  0  0  0
  9 43  1  0  0  0  0
  9 44  1  0  0  0  0
 10 11  1  0  0  0  0
 10 28  1  0  0  0  0
 11 16  1  0  0  0  0
 11 12  2  0  0  0  0
 12 13  1  0  0  0  0
 13 14  2  0  0  0  0
 13 45  1  0  0  0  0
 14 15  1  0  0  0  0
 15 19  1  0  0  0  0
 15 16  2  0  0  0  0
 16 17  1  0  0  0  0
 17 18  2  0  0  0  0
 18 19  1  0  0  0  0
 18 46  1  0  0  0  0
 19 20  1  0  0  0  0
 20 27  1  0  0  0  0
 20 21  1  0  0  0  0
 20 47  1  0  0  0  0
 21 22  1  0  0  0  0
 21 48  1  0  0  0  0
 21 49  1  0  0  0  0
 22 23  1  0  0  0  0
 22 25  1  0  0  0  0
 22 27  1  0  0  0  0
 23 24  1  0  0  0  0
 23 50  1  0  0  0  0
 23 51  1  0  0  0  0
 24 52  1  0  0  0  0
 25 26  1  0  0  0  0
 25 53  1  0  0  0  0
 25 54  1  0  0  0  0
 26 55  1  0  0  0  0
 27 56  1  0  0  0  0
 27 57  1  0  0  0  0
 28 31  1  0  0  0  0
 28 29  1  0  0  0  0
 29 58  1  0  0  0  0
 29 59  1  0  0  0  0
M  CHG  1   3   1
M  END
> <s_m_source_file>
AV-unprocessed.smi

> <i_m_source_file_index>
16

> <i_lp_mmshare_version>
43012

> <i_f3d_flags>
0

> <s_epik_input>
W0NIM11bQ0gyXU4oW0NIMl1bQ0gyXTEpW0NIMl1bQ0BASF0oW0NAQEhdMTIpTihbQ0gyXVtDSDJdTzIpYyhuW2NIXW4zKWMoYzM0KW5bY0hdbjRbQ0hdKFtDSDJdNSlbQ0gyXUM1KFtDSDJdW09IXSlbQ0gyXVtPSF0=

> <s_epik_cmdline>
J2VwaWtfcHl0aG9uJywgJy1waCcsICc3LjAnLCAnLXRuJywgJzgnLCAnLW1hJywgJzIwMCcsICctbWV0YWxfYmluZGluZycsICctaW1hZScsICc8aW5maWxlLm1hZT4nLCAnLW9tYWUnLCAnPG91dGZpbGUubWFlPic=

> <r_lp_tautomer_probability>
1

> <r_epik_Ionization_Penalty>
0.0135603

> <r_epik_Ionization_Penalty_Charging>
0.0131385

> <r_epik_Ionization_Penalty_Neutral>
0.000421734

> <r_epik_State_Penalty>
0.0102091

> <r_epik_Charging_Adjusted_Penalty>
0.0233476

> <i_epik_Tot_Q>
1

> <i_epik_Tot_abs_Q>
1

> <r_epik_Metal_State_Penalty>
0.0103746

> <b_epik_Metal_Only>
0

> <s_lp_Force_Field>
OPLS_2005

> <r_lp_Energy>
54.8635

> <b_lp_Chiralities_Consistent>
1

> <s_lp_Variant>
AV-unprocessed.smi:16-3

> <Gold.Version>
5.8.1

> <Gold.Id.Protein>
6NUR|6NUR_protein|mol2

> <Gold.PLP.Fitness>
48.3449

> <Gold.PLP.PLP>
-40.0074

> <Gold.PLP.part.hbond>
-4.0000

> <Gold.PLP.part.metal>
0.0000

> <Gold.PLP.part.buried>
-2.1098

> <Gold.PLP.part.nonpolar>
-34.7856

> <Gold.PLP.part.repulsive>
0.1613

> <Gold.PLP.ligand.clash>
0.0000

> <Gold.PLP.ligand.torsion>
0.6409

> <Gold.PLP.Chemscore.Hbond>
3.0000

> <Gold.PLP.Chemscore.CHOScore>
0.0000

> <Gold.PLP.Chemscore.Metal>
0.0000

> <Gold.Chemscore.Hbonds>
donor molecule, donor type, donor heavy atom, donor atom, acceptor molecule, acceptor atom, score
      L1  H    24    52       P1 10171  0.62
      L1  H    26    55       P1 10171  0.26
      P1  H  7954  7966       L1    24  1.00

> <Gold.PLP.Chemscore.Internal.Correction>
0.6193

> <Gold.Rescore>
     Score         DG    S(hbond)    S(metal)    S(lipo)     H(rot)  DE(clash)    DE(int)     intcor
     16.76     -19.36       2.89        0.00     108.79       3.33       1.77       0.83       ----

> <Gold.Chemscore.Fitness>
16.7612

> <Gold.Chemscore.DG>
-19.3557

> <Gold.Chemscore.ZeroCoef>
-5.4800

> <Gold.Chemscore.Hbond>
2.8921

> <Gold.Chemscore.Metal>
0.0000

> <Gold.Chemscore.Lipo>
108.7892

> <Gold.Chemscore.Internal_Hbond>
0.0000

> <Gold.Chemscore.DEClash>
1.7664

> <Gold.Chemscore.DEInternal>
0.8281

> <Gold.Chemscore.Rot>
3.3251

> <Gold.Chemscore.Internal.Correction>
   9.000000E+99

> <Gold.Chemscore.Hbonds>
donor molecule, donor type, donor heavy atom, donor atom, acceptor molecule, acceptor atom, score
      L1  H    24    52       P1 10171  0.60
      L1  H    26    55       P1 10171  0.27
      P1  H  7954  7966       L1    24  0.39

> <Gold.Chemscore.Hbond.Weighted>
-9.6595

> <Gold.Chemscore.Metal.Weighted>
-0.0000

> <Gold.Chemscore.Lipo.Weighted>
-12.7283

> <Gold.Chemscore.Internal_Hbond.Weighted>
0.0000

> <Gold.Chemscore.DEClash.Weighted>
1.7664

> <Gold.Chemscore.DEInternal.Weighted>
0.8281

> <Gold.Chemscore.Rot.Weighted>
8.5122

> <Gold.Chemscore.Internal.Correction.Weighted>
   9.000000E+99

> <Gold.Protein.RotatedTorsions>
[ 6907 6896 6895 6894 ] final  -28.07 input  -60.11 | X-H torsion
[ 7974 7965 7964 7962 ] final -129.79 input  175.53 | X-H torsion
[ 8008 7997 7996 7995 ] final  -19.08 input   59.86 | X-H torsion
[ 10167 10162 10161 10158 ] final -177.27 input  -65.29 | X-H torsion
[ 10718 10713 10712 10709 ] final   83.95 input   66.30 | X-H torsion
[ 10763 10752 10751 10750 ] final   81.80 input  -60.55 | X-H torsion
[ 11005 11000 10999 10996 ] final   86.57 input  -57.11 | X-H torsion

> <Gold.Protein.ActiveResidues>
 VAL166  LYS551  ARG553  GLY616  TRP617  ASP618  TYR619  PRO620  LYS621  CYS622 
 ASP623  PHE694  ASN695  SER759  ASP760  ASP761  ALA762  ILE779  LEU786  VAL792 
 PHE793  MET794  SER795  GLU796  ALA797  LYS798  CYS799  TRP800  GLU811  SER814 

> <Gold.Protein.RotatedAtoms>
  151.1381  135.0165  159.8612 H   0  0  0  0  0  0  0  0  0  0  0  0  # atno 6907 bound_to 6896
  152.5452  134.1531  159.8537 H   0  0  0  0  0  0  0  0  0  0  0  0  # atno 6908 bound_to 6896
  151.1604  133.4803  159.2627 H   0  0  0  0  0  0  0  0  0  0  0  0  # atno 6909 bound_to 6896
  144.9537  140.7372  143.4772 H   0  0  0  0  0  0  0  0  0  0  0  0  # atno 7974 bound_to 7965
  154.4861  140.2098  155.9652 H   0  0  0  0  0  0  0  0  0  0  0  0  # atno 8008 bound_to 7997
  156.1238  140.3209  155.8216 H   0  0  0  0  0  0  0  0  0  0  0  0  # atno 8009 bound_to 7997
  155.4420  140.0511  157.3000 H   0  0  0  0  0  0  0  0  0  0  0  0  # atno 8010 bound_to 7997
  139.5488  144.2163  152.1039 H   0  0  0  0  0  0  0  0  0  0  0  0  # atno 10167 bound_to 10162
  157.6889  131.0112  150.2600 H   0  0  0  0  0  0  0  0  0  0  0  0  # atno 10718 bound_to 10713
  153.1148  135.4752  154.9097 H   0  0  0  0  0  0  0  0  0  0  0  0  # atno 10763 bound_to 10752
  154.7517  135.3108  154.8547 H   0  0  0  0  0  0  0  0  0  0  0  0  # atno 10764 bound_to 10752
  153.9126  135.6863  153.4804 H   0  0  0  0  0  0  0  0  0  0  0  0  # atno 10765 bound_to 10752
  139.8941  134.8364  156.2739 H   0  0  0  0  0  0  0  0  0  0  0  0  # atno 11005 bound_to 11000
  145.2805  139.1920  143.4794 LP  0  0  0  0  0  0  0  0  0  0  0  0  # atno 17320 bound_to 7965
  146.3330  140.2766  142.8608 LP  0  0  0  0  0  0  0  0  0  0  0  0  # atno 17321 bound_to 7965
  140.1655  144.4985  150.6608 LP  0  0  0  0  0  0  0  0  0  0  0  0  # atno 17342 bound_to 10162
  140.6745  143.2299  151.5542 LP  0  0  0  0  0  0  0  0  0  0  0  0  # atno 17343 bound_to 10162
  156.3181  130.3782  149.7600 LP  0  0  0  0  0  0  0  0  0  0  0  0  # atno 17370 bound_to 10713
  156.5179  130.8202  151.3193 LP  0  0  0  0  0  0  0  0  0  0  0  0  # atno 17371 bound_to 10713
  141.0083  133.7111  156.1070 LP  0  0  0  0  0  0  0  0  0  0  0  0  # atno 17394 bound_to 11000
  140.7403  134.4157  157.5555 LP  0  0  0  0  0  0  0  0  0  0  0  0  # atno 17395 bound_to 11000

$$$$
