AV-unprocessed.smi:1694|AV-procd|sdf|6787|dock3
  -GOLD-   22720 7543D 1   1.00000     0.00000
 Structure written by MMmdl.
 34 35  0  0  0  0  0  0  0  0  1 V2000
  151.2133  140.0967  158.0808 C   0  0  0  0  0  0  0  0  0  0  0  0
  151.7729  141.4695  158.4176 C   0  0  0  0  0  0  0  0  0  0  0  0
  152.8168  141.5740  159.3613 C   0  0  0  0  0  0  0  0  0  0  0  0
  153.3340  142.8421  159.6750 C   0  0  0  0  0  0  0  0  0  0  0  0
  152.7810  143.9593  159.0276 C   0  0  0  0  0  0  0  0  0  0  0  0
  151.7844  143.8679  158.1237 N   0  0  0  0  0  0  0  0  0  0  0  0
  151.2749  142.6505  157.8036 C   0  0  0  0  0  0  0  0  0  0  0  0
  150.2084  142.4654  156.8705 N   0  0  0  0  0  0  0  0  0  0  0  0
  150.0950  141.6722  155.7838 C   0  0  0  0  0  0  0  0  0  0  0  0
  151.0200  140.9416  155.4323 O   0  0  0  0  0  0  0  0  0  0  0  0
  148.9324  141.7437  155.1156 N   0  0  0  0  0  0  0  0  0  0  0  0
  148.5945  140.9905  153.9134 C   0  0  2  0  0  0  0  0  0  0  0  0
  147.0975  141.1381  153.6162 C   0  0  0  0  0  0  0  0  0  0  0  0
  146.7096  140.3702  152.3430 C   0  0  0  0  0  0  0  0  0  0  0  0
  147.2888  138.9490  152.2880 C   0  0  0  0  0  0  0  0  0  0  0  0
  146.8024  138.1283  151.5135 O   0  0  0  0  0  0  0  0  0  0  0  0
  148.3421  138.6425  153.0657 N   0  0  0  0  0  0  0  0  0  0  0  0
  148.9492  139.4998  154.0835 C   0  0  0  0  0  0  0  0  0  0  0  0
  151.7120  139.3125  158.6512 H   0  0  0  0  0  0  0  0  0  0  0  0
  151.3503  139.8789  157.0212 H   0  0  0  0  0  0  0  0  0  0  0  0
  150.1481  140.0509  158.3097 H   0  0  0  0  0  0  0  0  0  0  0  0
  153.2185  140.6938  159.8418 H   0  0  0  0  0  0  0  0  0  0  0  0
  154.1322  142.9552  160.3937 H   0  0  0  0  0  0  0  0  0  0  0  0
  153.1465  144.9530  159.2404 H   0  0  0  0  0  0  0  0  0  0  0  0
  149.4050  143.0526  157.0406 H   0  0  0  0  0  0  0  0  0  0  0  0
  148.2246  142.3689  155.4753 H   0  0  0  0  0  0  0  0  0  0  0  0
  149.1505  141.3974  153.0664 H   0  0  0  0  0  0  0  0  0  0  0  0
  146.5114  140.7688  154.4594 H   0  0  0  0  0  0  0  0  0  0  0  0
  146.8392  142.1914  153.4990 H   0  0  0  0  0  0  0  0  0  0  0  0
  145.6240  140.3258  152.2498 H   0  0  0  0  0  0  0  0  0  0  0  0
  147.0755  140.9094  151.4686 H   0  0  0  0  0  0  0  0  0  0  0  0
  148.7211  137.7103  152.9828 H   0  0  0  0  0  0  0  0  0  0  0  0
  150.0306  139.3613  154.0649 H   0  0  0  0  0  0  0  0  0  0  0  0
  148.6050  139.1426  155.0550 H   0  0  0  0  0  0  0  0  0  0  0  0
  1  2  1  0  0  0  0
  1 19  1  0  0  0  0
  1 20  1  0  0  0  0
  1 21  1  0  0  0  0
  2  7  1  0  0  0  0
  2  3  2  0  0  0  0
  3  4  1  0  0  0  0
  3 22  1  0  0  0  0
  4  5  2  0  0  0  0
  4 23  1  0  0  0  0
  5  6  1  0  0  0  0
  5 24  1  0  0  0  0
  6  7  2  0  0  0  0
  7  8  1  0  0  0  0
  8  9  1  0  0  0  0
  8 25  1  0  0  0  0
  9 10  2  0  0  0  0
  9 11  1  0  0  0  0
 11 12  1  0  0  0  0
 11 26  1  0  0  0  0
 12 18  1  0  0  0  0
 12 13  1  0  0  0  0
 12 27  1  0  0  0  0
 13 14  1  0  0  0  0
 13 28  1  0  0  0  0
 13 29  1  0  0  0  0
 14 15  1  0  0  0  0
 14 30  1  0  0  0  0
 14 31  1  0  0  0  0
 15 16  2  0  0  0  0
 15 17  1  0  0  0  0
 17 18  1  0  0  0  0
 17 32  1  0  0  0  0
 18 33  1  0  0  0  0
 18 34  1  0  0  0  0
M  END
> <s_m_source_file>
AV-unprocessed.smi

> <i_m_source_file_index>
1694

> <i_lp_mmshare_version>
43012

> <i_f3d_flags>
0

> <s_epik_input>
W0NIM11jMVtjSF1bY0hdW2NIXW5jMVtOSF1DKD1PKVtOSF1bQ0BASF0yW0NIMl1bQ0gyXUMoPU8pW05IXVtDSDJdMg==

> <s_epik_cmdline>
J2VwaWtfcHl0aG9uJywgJy1waCcsICc3LjAnLCAnLXRuJywgJzgnLCAnLW1hJywgJzIwMCcsICctbWV0YWxfYmluZGluZycsICctaW1hZScsICc8aW5maWxlLm1hZT4nLCAnLW9tYWUnLCAnPG91dGZpbGUubWFlPic=

> <r_lp_tautomer_probability>
1

> <r_epik_Ionization_Penalty>
5.3746e-05

> <r_epik_Ionization_Penalty_Charging>
0

> <r_epik_Ionization_Penalty_Neutral>
5.3746e-05

> <r_epik_State_Penalty>
-0

> <r_epik_Charging_Adjusted_Penalty>
0

> <i_epik_Tot_Q>
0

> <i_epik_Tot_abs_Q>
0

> <r_epik_Metal_State_Penalty>
-0

> <b_epik_Metal_Only>
0

> <s_lp_Force_Field>
OPLS_2005

> <r_lp_Energy>
12.9813

> <b_lp_Chiralities_Consistent>
1

> <s_lp_Variant>
AV-unprocessed.smi:1694-1

> <Gold.Version>
5.8.1

> <Gold.Id.Protein>
6NUR|6NUR_protein|mol2

> <Gold.PLP.Fitness>
42.6361

> <Gold.PLP.PLP>
-35.2415

> <Gold.PLP.part.hbond>
-5.2475

> <Gold.PLP.part.metal>
0.0000

> <Gold.PLP.part.buried>
2.1863

> <Gold.PLP.part.nonpolar>
-31.5047

> <Gold.PLP.part.repulsive>
1.2537

> <Gold.PLP.ligand.clash>
0.0000

> <Gold.PLP.ligand.torsion>
0.6013

> <Gold.PLP.Chemscore.Hbond>
2.8651

> <Gold.PLP.Chemscore.CHOScore>
0.0000

> <Gold.PLP.Chemscore.Metal>
0.0000

> <Gold.Chemscore.Hbonds>
donor molecule, donor type, donor heavy atom, donor atom, acceptor molecule, acceptor atom, score
      L1  H     8    25       P1  8028  0.22
      L1  H    17    32       P1  7948  0.91
      P1  H  7954  7966       L1    16  0.75
      P1  H  7989  7998       L1    10  0.72

> <Gold.PLP.Chemscore.Internal.Correction>
0.0020

> <Gold.Rescore>
     Score         DG    S(hbond)    S(metal)    S(lipo)     H(rot)  DE(clash)    DE(int)     intcor
     15.22     -20.92       2.65        0.00      78.16       1.00       2.82       2.88       ----

> <Gold.Chemscore.Fitness>
15.2198

> <Gold.Chemscore.DG>
-20.9241

> <Gold.Chemscore.ZeroCoef>
-5.4800

> <Gold.Chemscore.Hbond>
2.6525

> <Gold.Chemscore.Metal>
0.0000

> <Gold.Chemscore.Lipo>
78.1608

> <Gold.Chemscore.Internal_Hbond>
0.0000

> <Gold.Chemscore.DEClash>
2.8203

> <Gold.Chemscore.DEInternal>
2.8840

> <Gold.Chemscore.Rot>
1.0000

> <Gold.Chemscore.Internal.Correction>
   9.000000E+99

> <Gold.Chemscore.Hbonds>
donor molecule, donor type, donor heavy atom, donor atom, acceptor molecule, acceptor atom, score
      L1  H     8    25       P1  8028  0.22
      L1  H    11    26       P1  8028  0.02
      L1  H    17    32       P1  7948  0.88
      P1  H  7954  7966       L1    16  0.49
      P1  H  7989  7998       L1    10  0.67

> <Gold.Chemscore.Hbond.Weighted>
-8.8592

> <Gold.Chemscore.Metal.Weighted>
-0.0000

> <Gold.Chemscore.Lipo.Weighted>
-9.1448

> <Gold.Chemscore.Internal_Hbond.Weighted>
0.0000

> <Gold.Chemscore.DEClash.Weighted>
2.8203

> <Gold.Chemscore.DEInternal.Weighted>
2.8840

> <Gold.Chemscore.Rot.Weighted>
2.5600

> <Gold.Chemscore.Internal.Correction.Weighted>
   9.000000E+99

> <Gold.Protein.RotatedTorsions>
[ 6907 6896 6895 6894 ] final   32.67 input  -60.11 | X-H torsion
[ 7974 7965 7964 7962 ] final   59.39 input  175.53 | X-H torsion
[ 8008 7997 7996 7995 ] final -141.53 input   59.86 | X-H torsion
[ 10167 10162 10161 10158 ] final  -29.07 input  -65.29 | X-H torsion
[ 10718 10713 10712 10709 ] final  -15.32 input   66.30 | X-H torsion
[ 10763 10752 10751 10750 ] final  -99.85 input  -60.55 | X-H torsion
[ 11005 11000 10999 10996 ] final -126.38 input  -57.11 | X-H torsion

> <Gold.Protein.ActiveResidues>
 VAL166  LYS551  ARG553  GLY616  TRP617  ASP618  TYR619  PRO620  LYS621  CYS622 
 ASP623  PHE694  ASN695  SER759  ASP760  ASP761  ALA762  ILE779  LEU786  VAL792 
 PHE793  MET794  SER795  GLU796  ALA797  LYS798  CYS799  TRP800  GLU811  SER814 

> <Gold.Protein.RotatedAtoms>
  152.0778  134.9491  160.0573 H   0  0  0  0  0  0  0  0  0  0  0  0  # atno 6907 bound_to 6896
  152.0792  133.4139  159.4502 H   0  0  0  0  0  0  0  0  0  0  0  0  # atno 6908 bound_to 6896
  150.6836  134.2922  159.4715 H   0  0  0  0  0  0  0  0  0  0  0  0  # atno 6909 bound_to 6896
  145.9077  139.3629  143.0554 H   0  0  0  0  0  0  0  0  0  0  0  0  # atno 7974 bound_to 7965
  155.4793  140.0559  157.2969 H   0  0  0  0  0  0  0  0  0  0  0  0  # atno 8008 bound_to 7997
  154.4667  140.2021  156.0053 H   0  0  0  0  0  0  0  0  0  0  0  0  # atno 8009 bound_to 7997
  156.0986  140.3222  155.7915 H   0  0  0  0  0  0  0  0  0  0  0  0  # atno 8010 bound_to 7997
  140.7264  143.3958  151.1349 H   0  0  0  0  0  0  0  0  0  0  0  0  # atno 10167 bound_to 10162
  156.6034  130.4830  149.6230 H   0  0  0  0  0  0  0  0  0  0  0  0  # atno 10718 bound_to 10713
  154.7531  135.4957  153.9326 H   0  0  0  0  0  0  0  0  0  0  0  0  # atno 10763 bound_to 10752
  153.1166  135.6722  153.9415 H   0  0  0  0  0  0  0  0  0  0  0  0  # atno 10764 bound_to 10752
  153.9160  135.3093  155.3427 H   0  0  0  0  0  0  0  0  0  0  0  0  # atno 10765 bound_to 10752
  140.9686  134.0837  157.3893 H   0  0  0  0  0  0  0  0  0  0  0  0  # atno 11005 bound_to 11000
  145.8711  140.9419  143.0650 LP  0  0  0  0  0  0  0  0  0  0  0  0  # atno 17320 bound_to 7965
  144.6740  140.0656  143.7474 LP  0  0  0  0  0  0  0  0  0  0  0  0  # atno 17321 bound_to 7965
  139.7571  143.8692  152.3091 LP  0  0  0  0  0  0  0  0  0  0  0  0  # atno 17342 bound_to 10162
  139.8565  144.7139  150.9151 LP  0  0  0  0  0  0  0  0  0  0  0  0  # atno 17343 bound_to 10162
  156.2450  130.6874  151.1592 LP  0  0  0  0  0  0  0  0  0  0  0  0  # atno 17370 bound_to 10713
  157.7273  131.0640  150.5869 LP  0  0  0  0  0  0  0  0  0  0  0  0  # atno 17371 bound_to 10713
  139.8904  135.0111  156.6732 LP  0  0  0  0  0  0  0  0  0  0  0  0  # atno 17394 bound_to 11000
  140.7362  133.9016  155.8246 LP  0  0  0  0  0  0  0  0  0  0  0  0  # atno 17395 bound_to 11000

$$$$
