#       Name:                AV-unprocessed.smi:1027
#       Creating user name   scv26
#       Creation time:       Fri Mar 27 02:44:39 2020


#       File generated by GOLD software.
#

@<TRIPOS>MOLECULE
AV-unprocessed.smi:1027
    39    40     1
SMALL
NO_CHARGES


@<TRIPOS>ATOM
      1 ****        -3.3088   2.1969   0.0731 C.3            1 S1                 0.0000
      2 ****        -2.6315   2.7131   1.3580 C.3            1 S1                 0.0000
      3 ****        -3.0503   4.1738   1.6046 C.3            1 S1                 0.0000
      4 ****        -1.0897   2.5393   1.3227 C.3            1 S1                 0.0000
      5 ****        -0.4003   2.9511   2.6376 C.3            1 S1                 0.0000
      6 ****        -0.7437   1.1496   1.0243 N.am           1 S1                 0.0000
      7 ****         0.3366   0.7446   0.3401 C.2            1 S1                 0.0000
      8 ****         1.1871   1.5149  -0.1061 O.2            1 S1                 0.0000
      9 ****         0.3578  -0.5940   0.2142 N.am           1 S1                 0.0000
     10 ****         1.3254  -1.4004  -0.4412 C.2            1 S1                 0.0000
     11 ****         2.4035  -0.9094  -1.0676 N.2            1 S1                 0.0000
     12 ****         3.1839  -1.9147  -1.6205 N.2            1 S1                 0.0000
     13 ****         2.6752  -3.1326  -1.3992 C.2            1 S1                 0.0000
     14 ****         3.3371  -4.3736  -1.8980 C.3            1 S1                 0.0000
     15 ****         3.2941  -4.7350  -3.3649 C.3            1 S1                 0.0000
     16 ****         2.5340  -5.5680  -2.3650 C.3            1 S1                 0.0000
     17 ****         1.1740  -3.1484  -0.4791 S.3            1 S1                 0.0000
     18 ****        -2.9293   2.7144  -0.8084 H              1 S1                 0.0000
     19 ****        -4.3875   2.3521   0.1083 H              1 S1                 0.0000
     20 ****        -3.1481   1.1287  -0.0728 H              1 S1                 0.0000
     21 ****        -3.0196   2.1198   2.1873 H              1 S1                 0.0000
     22 ****        -2.6388   4.8378   0.8437 H              1 S1                 0.0000
     23 ****        -2.7196   4.5331   2.5784 H              1 S1                 0.0000
     24 ****        -4.1353   4.2795   1.5829 H              1 S1                 0.0000
     25 ****        -0.7030   3.1745   0.5234 H              1 S1                 0.0000
     26 ****        -0.5244   4.0136   2.8439 H              1 S1                 0.0000
     27 ****         0.6732   2.7637   2.5954 H              1 S1                 0.0000
     28 ****        -0.7997   2.3950   3.4862 H              1 S1                 0.0000
     29 ****        -1.3859   0.4446   1.3553 H              1 S1                 0.0000
     30 ****        -0.4089  -1.0962   0.6367 H              1 S1                 0.0000
     31 ****         4.2598  -4.5624  -1.3525 H              1 S1                 0.0000
     32 ****         2.7147  -4.0943  -4.0271 H              1 S1                 0.0000
     33 ****         4.1922  -5.1669  -3.8015 H              1 S1                 0.0000
     34 ****         2.9253  -6.5569  -2.1346 H              1 S1                 0.0000
     35 ****         1.4490  -5.4879  -2.3763 H              1 S1                 0.0000
     36 ****         1.0922   2.5004   0.0346 LP             1 S1                 0.0000
     37 ****         1.9729   1.1551  -0.6093 LP             1 S1                 0.0000
     38 ****         2.6198   0.0650  -1.1292 LP             1 S1                 0.0000
     39 ****         4.0301  -1.7481  -2.1267 LP             1 S1                 0.0000
@<TRIPOS>BOND
    1    1    2 1     
    2    1   18 1     
    3    1   19 1     
    4    1   20 1     
    5    2    3 1     
    6    2    4 1     
    7    2   21 1     
    8    3   22 1     
    9    3   23 1     
   10    3   24 1     
   11    4    5 1     
   12    4    6 1     
   13    4   25 1     
   14    5   26 1     
   15    5   27 1     
   16    5   28 1     
   17    6    7 am    
   18    6   29 1     
   19    7    8 2     
   20    7    9 am    
   21    9   10 1     
   22    9   30 1     
   23   10   17 1     
   24   10   11 2     
   25   11   12 1     
   26   12   13 2     
   27   13   14 1     
   28   13   17 1     
   29   14   16 1     
   30   14   15 1     
   31   14   31 1     
   32   15   16 1     
   33   15   32 1     
   34   15   33 1     
   35   16   34 1     
   36   16   35 1     
   37    8   36 1     
   38    8   37 1     
   39   11   38 1     
   40   12   39 1     
@<TRIPOS>SUBSTRUCTURE
      1 S1             1
@<TRIPOS>SET
LONE_PAIRS      STATIC     ATOMS    <user>   **** ""
4 36 37 38 39
DONOR_HYDROGENS      STATIC     ATOMS    <user>   **** ""
2 29 30
ATOM$BLUE        STATIC     ATOMS    COLORGROUP SYSTEM
4 36 37 38 39
ATOM$RED        STATIC     ATOMS    COLORGROUP SYSTEM
2 29 30
