AV-unprocessed.smi:1226|AV-procd|sdf|5145|dock8
  -GOLD-   22720 4213D 1   1.00000     0.00000
 Structure written by MMmdl.
 37 38  0  0  0  0  0  0  0  0  1 V2000
  145.7472  131.9567  151.9424 C   0  0  0  0  0  0  0  0  0  0  0  0
  145.4396  133.3852  151.6506 C   0  0  0  0  0  0  0  0  0  0  0  0
  145.9514  134.4069  152.3417 N   0  0  0  0  0  0  0  0  0  0  0  0
  145.5175  135.6489  151.8673 C   0  0  0  0  0  0  0  0  0  0  0  0
  145.9982  136.9096  152.5192 C   0  0  0  0  0  0  0  0  0  0  0  0
  146.0771  138.0815  151.5266 C   0  0  0  0  0  0  0  0  0  0  0  0
  147.0408  139.0879  151.9569 N   0  0  0  0  0  0  0  0  0  0  0  0
  147.0856  139.6298  153.1816 C   0  0  0  0  0  0  0  0  0  0  0  0
  146.3120  139.3359  154.0933 O   0  0  0  0  0  0  0  0  0  0  0  0
  148.0750  140.5268  153.2935 N   0  0  0  0  0  0  0  0  0  0  0  0
  148.3971  141.2691  154.5069 C   0  0  0  0  0  0  0  0  0  0  0  0
  149.8226  140.9605  154.9928 C   0  0  1  0  0  0  0  0  0  0  0  0
  149.8740  140.3724  156.4016 C   0  0  0  0  0  0  0  0  0  0  0  0
  151.2008  139.6494  156.3809 C   0  0  0  0  0  0  0  0  0  0  0  0
  151.2280  139.0870  154.9625 C   0  0  0  0  0  0  0  0  0  0  0  0
  150.4460  139.9770  154.1700 O   0  0  0  0  0  0  0  0  0  0  0  0
  144.6599  135.5507  150.8002 C   0  0  0  0  0  0  0  0  0  0  0  0
  144.3684  133.8931  150.3508 S   0  0  0  0  0  0  0  0  0  0  0  0
  146.1596  131.8502  152.9462 H   0  0  0  0  0  0  0  0  0  0  0  0
  146.4740  131.5793  151.2229 H   0  0  0  0  0  0  0  0  0  0  0  0
  144.8402  131.3564  151.8726 H   0  0  0  0  0  0  0  0  0  0  0  0
  145.3346  137.1718  153.3442 H   0  0  0  0  0  0  0  0  0  0  0  0
  146.9789  136.7443  152.9672 H   0  0  0  0  0  0  0  0  0  0  0  0
  146.3838  137.7184  150.5453 H   0  0  0  0  0  0  0  0  0  0  0  0
  145.0942  138.5372  151.3953 H   0  0  0  0  0  0  0  0  0  0  0  0
  147.7198  139.3915  151.2744 H   0  0  0  0  0  0  0  0  0  0  0  0
  148.6570  140.6979  152.4868 H   0  0  0  0  0  0  0  0  0  0  0  0
  148.3130  142.3309  154.2750 H   0  0  0  0  0  0  0  0  0  0  0  0
  147.6685  141.0675  155.2940 H   0  0  0  0  0  0  0  0  0  0  0  0
  150.4364  141.8622  154.9617 H   0  0  0  0  0  0  0  0  0  0  0  0
  149.8112  141.1305  157.1825 H   0  0  0  0  0  0  0  0  0  0  0  0
  149.0633  139.6577  156.5513 H   0  0  0  0  0  0  0  0  0  0  0  0
  152.0158  140.3609  156.5200 H   0  0  0  0  0  0  0  0  0  0  0  0
  151.2837  138.8786  157.1475 H   0  0  0  0  0  0  0  0  0  0  0  0
  152.2421  138.9949  154.5735 H   0  0  0  0  0  0  0  0  0  0  0  0
  150.7624  138.1014  154.9332 H   0  0  0  0  0  0  0  0  0  0  0  0
  144.1853  136.3510  150.2517 H   0  0  0  0  0  0  0  0  0  0  0  0
  1  2  1  0  0  0  0
  1 19  1  0  0  0  0
  1 20  1  0  0  0  0
  1 21  1  0  0  0  0
  2 18  1  0  0  0  0
  2  3  2  0  0  0  0
  3  4  1  0  0  0  0
  4  5  1  0  0  0  0
  4 17  2  0  0  0  0
  5  6  1  0  0  0  0
  5 22  1  0  0  0  0
  5 23  1  0  0  0  0
  6  7  1  0  0  0  0
  6 24  1  0  0  0  0
  6 25  1  0  0  0  0
  7  8  1  0  0  0  0
  7 26  1  0  0  0  0
  8  9  2  0  0  0  0
  8 10  1  0  0  0  0
 10 11  1  0  0  0  0
 10 27  1  0  0  0  0
 11 12  1  0  0  0  0
 11 28  1  0  0  0  0
 11 29  1  0  0  0  0
 12 16  1  0  0  0  0
 12 13  1  0  0  0  0
 12 30  1  0  0  0  0
 13 14  1  0  0  0  0
 13 31  1  0  0  0  0
 13 32  1  0  0  0  0
 14 15  1  0  0  0  0
 14 33  1  0  0  0  0
 14 34  1  0  0  0  0
 15 16  1  0  0  0  0
 15 35  1  0  0  0  0
 15 36  1  0  0  0  0
 17 18  1  0  0  0  0
 17 37  1  0  0  0  0
M  END
> <s_m_source_file>
AV-unprocessed.smi

> <i_m_source_file_index>
1226

> <i_lp_mmshare_version>
43012

> <i_f3d_flags>
0

> <s_epik_input>
W0NIM11jMW5jKFtjSF1zMSlbQ0gyXVtDSDJdW05IXUMoPU8pW05IXVtDSDJdW0NAQEhdMltDSDJdW0NIMl1bQ0gyXU8y

> <s_epik_cmdline>
J2VwaWtfcHl0aG9uJywgJy1waCcsICc3LjAnLCAnLXRuJywgJzgnLCAnLW1hJywgJzIwMCcsICctbWV0YWxfYmluZGluZycsICctaW1hZScsICc8aW5maWxlLm1hZT4nLCAnLW9tYWUnLCAnPG91dGZpbGUubWFlPic=

> <r_epik_Ionization_Penalty>
0.00199722

> <r_epik_Ionization_Penalty_Charging>
0

> <r_epik_Ionization_Penalty_Neutral>
0.00199722

> <r_epik_State_Penalty>
0.00132705

> <r_epik_Charging_Adjusted_Penalty>
0.00132705

> <i_epik_Tot_Q>
0

> <i_epik_Tot_abs_Q>
0

> <r_epik_Metal_State_Penalty>
-0

> <b_epik_Metal_Only>
0

> <s_lp_Force_Field>
OPLS_2005

> <r_lp_Energy>
8.90451

> <b_lp_Chiralities_Consistent>
1

> <s_lp_Variant>
AV-unprocessed.smi:1226-2

> <Gold.Version>
5.8.1

> <Gold.Id.Protein>
6NUR|6NUR_protein|mol2

> <Gold.PLP.Fitness>
40.9804

> <Gold.PLP.PLP>
-32.1380

> <Gold.PLP.part.hbond>
-3.0000

> <Gold.PLP.part.metal>
0.0000

> <Gold.PLP.part.buried>
-1.2520

> <Gold.PLP.part.nonpolar>
-29.0786

> <Gold.PLP.part.repulsive>
0.6963

> <Gold.PLP.ligand.clash>
0.0000

> <Gold.PLP.ligand.torsion>
1.3085

> <Gold.PLP.Chemscore.Hbond>
2.8080

> <Gold.PLP.Chemscore.CHOScore>
1.0000

> <Gold.PLP.Chemscore.Metal>
0.0000

> <Gold.Chemscore.Hbonds>
donor molecule, donor type, donor heavy atom, donor atom, acceptor molecule, acceptor atom, score
      L1  H     7    26       P1  7957  0.85
      L1  H    10    27       P1  7957  0.98
      P1  H  7989  7998       L1    16  1.00
      L1  C    17    37       P1 10171  1.00

> <Gold.PLP.Chemscore.Internal.Correction>
0.0353

> <Gold.Rescore>
     Score         DG    S(hbond)    S(metal)    S(lipo)     H(rot)  DE(clash)    DE(int)     intcor
     14.79     -17.57       2.38        0.00      73.59       1.75       0.48       2.30       ----

> <Gold.Chemscore.Fitness>
14.7916

> <Gold.Chemscore.DG>
-17.5716

> <Gold.Chemscore.ZeroCoef>
-5.4800

> <Gold.Chemscore.Hbond>
2.3829

> <Gold.Chemscore.Metal>
0.0000

> <Gold.Chemscore.Lipo>
73.5861

> <Gold.Chemscore.Internal_Hbond>
0.0000

> <Gold.Chemscore.DEClash>
0.4774

> <Gold.Chemscore.DEInternal>
2.3026

> <Gold.Chemscore.Rot>
1.7487

> <Gold.Chemscore.Internal.Correction>
   9.000000E+99

> <Gold.Chemscore.Hbonds>
donor molecule, donor type, donor heavy atom, donor atom, acceptor molecule, acceptor atom, score
      L1  H     7    26       P1  7957  0.73
      L1  H    10    27       P1  7957  0.93
      P1  H  7989  7998       L1    16  0.09

> <Gold.Chemscore.Hbond.Weighted>
-7.9588

> <Gold.Chemscore.Metal.Weighted>
-0.0000

> <Gold.Chemscore.Lipo.Weighted>
-8.6096

> <Gold.Chemscore.Internal_Hbond.Weighted>
0.0000

> <Gold.Chemscore.DEClash.Weighted>
0.4774

> <Gold.Chemscore.DEInternal.Weighted>
2.3026

> <Gold.Chemscore.Rot.Weighted>
4.4768

> <Gold.Chemscore.Internal.Correction.Weighted>
   9.000000E+99

> <Gold.Protein.RotatedTorsions>
[ 6907 6896 6895 6894 ] final  -53.71 input  -60.11 | X-H torsion
[ 7974 7965 7964 7962 ] final   60.15 input  175.53 | X-H torsion
[ 8008 7997 7996 7995 ] final   -9.70 input   59.86 | X-H torsion
[ 10167 10162 10161 10158 ] final  -61.00 input  -65.29 | X-H torsion
[ 10718 10713 10712 10709 ] final  129.69 input   66.30 | X-H torsion
[ 10763 10752 10751 10750 ] final   63.16 input  -60.55 | X-H torsion
[ 11005 11000 10999 10996 ] final   89.98 input  -57.11 | X-H torsion

> <Gold.Protein.ActiveResidues>
 VAL166  LYS551  ARG553  GLY616  TRP617  ASP618  TYR619  PRO620  LYS621  CYS622 
 ASP623  PHE694  ASN695  SER759  ASP760  ASP761  ALA762  ILE779  LEU786  VAL792 
 PHE793  MET794  SER795  GLU796  ALA797  LYS798  CYS799  TRP800  GLU811  SER814 

> <Gold.Protein.RotatedAtoms>
  150.8402  134.7691  159.6925 H   0  0  0  0  0  0  0  0  0  0  0  0  # atno 6907 bound_to 6896
  152.4491  134.5428  159.9854 H   0  0  0  0  0  0  0  0  0  0  0  0  # atno 6908 bound_to 6896
  151.5570  133.3371  159.2999 H   0  0  0  0  0  0  0  0  0  0  0  0  # atno 6909 bound_to 6896
  145.8993  139.3569  143.0602 H   0  0  0  0  0  0  0  0  0  0  0  0  # atno 7974 bound_to 7965
  154.5622  140.2348  155.8317 H   0  0  0  0  0  0  0  0  0  0  0  0  # atno 8008 bound_to 7997
  156.2039  140.3045  155.9544 H   0  0  0  0  0  0  0  0  0  0  0  0  # atno 8009 bound_to 7997
  155.2867  140.0425  157.3010 H   0  0  0  0  0  0  0  0  0  0  0  0  # atno 8010 bound_to 7997
  140.6035  143.2367  151.5875 H   0  0  0  0  0  0  0  0  0  0  0  0  # atno 10167 bound_to 10162
  157.5131  131.1097  150.9264 H   0  0  0  0  0  0  0  0  0  0  0  0  # atno 10718 bound_to 10713
  153.0008  135.5439  154.6308 H   0  0  0  0  0  0  0  0  0  0  0  0  # atno 10763 bound_to 10752
  154.5586  135.2832  155.0943 H   0  0  0  0  0  0  0  0  0  0  0  0  # atno 10764 bound_to 10752
  154.2154  135.6460  153.5181 H   0  0  0  0  0  0  0  0  0  0  0  0  # atno 10765 bound_to 10752
  139.8865  134.8585  156.3219 H   0  0  0  0  0  0  0  0  0  0  0  0  # atno 11005 bound_to 11000
  145.8811  140.9362  143.0600 LP  0  0  0  0  0  0  0  0  0  0  0  0  # atno 17320 bound_to 7965
  144.6735  140.0782  143.7470 LP  0  0  0  0  0  0  0  0  0  0  0  0  # atno 17321 bound_to 7965
  139.5308  144.2922  152.1142 LP  0  0  0  0  0  0  0  0  0  0  0  0  # atno 17342 bound_to 10162
  140.2108  144.4565  150.6387 LP  0  0  0  0  0  0  0  0  0  0  0  0  # atno 17343 bound_to 10162
  156.9899  130.5559  149.5302 LP  0  0  0  0  0  0  0  0  0  0  0  0  # atno 17370 bound_to 10713
  156.0302  130.5394  150.8514 LP  0  0  0  0  0  0  0  0  0  0  0  0  # atno 17371 bound_to 10713
  140.9781  133.7284  156.0632 LP  0  0  0  0  0  0  0  0  0  0  0  0  # atno 17394 bound_to 11000
  140.7784  134.3753  157.5492 LP  0  0  0  0  0  0  0  0  0  0  0  0  # atno 17395 bound_to 11000

$$$$
