AV-unprocessed.smi:1684|AV-procd|sdf|6756|dock8
  -GOLD-   22720 7513D 1   1.00000     0.00000
 Structure written by MMmdl.
 43 44  0  0  0  0  0  0  0  0  2 V2000
  147.5816  132.7105  152.5189 C   0  0  0  0  0  0  0  0  0  0  0  0
  146.3371  132.8612  151.6585 C   0  0  0  0  0  0  0  0  0  0  0  0
  145.7107  131.7062  151.1438 C   0  0  0  0  0  0  0  0  0  0  0  0
  144.5621  131.8464  150.3462 C   0  0  0  0  0  0  0  0  0  0  0  0
  144.0856  133.1441  150.0948 C   0  0  0  0  0  0  0  0  0  0  0  0
  144.6779  134.2535  150.5825 N   0  0  0  0  0  0  0  0  0  0  0  0
  145.7859  134.1354  151.3571 C   0  0  0  0  0  0  0  0  0  0  0  0
  146.4627  135.2625  151.9040 N   0  0  0  0  0  0  0  0  0  0  0  0
  145.9643  136.2364  152.6856 C   0  0  0  0  0  0  0  0  0  0  0  0
  144.8095  136.2900  153.1091 O   0  0  0  0  0  0  0  0  0  0  0  0
  146.8876  137.1758  152.9425 N   0  0  0  0  0  0  0  0  0  0  0  0
  146.6888  138.3776  153.7549 C   0  0  1  0  0  0  0  0  0  0  0  0
  145.9787  137.9871  155.0582 C   0  0  0  0  0  0  0  0  0  0  0  0
  148.0285  139.0959  154.0410 C   0  0  0  0  0  0  0  0  0  0  0  0
  149.1584  138.1572  154.2590 N   0  3  0  0  0  0  0  0  0  0  0  0
  150.4767  138.8280  154.3644 C   0  0  0  0  0  0  0  0  0  0  0  0
  151.5936  137.7792  154.4945 C   0  0  0  0  0  0  0  0  0  0  0  0
  151.3422  136.9547  155.6265 O   0  0  0  0  0  0  0  0  0  0  0  0
  150.1138  136.2467  155.5094 C   0  0  0  0  0  0  0  0  0  0  0  0
  148.9484  137.2458  155.4075 C   0  0  0  0  0  0  0  0  0  0  0  0
  147.8694  131.6637  152.6201 H   0  0  0  0  0  0  0  0  0  0  0  0
  147.4050  133.1082  153.5188 H   0  0  0  0  0  0  0  0  0  0  0  0
  148.4212  133.2464  152.0748 H   0  0  0  0  0  0  0  0  0  0  0  0
  146.1039  130.7224  151.3552 H   0  0  0  0  0  0  0  0  0  0  0  0
  144.0596  130.9819  149.9380 H   0  0  0  0  0  0  0  0  0  0  0  0
  143.2069  133.2972  149.4859 H   0  0  0  0  0  0  0  0  0  0  0  0
  147.4359  135.3449  151.6498 H   0  0  0  0  0  0  0  0  0  0  0  0
  147.8106  137.0454  152.5541 H   0  0  0  0  0  0  0  0  0  0  0  0
  146.0221  139.0595  153.2252 H   0  0  0  0  0  0  0  0  0  0  0  0
  145.7842  138.8641  155.6764 H   0  0  0  0  0  0  0  0  0  0  0  0
  146.5785  137.2918  155.6467 H   0  0  0  0  0  0  0  0  0  0  0  0
  145.0192  137.5100  154.8558 H   0  0  0  0  0  0  0  0  0  0  0  0
  148.2779  139.7863  153.2337 H   0  0  0  0  0  0  0  0  0  0  0  0
  147.8977  139.7099  154.9337 H   0  0  0  0  0  0  0  0  0  0  0  0
  150.6609  139.4464  153.4865 H   0  0  0  0  0  0  0  0  0  0  0  0
  150.4848  139.4920  155.2302 H   0  0  0  0  0  0  0  0  0  0  0  0
  151.6625  137.1694  153.5921 H   0  0  0  0  0  0  0  0  0  0  0  0
  152.5582  138.2706  154.6218 H   0  0  0  0  0  0  0  0  0  0  0  0
  150.1407  135.5905  154.6377 H   0  0  0  0  0  0  0  0  0  0  0  0
  149.9874  135.6089  156.3843 H   0  0  0  0  0  0  0  0  0  0  0  0
  148.8670  137.8266  156.3277 H   0  0  0  0  0  0  0  0  0  0  0  0
  148.0113  136.7015  155.2845 H   0  0  0  0  0  0  0  0  0  0  0  0
  149.1975  137.5687  153.4385 H   0  0  0  0  0  0  0  0  0  0  0  0
  1  2  1  0  0  0  0
  1 21  1  0  0  0  0
  1 22  1  0  0  0  0
  1 23  1  0  0  0  0
  2  7  1  0  0  0  0
  2  3  2  0  0  0  0
  3  4  1  0  0  0  0
  3 24  1  0  0  0  0
  4  5  2  0  0  0  0
  4 25  1  0  0  0  0
  5  6  1  0  0  0  0
  5 26  1  0  0  0  0
  6  7  2  0  0  0  0
  7  8  1  0  0  0  0
  8  9  1  0  0  0  0
  8 27  1  0  0  0  0
  9 10  2  0  0  0  0
  9 11  1  0  0  0  0
 11 12  1  0  0  0  0
 11 28  1  0  0  0  0
 12 13  1  0  0  0  0
 12 14  1  0  0  0  0
 12 29  1  0  0  0  0
 13 30  1  0  0  0  0
 13 31  1  0  0  0  0
 13 32  1  0  0  0  0
 14 15  1  0  0  0  0
 14 33  1  0  0  0  0
 14 34  1  0  0  0  0
 15 20  1  0  0  0  0
 15 16  1  0  0  0  0
 15 43  1  0  0  0  0
 16 17  1  0  0  0  0
 16 35  1  0  0  0  0
 16 36  1  0  0  0  0
 17 18  1  0  0  0  0
 17 37  1  0  0  0  0
 17 38  1  0  0  0  0
 18 19  1  0  0  0  0
 19 20  1  0  0  0  0
 19 39  1  0  0  0  0
 19 40  1  0  0  0  0
 20 41  1  0  0  0  0
 20 42  1  0  0  0  0
M  CHG  1  15   1
M  END
> <s_m_source_file>
AV-unprocessed.smi

> <i_m_source_file_index>
1684

> <i_lp_mmshare_version>
43012

> <i_f3d_flags>
0

> <s_epik_input>
W0NIM11jMVtjSF1bY0hdW2NIXW5jMVtOSF1DKD1PKVtOSF1bQ0BIXShbQ0gzXSlbQ0gyXU4yW0NIMl1bQ0gyXU9bQ0gyXVtDSDJdMg==

> <s_epik_cmdline>
J2VwaWtfcHl0aG9uJywgJy1waCcsICc3LjAnLCAnLXRuJywgJzgnLCAnLW1hJywgJzIwMCcsICctbWV0YWxfYmluZGluZycsICctaW1hZScsICc8aW5maWxlLm1hZT4nLCAnLW9tYWUnLCAnPG91dGZpbGUubWFlPic=

> <r_epik_Ionization_Penalty>
0.602571

> <r_epik_Ionization_Penalty_Charging>
0.602531

> <r_epik_Ionization_Penalty_Neutral>
4.09763e-05

> <r_epik_State_Penalty>
0.617039

> <r_epik_Charging_Adjusted_Penalty>
1.21957

> <i_epik_Tot_Q>
1

> <i_epik_Tot_abs_Q>
1

> <r_epik_Metal_State_Penalty>
0.617043

> <b_epik_Metal_Only>
0

> <s_lp_Force_Field>
OPLS_2005

> <r_lp_Energy>
24.8229

> <b_lp_Chiralities_Consistent>
1

> <s_lp_Variant>
AV-unprocessed.smi:1684-4

> <Gold.Version>
5.8.1

> <Gold.Id.Protein>
6NUR|6NUR_protein|mol2

> <Gold.PLP.Fitness>
44.7442

> <Gold.PLP.PLP>
-31.6926

> <Gold.PLP.part.hbond>
-2.8892

> <Gold.PLP.part.metal>
0.0000

> <Gold.PLP.part.buried>
-4.2475

> <Gold.PLP.part.nonpolar>
-25.5693

> <Gold.PLP.part.repulsive>
1.1979

> <Gold.PLP.ligand.clash>
0.0000

> <Gold.PLP.ligand.torsion>
0.9122

> <Gold.PLP.Chemscore.Hbond>
3.9440

> <Gold.PLP.Chemscore.CHOScore>
1.0000

> <Gold.PLP.Chemscore.Metal>
0.0000

> <Gold.Chemscore.Hbonds>
donor molecule, donor type, donor heavy atom, donor atom, acceptor molecule, acceptor atom, score
      L1  H     8    27       P1  7948  0.98
      L1  H    11    28       P1  7948  1.00
      L1  H    15    43       P1  7948  1.85
      P1  H 10752 10765       L1    18  0.10
      L1  C     5    26       P1 10186  1.00

> <Gold.PLP.Chemscore.Internal.Correction>
0.0439

> <Gold.Rescore>
     Score         DG    S(hbond)    S(metal)    S(lipo)     H(rot)  DE(clash)    DE(int)     intcor
     17.75     -20.11       2.83        0.00      77.25       1.51       0.07       2.30       ----

> <Gold.Chemscore.Fitness>
17.7491

> <Gold.Chemscore.DG>
-20.1149

> <Gold.Chemscore.ZeroCoef>
-5.4800

> <Gold.Chemscore.Hbond>
2.8299

> <Gold.Chemscore.Metal>
0.0000

> <Gold.Chemscore.Lipo>
77.2534

> <Gold.Chemscore.Internal_Hbond>
0.0000

> <Gold.Chemscore.DEClash>
0.0650

> <Gold.Chemscore.DEInternal>
2.3008

> <Gold.Chemscore.Rot>
1.5061

> <Gold.Chemscore.Internal.Correction>
   9.000000E+99

> <Gold.Chemscore.Hbonds>
donor molecule, donor type, donor heavy atom, donor atom, acceptor molecule, acceptor atom, score
      L1  H     8    27       P1  7948  0.88
      L1  H    11    28       P1  7948  0.94
      L1  H    15    43       P1  7948  0.88

> <Gold.Chemscore.Hbond.Weighted>
-9.4520

> <Gold.Chemscore.Metal.Weighted>
-0.0000

> <Gold.Chemscore.Lipo.Weighted>
-9.0386

> <Gold.Chemscore.Internal_Hbond.Weighted>
0.0000

> <Gold.Chemscore.DEClash.Weighted>
0.0650

> <Gold.Chemscore.DEInternal.Weighted>
2.3008

> <Gold.Chemscore.Rot.Weighted>
3.8557

> <Gold.Chemscore.Internal.Correction.Weighted>
   9.000000E+99

> <Gold.Protein.RotatedTorsions>
[ 6907 6896 6895 6894 ] final   21.84 input  -60.11 | X-H torsion
[ 7974 7965 7964 7962 ] final   94.45 input  175.53 | X-H torsion
[ 8008 7997 7996 7995 ] final   22.36 input   59.86 | X-H torsion
[ 10167 10162 10161 10158 ] final -179.86 input  -65.29 | X-H torsion
[ 10718 10713 10712 10709 ] final    1.34 input   66.30 | X-H torsion
[ 10763 10752 10751 10750 ] final -161.81 input  -60.55 | X-H torsion
[ 11005 11000 10999 10996 ] final  146.76 input  -57.11 | X-H torsion

> <Gold.Protein.ActiveResidues>
 VAL166  LYS551  ARG553  GLY616  TRP617  ASP618  TYR619  PRO620  LYS621  CYS622 
 ASP623  PHE694  ASN695  SER759  ASP760  ASP761  ALA762  ILE779  LEU786  VAL792 
 PHE793  MET794  SER795  GLU796  ALA797  LYS798  CYS799  TRP800  GLU811  SER814 

> <Gold.Protein.RotatedAtoms>
  151.9179  135.0311  160.0519 H   0  0  0  0  0  0  0  0  0  0  0  0  # atno 6907 bound_to 6896
  152.2224  133.4989  159.5178 H   0  0  0  0  0  0  0  0  0  0  0  0  # atno 6908 bound_to 6896
  150.7003  134.1241  159.4088 H   0  0  0  0  0  0  0  0  0  0  0  0  # atno 6909 bound_to 6896
  145.4653  139.2284  143.2965 H   0  0  0  0  0  0  0  0  0  0  0  0  # atno 7974 bound_to 7965
  154.9646  140.3082  155.5015 H   0  0  0  0  0  0  0  0  0  0  0  0  # atno 8008 bound_to 7997
  156.2973  140.2295  156.4673 H   0  0  0  0  0  0  0  0  0  0  0  0  # atno 8009 bound_to 7997
  154.7933  140.0438  157.1206 H   0  0  0  0  0  0  0  0  0  0  0  0  # atno 8010 bound_to 7997
  139.5367  144.2477  152.0809 H   0  0  0  0  0  0  0  0  0  0  0  0  # atno 10167 bound_to 10162
  156.8468  130.5540  149.5673 H   0  0  0  0  0  0  0  0  0  0  0  0  # atno 10718 bound_to 10713
  154.7271  135.3038  154.8953 H   0  0  0  0  0  0  0  0  0  0  0  0  # atno 10763 bound_to 10752
  153.9808  135.6730  153.4754 H   0  0  0  0  0  0  0  0  0  0  0  0  # atno 10764 bound_to 10752
  153.0884  135.4972  154.8562 H   0  0  0  0  0  0  0  0  0  0  0  0  # atno 10765 bound_to 10752
  140.0820  134.9092  157.1515 H   0  0  0  0  0  0  0  0  0  0  0  0  # atno 11005 bound_to 11000
  146.2427  140.5426  142.8927 LP  0  0  0  0  0  0  0  0  0  0  0  0  # atno 17320 bound_to 7965
  144.7978  140.6155  143.6498 LP  0  0  0  0  0  0  0  0  0  0  0  0  # atno 17321 bound_to 7965
  140.1949  144.4715  150.6460 LP  0  0  0  0  0  0  0  0  0  0  0  0  # atno 17342 bound_to 10162
  140.6577  143.2242  151.5929 LP  0  0  0  0  0  0  0  0  0  0  0  0  # atno 17343 bound_to 10162
  156.0850  130.5851  150.9632 LP  0  0  0  0  0  0  0  0  0  0  0  0  # atno 17370 bound_to 10713
  157.6325  131.0919  150.8412 LP  0  0  0  0  0  0  0  0  0  0  0  0  # atno 17371 bound_to 10713
  140.3474  134.2636  155.7203 LP  0  0  0  0  0  0  0  0  0  0  0  0  # atno 17394 bound_to 11000
  141.2050  133.7872  157.0258 LP  0  0  0  0  0  0  0  0  0  0  0  0  # atno 17395 bound_to 11000

$$$$
