AV-unprocessed.smi:282|AV-procd|sdf|2123|dock7
  -GOLD-   2262021423D 1   1.00000     0.00000
 Structure written by MMmdl.
 65 69  0  0  0  0  0  0  0  0  2 V2000
  143.7889  132.5477  149.4316 C   0  0  0  0  0  0  0  0  0  0  0  0
  144.1100  132.6610  150.9311 C   0  0  0  0  0  0  0  0  0  0  0  0
  145.5452  132.2301  151.3338 C   0  0  2  0  0  0  0  0  0  0  0  0
  145.6260  130.7048  151.5621 C   0  0  0  0  0  0  0  0  0  0  0  0
  146.9863  130.2756  151.9674 N   0  3  2  0  0  0  0  0  0  0  0  0
  147.0775  128.8003  152.1181 C   0  0  0  0  0  0  0  0  0  0  0  0
  148.5111  128.3583  152.4496 C   0  0  0  0  0  0  0  0  0  0  0  0
  149.0149  129.0622  153.7144 C   0  0  0  0  0  0  0  0  0  0  0  0
  148.9009  130.5818  153.5430 C   0  0  0  0  0  0  0  0  0  0  0  0
  147.4642  131.0054  153.1755 C   0  0  1  0  0  0  0  0  0  0  0  0
  147.3922  132.5261  152.9491 C   0  0  0  0  0  0  0  0  0  0  0  0
  146.0700  132.9528  152.5008 N   0  0  0  0  0  0  0  0  0  0  0  0
  146.0112  134.3051  152.4680 C   0  0  0  0  0  0  0  0  0  0  0  0
  145.6995  134.9500  151.3128 N   0  0  0  0  0  0  0  0  0  0  0  0
  145.6597  136.2857  151.2850 C   0  0  0  0  0  0  0  0  0  0  0  0
  145.8981  137.1487  152.2752 N   0  0  0  0  0  0  0  0  0  0  0  0
  146.2195  136.5020  153.4326 C   0  0  0  0  0  0  0  0  0  0  0  0
  146.3061  135.0936  153.6106 C   0  0  0  0  0  0  0  0  0  0  0  0
  146.6730  134.7967  154.9162 N   0  0  0  0  0  0  0  0  0  0  0  0
  146.7955  135.9671  155.4813 C   0  0  0  0  0  0  0  0  0  0  0  0
  146.5234  137.0462  154.6690 N   0  0  0  0  0  0  0  0  0  0  0  0
  146.5788  138.4532  155.0410 C   0  0  0  0  0  0  0  0  0  0  0  0
  148.0027  138.9842  155.3850 C   0  0  0  0  0  0  0  0  0  0  0  0
  148.3838  138.6380  156.8532 C   0  0  0  0  0  0  0  0  0  0  0  0
  147.5051  139.2297  157.7891 O   0  0  0  0  0  0  0  0  0  0  0  0
  149.0096  138.3677  154.3813 C   0  0  0  0  0  0  0  0  0  0  0  0
  150.3960  139.0348  154.4329 C   0  0  0  0  0  0  0  0  0  0  0  0
  150.2704  140.4322  154.2041 O   0  0  0  0  0  0  0  0  0  0  0  0
  149.4845  141.0843  155.1929 C   0  0  0  0  0  0  0  0  0  0  0  0
  148.0516  140.5203  155.1867 C   0  0  0  0  0  0  0  0  0  0  0  0
  142.7518  132.8247  149.2421 H   0  0  0  0  0  0  0  0  0  0  0  0
  143.9251  131.5299  149.0664 H   0  0  0  0  0  0  0  0  0  0  0  0
  144.4134  133.2080  148.8311 H   0  0  0  0  0  0  0  0  0  0  0  0
  143.9495  133.6927  151.2456 H   0  0  0  0  0  0  0  0  0  0  0  0
  143.3746  132.0801  151.4875 H   0  0  0  0  0  0  0  0  0  0  0  0
  146.2022  132.4592  150.4931 H   0  0  0  0  0  0  0  0  0  0  0  0
  144.9253  130.3965  152.3388 H   0  0  0  0  0  0  0  0  0  0  0  0
  145.3378  130.1813  150.6495 H   0  0  0  0  0  0  0  0  0  0  0  0
  146.3952  128.4704  152.9031 H   0  0  0  0  0  0  0  0  0  0  0  0
  146.7541  128.3183  151.1947 H   0  0  0  0  0  0  0  0  0  0  0  0
  148.5467  127.2771  152.5857 H   0  0  0  0  0  0  0  0  0  0  0  0
  149.1709  128.5874  151.6116 H   0  0  0  0  0  0  0  0  0  0  0  0
  148.4289  128.7413  154.5766 H   0  0  0  0  0  0  0  0  0  0  0  0
  150.0491  128.7817  153.9161 H   0  0  0  0  0  0  0  0  0  0  0  0
  149.2135  131.0787  154.4624 H   0  0  0  0  0  0  0  0  0  0  0  0
  149.5927  130.9095  152.7656 H   0  0  0  0  0  0  0  0  0  0  0  0
  146.8027  130.7489  154.0054 H   0  0  0  0  0  0  0  0  0  0  0  0
  147.6541  133.0423  153.8742 H   0  0  0  0  0  0  0  0  0  0  0  0
  148.1303  132.8241  152.2021 H   0  0  0  0  0  0  0  0  0  0  0  0
  145.4005  136.7264  150.3336 H   0  0  0  0  0  0  0  0  0  0  0  0
  147.0823  136.0764  156.5171 H   0  0  0  0  0  0  0  0  0  0  0  0
  146.1467  139.0325  154.2240 H   0  0  0  0  0  0  0  0  0  0  0  0
  145.9073  138.6003  155.8882 H   0  0  0  0  0  0  0  0  0  0  0  0
  148.3732  137.5639  157.0299 H   0  0  0  0  0  0  0  0  0  0  0  0
  149.3992  138.9645  157.0784 H   0  0  0  0  0  0  0  0  0  0  0  0
  146.9381  139.8307  157.3303 H   0  0  0  0  0  0  0  0  0  0  0  0
  149.1094  137.2942  154.5434 H   0  0  0  0  0  0  0  0  0  0  0  0
  148.6232  138.4787  153.3672 H   0  0  0  0  0  0  0  0  0  0  0  0
  150.8969  138.8494  155.3832 H   0  0  0  0  0  0  0  0  0  0  0  0
  151.0368  138.6138  153.6578 H   0  0  0  0  0  0  0  0  0  0  0  0
  149.9523  140.9851  156.1729 H   0  0  0  0  0  0  0  0  0  0  0  0
  149.4612  142.1508  154.9687 H   0  0  0  0  0  0  0  0  0  0  0  0
  147.5958  140.7763  154.2295 H   0  0  0  0  0  0  0  0  0  0  0  0
  147.4599  141.0268  155.9497 H   0  0  0  0  0  0  0  0  0  0  0  0
  147.6072  130.5303  151.2127 H   0  0  0  0  0  0  0  0  0  0  0  0
  1  2  1  0  0  0  0
  1 31  1  0  0  0  0
  1 32  1  0  0  0  0
  1 33  1  0  0  0  0
  2  3  1  0  0  0  0
  2 34  1  0  0  0  0
  2 35  1  0  0  0  0
  3 12  1  0  0  0  0
  3  4  1  0  0  0  0
  3 36  1  0  0  0  0
  4  5  1  0  0  0  0
  4 37  1  0  0  0  0
  4 38  1  0  0  0  0
  5 10  1  0  0  0  0
  5  6  1  0  0  0  0
  5 65  1  0  0  0  0
  6  7  1  0  0  0  0
  6 39  1  0  0  0  0
  6 40  1  0  0  0  0
  7  8  1  0  0  0  0
  7 41  1  0  0  0  0
  7 42  1  0  0  0  0
  8  9  1  0  0  0  0
  8 43  1  0  0  0  0
  8 44  1  0  0  0  0
  9 10  1  0  0  0  0
  9 45  1  0  0  0  0
  9 46  1  0  0  0  0
 10 11  1  0  0  0  0
 10 47  1  0  0  0  0
 11 12  1  0  0  0  0
 11 48  1  0  0  0  0
 11 49  1  0  0  0  0
 12 13  1  0  0  0  0
 13 18  1  0  0  0  0
 13 14  2  0  0  0  0
 14 15  1  0  0  0  0
 15 16  2  0  0  0  0
 15 50  1  0  0  0  0
 16 17  1  0  0  0  0
 17 21  1  0  0  0  0
 17 18  2  0  0  0  0
 18 19  1  0  0  0  0
 19 20  2  0  0  0  0
 20 21  1  0  0  0  0
 20 51  1  0  0  0  0
 21 22  1  0  0  0  0
 22 23  1  0  0  0  0
 22 52  1  0  0  0  0
 22 53  1  0  0  0  0
 23 30  1  0  0  0  0
 23 24  1  0  0  0  0
 23 26  1  0  0  0  0
 24 25  1  0  0  0  0
 24 54  1  0  0  0  0
 24 55  1  0  0  0  0
 25 56  1  0  0  0  0
 26 27  1  0  0  0  0
 26 57  1  0  0  0  0
 26 58  1  0  0  0  0
 27 28  1  0  0  0  0
 27 59  1  0  0  0  0
 27 60  1  0  0  0  0
 28 29  1  0  0  0  0
 29 30  1  0  0  0  0
 29 61  1  0  0  0  0
 29 62  1  0  0  0  0
 30 63  1  0  0  0  0
 30 64  1  0  0  0  0
M  CHG  1   5   1
M  END
> <s_m_source_file>
AV-unprocessed.smi

> <i_m_source_file_index>
282

> <i_lp_mmshare_version>
43012

> <i_f3d_flags>
0

> <s_epik_input>
W0NIMl0xW0NIMl1bQ0gyXVtDSDJdW0NAQEhdKE4xMilbQ0gyXU4oW0NAQEhdKFtDSDJdMilbQ0gyXVtDSDNdKWMobltjSF1uMyljKGMzNCluW2NIXW40W0NIMl1DNShbQ0gyXVtPSF0pW0NIMl1bQ0gyXU9bQ0gyXVtDSDJdNQ==

> <s_epik_cmdline>
J2VwaWtfcHl0aG9uJywgJy1waCcsICc3LjAnLCAnLXRuJywgJzgnLCAnLW1hJywgJzIwMCcsICctbWV0YWxfYmluZGluZycsICctaW1hZScsICc8aW5maWxlLm1hZT4nLCAnLW9tYWUnLCAnPG91dGZpbGUubWFlPic=

> <r_lp_tautomer_probability>
1

> <r_epik_Ionization_Penalty>
0.00308583

> <r_epik_Ionization_Penalty_Charging>
0.00300384

> <r_epik_Ionization_Penalty_Neutral>
8.19894e-05

> <r_epik_State_Penalty>
-0

> <r_epik_Charging_Adjusted_Penalty>
0.00300384

> <i_epik_Tot_Q>
1

> <i_epik_Tot_abs_Q>
1

> <r_epik_Metal_State_Penalty>
-0

> <b_epik_Metal_Only>
0

> <s_lp_Force_Field>
OPLS_2005

> <r_lp_Energy>
57.4125

> <b_lp_Chiralities_Consistent>
1

> <s_lp_Variant>
AV-unprocessed.smi:282-7

> <Gold.Version>
5.8.1

> <Gold.Id.Protein>
6NUR|6NUR_protein|mol2

> <Gold.PLP.Fitness>
48.8436

> <Gold.PLP.PLP>
-41.5414

> <Gold.PLP.part.hbond>
-2.0038

> <Gold.PLP.part.metal>
0.0000

> <Gold.PLP.part.buried>
-6.1495

> <Gold.PLP.part.nonpolar>
-34.6493

> <Gold.PLP.part.repulsive>
0.7201

> <Gold.PLP.ligand.clash>
0.0000

> <Gold.PLP.ligand.torsion>
0.8195

> <Gold.PLP.Chemscore.Hbond>
1.9120

> <Gold.PLP.Chemscore.CHOScore>
1.0000

> <Gold.PLP.Chemscore.Metal>
0.0000

> <Gold.Chemscore.Hbonds>
donor molecule, donor type, donor heavy atom, donor atom, acceptor molecule, acceptor atom, score
      L1  H     5    65       P1 10747  1.00
      P1  H  7989  7998       L1    28  0.90
      L1  C    15    50       P1 10171  1.00

> <Gold.PLP.Chemscore.Internal.Correction>
0.2052

> <Gold.Rescore>
     Score         DG    S(hbond)    S(metal)    S(lipo)     H(rot)  DE(clash)    DE(int)     intcor
     14.93     -17.37       1.98        0.00      98.93       2.46       0.05       2.39       ----

> <Gold.Chemscore.Fitness>
14.9331

> <Gold.Chemscore.DG>
-17.3683

> <Gold.Chemscore.ZeroCoef>
-5.4800

> <Gold.Chemscore.Hbond>
1.9775

> <Gold.Chemscore.Metal>
0.0000

> <Gold.Chemscore.Lipo>
98.9302

> <Gold.Chemscore.Internal_Hbond>
0.0000

> <Gold.Chemscore.DEClash>
0.0469

> <Gold.Chemscore.DEInternal>
2.3882

> <Gold.Chemscore.Rot>
2.4576

> <Gold.Chemscore.Internal.Correction>
   9.000000E+99

> <Gold.Chemscore.Hbonds>
donor molecule, donor type, donor heavy atom, donor atom, acceptor molecule, acceptor atom, score
      L1  H     5    65       P1 10747  1.00
      P1  H  7989  7998       L1    28  0.48

> <Gold.Chemscore.Hbond.Weighted>
-6.6049

> <Gold.Chemscore.Metal.Weighted>
-0.0000

> <Gold.Chemscore.Lipo.Weighted>
-11.5748

> <Gold.Chemscore.Internal_Hbond.Weighted>
0.0000

> <Gold.Chemscore.DEClash.Weighted>
0.0469

> <Gold.Chemscore.DEInternal.Weighted>
2.3882

> <Gold.Chemscore.Rot.Weighted>
6.2915

> <Gold.Chemscore.Internal.Correction.Weighted>
   9.000000E+99

> <Gold.Protein.RotatedTorsions>
[ 6907 6896 6895 6894 ] final  -34.39 input  -60.11 | X-H torsion
[ 7974 7965 7964 7962 ] final    9.54 input  175.53 | X-H torsion
[ 8008 7997 7996 7995 ] final  -70.14 input   59.86 | X-H torsion
[ 10167 10162 10161 10158 ] final -105.25 input  -65.29 | X-H torsion
[ 10718 10713 10712 10709 ] final   -9.73 input   66.30 | X-H torsion
[ 10763 10752 10751 10750 ] final   54.18 input  -60.55 | X-H torsion
[ 11005 11000 10999 10996 ] final -144.20 input  -57.11 | X-H torsion

> <Gold.Protein.ActiveResidues>
 VAL166  LYS551  ARG553  GLY616  TRP617  ASP618  TYR619  PRO620  LYS621  CYS622 
 ASP623  PHE694  ASN695  SER759  ASP760  ASP761  ALA762  ILE779  LEU786  VAL792 
 PHE793  MET794  SER795  GLU796  ALA797  LYS798  CYS799  TRP800  GLU811  SER814 

> <Gold.Protein.RotatedAtoms>
  151.0532  134.9687  159.8221 H   0  0  0  0  0  0  0  0  0  0  0  0  # atno 6907 bound_to 6896
  152.5384  134.2511  159.8909 H   0  0  0  0  0  0  0  0  0  0  0  0  # atno 6908 bound_to 6896
  151.2527  133.4299  159.2646 H   0  0  0  0  0  0  0  0  0  0  0  0  # atno 6909 bound_to 6896
  146.2402  139.9769  142.8440 H   0  0  0  0  0  0  0  0  0  0  0  0  # atno 7974 bound_to 7965
  154.4990  140.0840  156.7757 H   0  0  0  0  0  0  0  0  0  0  0  0  # atno 8008 bound_to 7997
  155.4049  140.3439  155.4241 H   0  0  0  0  0  0  0  0  0  0  0  0  # atno 8009 bound_to 7997
  156.1431  140.1535  156.8877 H   0  0  0  0  0  0  0  0  0  0  0  0  # atno 8010 bound_to 7997
  140.2005  143.3822  152.1133 H   0  0  0  0  0  0  0  0  0  0  0  0  # atno 10167 bound_to 10162
  156.6838  130.5045  149.5963 H   0  0  0  0  0  0  0  0  0  0  0  0  # atno 10718 bound_to 10713
  152.9802  135.5753  154.4863 H   0  0  0  0  0  0  0  0  0  0  0  0  # atno 10763 bound_to 10752
  154.4404  135.2775  155.1853 H   0  0  0  0  0  0  0  0  0  0  0  0  # atno 10764 bound_to 10752
  154.3524  135.6206  153.5703 H   0  0  0  0  0  0  0  0  0  0  0  0  # atno 10765 bound_to 10752
  140.8048  134.2814  157.4964 H   0  0  0  0  0  0  0  0  0  0  0  0  # atno 11005 bound_to 11000
  145.1628  140.9682  143.4367 LP  0  0  0  0  0  0  0  0  0  0  0  0  # atno 17320 bound_to 7965
  145.0100  139.3519  143.6125 LP  0  0  0  0  0  0  0  0  0  0  0  0  # atno 17321 bound_to 7965
  139.5219  144.7052  151.5376 LP  0  0  0  0  0  0  0  0  0  0  0  0  # atno 17342 bound_to 10162
  140.6393  143.8920  150.6677 LP  0  0  0  0  0  0  0  0  0  0  0  0  # atno 17343 bound_to 10162
  156.1848  130.6522  151.0993 LP  0  0  0  0  0  0  0  0  0  0  0  0  # atno 17370 bound_to 10713
  157.7034  131.0767  150.6747 LP  0  0  0  0  0  0  0  0  0  0  0  0  # atno 17371 bound_to 10713
  139.8718  134.9450  156.3897 LP  0  0  0  0  0  0  0  0  0  0  0  0  # atno 17394 bound_to 11000
  140.9258  133.7613  155.9963 LP  0  0  0  0  0  0  0  0  0  0  0  0  # atno 17395 bound_to 11000

$$$$
