AV-unprocessed.smi:229|AV-procd|sdf|1751|dock10
  -GOLD-   2262020273D 1   1.00000     0.00000
 Structure written by MMmdl.
 58 62  0  0  0  0  0  0  0  0  1 V2000
  148.4658  133.3254  152.8854 C   0  0  0  0  0  0  0  0  0  0  0  0
  147.7989  133.6564  154.2273 C   0  0  0  0  0  0  0  0  0  0  0  0
  148.7962  133.8886  155.3747 C   0  0  2  0  0  0  0  0  0  0  0  0
  149.7022  135.1129  155.1448 C   0  0  0  0  0  0  0  0  0  0  0  0
  150.7013  135.1997  156.2022 N   0  0  0  0  0  0  0  0  0  0  0  0
  151.3371  136.3949  156.2977 C   0  0  0  0  0  0  0  0  0  0  0  0
  151.8986  136.9565  155.1933 N   0  0  0  0  0  0  0  0  0  0  0  0
  152.5193  138.1367  155.2763 C   0  0  0  0  0  0  0  0  0  0  0  0
  152.6954  138.9135  156.3466 N   0  0  0  0  0  0  0  0  0  0  0  0
  152.1436  138.3518  157.4599 C   0  0  0  0  0  0  0  0  0  0  0  0
  151.4532  137.1082  157.5245 C   0  0  0  0  0  0  0  0  0  0  0  0
  151.0455  136.8623  158.8310 N   0  0  0  0  0  0  0  0  0  0  0  0
  151.4597  137.9056  159.4970 C   0  0  0  0  0  0  0  0  0  0  0  0
  152.1274  138.8494  158.7507 N   0  0  0  0  0  0  0  0  0  0  0  0
  152.6886  140.0989  159.2333 C   0  0  0  0  0  0  0  0  0  0  0  0
  151.8349  141.3193  158.8271 C   0  0  2  0  0  0  0  0  0  0  0  0
  151.7082  141.3966  157.4208 O   0  0  0  0  0  0  0  0  0  0  0  0
  152.3645  142.6707  159.3493 C   0  0  1  0  0  0  0  0  0  0  0  0
  151.5989  143.8893  158.8328 C   0  0  0  0  0  0  0  0  0  0  0  0
  151.9509  144.9283  159.8727 C   0  0  0  0  0  0  0  0  0  0  0  0
  151.9544  144.1025  161.1565 C   0  0  0  0  0  0  0  0  0  0  0  0
  152.2657  142.7662  160.7686 O   0  0  0  0  0  0  0  0  0  0  0  0
  151.4983  133.9839  156.3295 C   0  0  0  0  0  0  0  0  0  0  0  0
  150.5875  132.7496  156.5187 C   0  0  1  0  0  0  0  0  0  0  0  0
  151.3945  131.4583  156.4406 C   0  0  0  0  0  0  0  0  0  0  0  0
  151.7137  131.1610  157.8977 C   0  0  0  0  0  0  0  0  0  0  0  0
  150.5008  131.4930  158.5472 O   0  0  0  0  0  0  0  0  0  0  0  0
  149.9686  132.6622  157.9337 C   0  0  0  0  0  0  0  0  0  0  0  0
  149.6076  132.7166  155.4766 O   0  0  0  0  0  0  0  0  0  0  0  0
  147.7191  133.2358  152.0963 H   0  0  0  0  0  0  0  0  0  0  0  0
  149.0096  132.3820  152.9292 H   0  0  0  0  0  0  0  0  0  0  0  0
  149.1679  134.1058  152.5908 H   0  0  0  0  0  0  0  0  0  0  0  0
  147.1960  134.5559  154.0985 H   0  0  0  0  0  0  0  0  0  0  0  0
  147.1025  132.8616  154.4968 H   0  0  0  0  0  0  0  0  0  0  0  0
  148.2334  134.0246  156.2988 H   0  0  0  0  0  0  0  0  0  0  0  0
  150.2120  135.0284  154.1841 H   0  0  0  0  0  0  0  0  0  0  0  0
  149.0979  136.0175  155.1019 H   0  0  0  0  0  0  0  0  0  0  0  0
  152.9338  138.5126  154.3526 H   0  0  0  0  0  0  0  0  0  0  0  0
  151.2884  138.0172  160.5579 H   0  0  0  0  0  0  0  0  0  0  0  0
  152.7736  140.0333  160.3180 H   0  0  0  0  0  0  0  0  0  0  0  0
  153.7044  140.1936  158.8481 H   0  0  0  0  0  0  0  0  0  0  0  0
  150.8223  141.1822  159.2090 H   0  0  0  0  0  0  0  0  0  0  0  0
  151.1096  140.7218  157.1377 H   0  0  0  0  0  0  0  0  0  0  0  0
  153.4137  142.7953  159.0747 H   0  0  0  0  0  0  0  0  0  0  0  0
  151.8929  144.1794  157.8237 H   0  0  0  0  0  0  0  0  0  0  0  0
  150.5232  143.7114  158.8370 H   0  0  0  0  0  0  0  0  0  0  0  0
  152.9481  145.3261  159.6794 H   0  0  0  0  0  0  0  0  0  0  0  0
  151.2495  145.7626  159.9034 H   0  0  0  0  0  0  0  0  0  0  0  0
  152.6701  144.4808  161.8866 H   0  0  0  0  0  0  0  0  0  0  0  0
  150.9662  144.1064  161.6174 H   0  0  0  0  0  0  0  0  0  0  0  0
  152.0988  133.8667  155.4260 H   0  0  0  0  0  0  0  0  0  0  0  0
  152.1918  134.0698  157.1674 H   0  0  0  0  0  0  0  0  0  0  0  0
  150.7767  130.6521  156.0417 H   0  0  0  0  0  0  0  0  0  0  0  0
  152.2844  131.5329  155.8148 H   0  0  0  0  0  0  0  0  0  0  0  0
  151.9907  130.1205  158.0675 H   0  0  0  0  0  0  0  0  0  0  0  0
  152.5186  131.8004  158.2642 H   0  0  0  0  0  0  0  0  0  0  0  0
  150.2212  133.5356  158.5364 H   0  0  0  0  0  0  0  0  0  0  0  0
  148.8823  132.5770  157.9149 H   0  0  0  0  0  0  0  0  0  0  0  0
  1  2  1  0  0  0  0
  1 30  1  0  0  0  0
  1 31  1  0  0  0  0
  1 32  1  0  0  0  0
  2  3  1  0  0  0  0
  2 33  1  0  0  0  0
  2 34  1  0  0  0  0
  3 29  1  0  0  0  0
  3  4  1  0  0  0  0
  3 35  1  0  0  0  0
  4  5  1  0  0  0  0
  4 36  1  0  0  0  0
  4 37  1  0  0  0  0
  5  6  1  0  0  0  0
  5 23  1  0  0  0  0
  6 11  1  0  0  0  0
  6  7  2  0  0  0  0
  7  8  1  0  0  0  0
  8  9  2  0  0  0  0
  8 38  1  0  0  0  0
  9 10  1  0  0  0  0
 10 14  1  0  0  0  0
 10 11  2  0  0  0  0
 11 12  1  0  0  0  0
 12 13  2  0  0  0  0
 13 14  1  0  0  0  0
 13 39  1  0  0  0  0
 14 15  1  0  0  0  0
 15 16  1  0  0  0  0
 15 40  1  0  0  0  0
 15 41  1  0  0  0  0
 16 17  1  0  0  0  0
 16 18  1  0  0  0  0
 16 42  1  0  0  0  0
 17 43  1  0  0  0  0
 18 22  1  0  0  0  0
 18 19  1  0  0  0  0
 18 44  1  0  0  0  0
 19 20  1  0  0  0  0
 19 45  1  0  0  0  0
 19 46  1  0  0  0  0
 20 21  1  0  0  0  0
 20 47  1  0  0  0  0
 20 48  1  0  0  0  0
 21 22  1  0  0  0  0
 21 49  1  0  0  0  0
 21 50  1  0  0  0  0
 23 24  1  0  0  0  0
 23 51  1  0  0  0  0
 23 52  1  0  0  0  0
 24 28  1  0  0  0  0
 24 25  1  0  0  0  0
 24 29  1  0  0  0  0
 25 26  1  0  0  0  0
 25 53  1  0  0  0  0
 25 54  1  0  0  0  0
 26 27  1  0  0  0  0
 26 55  1  0  0  0  0
 26 56  1  0  0  0  0
 27 28  1  0  0  0  0
 28 57  1  0  0  0  0
 28 58  1  0  0  0  0
M  END
> <s_m_source_file>
AV-unprocessed.smi

> <i_m_source_file_index>
229

> <i_lp_mmshare_version>
43012

> <i_f3d_flags>
0

> <s_epik_input>
W0NIMl0xT1tDSDJdW0NIMl1bQ0BdMTJbQ0gyXU4oW0NIMl1bQ0BIXShPMilbQ0gyXVtDSDNdKWMobltjSF1uMyljKGMzNCluW2NIXW40W0NIMl1bQ0BIXShbT0hdKVtDQEBIXTVbQ0gyXVtDSDJdW0NIMl1PNQ==

> <s_epik_cmdline>
J2VwaWtfcHl0aG9uJywgJy1waCcsICc3LjAnLCAnLXRuJywgJzgnLCAnLW1hJywgJzIwMCcsICctbWV0YWxfYmluZGluZycsICctaW1hZScsICc8aW5maWxlLm1hZT4nLCAnLW9tYWUnLCAnPG91dGZpbGUubWFlPic=

> <r_lp_tautomer_probability>
1

> <r_epik_Ionization_Penalty>
0.00318402

> <r_epik_Ionization_Penalty_Charging>
0

> <r_epik_Ionization_Penalty_Neutral>
0.00318402

> <r_epik_State_Penalty>
0.00215642

> <r_epik_Charging_Adjusted_Penalty>
0.00215642

> <i_epik_Tot_Q>
0

> <i_epik_Tot_abs_Q>
0

> <r_epik_Metal_State_Penalty>
-0

> <b_epik_Metal_Only>
0

> <s_lp_Force_Field>
OPLS_2005

> <r_lp_Energy>
54.9877

> <b_lp_Chiralities_Consistent>
1

> <s_lp_Variant>
AV-unprocessed.smi:229-5

> <Gold.Version>
5.8.1

> <Gold.Id.Protein>
6NUR|6NUR_protein|mol2

> <Gold.PLP.Fitness>
48.4983

> <Gold.PLP.PLP>
-40.9075

> <Gold.PLP.part.hbond>
-3.8798

> <Gold.PLP.part.metal>
0.0000

> <Gold.PLP.part.buried>
-3.0078

> <Gold.PLP.part.nonpolar>
-33.7100

> <Gold.PLP.part.repulsive>
0.1466

> <Gold.PLP.ligand.clash>
0.0000

> <Gold.PLP.ligand.torsion>
0.7254

> <Gold.PLP.Chemscore.Hbond>
2.8950

> <Gold.PLP.Chemscore.CHOScore>
0.0000

> <Gold.PLP.Chemscore.Metal>
0.0000

> <Gold.Chemscore.Hbonds>
donor molecule, donor type, donor heavy atom, donor atom, acceptor molecule, acceptor atom, score
      P1  H  6896  6907       L1    12  0.98
      P1  H  7997  8008       L1     9  0.96
      P1  H 10752 10765       L1     7  0.93

> <Gold.PLP.Chemscore.Internal.Correction>
0.3566

> <Gold.Rescore>
     Score         DG    S(hbond)    S(metal)    S(lipo)     H(rot)  DE(clash)    DE(int)     intcor
     16.96     -18.73       2.22        0.00     103.53       2.46       1.17       0.59       ----

> <Gold.Chemscore.Fitness>
16.9649

> <Gold.Chemscore.DG>
-18.7280

> <Gold.Chemscore.ZeroCoef>
-5.4800

> <Gold.Chemscore.Hbond>
2.2247

> <Gold.Chemscore.Metal>
0.0000

> <Gold.Chemscore.Lipo>
103.5275

> <Gold.Chemscore.Internal_Hbond>
0.0000

> <Gold.Chemscore.DEClash>
1.1733

> <Gold.Chemscore.DEInternal>
0.5897

> <Gold.Chemscore.Rot>
2.4591

> <Gold.Chemscore.Internal.Correction>
   9.000000E+99

> <Gold.Chemscore.Hbonds>
donor molecule, donor type, donor heavy atom, donor atom, acceptor molecule, acceptor atom, score
      P1  H  6896  6907       L1    12  0.78
      P1  H  7997  8008       L1     9  0.87
      P1  H 10752 10765       L1     7  0.46

> <Gold.Chemscore.Hbond.Weighted>
-7.4306

> <Gold.Chemscore.Metal.Weighted>
-0.0000

> <Gold.Chemscore.Lipo.Weighted>
-12.1127

> <Gold.Chemscore.Internal_Hbond.Weighted>
0.0000

> <Gold.Chemscore.DEClash.Weighted>
1.1733

> <Gold.Chemscore.DEInternal.Weighted>
0.5897

> <Gold.Chemscore.Rot.Weighted>
6.2953

> <Gold.Chemscore.Internal.Correction.Weighted>
   9.000000E+99

> <Gold.Protein.RotatedTorsions>
[ 6907 6896 6895 6894 ] final  -26.50 input  -60.11 | X-H torsion
[ 7974 7965 7964 7962 ] final  158.14 input  175.53 | X-H torsion
[ 8008 7997 7996 7995 ] final  -56.79 input   59.86 | X-H torsion
[ 10167 10162 10161 10158 ] final   11.99 input  -65.29 | X-H torsion
[ 10718 10713 10712 10709 ] final -101.01 input   66.30 | X-H torsion
[ 10763 10752 10751 10750 ] final  167.43 input  -60.55 | X-H torsion
[ 11005 11000 10999 10996 ] final  -52.05 input  -57.11 | X-H torsion

> <Gold.Protein.ActiveResidues>
 VAL166  LYS551  ARG553  GLY616  TRP617  ASP618  TYR619  PRO620  LYS621  CYS622 
 ASP623  PHE694  ASN695  SER759  ASP760  ASP761  ALA762  ILE779  LEU786  VAL792 
 PHE793  MET794  SER795  GLU796  ALA797  LYS798  CYS799  TRP800  GLU811  SER814 

> <Gold.Protein.RotatedAtoms>
  151.1601  135.0269  159.8705 H   0  0  0  0  0  0  0  0  0  0  0  0  # atno 6907 bound_to 6896
  152.5451  134.1289  159.8441 H   0  0  0  0  0  0  0  0  0  0  0  0  # atno 6908 bound_to 6896
  151.1384  133.4942  159.2630 H   0  0  0  0  0  0  0  0  0  0  0  0  # atno 6909 bound_to 6896
  144.7863  139.7437  143.6239 H   0  0  0  0  0  0  0  0  0  0  0  0  # atno 7974 bound_to 7965
  154.4243  140.1121  156.5694 H   0  0  0  0  0  0  0  0  0  0  0  0  # atno 8008 bound_to 7997
  155.6228  140.3495  155.4638 H   0  0  0  0  0  0  0  0  0  0  0  0  # atno 8009 bound_to 7997
  156.0010  140.1199  157.0537 H   0  0  0  0  0  0  0  0  0  0  0  0  # atno 8010 bound_to 7997
  140.6097  143.8434  150.7052 H   0  0  0  0  0  0  0  0  0  0  0  0  # atno 10167 bound_to 10162
  156.0181  130.5354  150.6901 H   0  0  0  0  0  0  0  0  0  0  0  0  # atno 10718 bound_to 10713
  154.3537  135.2753  155.2358 H   0  0  0  0  0  0  0  0  0  0  0  0  # atno 10763 bound_to 10752
  154.4576  135.5915  153.6237 H   0  0  0  0  0  0  0  0  0  0  0  0  # atno 10764 bound_to 10752
  152.9848  135.6057  154.3750 H   0  0  0  0  0  0  0  0  0  0  0  0  # atno 10765 bound_to 10752
  141.0904  133.6634  156.3967 H   0  0  0  0  0  0  0  0  0  0  0  0  # atno 11005 bound_to 11000
  146.2096  139.5443  142.9690 LP  0  0  0  0  0  0  0  0  0  0  0  0  # atno 17320 bound_to 7965
  145.5914  141.0369  143.2068 LP  0  0  0  0  0  0  0  0  0  0  0  0  # atno 17321 bound_to 7965
  140.1999  143.3967  152.1799 LP  0  0  0  0  0  0  0  0  0  0  0  0  # atno 17342 bound_to 10162
  139.5351  144.7201  151.4919 LP  0  0  0  0  0  0  0  0  0  0  0  0  # atno 17343 bound_to 10162
  157.4584  131.0880  151.0772 LP  0  0  0  0  0  0  0  0  0  0  0  0  # atno 17370 bound_to 10713
  157.1266  130.6084  149.5519 LP  0  0  0  0  0  0  0  0  0  0  0  0  # atno 17371 bound_to 10713
  140.5266  134.6253  157.5336 LP  0  0  0  0  0  0  0  0  0  0  0  0  # atno 17394 bound_to 11000
  139.9728  134.7264  156.0007 LP  0  0  0  0  0  0  0  0  0  0  0  0  # atno 17395 bound_to 11000

$$$$
