AV-unprocessed.smi:2604|AV-procd|sdf|10190|dock10
  -GOLD-   2272014203D 1   1.00000     0.00000
 Structure written by MMmdl.
 26 27  0  0  0  0  0  0  0  0  2 V2000
  150.9153  141.3570  157.8422 C   0  0  0  0  0  0  0  0  0  0  0  0
  152.1494  140.6823  157.7613 C   0  0  0  0  0  0  0  0  0  0  0  0
  152.5154  139.9333  156.6991 N   0  0  0  0  0  0  0  0  0  0  0  0
  151.6517  139.8353  155.6660 C   0  0  0  0  0  0  0  0  0  0  0  0
  150.3928  140.4743  155.6398 C   0  0  0  0  0  0  0  0  0  0  0  0
  149.4693  140.3063  154.4443 C   0  0  1  0  0  0  0  0  0  0  0  0
  149.2716  138.8129  154.0978 C   0  0  0  0  0  0  0  0  0  0  0  0
  148.4069  138.6671  152.9092 N   0  3  0  0  0  0  0  0  0  0  0  0
  147.1173  139.3590  153.1016 C   0  0  0  0  0  0  0  0  0  0  0  0
  147.3615  140.8375  153.4542 C   0  0  0  0  0  0  0  0  0  0  0  0
  148.1647  140.9292  154.6694 N   0  0  0  0  0  0  0  0  0  0  0  0
  150.0201  141.2488  156.7608 C   0  0  0  0  0  0  0  0  0  0  0  0
  150.6623  141.9428  158.7136 H   0  0  0  0  0  0  0  0  0  0  0  0
  152.8601  140.7443  158.5720 H   0  0  0  0  0  0  0  0  0  0  0  0
  151.9767  139.2265  154.8350 H   0  0  0  0  0  0  0  0  0  0  0  0
  149.9375  140.8099  153.5967 H   0  0  0  0  0  0  0  0  0  0  0  0
  150.2320  138.3407  153.8891 H   0  0  0  0  0  0  0  0  0  0  0  0
  148.8259  138.2742  154.9355 H   0  0  0  0  0  0  0  0  0  0  0  0
  148.8775  139.0743  152.1139 H   0  0  0  0  0  0  0  0  0  0  0  0
  146.5294  139.2783  152.1870 H   0  0  0  0  0  0  0  0  0  0  0  0
  146.5509  138.8638  153.8919 H   0  0  0  0  0  0  0  0  0  0  0  0
  147.8622  141.3566  152.6355 H   0  0  0  0  0  0  0  0  0  0  0  0
  146.4109  141.3444  153.6206 H   0  0  0  0  0  0  0  0  0  0  0  0
  148.2918  141.8999  154.9210 H   0  0  0  0  0  0  0  0  0  0  0  0
  149.0646  141.7516  156.7953 H   0  0  0  0  0  0  0  0  0  0  0  0
  148.2410  137.6869  152.7312 H   0  0  0  0  0  0  0  0  0  0  0  0
  1 12  1  0  0  0  0
  1  2  2  0  0  0  0
  1 13  1  0  0  0  0
  2  3  1  0  0  0  0
  2 14  1  0  0  0  0
  3  4  2  0  0  0  0
  4  5  1  0  0  0  0
  4 15  1  0  0  0  0
  5  6  1  0  0  0  0
  5 12  2  0  0  0  0
  6 11  1  0  0  0  0
  6  7  1  0  0  0  0
  6 16  1  0  0  0  0
  7  8  1  0  0  0  0
  7 17  1  0  0  0  0
  7 18  1  0  0  0  0
  8  9  1  0  0  0  0
  8 19  1  0  0  0  0
  8 26  1  0  0  0  0
  9 10  1  0  0  0  0
  9 20  1  0  0  0  0
  9 21  1  0  0  0  0
 10 11  1  0  0  0  0
 10 22  1  0  0  0  0
 10 23  1  0  0  0  0
 11 24  1  0  0  0  0
 12 25  1  0  0  0  0
M  CHG  1   8   1
M  END
> <s_m_source_file>
AV-unprocessed.smi

> <i_m_source_file_index>
2604

> <i_lp_mmshare_version>
43012

> <i_f3d_flags>
0

> <s_epik_input>
W2NIXTFbY0hdW2NIXW5bY0hdYzFbQ0BASF0yW0NIMl1bTkhdW0NIMl1bQ0gyXVtOSF0y

> <s_epik_cmdline>
J2VwaWtfcHl0aG9uJywgJy1waCcsICc3LjAnLCAnLXRuJywgJzgnLCAnLW1hJywgJzIwMCcsICctbWV0YWxfYmluZGluZycsICctaW1hZScsICc8aW5maWxlLm1hZT4nLCAnLW9tYWUnLCAnPG91dGZpbGUubWFlPic=

> <r_epik_Ionization_Penalty>
0.0181456

> <r_epik_Ionization_Penalty_Charging>
0.010317

> <r_epik_Ionization_Penalty_Neutral>
0.00782861

> <r_epik_State_Penalty>
0.306622

> <r_epik_Charging_Adjusted_Penalty>
0.316939

> <i_epik_Tot_Q>
1

> <i_epik_Tot_abs_Q>
1

> <r_epik_Metal_State_Penalty>
0.302658

> <b_epik_Metal_Only>
0

> <s_lp_Force_Field>
OPLS_2005

> <r_lp_Energy>
10.6943

> <b_lp_Chiralities_Consistent>
1

> <s_lp_Variant>
AV-unprocessed.smi:2604-2

> <Gold.Version>
5.8.1

> <Gold.Id.Protein>
6NUR|6NUR_protein|mol2

> <Gold.PLP.Fitness>
35.4563

> <Gold.PLP.PLP>
-24.7648

> <Gold.PLP.part.hbond>
-2.9478

> <Gold.PLP.part.metal>
0.0000

> <Gold.PLP.part.buried>
-1.6660

> <Gold.PLP.part.nonpolar>
-19.6622

> <Gold.PLP.part.repulsive>
0.0754

> <Gold.PLP.ligand.clash>
0.0000

> <Gold.PLP.ligand.torsion>
0.0932

> <Gold.PLP.Chemscore.Hbond>
3.6233

> <Gold.PLP.Chemscore.CHOScore>
0.0000

> <Gold.PLP.Chemscore.Metal>
0.0000

> <Gold.Chemscore.Hbonds>
donor molecule, donor type, donor heavy atom, donor atom, acceptor molecule, acceptor atom, score
      L1  H     8    19       P1  7957  0.98
      L1  H     8    26       P1  7948  1.63
      P1  H  7997  8009       L1     3  1.00

> <Gold.PLP.Chemscore.Internal.Correction>
0.0081

> <Gold.Rescore>
     Score         DG    S(hbond)    S(metal)    S(lipo)     H(rot)  DE(clash)    DE(int)     intcor
     18.86     -18.92       2.74        0.00      58.53       1.00       0.02       0.04       ----

> <Gold.Chemscore.Fitness>
18.8567

> <Gold.Chemscore.DG>
-18.9179

> <Gold.Chemscore.ZeroCoef>
-5.4800

> <Gold.Chemscore.Hbond>
2.7395

> <Gold.Chemscore.Metal>
0.0000

> <Gold.Chemscore.Lipo>
58.5294

> <Gold.Chemscore.Internal_Hbond>
0.0000

> <Gold.Chemscore.DEClash>
0.0175

> <Gold.Chemscore.DEInternal>
0.0438

> <Gold.Chemscore.Rot>
1.0000

> <Gold.Chemscore.Internal.Correction>
   9.000000E+99

> <Gold.Chemscore.Hbonds>
donor molecule, donor type, donor heavy atom, donor atom, acceptor molecule, acceptor atom, score
      L1  H     8    19       P1  7957  0.90
      L1  H     8    26       P1  7948  0.81
      P1  H  7997  8009       L1     3  0.69

> <Gold.Chemscore.Hbond.Weighted>
-9.1500

> <Gold.Chemscore.Metal.Weighted>
-0.0000

> <Gold.Chemscore.Lipo.Weighted>
-6.8479

> <Gold.Chemscore.Internal_Hbond.Weighted>
0.0000

> <Gold.Chemscore.DEClash.Weighted>
0.0175

> <Gold.Chemscore.DEInternal.Weighted>
0.0438

> <Gold.Chemscore.Rot.Weighted>
2.5600

> <Gold.Chemscore.Internal.Correction.Weighted>
   9.000000E+99

> <Gold.Protein.RotatedTorsions>
[ 6907 6896 6895 6894 ] final   59.54 input  -60.11 | X-H torsion
[ 7974 7965 7964 7962 ] final  -20.43 input  175.53 | X-H torsion
[ 8008 7997 7996 7995 ] final -167.83 input   59.86 | X-H torsion
[ 10167 10162 10161 10158 ] final  -30.87 input  -65.29 | X-H torsion
[ 10718 10713 10712 10709 ] final  103.28 input   66.30 | X-H torsion
[ 10763 10752 10751 10750 ] final    5.46 input  -60.55 | X-H torsion
[ 11005 11000 10999 10996 ] final   45.19 input  -57.11 | X-H torsion

> <Gold.Protein.ActiveResidues>
 VAL166  LYS551  ARG553  GLY616  TRP617  ASP618  TYR619  PRO620  LYS621  CYS622 
 ASP623  PHE694  ASN695  SER759  ASP760  ASP761  ALA762  ILE779  LEU786  VAL792 
 PHE793  MET794  SER795  GLU796  ALA797  LYS798  CYS799  TRP800  GLU811  SER814 

> <Gold.Protein.RotatedAtoms>
  152.3923  134.6421  160.0102 H   0  0  0  0  0  0  0  0  0  0  0  0  # atno 6907 bound_to 6896
  151.6651  133.3310  159.3191 H   0  0  0  0  0  0  0  0  0  0  0  0  # atno 6908 bound_to 6896
  150.7837  134.6847  159.6508 H   0  0  0  0  0  0  0  0  0  0  0  0  # atno 6909 bound_to 6896
  146.1788  140.4202  142.8503 H   0  0  0  0  0  0  0  0  0  0  0  0  # atno 7974 bound_to 7965
  155.8831  140.1012  157.1471 H   0  0  0  0  0  0  0  0  0  0  0  0  # atno 8008 bound_to 7997
  154.4007  140.1325  156.4285 H   0  0  0  0  0  0  0  0  0  0  0  0  # atno 8009 bound_to 7997
  155.7620  140.3463  155.5205 H   0  0  0  0  0  0  0  0  0  0  0  0  # atno 8010 bound_to 7997
  140.7244  143.3815  151.1592 H   0  0  0  0  0  0  0  0  0  0  0  0  # atno 10167 bound_to 10162
  157.6777  131.0775  150.5531 H   0  0  0  0  0  0  0  0  0  0  0  0  # atno 10718 bound_to 10713
  153.2591  135.6921  153.7597 H   0  0  0  0  0  0  0  0  0  0  0  0  # atno 10763 bound_to 10752
  153.6663  135.3352  155.3142 H   0  0  0  0  0  0  0  0  0  0  0  0  # atno 10764 bound_to 10752
  154.8423  135.4489  154.1575 H   0  0  0  0  0  0  0  0  0  0  0  0  # atno 10765 bound_to 10752
  140.1483  134.4495  155.8400 H   0  0  0  0  0  0  0  0  0  0  0  0  # atno 11005 bound_to 11000
  144.8280  140.6661  143.6309 LP  0  0  0  0  0  0  0  0  0  0  0  0  # atno 17320 bound_to 7965
  145.4135  139.1576  143.4113 LP  0  0  0  0  0  0  0  0  0  0  0  0  # atno 17321 bound_to 7965
  139.7405  143.8932  152.3048 LP  0  0  0  0  0  0  0  0  0  0  0  0  # atno 17342 bound_to 10162
  139.8752  144.7047  150.8941 LP  0  0  0  0  0  0  0  0  0  0  0  0  # atno 17343 bound_to 10162
  156.5835  130.4310  149.5967 LP  0  0  0  0  0  0  0  0  0  0  0  0  # atno 17370 bound_to 10713
  156.2641  130.6979  151.1757 LP  0  0  0  0  0  0  0  0  0  0  0  0  # atno 17371 bound_to 10713
  141.2195  133.6861  156.7374 LP  0  0  0  0  0  0  0  0  0  0  0  0  # atno 17394 bound_to 11000
  140.2637  134.8447  157.3782 LP  0  0  0  0  0  0  0  0  0  0  0  0  # atno 17395 bound_to 11000

$$$$
