AV-unprocessed.smi:3239|AV-procd|sdf|12380|dock7
  -GOLD-   2272018243D 1   1.00000     0.00000
 Structure written by MMmdl.
 35 35  0  0  0  0  0  0  0  0  1 V2000
  152.1576  143.9381  161.4110 C   0  0  0  0  0  0  0  0  0  0  0  0
  152.5169  142.9501  160.7899 C   0  0  0  0  0  0  0  0  0  0  0  0
  152.9640  141.7558  160.0533 C   0  0  0  0  0  0  0  0  0  0  0  0
  152.2399  141.5645  158.8019 N   0  0  0  0  0  0  0  0  0  0  0  0
  152.3870  140.5181  157.9714 C   0  0  0  0  0  0  0  0  0  0  0  0
  153.1536  139.5794  158.1890 O   0  0  0  0  0  0  0  0  0  0  0  0
  151.4930  140.5160  156.7650 C   0  0  0  0  0  0  0  0  0  0  0  0
  151.4041  139.3978  155.9056 C   0  0  0  0  0  0  0  0  0  0  0  0
  150.5297  139.4493  154.8028 C   0  0  0  0  0  0  0  0  0  0  0  0
  149.7629  140.6142  154.5944 C   0  0  0  0  0  0  0  0  0  0  0  0
  148.8913  140.6537  153.4957 N   0  0  0  0  0  0  0  0  0  0  0  0
  147.4684  140.9439  153.6435 C   0  0  1  0  0  0  0  0  0  0  0  0
  146.7167  139.7271  154.2118 C   0  0  0  0  0  0  0  0  0  0  0  0
  147.2767  142.1868  154.5268 C   0  0  0  0  0  0  0  0  0  0  0  0
  145.9091  142.5618  154.5244 O   0  0  0  0  0  0  0  0  0  0  0  0
  145.6193  143.5557  153.5573 C   0  0  0  0  0  0  0  0  0  0  0  0
  149.8339  141.6837  155.4211 N   0  0  0  0  0  0  0  0  0  0  0  0
  150.6738  141.6296  156.4768 C   0  0  0  0  0  0  0  0  0  0  0  0
  151.8474  144.8019  161.9549 H   0  0  0  0  0  0  0  0  0  0  0  0
  154.0247  141.8753  159.8325 H   0  0  0  0  0  0  0  0  0  0  0  0
  152.8681  140.8858  160.7048 H   0  0  0  0  0  0  0  0  0  0  0  0
  151.5667  142.2748  158.5542 H   0  0  0  0  0  0  0  0  0  0  0  0
  151.9900  138.5072  156.0808 H   0  0  0  0  0  0  0  0  0  0  0  0
  150.4497  138.6056  154.1328 H   0  0  0  0  0  0  0  0  0  0  0  0
  149.2721  140.5933  152.5626 H   0  0  0  0  0  0  0  0  0  0  0  0
  147.0604  141.1814  152.6604 H   0  0  0  0  0  0  0  0  0  0  0  0
  145.6493  139.9306  154.3000 H   0  0  0  0  0  0  0  0  0  0  0  0
  147.0859  139.4599  155.2024 H   0  0  0  0  0  0  0  0  0  0  0  0
  146.8267  138.8525  153.5704 H   0  0  0  0  0  0  0  0  0  0  0  0
  147.6163  141.9891  155.5452 H   0  0  0  0  0  0  0  0  0  0  0  0
  147.8735  143.0139  154.1380 H   0  0  0  0  0  0  0  0  0  0  0  0
  144.5590  143.8052  153.5950 H   0  0  0  0  0  0  0  0  0  0  0  0
  145.8467  143.2044  152.5500 H   0  0  0  0  0  0  0  0  0  0  0  0
  146.1867  144.4677  153.7471 H   0  0  0  0  0  0  0  0  0  0  0  0
  150.6908  142.5087  157.1045 H   0  0  0  0  0  0  0  0  0  0  0  0
  1  2  3  0  0  0  0
  1 19  1  0  0  0  0
  2  3  1  0  0  0  0
  3  4  1  0  0  0  0
  3 20  1  0  0  0  0
  3 21  1  0  0  0  0
  4  5  1  0  0  0  0
  4 22  1  0  0  0  0
  5  6  2  0  0  0  0
  5  7  1  0  0  0  0
  7 18  1  0  0  0  0
  7  8  2  0  0  0  0
  8  9  1  0  0  0  0
  8 23  1  0  0  0  0
  9 10  2  0  0  0  0
  9 24  1  0  0  0  0
 10 11  1  0  0  0  0
 10 17  1  0  0  0  0
 11 12  1  0  0  0  0
 11 25  1  0  0  0  0
 12 13  1  0  0  0  0
 12 14  1  0  0  0  0
 12 26  1  0  0  0  0
 13 27  1  0  0  0  0
 13 28  1  0  0  0  0
 13 29  1  0  0  0  0
 14 15  1  0  0  0  0
 14 30  1  0  0  0  0
 14 31  1  0  0  0  0
 15 16  1  0  0  0  0
 16 32  1  0  0  0  0
 16 33  1  0  0  0  0
 16 34  1  0  0  0  0
 17 18  2  0  0  0  0
 18 35  1  0  0  0  0
M  END
> <s_m_source_file>
AV-unprocessed.smi

> <i_m_source_file_index>
3239

> <i_lp_mmshare_version>
43012

> <i_f3d_flags>
0

> <s_epik_input>
W0NIXSNDW0NIMl1bTkhdQyg9TyljMVtjSF1bY0hdYyhuW2NIXTEpW05IXVtDQEhdKFtDSDNdKVtDSDJdT1tDSDNd

> <s_epik_cmdline>
J2VwaWtfcHl0aG9uJywgJy1waCcsICc3LjAnLCAnLXRuJywgJzgnLCAnLW1hJywgJzIwMCcsICctbWV0YWxfYmluZGluZycsICctaW1hZScsICc8aW5maWxlLm1hZT4nLCAnLW9tYWUnLCAnPG91dGZpbGUubWFlPic=

> <r_lp_tautomer_probability>
1

> <r_epik_Ionization_Penalty>
0.00321854

> <r_epik_Ionization_Penalty_Charging>
0

> <r_epik_Ionization_Penalty_Neutral>
0.00321854

> <r_epik_State_Penalty>
0.00226446

> <r_epik_Charging_Adjusted_Penalty>
0.00226446

> <i_epik_Tot_Q>
0

> <i_epik_Tot_abs_Q>
0

> <r_epik_Metal_State_Penalty>
-0

> <b_epik_Metal_Only>
0

> <s_lp_Force_Field>
OPLS_2005

> <r_lp_Energy>
6.06936

> <b_lp_Chiralities_Consistent>
1

> <s_lp_Variant>
AV-unprocessed.smi:3239-2

> <Gold.Version>
5.8.1

> <Gold.Id.Protein>
6NUR|6NUR_protein|mol2

> <Gold.PLP.Fitness>
43.3361

> <Gold.PLP.PLP>
-39.1385

> <Gold.PLP.part.hbond>
-1.9680

> <Gold.PLP.part.metal>
0.0000

> <Gold.PLP.part.buried>
-3.1936

> <Gold.PLP.part.nonpolar>
-34.3069

> <Gold.PLP.part.repulsive>
0.5964

> <Gold.PLP.ligand.clash>
0.0000

> <Gold.PLP.ligand.torsion>
0.9470

> <Gold.PLP.Chemscore.Hbond>
2.0000

> <Gold.PLP.Chemscore.CHOScore>
0.0000

> <Gold.PLP.Chemscore.Metal>
0.0000

> <Gold.Chemscore.Hbonds>
donor molecule, donor type, donor heavy atom, donor atom, acceptor molecule, acceptor atom, score
      L1  H    11    25       P1  7957  1.00
      P1  H  7997  8009       L1     6  1.00

> <Gold.PLP.Chemscore.Internal.Correction>
0.0916

> <Gold.Rescore>
     Score         DG    S(hbond)    S(metal)    S(lipo)     H(rot)  DE(clash)    DE(int)     intcor
     14.47     -16.93       1.77        0.00      82.71       1.62       0.21       2.25       ----

> <Gold.Chemscore.Fitness>
14.4681

> <Gold.Chemscore.DG>
-16.9315

> <Gold.Chemscore.ZeroCoef>
-5.4800

> <Gold.Chemscore.Hbond>
1.7723

> <Gold.Chemscore.Metal>
0.0000

> <Gold.Chemscore.Lipo>
82.7080

> <Gold.Chemscore.Internal_Hbond>
0.0000

> <Gold.Chemscore.DEClash>
0.2099

> <Gold.Chemscore.DEInternal>
2.2535

> <Gold.Chemscore.Rot>
1.6190

> <Gold.Chemscore.Internal.Correction>
   9.000000E+99

> <Gold.Chemscore.Hbonds>
donor molecule, donor type, donor heavy atom, donor atom, acceptor molecule, acceptor atom, score
      L1  H    11    25       P1  7957  0.94
      P1  H  7997  8009       L1     6  0.47

> <Gold.Chemscore.Hbond.Weighted>
-5.9193

> <Gold.Chemscore.Metal.Weighted>
-0.0000

> <Gold.Chemscore.Lipo.Weighted>
-9.6768

> <Gold.Chemscore.Internal_Hbond.Weighted>
0.0000

> <Gold.Chemscore.DEClash.Weighted>
0.2099

> <Gold.Chemscore.DEInternal.Weighted>
2.2535

> <Gold.Chemscore.Rot.Weighted>
4.1447

> <Gold.Chemscore.Internal.Correction.Weighted>
   9.000000E+99

> <Gold.Protein.RotatedTorsions>
[ 6907 6896 6895 6894 ] final   53.63 input  -60.11 | X-H torsion
[ 7974 7965 7964 7962 ] final  -45.23 input  175.53 | X-H torsion
[ 8008 7997 7996 7995 ] final  138.30 input   59.86 | X-H torsion
[ 10167 10162 10161 10158 ] final  154.78 input  -65.29 | X-H torsion
[ 10718 10713 10712 10709 ] final   -4.20 input   66.30 | X-H torsion
[ 10763 10752 10751 10750 ] final   -8.97 input  -60.55 | X-H torsion
[ 11005 11000 10999 10996 ] final  140.46 input  -57.11 | X-H torsion

> <Gold.Protein.ActiveResidues>
 VAL166  LYS551  ARG553  GLY616  TRP617  ASP618  TYR619  PRO620  LYS621  CYS622 
 ASP623  PHE694  ASN695  SER759  ASP760  ASP761  ALA762  ILE779  LEU786  VAL792 
 PHE793  MET794  SER795  GLU796  ALA797  LYS798  CYS799  TRP800  GLU811  SER814 

> <Gold.Protein.RotatedAtoms>
  152.3356  134.7202  160.0277 H   0  0  0  0  0  0  0  0  0  0  0  0  # atno 6907 bound_to 6896
  151.7604  133.3328  159.3424 H   0  0  0  0  0  0  0  0  0  0  0  0  # atno 6908 bound_to 6896
  150.7449  134.6043  159.6097 H   0  0  0  0  0  0  0  0  0  0  0  0  # atno 6909 bound_to 6896
  145.9841  140.7252  142.9349 H   0  0  0  0  0  0  0  0  0  0  0  0  # atno 7974 bound_to 7965
  156.2998  140.2397  156.4051 H   0  0  0  0  0  0  0  0  0  0  0  0  # atno 8008 bound_to 7997
  154.8491  140.0425  157.1612 H   0  0  0  0  0  0  0  0  0  0  0  0  # atno 8009 bound_to 7997
  154.9018  140.2978  155.5317 H   0  0  0  0  0  0  0  0  0  0  0  0  # atno 8010 bound_to 7997
  139.4822  144.5157  151.7955 H   0  0  0  0  0  0  0  0  0  0  0  0  # atno 10167 bound_to 10162
  156.7648  130.5281  149.5778 H   0  0  0  0  0  0  0  0  0  0  0  0  # atno 10718 bound_to 10713
  153.4481  135.7014  153.6126 H   0  0  0  0  0  0  0  0  0  0  0  0  # atno 10763 bound_to 10752
  153.4472  135.3766  155.2263 H   0  0  0  0  0  0  0  0  0  0  0  0  # atno 10764 bound_to 10752
  154.8728  135.3988  154.3890 H   0  0  0  0  0  0  0  0  0  0  0  0  # atno 10765 bound_to 10752
  140.0329  134.9343  157.0697 H   0  0  0  0  0  0  0  0  0  0  0  0  # atno 11005 bound_to 11000
  144.6870  140.2958  143.7271 LP  0  0  0  0  0  0  0  0  0  0  0  0  # atno 17320 bound_to 7965
  145.7726  139.1862  143.2203 LP  0  0  0  0  0  0  0  0  0  0  0  0  # atno 17321 bound_to 7965
  140.4665  144.1648  150.5912 LP  0  0  0  0  0  0  0  0  0  0  0  0  # atno 17342 bound_to 10162
  140.4428  143.2519  151.9450 LP  0  0  0  0  0  0  0  0  0  0  0  0  # atno 17343 bound_to 10162
  156.1316  130.6181  151.0341 LP  0  0  0  0  0  0  0  0  0  0  0  0  # atno 17370 bound_to 10713
  157.6718  131.0859  150.7593 LP  0  0  0  0  0  0  0  0  0  0  0  0  # atno 17371 bound_to 10713
  140.4196  134.1895  155.7164 LP  0  0  0  0  0  0  0  0  0  0  0  0  # atno 17394 bound_to 11000
  141.1841  133.8351  157.1152 LP  0  0  0  0  0  0  0  0  0  0  0  0  # atno 17395 bound_to 11000

$$$$
