#       Name:                AV-unprocessed.smi:1965
#       Creating user name   scv26
#       Creation time:       Fri Mar 27 10:10:27 2020


#       File generated by GOLD software.
#

@<TRIPOS>MOLECULE
AV-unprocessed.smi:1965
    40    42     1
SMALL
NO_CHARGES


@<TRIPOS>ATOM
      1 ****        -1.8339  -2.3737   0.0928 O.2            1 S1                 0.0000
      2 ****        -0.6789  -2.3751  -0.3290 C.2            1 S1                 0.0000
      3 ****         0.0453  -3.5138  -0.3722 N.am           1 S1                 0.0000
      4 ****        -0.2709  -4.8507   0.0083 C.2            1 S1                 0.0000
      5 ****        -1.4710  -5.2717   0.4290 N.2            1 S1                 0.0000
      6 ****        -1.4803  -6.6388   0.7173 C.2            1 S1                 0.0000
      7 ****        -0.2712  -7.2517   0.5037 C.2            1 S1                 0.0000
      8 ****         0.9328  -6.1297  -0.0711 S.3            1 S1                 0.0000
      9 ****        -0.0684  -1.2644  -0.7737 N.am           1 S1                 0.0000
     10 ****        -0.6566   0.0702  -0.8205 C.3            1 S1                 0.0000
     11 ****        -0.0979   0.9280  -1.9493 C.3            1 S1                 0.0000
     12 ****        -0.4582   2.3415  -1.4894 C.3            1 S1                 0.0000
     13 ****        -0.3743   2.3227  -0.0108 N.4            1 S1                 1.0000
     14 ****        -1.3710   3.1817   0.6745 C.3            1 S1                 0.0000
     15 ****        -1.1942   3.1099   2.2027 C.3            1 S1                 0.0000
     16 ****        -1.1164   1.6638   2.7359 C.3            1 S1                 0.0000
     17 ****        -1.2860   0.6182   1.6227 C.3            1 S1                 0.0000
     18 ****        -0.3387   0.9005   0.4345 C.3            1 S1                 0.0000
     19 ****         0.9705  -3.4033  -0.7619 H              1 S1                 0.0000
     20 ****        -2.3937  -7.0960   1.0692 H              1 S1                 0.0000
     21 ****        -0.0170  -8.2914   0.6481 H              1 S1                 0.0000
     22 ****         0.8820  -1.3567  -1.1044 H              1 S1                 0.0000
     23 ****        -1.7383   0.0039  -0.9570 H              1 S1                 0.0000
     24 ****         0.9863   0.8204  -2.0114 H              1 S1                 0.0000
     25 ****        -0.5208   0.6792  -2.9233 H              1 S1                 0.0000
     26 ****         0.1982   3.1003  -1.9159 H              1 S1                 0.0000
     27 ****        -1.4786   2.5705  -1.8015 H              1 S1                 0.0000
     28 ****        -1.2589   4.2116   0.3337 H              1 S1                 0.0000
     29 ****        -2.3791   2.8680   0.3983 H              1 S1                 0.0000
     30 ****        -0.2849   3.6420   2.4852 H              1 S1                 0.0000
     31 ****        -2.0141   3.6410   2.6877 H              1 S1                 0.0000
     32 ****        -0.1509   1.5139   3.2210 H              1 S1                 0.0000
     33 ****        -1.8694   1.5070   3.5089 H              1 S1                 0.0000
     34 ****        -1.1015  -0.3796   2.0217 H              1 S1                 0.0000
     35 ****        -2.3230   0.6192   1.2840 H              1 S1                 0.0000
     36 ****         0.6898   0.7090   0.7455 H              1 S1                 0.0000
     37 ****         0.5320   2.6987   0.2287 H              1 S1                 0.0000
     38 ****        -2.2511  -3.2250   0.4108 LP             1 S1                 0.0000
     39 ****        -2.3560  -1.5212   0.1178 LP             1 S1                 0.0000
     40 ****        -2.2685  -4.6761   0.5255 LP             1 S1                 0.0000
@<TRIPOS>BOND
    1    1    2 2     
    2    2    3 am    
    3    2    9 am    
    4    3    4 1     
    5    3   19 1     
    6    4    8 1     
    7    4    5 2     
    8    5    6 1     
    9    6    7 2     
   10    6   20 1     
   11    7    8 1     
   12    7   21 1     
   13    9   10 1     
   14    9   22 1     
   15   10   18 1     
   16   10   11 1     
   17   10   23 1     
   18   11   12 1     
   19   11   24 1     
   20   11   25 1     
   21   12   13 1     
   22   12   26 1     
   23   12   27 1     
   24   13   18 1     
   25   13   14 1     
   26   13   37 1     
   27   14   15 1     
   28   14   28 1     
   29   14   29 1     
   30   15   16 1     
   31   15   30 1     
   32   15   31 1     
   33   16   17 1     
   34   16   32 1     
   35   16   33 1     
   36   17   18 1     
   37   17   34 1     
   38   17   35 1     
   39   18   36 1     
   40    1   38 1     
   41    1   39 1     
   42    5   40 1     
@<TRIPOS>SUBSTRUCTURE
      1 S1             1
@<TRIPOS>SET
LONE_PAIRS      STATIC     ATOMS    <user>   **** ""
3 38 39 40
DONOR_HYDROGENS      STATIC     ATOMS    <user>   **** ""
3 19 22 37
ATOM$BLUE        STATIC     ATOMS    COLORGROUP SYSTEM
3 38 39 40
ATOM$RED        STATIC     ATOMS    COLORGROUP SYSTEM
3 19 22 37
