AV-unprocessed.smi:2038|AV-procd|sdf|8281|dock10
  -GOLD-   2272010553D 1   1.00000     0.00000
 Structure written by MMmdl.
 33 34  0  0  0  0  0  0  0  0  1 V2000
  150.7098  139.6103  154.1376 O   0  0  0  0  0  0  0  0  0  0  0  0
  149.8069  140.1575  154.7711 C   0  0  0  0  0  0  0  0  0  0  0  0
  149.8955  140.5243  156.0628 N   0  0  0  0  0  0  0  0  0  0  0  0
  150.9877  140.3533  156.9554 C   0  0  0  0  0  0  0  0  0  0  0  0
  150.9841  141.0881  158.1580 C   0  0  0  0  0  0  0  0  0  0  0  0
  152.0448  140.9209  159.0681 C   0  0  0  0  0  0  0  0  0  0  0  0
  153.0740  140.0122  158.7516 C   0  0  0  0  0  0  0  0  0  0  0  0
  154.1116  139.8528  159.6467 O   0  0  0  0  0  0  0  0  0  0  0  0
  154.0967  140.6190  160.8484 C   0  0  0  0  0  0  0  0  0  0  0  0
  155.1047  140.0254  161.8394 C   0  0  0  0  0  0  0  0  0  0  0  0
  156.3122  139.9981  161.2763 F   0  0  0  0  0  0  0  0  0  0  0  0
  155.1637  140.7738  162.9405 F   0  0  0  0  0  0  0  0  0  0  0  0
  154.7552  138.7806  162.1623 F   0  0  0  0  0  0  0  0  0  0  0  0
  153.0787  139.2880  157.6054 N   0  0  0  0  0  0  0  0  0  0  0  0
  152.0597  139.4547  156.7353 C   0  0  0  0  0  0  0  0  0  0  0  0
  148.4753  140.4726  154.0793 C   0  0  1  0  0  0  0  0  0  0  0  0
  147.2382  140.1987  154.9552 C   0  0  0  0  0  0  0  0  0  0  0  0
  146.7198  141.5838  155.2878 C   0  0  0  0  0  0  0  0  0  0  0  0
  147.1504  142.3783  154.0637 C   0  0  0  0  0  0  0  0  0  0  0  0
  148.4466  141.8695  153.7899 O   0  0  0  0  0  0  0  0  0  0  0  0
  149.1092  141.0405  156.4302 H   0  0  0  0  0  0  0  0  0  0  0  0
  150.1823  141.7767  158.3813 H   0  0  0  0  0  0  0  0  0  0  0  0
  152.0681  141.4784  159.9928 H   0  0  0  0  0  0  0  0  0  0  0  0
  154.3581  141.6574  160.6371 H   0  0  0  0  0  0  0  0  0  0  0  0
  153.0991  140.6091  161.2910 H   0  0  0  0  0  0  0  0  0  0  0  0
  152.1089  138.8288  155.8578 H   0  0  0  0  0  0  0  0  0  0  0  0
  148.3931  139.9149  153.1447 H   0  0  0  0  0  0  0  0  0  0  0  0
  146.4935  139.6511  154.3760 H   0  0  0  0  0  0  0  0  0  0  0  0
  147.4463  139.6137  155.8523 H   0  0  0  0  0  0  0  0  0  0  0  0
  145.6434  141.6098  155.4591 H   0  0  0  0  0  0  0  0  0  0  0  0
  147.2201  141.9683  156.1777 H   0  0  0  0  0  0  0  0  0  0  0  0
  146.4922  142.1779  153.2169 H   0  0  0  0  0  0  0  0  0  0  0  0
  147.1694  143.4535  154.2422 H   0  0  0  0  0  0  0  0  0  0  0  0
  1  2  2  0  0  0  0
  2  3  1  0  0  0  0
  2 16  1  0  0  0  0
  3  4  1  0  0  0  0
  3 21  1  0  0  0  0
  4 15  1  0  0  0  0
  4  5  2  0  0  0  0
  5  6  1  0  0  0  0
  5 22  1  0  0  0  0
  6  7  2  0  0  0  0
  6 23  1  0  0  0  0
  7  8  1  0  0  0  0
  7 14  1  0  0  0  0
  8  9  1  0  0  0  0
  9 10  1  0  0  0  0
  9 24  1  0  0  0  0
  9 25  1  0  0  0  0
 10 11  1  0  0  0  0
 10 12  1  0  0  0  0
 10 13  1  0  0  0  0
 14 15  2  0  0  0  0
 15 26  1  0  0  0  0
 16 20  1  0  0  0  0
 16 17  1  0  0  0  0
 16 27  1  0  0  0  0
 17 18  1  0  0  0  0
 17 28  1  0  0  0  0
 17 29  1  0  0  0  0
 18 19  1  0  0  0  0
 18 30  1  0  0  0  0
 18 31  1  0  0  0  0
 19 20  1  0  0  0  0
 19 32  1  0  0  0  0
 19 33  1  0  0  0  0
M  END
> <s_m_source_file>
AV-unprocessed.smi

> <i_m_source_file_index>
2038

> <i_lp_mmshare_version>
43012

> <i_f3d_flags>
0

> <s_epik_input>
TzFbQ0gyXVtDSDJdW0NIMl1bQ0BIXTFDKD1PKVtOSF1jMltjSF1bY0hdYyhuW2NIXTIpT1tDSDJdQyhGKShGKUY=

> <s_epik_cmdline>
J2VwaWtfcHl0aG9uJywgJy1waCcsICc3LjAnLCAnLXRuJywgJzgnLCAnLW1hJywgJzIwMCcsICctbWV0YWxfYmluZGluZycsICctaW1hZScsICc8aW5maWxlLm1hZT4nLCAnLW9tYWUnLCAnPG91dGZpbGUubWFlPic=

> <r_lp_tautomer_probability>
1

> <r_epik_Ionization_Penalty>
2.73305e-06

> <r_epik_Ionization_Penalty_Charging>
0

> <r_epik_Ionization_Penalty_Neutral>
2.73305e-06

> <r_epik_State_Penalty>
-0

> <r_epik_Charging_Adjusted_Penalty>
0

> <i_epik_Tot_Q>
0

> <i_epik_Tot_abs_Q>
0

> <r_epik_Metal_State_Penalty>
-0

> <b_epik_Metal_Only>
0

> <s_lp_Force_Field>
OPLS_2005

> <r_lp_Energy>
22.8429

> <b_lp_Chiralities_Consistent>
1

> <s_lp_Variant>
AV-unprocessed.smi:2038-2

> <Gold.Version>
5.8.1

> <Gold.Id.Protein>
6NUR|6NUR_protein|mol2

> <Gold.PLP.Fitness>
36.4335

> <Gold.PLP.PLP>
-30.8362

> <Gold.PLP.part.hbond>
-3.0000

> <Gold.PLP.part.metal>
0.0000

> <Gold.PLP.part.buried>
-0.0853

> <Gold.PLP.part.nonpolar>
-26.2248

> <Gold.PLP.part.repulsive>
0.4064

> <Gold.PLP.ligand.clash>
0.6082

> <Gold.PLP.ligand.torsion>
0.5983

> <Gold.PLP.Chemscore.Hbond>
2.4594

> <Gold.PLP.Chemscore.CHOScore>
0.0000

> <Gold.PLP.Chemscore.Metal>
0.0000

> <Gold.Chemscore.Hbonds>
donor molecule, donor type, donor heavy atom, donor atom, acceptor molecule, acceptor atom, score
      P1  H  7989  7998       L1     1  1.00
      P1  H  7997  8009       L1    14  1.00
      P1  H  8011  8017       L1    20  0.48

> <Gold.PLP.Chemscore.Internal.Correction>
0.0239

> <Gold.Rescore>
     Score         DG    S(hbond)    S(metal)    S(lipo)     H(rot)  DE(clash)    DE(int)     intcor
     11.20     -13.33       1.60        0.00      58.39       1.69       0.06       2.07       ----

> <Gold.Chemscore.Fitness>
11.1964

> <Gold.Chemscore.DG>
-13.3270

> <Gold.Chemscore.ZeroCoef>
-5.4800

> <Gold.Chemscore.Hbond>
1.6007

> <Gold.Chemscore.Metal>
0.0000

> <Gold.Chemscore.Lipo>
58.3947

> <Gold.Chemscore.Internal_Hbond>
0.0000

> <Gold.Chemscore.DEClash>
0.0633

> <Gold.Chemscore.DEInternal>
2.0673

> <Gold.Chemscore.Rot>
1.6919

> <Gold.Chemscore.Internal.Correction>
   9.000000E+99

> <Gold.Chemscore.Hbonds>
donor molecule, donor type, donor heavy atom, donor atom, acceptor molecule, acceptor atom, score
      P1  H  7989  7998       L1     1  0.55
      P1  H  7997  8009       L1    14  0.10
      P1  H  8011  8017       L1    20  0.40

> <Gold.Chemscore.Hbond.Weighted>
-5.3462

> <Gold.Chemscore.Metal.Weighted>
-0.0000

> <Gold.Chemscore.Lipo.Weighted>
-6.8322

> <Gold.Chemscore.Internal_Hbond.Weighted>
0.0000

> <Gold.Chemscore.DEClash.Weighted>
0.0633

> <Gold.Chemscore.DEInternal.Weighted>
2.0673

> <Gold.Chemscore.Rot.Weighted>
4.3313

> <Gold.Chemscore.Internal.Correction.Weighted>
   9.000000E+99

> <Gold.Protein.RotatedTorsions>
[ 6907 6896 6895 6894 ] final   39.00 input  -60.11 | X-H torsion
[ 7974 7965 7964 7962 ] final  -29.80 input  175.53 | X-H torsion
[ 8008 7997 7996 7995 ] final  172.53 input   59.86 | X-H torsion
[ 10167 10162 10161 10158 ] final   62.72 input  -65.29 | X-H torsion
[ 10718 10713 10712 10709 ] final   22.85 input   66.30 | X-H torsion
[ 10763 10752 10751 10750 ] final   72.49 input  -60.55 | X-H torsion
[ 11005 11000 10999 10996 ] final   46.39 input  -57.11 | X-H torsion

> <Gold.Protein.ActiveResidues>
 VAL166  LYS551  ARG553  GLY616  TRP617  ASP618  TYR619  PRO620  LYS621  CYS622 
 ASP623  PHE694  ASN695  SER759  ASP760  ASP761  ALA762  ILE779  LEU786  VAL792 
 PHE793  MET794  SER795  GLU796  ALA797  LYS798  CYS799  TRP800  GLU811  SER814 

> <Gold.Protein.RotatedAtoms>
  152.1639  134.8890  160.0539 H   0  0  0  0  0  0  0  0  0  0  0  0  # atno 6907 bound_to 6896
  151.9875  133.3774  159.4140 H   0  0  0  0  0  0  0  0  0  0  0  0  # atno 6908 bound_to 6896
  150.6891  134.3895  159.5113 H   0  0  0  0  0  0  0  0  0  0  0  0  # atno 6909 bound_to 6896
  146.1190  140.5458  142.8744 H   0  0  0  0  0  0  0  0  0  0  0  0  # atno 7974 bound_to 7965
  156.1165  140.1483  156.9265 H   0  0  0  0  0  0  0  0  0  0  0  0  # atno 8008 bound_to 7997
  154.4804  140.0881  156.7406 H   0  0  0  0  0  0  0  0  0  0  0  0  # atno 8009 bound_to 7997
  155.4504  140.3434  155.4302 H   0  0  0  0  0  0  0  0  0  0  0  0  # atno 8010 bound_to 7997
  140.1409  144.4554  150.6812 H   0  0  0  0  0  0  0  0  0  0  0  0  # atno 10167 bound_to 10162
  157.1580  130.6704  149.6034 H   0  0  0  0  0  0  0  0  0  0  0  0  # atno 10718 bound_to 10713
  153.0462  135.5098  154.7752 H   0  0  0  0  0  0  0  0  0  0  0  0  # atno 10763 bound_to 10752
  154.6650  135.2944  154.9820 H   0  0  0  0  0  0  0  0  0  0  0  0  # atno 10764 bound_to 10752
  154.0658  135.6684  153.4870 H   0  0  0  0  0  0  0  0  0  0  0  0  # atno 10765 bound_to 10752
  140.1373  134.4628  155.8476 H   0  0  0  0  0  0  0  0  0  0  0  0  # atno 11005 bound_to 11000
  144.7580  140.5353  143.6755 LP  0  0  0  0  0  0  0  0  0  0  0  0  # atno 17320 bound_to 7965
  145.5506  139.1476  143.3396 LP  0  0  0  0  0  0  0  0  0  0  0  0  # atno 17321 bound_to 7965
  140.6761  143.2306  151.5504 LP  0  0  0  0  0  0  0  0  0  0  0  0  # atno 17342 bound_to 10162
  139.5472  144.2489  152.1465 LP  0  0  0  0  0  0  0  0  0  0  0  0  # atno 17343 bound_to 10162
  155.9759  130.4721  150.6489 LP  0  0  0  0  0  0  0  0  0  0  0  0  # atno 17370 bound_to 10713
  157.4159  131.0830  151.1177 LP  0  0  0  0  0  0  0  0  0  0  0  0  # atno 17371 bound_to 10713
  141.2180  133.6819  156.7181 LP  0  0  0  0  0  0  0  0  0  0  0  0  # atno 17394 bound_to 11000
  140.2766  134.8350  157.3896 LP  0  0  0  0  0  0  0  0  0  0  0  0  # atno 17395 bound_to 11000

$$$$
