#       Name:                AV-unprocessed.smi:983
#       Creating user name   scv26
#       Creation time:       Fri Mar 27 02:22:17 2020


#       File generated by GOLD software.
#

@<TRIPOS>MOLECULE
AV-unprocessed.smi:983
    39    40     1
SMALL
NO_CHARGES


@<TRIPOS>ATOM
      1 ****        -6.0590  -0.0443  -1.2120 C.3            1 S1                 0.0000
      2 ****        -4.5448  -0.0205  -1.2465 C.2            1 S1                 0.0000
      3 ****        -3.8290   1.2128  -1.4994 C.2            1 S1                 0.0000
      4 ****        -2.4874   1.1960  -1.5268 C.2            1 S1                 0.0000
      5 ****        -1.7542   0.0140  -1.3158 N.am           1 S1                 0.0000
      6 ****        -0.2860   0.1136  -1.3619 C.3            1 S1                 0.0000
      7 ****         0.3515   0.2246   0.0301 C.2            1 S1                 0.0000
      8 ****        -0.2562   0.7591   0.9587 O.2            1 S1                 0.0000
      9 ****         1.5934  -0.2678   0.1525 N.am           1 S1                 0.0000
     10 ****         2.3774  -0.2615   1.3844 C.3            1 S1                 0.0000
     11 ****         3.0479   1.1056   1.6278 C.3            1 S1                 0.0000
     12 ****         4.4971   0.8001   2.0070 C.3            1 S1                 0.0000
     13 ****         4.8180  -0.4845   1.2497 C.3            1 S1                 0.0000
     14 ****         3.5200  -1.2916   1.3101 C.3            1 S1                 0.0000
     15 ****        -2.3683  -1.1816  -1.0671 C.2            1 S1                 0.0000
     16 ****        -1.7318  -2.2183  -0.8757 O.2            1 S1                 0.0000
     17 ****        -3.8353  -1.1524  -1.0427 C.2            1 S1                 0.0000
     18 ****        -6.4702   0.9642  -1.2617 H              1 S1                 0.0000
     19 ****        -6.4122  -0.5097  -0.2914 H              1 S1                 0.0000
     20 ****        -6.4475  -0.6136  -2.0567 H              1 S1                 0.0000
     21 ****        -4.3641   2.1373  -1.6607 H              1 S1                 0.0000
     22 ****        -1.8936   2.0813  -1.7026 H              1 S1                 0.0000
     23 ****         0.1310  -0.7460  -1.8906 H              1 S1                 0.0000
     24 ****         0.0211   0.9831  -1.9446 H              1 S1                 0.0000
     25 ****         2.0234  -0.6836  -0.6609 H              1 S1                 0.0000
     26 ****         1.7333  -0.5176   2.2279 H              1 S1                 0.0000
     27 ****         3.0416   1.7035   0.7148 H              1 S1                 0.0000
     28 ****         2.5353   1.6857   2.3957 H              1 S1                 0.0000
     29 ****         5.1770   1.6158   1.7605 H              1 S1                 0.0000
     30 ****         4.5664   0.6206   3.0807 H              1 S1                 0.0000
     31 ****         5.0568  -0.2487   0.2119 H              1 S1                 0.0000
     32 ****         5.6668  -1.0219   1.6736 H              1 S1                 0.0000
     33 ****         3.5157  -1.8970   2.2175 H              1 S1                 0.0000
     34 ****         3.4294  -1.9799   0.4685 H              1 S1                 0.0000
     35 ****        -4.3632  -2.0759  -0.8536 H              1 S1                 0.0000
     36 ****        -1.1744   1.1261   0.8098 LP             1 S1                 0.0000
     37 ****         0.1687   0.8260   1.8615 LP             1 S1                 0.0000
     38 ****        -0.7322  -2.2029  -0.8995 LP             1 S1                 0.0000
     39 ****        -2.2145  -3.0756  -0.6965 LP             1 S1                 0.0000
@<TRIPOS>BOND
    1    1    2 1     
    2    1   18 1     
    3    1   19 1     
    4    1   20 1     
    5    2   17 2     
    6    2    3 1     
    7    3    4 2     
    8    3   21 1     
    9    4    5 1     
   10    4   22 1     
   11    5    6 1     
   12    5   15 am    
   13    6    7 1     
   14    6   23 1     
   15    6   24 1     
   16    7    8 2     
   17    7    9 am    
   18    9   10 1     
   19    9   25 1     
   20   10   14 1     
   21   10   11 1     
   22   10   26 1     
   23   11   12 1     
   24   11   27 1     
   25   11   28 1     
   26   12   13 1     
   27   12   29 1     
   28   12   30 1     
   29   13   14 1     
   30   13   31 1     
   31   13   32 1     
   32   14   33 1     
   33   14   34 1     
   34   15   16 2     
   35   15   17 1     
   36   17   35 1     
   37    8   36 1     
   38    8   37 1     
   39   16   38 1     
   40   16   39 1     
@<TRIPOS>SUBSTRUCTURE
      1 S1             1
@<TRIPOS>SET
LONE_PAIRS      STATIC     ATOMS    <user>   **** ""
4 36 37 38 39
DONOR_HYDROGENS      STATIC     ATOMS    <user>   **** ""
1 25
ATOM$BLUE        STATIC     ATOMS    COLORGROUP SYSTEM
4 36 37 38 39
ATOM$RED        STATIC     ATOMS    COLORGROUP SYSTEM
1 25
