AV-unprocessed.smi:2822|AV-procd|sdf|10864|dock7
  -GOLD-   2272015313D 1   1.00000     0.00000
 Structure written by MMmdl.
 41 43  0  0  0  0  0  0  0  0  3 V2000
  153.5423  140.8708  160.2327 Cl  0  0  0  0  0  0  0  0  0  0  0  0
  152.6417  142.3338  160.4279 C   0  0  0  0  0  0  0  0  0  0  0  0
  152.7025  143.0212  161.6579 C   0  0  0  0  0  0  0  0  0  0  0  0
  152.0039  144.1633  161.8289 N   0  3  0  0  0  0  0  0  0  0  0  0
  151.2318  144.6975  160.8594 C   0  0  0  0  0  0  0  0  0  0  0  0
  151.1315  144.0571  159.6075 C   0  0  0  0  0  0  0  0  0  0  0  0
  151.8436  142.8529  159.3783 C   0  0  0  0  0  0  0  0  0  0  0  0
  151.7848  142.1677  158.1546 N   0  0  0  0  0  0  0  0  0  0  0  0
  150.6835  142.3864  157.2285 C   0  0  0  0  0  0  0  0  0  0  0  0
  150.8343  141.5378  155.9574 C   0  0  2  0  0  0  0  0  0  0  0  0
  149.4653  141.1571  155.3644 C   0  0  0  0  0  0  0  0  0  0  0  0
  149.6345  140.2671  154.1889 N   0  3  2  0  0  0  0  0  0  0  0  0
  148.3575  139.9010  153.5221 C   0  0  0  0  0  0  0  0  0  0  0  0
  147.5629  138.8502  154.3210 C   0  0  0  0  0  0  0  0  0  0  0  0
  148.4230  137.6137  154.6145 C   0  0  0  0  0  0  0  0  0  0  0  0
  149.7281  138.0229  155.3115 C   0  0  0  0  0  0  0  0  0  0  0  0
  150.4894  139.0850  154.4875 C   0  0  2  0  0  0  0  0  0  0  0  0
  151.8008  139.5327  155.1624 C   0  0  0  0  0  0  0  0  0  0  0  0
  151.5210  140.3388  156.3008 O   0  0  0  0  0  0  0  0  0  0  0  0
  153.2859  142.6922  162.5055 H   0  0  0  0  0  0  0  0  0  0  0  0
  150.7210  145.6156  161.1112 H   0  0  0  0  0  0  0  0  0  0  0  0
  150.5119  144.5025  158.8437 H   0  0  0  0  0  0  0  0  0  0  0  0
  152.3561  141.3432  158.0319 H   0  0  0  0  0  0  0  0  0  0  0  0
  149.7353  142.1615  157.7191 H   0  0  0  0  0  0  0  0  0  0  0  0
  150.6676  143.4428  156.9572 H   0  0  0  0  0  0  0  0  0  0  0  0
  151.4099  142.0976  155.2172 H   0  0  0  0  0  0  0  0  0  0  0  0
  148.8553  140.6705  156.1255 H   0  0  0  0  0  0  0  0  0  0  0  0
  148.9300  142.0573  155.0600 H   0  0  0  0  0  0  0  0  0  0  0  0
  147.7530  140.7938  153.3576 H   0  0  0  0  0  0  0  0  0  0  0  0
  148.5902  139.5031  152.5336 H   0  0  0  0  0  0  0  0  0  0  0  0
  147.2041  139.2797  155.2566 H   0  0  0  0  0  0  0  0  0  0  0  0
  146.6738  138.5568  153.7621 H   0  0  0  0  0  0  0  0  0  0  0  0
  147.8694  136.9081  155.2350 H   0  0  0  0  0  0  0  0  0  0  0  0
  148.6513  137.0954  153.6823 H   0  0  0  0  0  0  0  0  0  0  0  0
  149.5082  138.4000  156.3108 H   0  0  0  0  0  0  0  0  0  0  0  0
  150.3555  137.1422  155.4522 H   0  0  0  0  0  0  0  0  0  0  0  0
  150.7518  138.6292  153.5315 H   0  0  0  0  0  0  0  0  0  0  0  0
  152.3841  138.6659  155.4735 H   0  0  0  0  0  0  0  0  0  0  0  0
  152.4226  140.0914  154.4611 H   0  0  0  0  0  0  0  0  0  0  0  0
  150.1488  140.8164  153.5151 H   0  0  0  0  0  0  0  0  0  0  0  0
  152.0631  144.6432  162.7276 H   0  0  0  0  0  0  0  0  0  0  0  0
  1  2  1  0  0  0  0
  2  7  1  0  0  0  0
  2  3  2  0  0  0  0
  3  4  1  0  0  0  0
  3 20  1  0  0  0  0
  4  5  2  0  0  0  0
  4 41  1  0  0  0  0
  5  6  1  0  0  0  0
  5 21  1  0  0  0  0
  6  7  2  0  0  0  0
  6 22  1  0  0  0  0
  7  8  1  0  0  0  0
  8  9  1  0  0  0  0
  8 23  1  0  0  0  0
  9 10  1  0  0  0  0
  9 24  1  0  0  0  0
  9 25  1  0  0  0  0
 10 19  1  0  0  0  0
 10 11  1  0  0  0  0
 10 26  1  0  0  0  0
 11 12  1  0  0  0  0
 11 27  1  0  0  0  0
 11 28  1  0  0  0  0
 12 17  1  0  0  0  0
 12 13  1  0  0  0  0
 12 40  1  0  0  0  0
 13 14  1  0  0  0  0
 13 29  1  0  0  0  0
 13 30  1  0  0  0  0
 14 15  1  0  0  0  0
 14 31  1  0  0  0  0
 14 32  1  0  0  0  0
 15 16  1  0  0  0  0
 15 33  1  0  0  0  0
 15 34  1  0  0  0  0
 16 17  1  0  0  0  0
 16 35  1  0  0  0  0
 16 36  1  0  0  0  0
 17 18  1  0  0  0  0
 17 37  1  0  0  0  0
 18 19  1  0  0  0  0
 18 38  1  0  0  0  0
 18 39  1  0  0  0  0
M  CHG  1   4   1
M  CHG  1  12   1
M  END
> <s_m_source_file>
AV-unprocessed.smi

> <i_m_source_file_index>
2822

> <i_lp_mmshare_version>
43012

> <i_f3d_flags>
0

> <s_epik_input>
Q2xjMVtjSF1uW2NIXVtjSF1jMVtOSF1bQ0gyXVtDQEhdKFtDSDJdMilPW0NIMl1bQ0BASF0oTjIzKVtDSDJdW0NIMl1bQ0gyXVtDSDJdMw==

> <s_epik_cmdline>
J2VwaWtfcHl0aG9uJywgJy1waCcsICc3LjAnLCAnLXRuJywgJzgnLCAnLW1hJywgJzIwMCcsICctbWV0YWxfYmluZGluZycsICctaW1hZScsICc8aW5maWxlLm1hZT4nLCAnLW9tYWUnLCAnPG91dGZpbGUubWFlPic=

> <r_lp_tautomer_probability>
1

> <r_epik_Ionization_Penalty>
0.254999

> <r_epik_Ionization_Penalty_Charging>
0.254956

> <r_epik_Ionization_Penalty_Neutral>
4.33524e-05

> <r_epik_State_Penalty>
0.230978

> <r_epik_Charging_Adjusted_Penalty>
0.485934

> <i_epik_Tot_Q>
2

> <i_epik_Tot_abs_Q>
2

> <r_epik_Metal_State_Penalty>
3.47007

> <b_epik_Metal_Only>
0

> <s_lp_Force_Field>
OPLS_2005

> <r_lp_Energy>
39.695

> <b_lp_Chiralities_Consistent>
1

> <s_lp_Variant>
AV-unprocessed.smi:2822-5

> <Gold.Version>
5.8.1

> <Gold.Id.Protein>
6NUR|6NUR_protein|mol2

> <Gold.PLP.Fitness>
38.8810

> <Gold.PLP.PLP>
-39.8120

> <Gold.PLP.part.hbond>
-1.7452

> <Gold.PLP.part.metal>
0.0000

> <Gold.PLP.part.buried>
-1.4296

> <Gold.PLP.part.nonpolar>
-36.7822

> <Gold.PLP.part.repulsive>
1.4807

> <Gold.PLP.ligand.clash>
0.0000

> <Gold.PLP.ligand.torsion>
0.4658

> <Gold.PLP.Chemscore.Hbond>
0.0000

> <Gold.PLP.Chemscore.CHOScore>
0.0000

> <Gold.PLP.Chemscore.Metal>
0.0000

> <Gold.PLP.Chemscore.Internal.Correction>
0.0006

> <Gold.Rescore>
     Score         DG    S(hbond)    S(metal)    S(lipo)     H(rot)  DE(clash)    DE(int)     intcor
     14.78     -15.69       0.01        0.00     113.26       1.20       0.46       0.45       ----

> <Gold.Chemscore.Fitness>
14.7774

> <Gold.Chemscore.DG>
-15.6880

> <Gold.Chemscore.ZeroCoef>
-5.4800

> <Gold.Chemscore.Hbond>
0.0056

> <Gold.Chemscore.Metal>
0.0000

> <Gold.Chemscore.Lipo>
113.2617

> <Gold.Chemscore.Internal_Hbond>
0.0000

> <Gold.Chemscore.DEClash>
0.4562

> <Gold.Chemscore.DEInternal>
0.4544

> <Gold.Chemscore.Rot>
1.1962

> <Gold.Chemscore.Internal.Correction>
   9.000000E+99

> <Gold.Chemscore.Hbond.Weighted>
-0.0186

> <Gold.Chemscore.Metal.Weighted>
-0.0000

> <Gold.Chemscore.Lipo.Weighted>
-13.2516

> <Gold.Chemscore.Internal_Hbond.Weighted>
0.0000

> <Gold.Chemscore.DEClash.Weighted>
0.4562

> <Gold.Chemscore.DEInternal.Weighted>
0.4544

> <Gold.Chemscore.Rot.Weighted>
3.0623

> <Gold.Chemscore.Internal.Correction.Weighted>
   9.000000E+99

> <Gold.Protein.RotatedTorsions>
[ 6907 6896 6895 6894 ] final -134.25 input  -60.11 | X-H torsion
[ 7974 7965 7964 7962 ] final -161.28 input  175.53 | X-H torsion
[ 8008 7997 7996 7995 ] final  106.91 input   59.86 | X-H torsion
[ 10167 10162 10161 10158 ] final   -0.99 input  -65.29 | X-H torsion
[ 10718 10713 10712 10709 ] final  -98.00 input   66.30 | X-H torsion
[ 10763 10752 10751 10750 ] final   -5.49 input  -60.55 | X-H torsion
[ 11005 11000 10999 10996 ] final -118.92 input  -57.11 | X-H torsion

> <Gold.Protein.ActiveResidues>
 VAL166  LYS551  ARG553  GLY616  TRP617  ASP618  TYR619  PRO620  LYS621  CYS622 
 ASP623  PHE694  ASN695  SER759  ASP760  ASP761  ALA762  ILE779  LEU786  VAL792 
 PHE793  MET794  SER795  GLU796  ALA797  LYS798  CYS799  TRP800  GLU811  SER814 

> <Gold.Protein.RotatedAtoms>
  150.9836  133.6220  159.2718 H   0  0  0  0  0  0  0  0  0  0  0  0  # atno 6907 bound_to 6896
  151.3466  135.0874  159.9398 H   0  0  0  0  0  0  0  0  0  0  0  0  # atno 6908 bound_to 6896
  152.5223  133.9437  159.7693 H   0  0  0  0  0  0  0  0  0  0  0  0  # atno 6909 bound_to 6896
  144.7397  140.3420  143.6133 H   0  0  0  0  0  0  0  0  0  0  0  0  # atno 7974 bound_to 7965
  156.1782  140.3104  155.9098 H   0  0  0  0  0  0  0  0  0  0  0  0  # atno 8008 bound_to 7997
  155.3442  140.0467  157.3062 H   0  0  0  0  0  0  0  0  0  0  0  0  # atno 8009 bound_to 7997
  154.5313  140.2231  155.8810 H   0  0  0  0  0  0  0  0  0  0  0  0  # atno 8010 bound_to 7997
  140.6791  143.6829  150.8091 H   0  0  0  0  0  0  0  0  0  0  0  0  # atno 10167 bound_to 10162
  156.0097  130.5219  150.6458 H   0  0  0  0  0  0  0  0  0  0  0  0  # atno 10718 bound_to 10713
  153.3993  135.7004  153.6437 H   0  0  0  0  0  0  0  0  0  0  0  0  # atno 10763 bound_to 10752
  153.4977  135.3659  155.2525 H   0  0  0  0  0  0  0  0  0  0  0  0  # atno 10764 bound_to 10752
  154.8709  135.4104  154.3325 H   0  0  0  0  0  0  0  0  0  0  0  0  # atno 10765 bound_to 10752
  141.0252  134.0065  157.3225 H   0  0  0  0  0  0  0  0  0  0  0  0  # atno 11005 bound_to 11000
  145.7364  139.1751  143.2401 LP  0  0  0  0  0  0  0  0  0  0  0  0  # atno 17320 bound_to 7965
  146.1167  140.7360  142.9477 LP  0  0  0  0  0  0  0  0  0  0  0  0  # atno 17321 bound_to 7965
  140.0526  143.5234  152.2666 LP  0  0  0  0  0  0  0  0  0  0  0  0  # atno 17342 bound_to 10162
  139.6102  144.7606  151.2970 LP  0  0  0  0  0  0  0  0  0  0  0  0  # atno 17343 bound_to 10162
  157.4229  131.0839  151.1113 LP  0  0  0  0  0  0  0  0  0  0  0  0  # atno 17370 bound_to 10713
  157.1710  130.6267  149.5640 LP  0  0  0  0  0  0  0  0  0  0  0  0  # atno 17371 bound_to 10713
  139.9171  135.0198  156.7923 LP  0  0  0  0  0  0  0  0  0  0  0  0  # atno 17394 bound_to 11000
  140.6504  133.9736  155.7752 LP  0  0  0  0  0  0  0  0  0  0  0  0  # atno 17395 bound_to 11000

$$$$
