AV-unprocessed.smi:107|AV-procd|sdf|1027|dock10
  -GOLD-   2262018 33D 1   1.00000     0.00000
 Structure written by MMmdl.
 30 31  0  0  0  0  0  0  0  0  2 V2000
  151.2192  144.8326  158.8550 C   0  0  0  0  0  0  0  0  0  0  0  0
  151.3339  143.3279  158.6849 C   0  0  0  0  0  0  0  0  0  0  0  0
  150.5025  142.6273  157.8815 C   0  0  0  0  0  0  0  0  0  0  0  0
  150.6138  141.2567  157.7287 N   0  0  0  0  0  0  0  0  0  0  0  0
  149.6846  140.5070  156.8046 C   0  0  2  0  0  0  0  0  0  0  0  0
  150.3744  140.1719  155.4882 C   0  0  0  0  0  0  0  0  0  0  0  0
  149.2064  140.1605  154.5092 C   0  0  2  0  0  0  0  0  0  0  0  0
  149.5637  140.8435  153.3217 O   0  0  0  0  0  0  0  0  0  0  0  0
  148.0246  140.7938  155.2848 C   0  0  2  0  0  0  0  0  0  0  0  0
  147.2454  141.9033  154.5533 C   0  0  0  0  0  0  0  0  0  0  0  0
  148.1267  142.9281  154.1448 O   0  0  0  0  0  0  0  0  0  0  0  0
  148.6148  141.3245  156.4655 O   0  0  0  0  0  0  0  0  0  0  0  0
  151.6464  140.5552  158.4025 C   0  0  0  0  0  0  0  0  0  0  0  0
  151.7459  139.3430  158.2096 O   0  0  0  0  0  0  0  0  0  0  0  0
  152.4839  141.2518  159.2230 N   0  5  0  0  0  0  0  0  0  0  0  0
  152.3844  142.5999  159.4076 C   0  0  0  0  0  0  0  0  0  0  0  0
  153.1459  143.2156  160.1532 O   0  0  0  0  0  0  0  0  0  0  0  0
  150.4007  145.2379  158.2596 H   0  0  0  0  0  0  0  0  0  0  0  0
  152.1413  145.3221  158.5401 H   0  0  0  0  0  0  0  0  0  0  0  0
  151.0340  145.0849  159.8995 H   0  0  0  0  0  0  0  0  0  0  0  0
  149.7349  143.1588  157.3387 H   0  0  0  0  0  0  0  0  0  0  0  0
  149.3092  139.6357  157.3448 H   0  0  0  0  0  0  0  0  0  0  0  0
  151.0869  140.9630  155.2465 H   0  0  0  0  0  0  0  0  0  0  0  0
  150.9061  139.2224  155.5559 H   0  0  0  0  0  0  0  0  0  0  0  0
  148.9529  139.1337  154.2427 H   0  0  0  0  0  0  0  0  0  0  0  0
  149.4668  140.2496  152.5933 H   0  0  0  0  0  0  0  0  0  0  0  0
  147.3451  139.9906  155.5761 H   0  0  0  0  0  0  0  0  0  0  0  0
  146.7010  141.5056  153.6961 H   0  0  0  0  0  0  0  0  0  0  0  0
  146.5167  142.3638  155.2208 H   0  0  0  0  0  0  0  0  0  0  0  0
  148.4170  143.3977  154.9117 H   0  0  0  0  0  0  0  0  0  0  0  0
  1  2  1  0  0  0  0
  1 18  1  0  0  0  0
  1 19  1  0  0  0  0
  1 20  1  0  0  0  0
  2 16  1  0  0  0  0
  2  3  2  0  0  0  0
  3  4  1  0  0  0  0
  3 21  1  0  0  0  0
  4  5  1  0  0  0  0
  4 13  1  0  0  0  0
  5 12  1  0  0  0  0
  5  6  1  0  0  0  0
  5 22  1  0  0  0  0
  6  7  1  0  0  0  0
  6 23  1  0  0  0  0
  6 24  1  0  0  0  0
  7  8  1  0  0  0  0
  7  9  1  0  0  0  0
  7 25  1  0  0  0  0
  8 26  1  0  0  0  0
  9 10  1  0  0  0  0
  9 12  1  0  0  0  0
  9 27  1  0  0  0  0
 10 11  1  0  0  0  0
 10 28  1  0  0  0  0
 10 29  1  0  0  0  0
 11 30  1  0  0  0  0
 13 14  2  0  0  0  0
 13 15  1  0  0  0  0
 15 16  1  0  0  0  0
 16 17  2  0  0  0  0
M  CHG  1  15  -1
M  END
> <s_m_source_file>
AV-unprocessed.smi

> <i_m_source_file_index>
107

> <i_lp_mmshare_version>
43012

> <i_f3d_flags>
0

> <s_epik_input>
Tz1jMVtuSF1jKD1PKW4oW2NIXWMxW0NIM10pW0NAQEhdMltDSDJdW0NAQEhdKFtPSF0pW0NASF0oTzIpW0NIMl1bT0hd

> <s_epik_cmdline>
J2VwaWtfcHl0aG9uJywgJy1waCcsICc3LjAnLCAnLXRuJywgJzgnLCAnLW1hJywgJzIwMCcsICctbWV0YWxfYmluZGluZycsICctaW1hZScsICc8aW5maWxlLm1hZT4nLCAnLW9tYWUnLCAnPG91dGZpbGUubWFlPic=

> <r_lp_tautomer_probability>
0.999537

> <r_epik_Ionization_Penalty>
3.66603

> <r_epik_Ionization_Penalty_Charging>
1.09773e-07

> <r_epik_Ionization_Penalty_Neutral>
3.66603

> <r_epik_State_Penalty>
3.66562

> <r_epik_Charging_Adjusted_Penalty>
3.66562

> <i_epik_Tot_Q>
-1

> <i_epik_Tot_abs_Q>
1

> <r_epik_Metal_State_Penalty>
0.234536

> <b_epik_Metal_Only>
1

> <s_epik_Chemistry_Notes>
This compound contains an acetal/aminal-like group ( X-CH(R)-Y where X, Y are N, S, or O) that may be acid/base labile, releasing an aldehyde.

> <s_lp_Force_Field>
OPLS_2005

> <r_lp_Energy>
40.7454

> <b_lp_Chiralities_Consistent>
1

> <s_lp_Variant>
AV-unprocessed.smi:107-15

> <Gold.Version>
5.8.1

> <Gold.Id.Protein>
6NUR|6NUR_protein|mol2

> <Gold.PLP.Fitness>
43.6111

> <Gold.PLP.PLP>
-32.9941

> <Gold.PLP.part.hbond>
-4.8087

> <Gold.PLP.part.metal>
0.0000

> <Gold.PLP.part.buried>
-4.6836

> <Gold.PLP.part.nonpolar>
-23.9574

> <Gold.PLP.part.repulsive>
0.0959

> <Gold.PLP.ligand.clash>
0.0000

> <Gold.PLP.ligand.torsion>
0.3682

> <Gold.PLP.Chemscore.Hbond>
2.7764

> <Gold.PLP.Chemscore.CHOScore>
1.0000

> <Gold.PLP.Chemscore.Metal>
0.0000

> <Gold.Chemscore.Hbonds>
donor molecule, donor type, donor heavy atom, donor atom, acceptor molecule, acceptor atom, score
      L1  H     8    26       P1  7957  0.75
      L1  H    11    30       P1  8028  1.00
      P1  H  7989  7998       L1     8  0.25
      P1  H  8011  8017       L1     8  0.85
      L1  C     3    21       P1  8028  1.00

> <Gold.PLP.Chemscore.Internal.Correction>
0.0242

> <Gold.Rescore>
     Score         DG    S(hbond)    S(metal)    S(lipo)     H(rot)  DE(clash)    DE(int)     intcor
     11.02     -11.34       1.90        0.00      54.52       2.69      -0.00       0.32       ----

> <Gold.Chemscore.Fitness>
11.0151

> <Gold.Chemscore.DG>
-11.3360

> <Gold.Chemscore.ZeroCoef>
-5.4800

> <Gold.Chemscore.Hbond>
1.9031

> <Gold.Chemscore.Metal>
0.0000

> <Gold.Chemscore.Lipo>
54.5191

> <Gold.Chemscore.Internal_Hbond>
0.0000

> <Gold.Chemscore.DEClash>
-0.0000

> <Gold.Chemscore.DEInternal>
0.3209

> <Gold.Chemscore.Rot>
2.6871

> <Gold.Chemscore.Internal.Correction>
   9.000000E+99

> <Gold.Chemscore.Hbonds>
donor molecule, donor type, donor heavy atom, donor atom, acceptor molecule, acceptor atom, score
      L1  H     8    26       P1  7957  0.73
      L1  H    11    30       P1  8028  0.91
      P1  H  7989  7998       L1     8  0.02
      P1  H  8011  8017       L1     8  0.15

> <Gold.Chemscore.Hbond.Weighted>
-6.3564

> <Gold.Chemscore.Metal.Weighted>
-0.0000

> <Gold.Chemscore.Lipo.Weighted>
-6.3787

> <Gold.Chemscore.Internal_Hbond.Weighted>
0.0000

> <Gold.Chemscore.DEClash.Weighted>
-0.0000

> <Gold.Chemscore.DEInternal.Weighted>
0.3209

> <Gold.Chemscore.Rot.Weighted>
6.8791

> <Gold.Chemscore.Internal.Correction.Weighted>
   9.000000E+99

> <Gold.Protein.RotatedTorsions>
[ 6907 6896 6895 6894 ] final  -14.30 input  -60.11 | X-H torsion
[ 7974 7965 7964 7962 ] final   85.59 input  175.53 | X-H torsion
[ 8008 7997 7996 7995 ] final  174.41 input   59.86 | X-H torsion
[ 10167 10162 10161 10158 ] final  -22.20 input  -65.29 | X-H torsion
[ 10718 10713 10712 10709 ] final   11.29 input   66.30 | X-H torsion
[ 10763 10752 10751 10750 ] final   24.75 input  -60.55 | X-H torsion
[ 11005 11000 10999 10996 ] final -103.41 input  -57.11 | X-H torsion

> <Gold.Protein.ActiveResidues>
 VAL166  LYS551  ARG553  GLY616  TRP617  ASP618  TYR619  PRO620  LYS621  CYS622 
 ASP623  PHE694  ASN695  SER759  ASP760  ASP761  ALA762  ILE779  LEU786  VAL792 
 PHE793  MET794  SER795  GLU796  ALA797  LYS798  CYS799  TRP800  GLU811  SER814 

> <Gold.Protein.RotatedAtoms>
  151.3415  135.0864  159.9372 H   0  0  0  0  0  0  0  0  0  0  0  0  # atno 6907 bound_to 6896
  152.5210  133.9443  159.7651 H   0  0  0  0  0  0  0  0  0  0  0  0  # atno 6908 bound_to 6896
  150.9800  133.6201  159.2754 H   0  0  0  0  0  0  0  0  0  0  0  0  # atno 6909 bound_to 6896
  145.5835  139.2328  143.2340 H   0  0  0  0  0  0  0  0  0  0  0  0  # atno 7974 bound_to 7965
  156.0976  140.1435  156.9510 H   0  0  0  0  0  0  0  0  0  0  0  0  # atno 8008 bound_to 7997
  154.4682  140.0919  156.7121 H   0  0  0  0  0  0  0  0  0  0  0  0  # atno 8009 bound_to 7997
  155.4814  140.3445  155.4342 H   0  0  0  0  0  0  0  0  0  0  0  0  # atno 8010 bound_to 7997
  140.7285  143.4557  151.0452 H   0  0  0  0  0  0  0  0  0  0  0  0  # atno 10167 bound_to 10162
  156.9934  130.6051  149.5688 H   0  0  0  0  0  0  0  0  0  0  0  0  # atno 10718 bound_to 10713
  153.0741  135.6598  154.0183 H   0  0  0  0  0  0  0  0  0  0  0  0  # atno 10763 bound_to 10752
  153.9821  135.2954  155.3420 H   0  0  0  0  0  0  0  0  0  0  0  0  # atno 10764 bound_to 10752
  154.7125  135.5199  153.8758 H   0  0  0  0  0  0  0  0  0  0  0  0  # atno 10765 bound_to 10752
  141.1147  133.8638  157.1482 H   0  0  0  0  0  0  0  0  0  0  0  0  # atno 11005 bound_to 11000
  146.1699  140.6661  142.9238 LP  0  0  0  0  0  0  0  0  0  0  0  0  # atno 17320 bound_to 7965
  144.7383  140.4872  143.6887 LP  0  0  0  0  0  0  0  0  0  0  0  0  # atno 17321 bound_to 7965
  139.8237  143.7785  152.3178 LP  0  0  0  0  0  0  0  0  0  0  0  0  # atno 17342 bound_to 10162
  139.7877  144.7422  150.9999 LP  0  0  0  0  0  0  0  0  0  0  0  0  # atno 17343 bound_to 10162
  156.0198  130.5293  150.8243 LP  0  0  0  0  0  0  0  0  0  0  0  0  # atno 17370 bound_to 10713
  157.5442  131.0942  150.9785 LP  0  0  0  0  0  0  0  0  0  0  0  0  # atno 17371 bound_to 10713
  140.0062  135.0007  157.0297 LP  0  0  0  0  0  0  0  0  0  0  0  0  # atno 17394 bound_to 11000
  140.4679  134.1417  155.7199 LP  0  0  0  0  0  0  0  0  0  0  0  0  # atno 17395 bound_to 11000

$$$$
