#       Name:                AV-unprocessed.smi:131
#       Creating user name   scv26
#       Creation time:       Thu Mar 26 18:30:17 2020


#       File generated by GOLD software.
#

@<TRIPOS>MOLECULE
AV-unprocessed.smi:131
    64    67     1
SMALL
NO_CHARGES


@<TRIPOS>ATOM
      1 ****         0.6398   2.7534  -1.8450 O.2            1 S1                 0.0000
      2 ****         1.0877   2.2598  -0.8110 C.2            1 S1                 0.0000
      3 ****         2.5372   2.5927  -0.4120 C.3            1 S1                 0.0000
      4 ****         3.0051   1.9724   0.8496 N.am           1 S1                 0.0000
      5 ****         2.8138   2.6759   2.0648 C.2            1 S1                 0.0000
      6 ****         2.2632   3.7774   2.0842 O.2            1 S1                 0.0000
      7 ****         3.2974   2.0032   3.2652 C.2            1 S1                 0.0000
      8 ****         3.1553   2.5959   4.4627 F              1 S1                 0.0000
      9 ****         3.8827   0.7899   3.1945 C.2            1 S1                 0.0000
     10 ****         4.0630   0.1136   2.0007 N.am           1 S1                 0.0000
     11 ****         4.7098  -1.2553   1.9397 C.3            1 S1                 0.0000
     12 ****         6.1151  -1.1663   1.3128 C.3            1 S1                 0.0000
     13 ****         6.9870  -1.8639   2.3384 C.3            1 S1                 0.0000
     14 ****         6.2286  -1.6002   3.6301 C.3            1 S1                 0.0000
     15 ****         4.8734  -1.7627   3.2335 O.3            1 S1                 0.0000
     16 ****         3.6103   0.6942   0.7960 C.2            1 S1                 0.0000
     17 ****         3.7348   0.0956  -0.2746 O.2            1 S1                 0.0000
     18 ****         0.3934   1.4240  -0.0131 N.am           1 S1                 0.0000
     19 ****        -0.9452   0.9717  -0.1534 C.ar           1 S1                 0.0000
     20 ****        -1.2731  -0.2681   0.4359 C.ar           1 S1                 0.0000
     21 ****        -2.5844  -0.7750   0.3528 C.ar           1 S1                 0.0000
     22 ****        -3.5769  -0.0279  -0.3104 C.ar           1 S1                 0.0000
     23 ****        -5.2414  -0.6675  -0.4416 S.o2           1 S1                 0.0000
     24 ****        -5.2487  -2.0975  -0.0946 O.2            1 S1                 0.0000
     25 ****        -6.1331   0.2709   0.2578 O.2            1 S1                 0.0000
     26 ****        -5.5658  -0.5296  -2.1367 N.3            1 S1                 0.0000
     27 ****        -6.9556  -0.4126  -2.5952 C.3            1 S1                 0.0000
     28 ****        -7.0842  -1.3843  -3.7695 C.3            1 S1                 0.0000
     29 ****        -5.6708  -1.4493  -4.3319 C.3            1 S1                 0.0000
     30 ****        -4.7939  -1.3419  -3.0850 C.3            1 S1                 0.0000
     31 ****        -3.2683   1.2185  -0.8881 C.ar           1 S1                 0.0000
     32 ****        -1.9555   1.7211  -0.8050 C.ar           1 S1                 0.0000
     33 ****         3.1871   2.3135  -1.2427 H              1 S1                 0.0000
     34 ****         2.6321   3.6788  -0.3669 H              1 S1                 0.0000
     35 ****         4.2130   0.3460   4.1211 H              1 S1                 0.0000
     36 ****         4.0116  -1.8857   1.3860 H              1 S1                 0.0000
     37 ****         6.1372  -1.6463   0.3340 H              1 S1                 0.0000
     38 ****         6.4168  -0.1233   1.2034 H              1 S1                 0.0000
     39 ****         7.0205  -2.9354   2.1372 H              1 S1                 0.0000
     40 ****         8.0097  -1.4863   2.3585 H              1 S1                 0.0000
     41 ****         6.4992  -2.2912   4.4287 H              1 S1                 0.0000
     42 ****         6.4008  -0.5816   3.9808 H              1 S1                 0.0000
     43 ****         0.9128   1.0107   0.7477 H              1 S1                 0.0000
     44 ****        -0.5147  -0.8415   0.9492 H              1 S1                 0.0000
     45 ****        -2.8205  -1.7295   0.7992 H              1 S1                 0.0000
     46 ****        -7.6597  -0.6520  -1.7974 H              1 S1                 0.0000
     47 ****        -7.1356   0.6148  -2.9131 H              1 S1                 0.0000
     48 ****        -7.3819  -2.3684  -3.4048 H              1 S1                 0.0000
     49 ****        -7.8198  -1.0616  -4.5070 H              1 S1                 0.0000
     50 ****        -5.4833  -2.3583  -4.9041 H              1 S1                 0.0000
     51 ****        -5.4926  -0.5951  -4.9864 H              1 S1                 0.0000
     52 ****        -3.8253  -0.8856  -3.2908 H              1 S1                 0.0000
     53 ****        -4.6228  -2.3320  -2.6611 H              1 S1                 0.0000
     54 ****        -4.0351   1.7909  -1.3895 H              1 S1                 0.0000
     55 ****        -1.7490   2.6887  -1.2356 H              1 S1                 0.0000
     56 ****         1.2138   3.3536  -2.4020 LP             1 S1                 0.0000
     57 ****        -0.2983   2.5545  -2.1284 LP             1 S1                 0.0000
     58 ****         1.9419   4.1909   1.2323 LP             1 S1                 0.0000
     59 ****         2.1374   4.2583   2.9519 LP             1 S1                 0.0000
     60 ****         4.6356  -2.7339   3.2447 LP             1 S1                 0.0000
     61 ****         4.2780  -1.2664   3.8654 LP             1 S1                 0.0000
     62 ****         3.4058   0.5127  -1.1218 LP             1 S1                 0.0000
     63 ****         4.1647  -0.8070  -0.2957 LP             1 S1                 0.0000
     64 ****        -5.1773   0.3912  -2.1712 LP             1 S1                 0.0000
@<TRIPOS>BOND
    1    1    2 2     
    2    2    3 1     
    3    2   18 am    
    4    3    4 1     
    5    3   33 1     
    6    3   34 1     
    7    4   16 am    
    8    4    5 am    
    9    5    6 2     
   10    5    7 1     
   11    7    8 1     
   12    7    9 2     
   13    9   10 1     
   14    9   35 1     
   15   10   11 1     
   16   10   16 am    
   17   11   15 1     
   18   11   12 1     
   19   11   36 1     
   20   12   13 1     
   21   12   37 1     
   22   12   38 1     
   23   13   14 1     
   24   13   39 1     
   25   13   40 1     
   26   14   15 1     
   27   14   41 1     
   28   14   42 1     
   29   16   17 2     
   30   18   19 1     
   31   18   43 1     
   32   19   32 ar    
   33   19   20 ar    
   34   20   21 ar    
   35   20   44 1     
   36   21   22 ar    
   37   21   45 1     
   38   22   23 1     
   39   22   31 ar    
   40   23   24 2     
   41   23   25 2     
   42   23   26 1     
   43   26   30 1     
   44   26   27 1     
   45   27   28 1     
   46   27   46 1     
   47   27   47 1     
   48   28   29 1     
   49   28   48 1     
   50   28   49 1     
   51   29   30 1     
   52   29   50 1     
   53   29   51 1     
   54   30   52 1     
   55   30   53 1     
   56   31   32 ar    
   57   31   54 1     
   58   32   55 1     
   59    1   56 1     
   60    1   57 1     
   61    6   58 1     
   62    6   59 1     
   63   15   60 1     
   64   15   61 1     
   65   17   62 1     
   66   17   63 1     
   67   26   64 1     
@<TRIPOS>SUBSTRUCTURE
      1 S1             1
@<TRIPOS>SET
LONE_PAIRS      STATIC     ATOMS    <user>   **** ""
11 56 57 58 59 60 61 62 63 24 25 64
DONOR_HYDROGENS      STATIC     ATOMS    <user>   **** ""
1 43
ATOM$BLUE        STATIC     ATOMS    COLORGROUP SYSTEM
11 56 57 58 59 60 61 62 63 24 25 64
ATOM$RED        STATIC     ATOMS    COLORGROUP SYSTEM
1 43
