AV-unprocessed.smi:515|AV-procd|sdf|2781|dock5
  -GOLD-   2262023253D 1   1.00000     0.00000
 Structure written by MMmdl.
 48 50  0  0  0  0  0  0  0  0  2 V2000
  152.1633  138.2591  154.8181 C   0  0  0  0  0  0  0  0  0  0  0  0
  150.8560  137.4700  154.7214 C   0  0  0  0  0  0  0  0  0  0  0  0
  151.1556  136.0873  154.7871 O   0  0  0  0  0  0  0  0  0  0  0  0
  150.0116  135.2812  155.0134 C   0  0  0  0  0  0  0  0  0  0  0  0
  150.4452  133.8275  155.2511 C   0  0  0  0  0  0  0  0  0  0  0  0
  149.3255  132.9784  155.6453 N   0  0  0  0  0  0  0  0  0  0  0  0
  148.8106  131.9168  154.9699 C   0  0  0  0  0  0  0  0  0  0  0  0
  149.3468  131.4260  153.6547 C   0  0  0  0  0  0  0  0  0  0  0  0
  148.2880  131.7543  152.6667 N   0  3  0  0  0  0  0  0  0  0  0  0
  146.9843  131.0961  152.9371 C   0  0  0  0  0  0  0  0  0  0  0  0
  145.9625  131.4620  151.8478 C   0  0  0  0  0  0  0  0  0  0  0  0
  145.8248  132.8757  151.7766 O   0  0  0  0  0  0  0  0  0  0  0  0
  147.0482  133.5117  151.4287 C   0  0  0  0  0  0  0  0  0  0  0  0
  148.1066  133.2158  152.5048 C   0  0  0  0  0  0  0  0  0  0  0  0
  147.7773  131.3282  155.5815 N   0  0  0  0  0  0  0  0  0  0  0  0
  147.6273  132.0705  156.7433 C   0  0  0  0  0  0  0  0  0  0  0  0
  148.5507  133.0626  156.8032 C   0  0  0  0  0  0  0  0  0  0  0  0
  148.6340  133.9938  157.9379 C   0  0  0  0  0  0  0  0  0  0  0  0
  149.4649  134.8956  158.0170 O   0  0  0  0  0  0  0  0  0  0  0  0
  147.7010  133.7540  158.8909 N   0  0  0  0  0  0  0  0  0  0  0  0
  146.7434  132.7772  158.8904 C   0  0  0  0  0  0  0  0  0  0  0  0
  145.9610  132.6817  159.8357 O   0  0  0  0  0  0  0  0  0  0  0  0
  146.6977  131.9302  157.8126 N   0  0  0  0  0  0  0  0  0  0  0  0
  145.6916  130.8678  157.7593 C   0  0  0  0  0  0  0  0  0  0  0  0
  147.7156  134.3652  159.6944 H   0  0  0  0  0  0  0  0  0  0  0  0
  151.9751  139.3318  154.7713 H   0  0  0  0  0  0  0  0  0  0  0  0
  152.8375  138.0005  154.0013 H   0  0  0  0  0  0  0  0  0  0  0  0
  152.6777  138.0499  155.7564 H   0  0  0  0  0  0  0  0  0  0  0  0
  150.1895  137.7516  155.5378 H   0  0  0  0  0  0  0  0  0  0  0  0
  150.3488  137.7011  153.7836 H   0  0  0  0  0  0  0  0  0  0  0  0
  149.4604  135.6486  155.8800 H   0  0  0  0  0  0  0  0  0  0  0  0
  149.3429  135.3367  154.1533 H   0  0  0  0  0  0  0  0  0  0  0  0
  150.9113  133.4204  154.3555 H   0  0  0  0  0  0  0  0  0  0  0  0
  151.2190  133.7835  156.0166 H   0  0  0  0  0  0  0  0  0  0  0  0
  150.3056  131.8695  153.3895 H   0  0  0  0  0  0  0  0  0  0  0  0
  149.4905  130.3469  153.7253 H   0  0  0  0  0  0  0  0  0  0  0  0
  147.1001  130.0126  152.9690 H   0  0  0  0  0  0  0  0  0  0  0  0
  146.6139  131.4069  153.9152 H   0  0  0  0  0  0  0  0  0  0  0  0
  146.2669  131.0639  150.8785 H   0  0  0  0  0  0  0  0  0  0  0  0
  144.9920  131.0239  152.0811 H   0  0  0  0  0  0  0  0  0  0  0  0
  147.3835  133.1727  150.4471 H   0  0  0  0  0  0  0  0  0  0  0  0
  146.8793  134.5859  151.3537 H   0  0  0  0  0  0  0  0  0  0  0  0
  147.8051  133.6550  153.4572 H   0  0  0  0  0  0  0  0  0  0  0  0
  149.0538  133.6777  152.2232 H   0  0  0  0  0  0  0  0  0  0  0  0
  144.6870  131.2855  157.8393 H   0  0  0  0  0  0  0  0  0  0  0  0
  145.8354  130.1660  158.5819 H   0  0  0  0  0  0  0  0  0  0  0  0
  145.7316  130.2973  156.8315 H   0  0  0  0  0  0  0  0  0  0  0  0
  148.6157  131.4084  151.7755 H   0  0  0  0  0  0  0  0  0  0  0  0
  1  2  1  0  0  0  0
  1 26  1  0  0  0  0
  1 27  1  0  0  0  0
  1 28  1  0  0  0  0
  2  3  1  0  0  0  0
  2 29  1  0  0  0  0
  2 30  1  0  0  0  0
  3  4  1  0  0  0  0
  4  5  1  0  0  0  0
  4 31  1  0  0  0  0
  4 32  1  0  0  0  0
  5  6  1  0  0  0  0
  5 33  1  0  0  0  0
  5 34  1  0  0  0  0
  6 17  1  0  0  0  0
  6  7  1  0  0  0  0
  7  8  1  0  0  0  0
  7 15  2  0  0  0  0
  8  9  1  0  0  0  0
  8 35  1  0  0  0  0
  8 36  1  0  0  0  0
  9 14  1  0  0  0  0
  9 10  1  0  0  0  0
  9 48  1  0  0  0  0
 10 11  1  0  0  0  0
 10 37  1  0  0  0  0
 10 38  1  0  0  0  0
 11 12  1  0  0  0  0
 11 39  1  0  0  0  0
 11 40  1  0  0  0  0
 12 13  1  0  0  0  0
 13 14  1  0  0  0  0
 13 41  1  0  0  0  0
 13 42  1  0  0  0  0
 14 43  1  0  0  0  0
 14 44  1  0  0  0  0
 15 16  1  0  0  0  0
 16 23  1  0  0  0  0
 16 17  2  0  0  0  0
 17 18  1  0  0  0  0
 18 19  2  0  0  0  0
 18 20  1  0  0  0  0
 20 25  1  0  0  0  0
 20 21  1  0  0  0  0
 21 22  2  0  0  0  0
 21 23  1  0  0  0  0
 23 24  1  0  0  0  0
 24 45  1  0  0  0  0
 24 46  1  0  0  0  0
 24 47  1  0  0  0  0
M  CHG  1   9   1
M  END
> <s_m_source_file>
AV-unprocessed.smi

> <i_m_source_file_index>
515

> <i_lp_mmshare_version>
43012

> <i_f3d_flags>
0

> <s_epik_input>
W0NIM11uMWMoPU8pW25IXWMoPU8pYyhjMTIpbihbQ0gyXVtDSDJdT1tDSDJdW0NIM10pYyhuMilbQ0gyXU4zW0NIMl1bQ0gyXU9bQ0gyXVtDSDJdMw==

> <s_epik_cmdline>
J2VwaWtfcHl0aG9uJywgJy1waCcsICc3LjAnLCAnLXRuJywgJzgnLCAnLW1hJywgJzIwMCcsICctbWV0YWxfYmluZGluZycsICctaW1hZScsICc8aW5maWxlLm1hZT4nLCAnLW9tYWUnLCAnPG91dGZpbGUubWFlPic=

> <r_epik_Ionization_Penalty>
1.12075

> <r_epik_Ionization_Penalty_Charging>
1.12075

> <r_epik_Ionization_Penalty_Neutral>
5.33793e-09

> <r_epik_State_Penalty>
1.17893

> <r_epik_Charging_Adjusted_Penalty>
2.29968

> <i_epik_Tot_Q>
1

> <i_epik_Tot_abs_Q>
1

> <r_epik_Metal_State_Penalty>
1.3264

> <b_epik_Metal_Only>
0

> <s_lp_Force_Field>
OPLS_2005

> <r_lp_Energy>
34.9817

> <b_lp_Chiralities_Consistent>
1

> <s_lp_Variant>
AV-unprocessed.smi:515-2

> <Gold.Version>
5.8.1

> <Gold.Id.Protein>
6NUR|6NUR_protein|mol2

> <Gold.PLP.Fitness>
37.9182

> <Gold.PLP.PLP>
-29.1937

> <Gold.PLP.part.hbond>
-3.0000

> <Gold.PLP.part.metal>
0.0000

> <Gold.PLP.part.buried>
-5.3873

> <Gold.PLP.part.nonpolar>
-22.3427

> <Gold.PLP.part.repulsive>
0.3415

> <Gold.PLP.ligand.clash>
0.0000

> <Gold.PLP.ligand.torsion>
0.1768

> <Gold.PLP.Chemscore.Hbond>
3.0000

> <Gold.PLP.Chemscore.CHOScore>
0.0000

> <Gold.PLP.Chemscore.Metal>
0.0000

> <Gold.Chemscore.Hbonds>
donor molecule, donor type, donor heavy atom, donor atom, acceptor molecule, acceptor atom, score
      L1  H     9    48       P1 10747  1.00
      P1  H  6896  6909       L1    19  1.00
      P1  H 10752 10763       L1     3  0.98

> <Gold.PLP.Chemscore.Internal.Correction>
0.0780

> <Gold.Rescore>
     Score         DG    S(hbond)    S(metal)    S(lipo)     H(rot)  DE(clash)    DE(int)     intcor
     13.42     -15.19       2.51        0.00      59.75       2.22       0.00       1.77       ----

> <Gold.Chemscore.Fitness>
13.4193

> <Gold.Chemscore.DG>
-15.1895

> <Gold.Chemscore.ZeroCoef>
-5.4800

> <Gold.Chemscore.Hbond>
2.5142

> <Gold.Chemscore.Metal>
0.0000

> <Gold.Chemscore.Lipo>
59.7487

> <Gold.Chemscore.Internal_Hbond>
0.0000

> <Gold.Chemscore.DEClash>
0.0000

> <Gold.Chemscore.DEInternal>
1.7702

> <Gold.Chemscore.Rot>
2.2182

> <Gold.Chemscore.Internal.Correction>
   9.000000E+99

> <Gold.Chemscore.Hbonds>
donor molecule, donor type, donor heavy atom, donor atom, acceptor molecule, acceptor atom, score
      L1  H     9    48       P1 10747  0.98
      P1  H  6896  6909       L1    19  0.49
      P1  H 10752 10763       L1     3  0.81

> <Gold.Chemscore.Hbond.Weighted>
-8.3975

> <Gold.Chemscore.Metal.Weighted>
-0.0000

> <Gold.Chemscore.Lipo.Weighted>
-6.9906

> <Gold.Chemscore.Internal_Hbond.Weighted>
0.0000

> <Gold.Chemscore.DEClash.Weighted>
0.0000

> <Gold.Chemscore.DEInternal.Weighted>
1.7702

> <Gold.Chemscore.Rot.Weighted>
5.6785

> <Gold.Chemscore.Internal.Correction.Weighted>
   9.000000E+99

> <Gold.Protein.RotatedTorsions>
[ 6907 6896 6895 6894 ] final   36.94 input  -60.11 | X-H torsion
[ 7974 7965 7964 7962 ] final  -64.11 input  175.53 | X-H torsion
[ 8008 7997 7996 7995 ] final  -84.90 input   59.86 | X-H torsion
[ 10167 10162 10161 10158 ] final  115.81 input  -65.29 | X-H torsion
[ 10718 10713 10712 10709 ] final   13.74 input   66.30 | X-H torsion
[ 10763 10752 10751 10750 ] final   34.46 input  -60.55 | X-H torsion
[ 11005 11000 10999 10996 ] final -162.92 input  -57.11 | X-H torsion

> <Gold.Protein.ActiveResidues>
 VAL166  LYS551  ARG553  GLY616  TRP617  ASP618  TYR619  PRO620  LYS621  CYS622 
 ASP623  PHE694  ASN695  SER759  ASP760  ASP761  ALA762  ILE779  LEU786  VAL792 
 PHE793  MET794  SER795  GLU796  ALA797  LYS798  CYS799  TRP800  GLU811  SER814 

> <Gold.Protein.RotatedAtoms>
  152.1365  134.9095  160.0555 H   0  0  0  0  0  0  0  0  0  0  0  0  # atno 6907 bound_to 6896
  152.0179  133.3882  159.4254 H   0  0  0  0  0  0  0  0  0  0  0  0  # atno 6908 bound_to 6896
  150.6861  134.3579  159.4981 H   0  0  0  0  0  0  0  0  0  0  0  0  # atno 6909 bound_to 6896
  145.7708  140.8814  143.0381 H   0  0  0  0  0  0  0  0  0  0  0  0  # atno 7974 bound_to 7965
  154.6349  140.0598  156.9776 H   0  0  0  0  0  0  0  0  0  0  0  0  # atno 8008 bound_to 7997
  155.1608  140.3282  155.4393 H   0  0  0  0  0  0  0  0  0  0  0  0  # atno 8009 bound_to 7997
  156.2502  140.1931  156.6715 H   0  0  0  0  0  0  0  0  0  0  0  0  # atno 8010 bound_to 7997
  139.6291  144.7112  151.2471 H   0  0  0  0  0  0  0  0  0  0  0  0  # atno 10167 bound_to 10162
  157.0291  130.6185  149.5732 H   0  0  0  0  0  0  0  0  0  0  0  0  # atno 10718 bound_to 10713
  153.0163  135.6360  154.1672 H   0  0  0  0  0  0  0  0  0  0  0  0  # atno 10763 bound_to 10752
  154.1410  135.2834  155.3162 H   0  0  0  0  0  0  0  0  0  0  0  0  # atno 10764 bound_to 10752
  154.6124  135.5552  153.7548 H   0  0  0  0  0  0  0  0  0  0  0  0  # atno 10765 bound_to 10752
  140.6039  134.4919  157.5208 H   0  0  0  0  0  0  0  0  0  0  0  0  # atno 11005 bound_to 11000
  144.6813  139.9852  143.7484 LP  0  0  0  0  0  0  0  0  0  0  0  0  # atno 17320 bound_to 7965
  146.0172  139.3220  143.0835 LP  0  0  0  0  0  0  0  0  0  0  0  0  # atno 17321 bound_to 7965
  140.7428  143.6514  150.8245 LP  0  0  0  0  0  0  0  0  0  0  0  0  # atno 17342 bound_to 10162
  140.0136  143.5616  152.2829 LP  0  0  0  0  0  0  0  0  0  0  0  0  # atno 17343 bound_to 10162
  156.0076  130.5164  150.7881 LP  0  0  0  0  0  0  0  0  0  0  0  0  # atno 17370 bound_to 10713
  157.5191  131.0930  151.0101 LP  0  0  0  0  0  0  0  0  0  0  0  0  # atno 17371 bound_to 10713
  139.9220  134.8129  156.1181 LP  0  0  0  0  0  0  0  0  0  0  0  0  # atno 17394 bound_to 11000
  141.0853  133.6736  156.2424 LP  0  0  0  0  0  0  0  0  0  0  0  0  # atno 17395 bound_to 11000

$$$$
