AV-unprocessed.smi:1006|AV-procd|sdf|4390|dock4
  -GOLD-   22720 2323D 1   1.00000     0.00000
 Structure written by MMmdl.
 45 47  0  0  0  0  0  0  0  0  1 V2000
  144.9159  143.6918  158.0970 C   0  0  0  0  0  0  0  0  0  0  0  0
  145.0878  143.4642  156.6101 C   0  0  0  0  0  0  0  0  0  0  0  0
  144.5252  144.3459  155.6622 C   0  0  0  0  0  0  0  0  0  0  0  0
  144.7603  144.0362  154.3063 C   0  0  0  0  0  0  0  0  0  0  0  0
  144.2484  144.8423  153.2930 N   0  0  0  0  0  0  0  0  0  0  0  0
  145.4849  142.9583  153.9375 N   0  0  0  0  0  0  0  0  0  0  0  0
  145.9638  142.1960  154.9234 C   0  0  0  0  0  0  0  0  0  0  0  0
  146.9372  140.7966  154.4030 S   0  0  0  0  0  0  0  0  0  0  0  0
  148.6237  141.4790  154.4270 C   0  0  0  0  0  0  0  0  0  0  0  0
  149.2625  141.3948  155.8224 C   0  0  2  0  0  0  0  0  0  0  0  0
  148.5133  142.1779  156.7328 O   0  0  0  0  0  0  0  0  0  0  0  0
  150.7259  141.8757  155.8159 C   0  0  0  0  0  0  0  0  0  0  0  0
  151.5176  141.2478  156.8579 N   0  0  0  0  0  0  0  0  0  0  0  0
  152.0876  140.0277  156.8285 C   0  0  0  0  0  0  0  0  0  0  0  0
  152.7753  139.6511  157.9030 N   0  0  0  0  0  0  0  0  0  0  0  0
  152.6355  140.7565  158.7250 C   0  0  0  0  0  0  0  0  0  0  0  0
  153.1312  141.0028  160.0242 C   0  0  0  0  0  0  0  0  0  0  0  0
  152.8600  142.2226  160.6844 C   0  0  0  0  0  0  0  0  0  0  0  0
  153.4131  142.4455  162.0810 C   0  0  0  0  0  0  0  0  0  0  0  0
  152.0818  143.2201  160.0436 C   0  0  0  0  0  0  0  0  0  0  0  0
  151.7772  144.5382  160.7331 C   0  0  0  0  0  0  0  0  0  0  0  0
  151.5789  142.9902  158.7459 C   0  0  0  0  0  0  0  0  0  0  0  0
  151.8549  141.7723  158.1001 C   0  0  0  0  0  0  0  0  0  0  0  0
  145.8112  142.3851  156.2377 N   0  0  0  0  0  0  0  0  0  0  0  0
  143.9997  144.2469  158.3004 H   0  0  0  0  0  0  0  0  0  0  0  0
  145.7577  144.2633  158.4886 H   0  0  0  0  0  0  0  0  0  0  0  0
  144.8636  142.7437  158.6333 H   0  0  0  0  0  0  0  0  0  0  0  0
  143.9496  145.2101  155.9600 H   0  0  0  0  0  0  0  0  0  0  0  0
  143.6989  145.6645  153.4972 H   0  0  0  0  0  0  0  0  0  0  0  0
  144.4004  144.6208  152.3196 H   0  0  0  0  0  0  0  0  0  0  0  0
  149.2327  140.9186  153.7171 H   0  0  0  0  0  0  0  0  0  0  0  0
  148.5963  142.5130  154.0810 H   0  0  0  0  0  0  0  0  0  0  0  0
  149.2307  140.3589  156.1631 H   0  0  0  0  0  0  0  0  0  0  0  0
  148.5324  143.0774  156.4442 H   0  0  0  0  0  0  0  0  0  0  0  0
  151.1916  141.6497  154.8559 H   0  0  0  0  0  0  0  0  0  0  0  0
  150.7771  142.9585  155.9390 H   0  0  0  0  0  0  0  0  0  0  0  0
  151.9945  139.3804  155.9685 H   0  0  0  0  0  0  0  0  0  0  0  0
  153.7244  140.2431  160.5118 H   0  0  0  0  0  0  0  0  0  0  0  0
  152.6035  142.6282  162.7881 H   0  0  0  0  0  0  0  0  0  0  0  0
  154.0849  143.3042  162.0928 H   0  0  0  0  0  0  0  0  0  0  0  0
  153.9731  141.5778  162.4311 H   0  0  0  0  0  0  0  0  0  0  0  0
  151.1971  145.1994  160.0888 H   0  0  0  0  0  0  0  0  0  0  0  0
  152.7005  145.0550  160.9963 H   0  0  0  0  0  0  0  0  0  0  0  0
  151.2025  144.3685  161.6438 H   0  0  0  0  0  0  0  0  0  0  0  0
  150.9851  143.7407  158.2453 H   0  0  0  0  0  0  0  0  0  0  0  0
  1  2  1  0  0  0  0
  1 25  1  0  0  0  0
  1 26  1  0  0  0  0
  1 27  1  0  0  0  0
  2 24  1  0  0  0  0
  2  3  2  0  0  0  0
  3  4  1  0  0  0  0
  3 28  1  0  0  0  0
  4  5  1  0  0  0  0
  4  6  2  0  0  0  0
  5 29  1  0  0  0  0
  5 30  1  0  0  0  0
  6  7  1  0  0  0  0
  7  8  1  0  0  0  0
  7 24  2  0  0  0  0
  8  9  1  0  0  0  0
  9 10  1  0  0  0  0
  9 31  1  0  0  0  0
  9 32  1  0  0  0  0
 10 11  1  0  0  0  0
 10 12  1  0  0  0  0
 10 33  1  0  0  0  0
 11 34  1  0  0  0  0
 12 13  1  0  0  0  0
 12 35  1  0  0  0  0
 12 36  1  0  0  0  0
 13 23  1  0  0  0  0
 13 14  1  0  0  0  0
 14 15  2  0  0  0  0
 14 37  1  0  0  0  0
 15 16  1  0  0  0  0
 16 23  2  0  0  0  0
 16 17  1  0  0  0  0
 17 18  2  0  0  0  0
 17 38  1  0  0  0  0
 18 19  1  0  0  0  0
 18 20  1  0  0  0  0
 19 39  1  0  0  0  0
 19 40  1  0  0  0  0
 19 41  1  0  0  0  0
 20 21  1  0  0  0  0
 20 22  2  0  0  0  0
 21 42  1  0  0  0  0
 21 43  1  0  0  0  0
 21 44  1  0  0  0  0
 22 23  1  0  0  0  0
 22 45  1  0  0  0  0
M  END
> <s_m_source_file>
AV-unprocessed.smi

> <i_m_source_file_index>
1006

> <i_lp_mmshare_version>
43012

> <i_f3d_flags>
0

> <s_epik_input>
W0NIM11jMVtjSF1jKFtOSDJdKW5jKG4xKVNbQ0gyXVtDQEhdKFtPSF0pW0NIMl1uKFtjSF1uMiljKGMyMylbY0hdYyhbQ0gzXSljKFtjSF0zKVtDSDNd

> <s_epik_cmdline>
J2VwaWtfcHl0aG9uJywgJy1waCcsICc3LjAnLCAnLXRuJywgJzgnLCAnLW1hJywgJzIwMCcsICctbWV0YWxfYmluZGluZycsICctaW1hZScsICc8aW5maWxlLm1hZT4nLCAnLW9tYWUnLCAnPG91dGZpbGUubWFlPic=

> <r_lp_tautomer_probability>
1

> <r_epik_Ionization_Penalty>
0.490208

> <r_epik_Ionization_Penalty_Charging>
0

> <r_epik_Ionization_Penalty_Neutral>
0.490208

> <r_epik_State_Penalty>
0.473203

> <r_epik_Charging_Adjusted_Penalty>
0.473203

> <i_epik_Tot_Q>
0

> <i_epik_Tot_abs_Q>
0

> <r_epik_Metal_State_Penalty>
0.354099

> <b_epik_Metal_Only>
0

> <s_lp_Force_Field>
OPLS_2005

> <r_lp_Energy>
3.13918

> <b_lp_Chiralities_Consistent>
1

> <s_lp_Variant>
AV-unprocessed.smi:1006-1

> <Gold.Version>
5.8.1

> <Gold.Id.Protein>
6NUR|6NUR_protein|mol2

> <Gold.PLP.Fitness>
50.0241

> <Gold.PLP.PLP>
-46.5330

> <Gold.PLP.part.hbond>
-2.5188

> <Gold.PLP.part.metal>
0.0000

> <Gold.PLP.part.buried>
-7.1197

> <Gold.PLP.part.nonpolar>
-37.0460

> <Gold.PLP.part.repulsive>
0.4581

> <Gold.PLP.ligand.clash>
0.0000

> <Gold.PLP.ligand.torsion>
1.1263

> <Gold.PLP.Chemscore.Hbond>
1.9000

> <Gold.PLP.Chemscore.CHOScore>
0.0000

> <Gold.PLP.Chemscore.Metal>
0.0000

> <Gold.Chemscore.Hbonds>
donor molecule, donor type, donor heavy atom, donor atom, acceptor molecule, acceptor atom, score
      L1  H    11    34       P1  8028  1.00
      P1  H  7997  8009       L1    15  0.59

> <Gold.PLP.Chemscore.Internal.Correction>
0.0437

> <Gold.Rescore>
     Score         DG    S(hbond)    S(metal)    S(lipo)     H(rot)  DE(clash)    DE(int)     intcor
     12.28     -14.76       0.92        0.00     114.90       2.82       0.15       2.33       ----

> <Gold.Chemscore.Fitness>
12.2844

> <Gold.Chemscore.DG>
-14.7609

> <Gold.Chemscore.ZeroCoef>
-5.4800

> <Gold.Chemscore.Hbond>
0.9158

> <Gold.Chemscore.Metal>
0.0000

> <Gold.Chemscore.Lipo>
114.9020

> <Gold.Chemscore.Internal_Hbond>
0.0000

> <Gold.Chemscore.DEClash>
0.1480

> <Gold.Chemscore.DEInternal>
2.3285

> <Gold.Chemscore.Rot>
2.8209

> <Gold.Chemscore.Internal.Correction>
   9.000000E+99

> <Gold.Chemscore.Hbonds>
donor molecule, donor type, donor heavy atom, donor atom, acceptor molecule, acceptor atom, score
      L1  H    11    34       P1  8028  0.85
      P1  H  7997  8009       L1    15  0.01

> <Gold.Chemscore.Hbond.Weighted>
-3.0588

> <Gold.Chemscore.Metal.Weighted>
-0.0000

> <Gold.Chemscore.Lipo.Weighted>
-13.4435

> <Gold.Chemscore.Internal_Hbond.Weighted>
0.0000

> <Gold.Chemscore.DEClash.Weighted>
0.1480

> <Gold.Chemscore.DEInternal.Weighted>
2.3285

> <Gold.Chemscore.Rot.Weighted>
7.2215

> <Gold.Chemscore.Internal.Correction.Weighted>
   9.000000E+99

> <Gold.Protein.RotatedTorsions>
[ 6907 6896 6895 6894 ] final   74.48 input  -60.11 | X-H torsion
[ 7974 7965 7964 7962 ] final  160.24 input  175.53 | X-H torsion
[ 8008 7997 7996 7995 ] final  156.65 input   59.86 | X-H torsion
[ 10167 10162 10161 10158 ] final  123.19 input  -65.29 | X-H torsion
[ 10718 10713 10712 10709 ] final   39.34 input   66.30 | X-H torsion
[ 10763 10752 10751 10750 ] final  113.72 input  -60.55 | X-H torsion
[ 11005 11000 10999 10996 ] final -171.27 input  -57.11 | X-H torsion

> <Gold.Protein.ActiveResidues>
 VAL166  LYS551  ARG553  GLY616  TRP617  ASP618  TYR619  PRO620  LYS621  CYS622 
 ASP623  PHE694  ASN695  SER759  ASP760  ASP761  ALA762  ILE779  LEU786  VAL792 
 PHE793  MET794  SER795  GLU796  ALA797  LYS798  CYS799  TRP800  GLU811  SER814 

> <Gold.Protein.RotatedAtoms>
  152.4978  134.4265  159.9497 H   0  0  0  0  0  0  0  0  0  0  0  0  # atno 6907 bound_to 6896
  151.4241  133.3683  159.2768 H   0  0  0  0  0  0  0  0  0  0  0  0  # atno 6908 bound_to 6896
  150.9201  134.8642  159.7543 H   0  0  0  0  0  0  0  0  0  0  0  0  # atno 6909 bound_to 6896
  144.7747  139.7730  143.6283 H   0  0  0  0  0  0  0  0  0  0  0  0  # atno 7974 bound_to 7965
  156.2410  140.1906  156.6988 H   0  0  0  0  0  0  0  0  0  0  0  0  # atno 8008 bound_to 7997
  154.6197  140.0610  156.9626 H   0  0  0  0  0  0  0  0  0  0  0  0  # atno 8009 bound_to 7997
  155.1882  140.3282  155.4366 H   0  0  0  0  0  0  0  0  0  0  0  0  # atno 8010 bound_to 7997
  139.5814  144.6988  151.3519 H   0  0  0  0  0  0  0  0  0  0  0  0  # atno 10167 bound_to 10162
  157.3694  130.7693  149.7107 H   0  0  0  0  0  0  0  0  0  0  0  0  # atno 10718 bound_to 10713
  153.4967  135.3647  155.2519 H   0  0  0  0  0  0  0  0  0  0  0  0  # atno 10763 bound_to 10752
  154.8749  135.3990  154.3525 H   0  0  0  0  0  0  0  0  0  0  0  0  # atno 10764 bound_to 10752
  153.4154  135.7079  153.6396 H   0  0  0  0  0  0  0  0  0  0  0  0  # atno 10765 bound_to 10752
  140.5101  134.5810  157.5016 H   0  0  0  0  0  0  0  0  0  0  0  0  # atno 11005 bound_to 11000
  146.1918  139.5163  142.9800 LP  0  0  0  0  0  0  0  0  0  0  0  0  # atno 17320 bound_to 7965
  145.6220  141.0320  143.1909 LP  0  0  0  0  0  0  0  0  0  0  0  0  # atno 17321 bound_to 7965
  140.7092  143.7435  150.7536 LP  0  0  0  0  0  0  0  0  0  0  0  0  # atno 17342 bound_to 10162
  140.0969  143.4825  152.2447 LP  0  0  0  0  0  0  0  0  0  0  0  0  # atno 17343 bound_to 10162
  155.9752  130.4091  150.3863 LP  0  0  0  0  0  0  0  0  0  0  0  0  # atno 17370 bound_to 10713
  157.1952  131.0425  151.2679 LP  0  0  0  0  0  0  0  0  0  0  0  0  # atno 17371 bound_to 10713
  139.9664  134.7366  156.0131 LP  0  0  0  0  0  0  0  0  0  0  0  0  # atno 17394 bound_to 11000
  141.1390  133.6569  156.3675 LP  0  0  0  0  0  0  0  0  0  0  0  0  # atno 17395 bound_to 11000

$$$$
