#       Name:                AV-unprocessed.smi:1489
#       Creating user name   scv26
#       Creation time:       Fri Mar 27 06:12:52 2020


#       File generated by GOLD software.
#

@<TRIPOS>MOLECULE
AV-unprocessed.smi:1489
    51    53     1
SMALL
NO_CHARGES


@<TRIPOS>ATOM
      1 ****        -0.9106   1.5740  -0.7686 O.2            1 S1                 0.0000
      2 ****        -1.2081   0.7448   0.0902 C.2            1 S1                 0.0000
      3 ****        -0.3577  -0.1104   0.6844 N.am           1 S1                 0.0000
      4 ****         1.0397  -0.2871   0.4842 C.ar           1 S1                 0.0000
      5 ****         1.8131   0.3782  -0.4965 C.ar           1 S1                 0.0000
      6 ****         3.1905   0.0994  -0.5847 C.ar           1 S1                 0.0000
      7 ****         3.7645  -0.8404   0.3034 C.ar           1 S1                 0.0000
      8 ****         5.1396  -1.1436   0.2501 N.pl3          1 S1                 0.0000
      9 ****         5.7189  -2.2182   1.0415 C.3            1 S1                 0.0000
     10 ****         7.1730  -2.2974   0.5798 C.3            1 S1                 0.0000
     11 ****         7.0914  -1.8932  -0.8921 C.3            1 S1                 0.0000
     12 ****         5.9376  -0.8849  -0.9407 C.3            1 S1                 0.0000
     13 ****         3.0237  -1.4734   1.2433 N.ar           1 S1                 0.0000
     14 ****         1.7045  -1.2033   1.3236 C.ar           1 S1                 0.0000
     15 ****        -2.4539   0.5850   0.5596 N.am           1 S1                 0.0000
     16 ****        -3.6223   1.3498   0.1334 C.3            1 S1                 0.0000
     17 ****        -4.6692   1.3632   1.2621 C.3            1 S1                 0.0000
     18 ****        -5.9435   2.1172   0.8424 C.3            1 S1                 0.0000
     19 ****        -6.5444   1.5651  -0.4638 C.3            1 S1                 0.0000
     20 ****        -7.0918   0.2808  -0.2398 O.3            1 S1                 0.0000
     21 ****        -5.4936   1.5030  -1.5884 C.3            1 S1                 0.0000
     22 ****        -4.2198   0.7547  -1.1577 C.3            1 S1                 0.0000
     23 ****        -0.7650  -0.7127   1.3847 H              1 S1                 0.0000
     24 ****         1.3918   1.0919  -1.1854 H              1 S1                 0.0000
     25 ****         3.7848   0.6128  -1.3257 H              1 S1                 0.0000
     26 ****         5.6456  -2.0171   2.1107 H              1 S1                 0.0000
     27 ****         5.1957  -3.1511   0.8276 H              1 S1                 0.0000
     28 ****         7.7754  -1.5717   1.1279 H              1 S1                 0.0000
     29 ****         7.6127  -3.2838   0.7293 H              1 S1                 0.0000
     30 ****         8.0271  -1.4841  -1.2738 H              1 S1                 0.0000
     31 ****         6.8375  -2.7666  -1.4943 H              1 S1                 0.0000
     32 ****         5.3604  -0.9988  -1.8588 H              1 S1                 0.0000
     33 ****         6.3149   0.1372  -0.8962 H              1 S1                 0.0000
     34 ****         1.1615  -1.7392   2.0884 H              1 S1                 0.0000
     35 ****        -2.6079  -0.1194   1.2662 H              1 S1                 0.0000
     36 ****        -3.3208   2.3813  -0.0599 H              1 S1                 0.0000
     37 ****        -4.9274   0.3404   1.5406 H              1 S1                 0.0000
     38 ****        -4.2490   1.8275   2.1552 H              1 S1                 0.0000
     39 ****        -6.6826   2.0806   1.6438 H              1 S1                 0.0000
     40 ****        -5.6997   3.1711   0.7032 H              1 S1                 0.0000
     41 ****        -7.3657   2.2099  -0.7785 H              1 S1                 0.0000
     42 ****        -7.4899  -0.0204  -1.0423 H              1 S1                 0.0000
     43 ****        -5.9184   1.0382  -2.4791 H              1 S1                 0.0000
     44 ****        -5.2232   2.5194  -1.8773 H              1 S1                 0.0000
     45 ****        -3.4868   0.7941  -1.9645 H              1 S1                 0.0000
     46 ****        -4.4508  -0.3007  -1.0057 H              1 S1                 0.0000
     47 ****         0.0360   1.6524  -1.0813 LP             1 S1                 0.0000
     48 ****        -1.6155   2.1695  -1.1541 LP             1 S1                 0.0000
     49 ****         3.4472  -2.1300   1.8673 LP             1 S1                 0.0000
     50 ****        -7.7827   0.3298   0.4815 LP             1 S1                 0.0000
     51 ****        -6.3673  -0.3513   0.0350 LP             1 S1                 0.0000
@<TRIPOS>BOND
    1    1    2 2     
    2    2    3 am    
    3    2   15 am    
    4    3    4 1     
    5    3   23 1     
    6    4   14 ar    
    7    4    5 ar    
    8    5    6 ar    
    9    5   24 1     
   10    6    7 ar    
   11    6   25 1     
   12    7    8 1     
   13    7   13 ar    
   14    8   12 1     
   15    8    9 1     
   16    9   10 1     
   17    9   26 1     
   18    9   27 1     
   19   10   11 1     
   20   10   28 1     
   21   10   29 1     
   22   11   12 1     
   23   11   30 1     
   24   11   31 1     
   25   12   32 1     
   26   12   33 1     
   27   13   14 ar    
   28   14   34 1     
   29   15   16 1     
   30   15   35 1     
   31   16   22 1     
   32   16   17 1     
   33   16   36 1     
   34   17   18 1     
   35   17   37 1     
   36   17   38 1     
   37   18   19 1     
   38   18   39 1     
   39   18   40 1     
   40   19   20 1     
   41   19   21 1     
   42   19   41 1     
   43   20   42 1     
   44   21   22 1     
   45   21   43 1     
   46   21   44 1     
   47   22   45 1     
   48   22   46 1     
   49    1   47 1     
   50    1   48 1     
   51   13   49 1     
   52   20   50 1     
   53   20   51 1     
@<TRIPOS>SUBSTRUCTURE
      1 S1             1
@<TRIPOS>SET
LONE_PAIRS      STATIC     ATOMS    <user>   **** ""
5 47 48 49 50 51
DONOR_HYDROGENS      STATIC     ATOMS    <user>   **** ""
3 23 35 42
ATOM$BLUE        STATIC     ATOMS    COLORGROUP SYSTEM
5 47 48 49 50 51
ATOM$RED        STATIC     ATOMS    COLORGROUP SYSTEM
3 23 35 42
