#       Name:                AV-unprocessed.smi:3283
#       Creating user name   scv26
#       Creation time:       Fri Mar 27 18:49:05 2020


#       File generated by GOLD software.
#

@<TRIPOS>MOLECULE
AV-unprocessed.smi:3283
    45    46     1
SMALL
NO_CHARGES


@<TRIPOS>ATOM
      1 ****        -0.5884   0.7988   2.3781 C.3            1 S1                 0.0000
      2 ****        -1.7223   1.0405   1.3958 C.2            1 S1                 0.0000
      3 ****        -2.8650   1.6113   1.8228 C.2            1 S1                 0.0000
      4 ****        -4.0260   1.9692   0.9244 C.3            1 S1                 0.0000
      5 ****        -3.5763   2.0844  -0.5338 C.3            1 S1                 0.0000
      6 ****        -2.7588   0.8569  -0.9680 C.3            1 S1                 0.0000
      7 ****        -2.4098   0.9786  -2.4644 C.3            1 S1                 0.0000
      8 ****        -1.4970   0.6383  -0.0765 C.3            1 S1                 0.0000
      9 ****        -0.9841  -0.8184  -0.2291 C.3            1 S1                 0.0000
     10 ****         0.4356  -0.9686   0.1489 N.4            1 S1                 1.0000
     11 ****         0.9416  -2.3533   0.0728 C.3            1 S1                 0.0000
     12 ****         2.4230  -2.4388   0.4707 C.3            1 S1                 0.0000
     13 ****         3.3351  -1.6727  -0.4387 C.2            1 S1                 0.0000
     14 ****         3.8716  -2.0398  -1.6413 C.2            1 S1                 0.0000
     15 ****         4.6343  -0.9091  -2.0426 C.2            1 S1                 0.0000
     16 ****         4.5751   0.0775  -1.1657 N.2            1 S1                 0.0000
     17 ****         3.7841  -0.3884  -0.1760 N.pl3          1 S1                 0.0000
     18 ****         3.5151   0.4671   0.9651 C.3            1 S1                 0.0000
     19 ****         0.3423   1.2173   1.9957 H              1 S1                 0.0000
     20 ****        -0.4512  -0.2661   2.5637 H              1 S1                 0.0000
     21 ****        -0.7900   1.2717   3.3397 H              1 S1                 0.0000
     22 ****        -2.9884   1.8570   2.8677 H              1 S1                 0.0000
     23 ****        -4.8006   1.2097   1.0345 H              1 S1                 0.0000
     24 ****        -4.4550   2.9162   1.2533 H              1 S1                 0.0000
     25 ****        -4.4515   2.2066  -1.1731 H              1 S1                 0.0000
     26 ****        -2.9750   2.9864  -0.6587 H              1 S1                 0.0000
     27 ****        -3.4098  -0.0112  -0.8500 H              1 S1                 0.0000
     28 ****        -1.7500   1.8272  -2.6477 H              1 S1                 0.0000
     29 ****        -3.3089   1.1289  -3.0628 H              1 S1                 0.0000
     30 ****        -1.9184   0.0882  -2.8530 H              1 S1                 0.0000
     31 ****        -0.7231   1.3135  -0.4452 H              1 S1                 0.0000
     32 ****        -1.5980  -1.4904   0.3726 H              1 S1                 0.0000
     33 ****        -1.0748  -1.1616  -1.2584 H              1 S1                 0.0000
     34 ****         0.9930  -0.3889  -0.4627 H              1 S1                 0.0000
     35 ****         0.3482  -2.9837   0.7364 H              1 S1                 0.0000
     36 ****         0.8049  -2.7357  -0.9398 H              1 S1                 0.0000
     37 ****         2.5451  -2.1082   1.5021 H              1 S1                 0.0000
     38 ****         2.7254  -3.4866   0.4657 H              1 S1                 0.0000
     39 ****         3.7370  -2.9777  -2.1597 H              1 S1                 0.0000
     40 ****         5.2221  -0.7761  -2.9390 H              1 S1                 0.0000
     41 ****         3.6351  -0.0943   1.8916 H              1 S1                 0.0000
     42 ****         2.4976   0.8511   0.9040 H              1 S1                 0.0000
     43 ****         4.2066   1.3109   0.9825 H              1 S1                 0.0000
     44 ****         0.5483  -0.6389   1.0968 H              1 S1                 0.0000
     45 ****         5.0185   0.9721  -1.2226 LP             1 S1                 0.0000
@<TRIPOS>BOND
    1    1    2 1     
    2    1   19 1     
    3    1   20 1     
    4    1   21 1     
    5    2    8 1     
    6    2    3 2     
    7    3    4 1     
    8    3   22 1     
    9    4    5 1     
   10    4   23 1     
   11    4   24 1     
   12    5    6 1     
   13    5   25 1     
   14    5   26 1     
   15    6    7 1     
   16    6    8 1     
   17    6   27 1     
   18    7   28 1     
   19    7   29 1     
   20    7   30 1     
   21    8    9 1     
   22    8   31 1     
   23    9   10 1     
   24    9   32 1     
   25    9   33 1     
   26   10   11 1     
   27   10   34 1     
   28   10   44 1     
   29   11   12 1     
   30   11   35 1     
   31   11   36 1     
   32   12   13 1     
   33   12   37 1     
   34   12   38 1     
   35   13   17 1     
   36   13   14 2     
   37   14   15 1     
   38   14   39 1     
   39   15   16 2     
   40   15   40 1     
   41   16   17 1     
   42   17   18 1     
   43   18   41 1     
   44   18   42 1     
   45   18   43 1     
   46   16   45 1     
@<TRIPOS>SUBSTRUCTURE
      1 S1             1
@<TRIPOS>SET
LONE_PAIRS      STATIC     ATOMS    <user>   **** ""
1 45
DONOR_HYDROGENS      STATIC     ATOMS    <user>   **** ""
2 34 44
ATOM$BLUE        STATIC     ATOMS    COLORGROUP SYSTEM
1 45
ATOM$RED        STATIC     ATOMS    COLORGROUP SYSTEM
2 34 44
