AV-unprocessed.smi:3016|AV-procd|sdf|11474|dock4
  -GOLD-   2272016413D 1   1.00000     0.00000
 Structure written by MMmdl.
 34 35  0  0  0  0  0  0  0  0  1 V2000
  154.6384  140.6662  159.8050 C   0  0  0  0  0  0  0  0  0  0  0  0
  153.5486  141.1295  160.7781 C   0  0  0  0  0  0  0  0  0  0  0  0
  152.7679  142.2295  160.2299 N   0  0  0  0  0  0  0  0  0  0  0  0
  152.8002  143.4949  160.8062 C   0  0  0  0  0  0  0  0  0  0  0  0
  152.1399  144.5629  160.3188 C   0  0  0  0  0  0  0  0  0  0  0  0
  151.3272  144.4144  159.0948 C   0  0  0  0  0  0  0  0  0  0  0  0
  150.7070  145.3686  158.6252 O   0  0  0  0  0  0  0  0  0  0  0  0
  151.3016  143.0644  158.4712 C   0  0  0  0  0  0  0  0  0  0  0  0
  150.5264  142.9357  157.3063 N   0  0  0  0  0  0  0  0  0  0  0  0
  150.3893  141.8825  156.4799 C   0  0  0  0  0  0  0  0  0  0  0  0
  150.9522  140.7942  156.5950 O   0  0  0  0  0  0  0  0  0  0  0  0
  149.5440  142.1690  155.4799 N   0  0  0  0  0  0  0  0  0  0  0  0
  149.1880  141.2581  154.3998 C   0  0  0  0  0  0  0  0  0  0  0  0
  147.7175  141.2544  154.0283 C   0  0  0  0  0  0  0  0  0  0  0  0
  146.9145  142.5330  154.0834 C   0  0  0  0  0  0  0  0  0  0  0  0
  146.6436  141.4300  155.0773 C   0  0  0  0  0  0  0  0  0  0  0  0
  152.0127  142.0740  159.0690 C   0  0  0  0  0  0  0  0  0  0  0  0
  155.2131  139.8434  160.2299 H   0  0  0  0  0  0  0  0  0  0  0  0
  155.3331  141.4754  159.5776 H   0  0  0  0  0  0  0  0  0  0  0  0
  154.2064  140.3202  158.8655 H   0  0  0  0  0  0  0  0  0  0  0  0
  152.8866  140.2960  161.0162 H   0  0  0  0  0  0  0  0  0  0  0  0
  154.0007  141.4391  161.7210 H   0  0  0  0  0  0  0  0  0  0  0  0
  153.4038  143.5622  161.6998 H   0  0  0  0  0  0  0  0  0  0  0  0
  152.1922  145.5272  160.8024 H   0  0  0  0  0  0  0  0  0  0  0  0
  150.0068  143.7657  157.0602 H   0  0  0  0  0  0  0  0  0  0  0  0
  149.1246  143.0871  155.4579 H   0  0  0  0  0  0  0  0  0  0  0  0
  149.7911  141.4701  153.5151 H   0  0  0  0  0  0  0  0  0  0  0  0
  149.4589  140.2514  154.7178 H   0  0  0  0  0  0  0  0  0  0  0  0
  147.4776  140.5898  153.2003 H   0  0  0  0  0  0  0  0  0  0  0  0
  147.4101  143.4288  154.4526 H   0  0  0  0  0  0  0  0  0  0  0  0
  146.1770  142.6973  153.3004 H   0  0  0  0  0  0  0  0  0  0  0  0
  145.7274  140.8557  154.9568 H   0  0  0  0  0  0  0  0  0  0  0  0
  146.9602  141.5914  156.1060 H   0  0  0  0  0  0  0  0  0  0  0  0
  152.0445  141.0636  158.6947 H   0  0  0  0  0  0  0  0  0  0  0  0
  1  2  1  0  0  0  0
  1 18  1  0  0  0  0
  1 19  1  0  0  0  0
  1 20  1  0  0  0  0
  2  3  1  0  0  0  0
  2 21  1  0  0  0  0
  2 22  1  0  0  0  0
  3 17  1  0  0  0  0
  3  4  1  0  0  0  0
  4  5  2  0  0  0  0
  4 23  1  0  0  0  0
  5  6  1  0  0  0  0
  5 24  1  0  0  0  0
  6  7  2  0  0  0  0
  6  8  1  0  0  0  0
  8  9  1  0  0  0  0
  8 17  2  0  0  0  0
  9 10  1  0  0  0  0
  9 25  1  0  0  0  0
 10 11  2  0  0  0  0
 10 12  1  0  0  0  0
 12 13  1  0  0  0  0
 12 26  1  0  0  0  0
 13 14  1  0  0  0  0
 13 27  1  0  0  0  0
 13 28  1  0  0  0  0
 14 16  1  0  0  0  0
 14 15  1  0  0  0  0
 14 29  1  0  0  0  0
 15 16  1  0  0  0  0
 15 30  1  0  0  0  0
 15 31  1  0  0  0  0
 16 32  1  0  0  0  0
 16 33  1  0  0  0  0
 17 34  1  0  0  0  0
M  END
> <s_m_source_file>
AV-unprocessed.smi

> <i_m_source_file_index>
3016

> <i_lp_mmshare_version>
43012

> <i_f3d_flags>
0

> <s_epik_input>
W0NIM11bQ0gyXW4xW2NIXVtjSF1jKD1PKWMoW2NIXTEpW05IXUMoPU8pW05IXVtDSDJdW0NIXTJbQ0gyXVtDSDJdMg==

> <s_epik_cmdline>
J2VwaWtfcHl0aG9uJywgJy1waCcsICc3LjAnLCAnLXRuJywgJzgnLCAnLW1hJywgJzIwMCcsICctbWV0YWxfYmluZGluZycsICctaW1hZScsICc8aW5maWxlLm1hZT4nLCAnLW9tYWUnLCAnPG91dGZpbGUubWFlPic=

> <r_lp_tautomer_probability>
1

> <r_epik_Ionization_Penalty>
0.00140323

> <r_epik_Ionization_Penalty_Charging>
0.00138172

> <r_epik_Ionization_Penalty_Neutral>
2.15082e-05

> <r_epik_State_Penalty>
0.000920559

> <r_epik_Charging_Adjusted_Penalty>
0.00230228

> <i_epik_Tot_Q>
0

> <i_epik_Tot_abs_Q>
0

> <r_epik_Metal_State_Penalty>
-0

> <b_epik_Metal_Only>
0

> <s_lp_Force_Field>
OPLS_2005

> <r_lp_Energy>
6.69626

> <b_lp_Chiralities_Consistent>
1

> <s_lp_Variant>
AV-unprocessed.smi:3016-1

> <Gold.Version>
5.8.1

> <Gold.Id.Protein>
6NUR|6NUR_protein|mol2

> <Gold.PLP.Fitness>
47.1072

> <Gold.PLP.PLP>
-41.5149

> <Gold.PLP.part.hbond>
-2.5252

> <Gold.PLP.part.metal>
0.0000

> <Gold.PLP.part.buried>
-5.5075

> <Gold.PLP.part.nonpolar>
-34.0643

> <Gold.PLP.part.repulsive>
0.3931

> <Gold.PLP.ligand.clash>
0.0000

> <Gold.PLP.ligand.torsion>
0.4157

> <Gold.PLP.Chemscore.Hbond>
1.9600

> <Gold.PLP.Chemscore.CHOScore>
0.0000

> <Gold.PLP.Chemscore.Metal>
0.0000

> <Gold.Chemscore.Hbonds>
donor molecule, donor type, donor heavy atom, donor atom, acceptor molecule, acceptor atom, score
      L1  H     9    25       P1  8028  0.96
      L1  H    12    26       P1  8028  1.00

> <Gold.PLP.Chemscore.Internal.Correction>
0.5437

> <Gold.Rescore>
     Score         DG    S(hbond)    S(metal)    S(lipo)     H(rot)  DE(clash)    DE(int)     intcor
     16.84     -18.88       1.92        0.00      89.32       1.36       0.51       1.53       ----

> <Gold.Chemscore.Fitness>
16.8376

> <Gold.Chemscore.DG>
-18.8802

> <Gold.Chemscore.ZeroCoef>
-5.4800

> <Gold.Chemscore.Hbond>
1.9231

> <Gold.Chemscore.Metal>
0.0000

> <Gold.Chemscore.Lipo>
89.3235

> <Gold.Chemscore.Internal_Hbond>
0.0000

> <Gold.Chemscore.DEClash>
0.5147

> <Gold.Chemscore.DEInternal>
1.5279

> <Gold.Chemscore.Rot>
1.3569

> <Gold.Chemscore.Internal.Correction>
   9.000000E+99

> <Gold.Chemscore.Hbonds>
donor molecule, donor type, donor heavy atom, donor atom, acceptor molecule, acceptor atom, score
      L1  H     9    25       P1  8028  0.84
      L1  H    12    26       P1  8028  1.00

> <Gold.Chemscore.Hbond.Weighted>
-6.4231

> <Gold.Chemscore.Metal.Weighted>
-0.0000

> <Gold.Chemscore.Lipo.Weighted>
-10.4509

> <Gold.Chemscore.Internal_Hbond.Weighted>
0.0000

> <Gold.Chemscore.DEClash.Weighted>
0.5147

> <Gold.Chemscore.DEInternal.Weighted>
1.5279

> <Gold.Chemscore.Rot.Weighted>
3.4737

> <Gold.Chemscore.Internal.Correction.Weighted>
   9.000000E+99

> <Gold.Protein.RotatedTorsions>
[ 6907 6896 6895 6894 ] final -155.93 input  -60.11 | X-H torsion
[ 7974 7965 7964 7962 ] final   78.58 input  175.53 | X-H torsion
[ 8008 7997 7996 7995 ] final -115.19 input   59.86 | X-H torsion
[ 10167 10162 10161 10158 ] final  -40.33 input  -65.29 | X-H torsion
[ 10718 10713 10712 10709 ] final  -94.65 input   66.30 | X-H torsion
[ 10763 10752 10751 10750 ] final -169.09 input  -60.55 | X-H torsion
[ 11005 11000 10999 10996 ] final -135.57 input  -57.11 | X-H torsion

> <Gold.Protein.ActiveResidues>
 VAL166  LYS551  ARG553  GLY616  TRP617  ASP618  TYR619  PRO620  LYS621  CYS622 
 ASP623  PHE694  ASN695  SER759  ASP760  ASP761  ALA762  ILE779  LEU786  VAL792 
 PHE793  MET794  SER795  GLU796  ALA797  LYS798  CYS799  TRP800  GLU811  SER814 

> <Gold.Protein.RotatedAtoms>
  151.2799  133.4214  159.2626 H   0  0  0  0  0  0  0  0  0  0  0  0  # atno 6907 bound_to 6896
  151.0370  134.9580  159.8151 H   0  0  0  0  0  0  0  0  0  0  0  0  # atno 6908 bound_to 6896
  152.5357  134.2759  159.9041 H   0  0  0  0  0  0  0  0  0  0  0  0  # atno 6909 bound_to 6896
  145.6753  139.2508  143.1845 H   0  0  0  0  0  0  0  0  0  0  0  0  # atno 7974 bound_to 7965
  155.0481  140.0392  157.2534 H   0  0  0  0  0  0  0  0  0  0  0  0  # atno 8008 bound_to 7997
  154.7160  140.2702  155.6561 H   0  0  0  0  0  0  0  0  0  0  0  0  # atno 8009 bound_to 7997
  156.2803  140.2712  156.1817 H   0  0  0  0  0  0  0  0  0  0  0  0  # atno 8010 bound_to 7997
  140.7037  143.3160  151.2908 H   0  0  0  0  0  0  0  0  0  0  0  0  # atno 10167 bound_to 10162
  156.0030  130.5076  150.5959 H   0  0  0  0  0  0  0  0  0  0  0  0  # atno 10718 bound_to 10713
  154.6560  135.2918  154.9927 H   0  0  0  0  0  0  0  0  0  0  0  0  # atno 10763 bound_to 10752
  154.1003  135.6577  153.4871 H   0  0  0  0  0  0  0  0  0  0  0  0  # atno 10764 bound_to 10752
  153.0403  135.5241  154.7489 H   0  0  0  0  0  0  0  0  0  0  0  0  # atno 10765 bound_to 10752
  140.8886  134.1841  157.4543 H   0  0  0  0  0  0  0  0  0  0  0  0  # atno 11005 bound_to 11000
  146.1011  140.7543  142.9549 LP  0  0  0  0  0  0  0  0  0  0  0  0  # atno 17320 bound_to 7965
  144.7043  140.3788  143.7130 LP  0  0  0  0  0  0  0  0  0  0  0  0  # atno 17321 bound_to 7965
  139.6599  144.0208  152.2685 LP  0  0  0  0  0  0  0  0  0  0  0  0  # atno 17342 bound_to 10162
  139.9772  144.6453  150.7934 LP  0  0  0  0  0  0  0  0  0  0  0  0  # atno 17343 bound_to 10162
  157.3816  131.0782  151.1472 LP  0  0  0  0  0  0  0  0  0  0  0  0  # atno 17370 bound_to 10713
  157.2193  130.6474  149.5804 LP  0  0  0  0  0  0  0  0  0  0  0  0  # atno 17371 bound_to 10713
  139.8727  134.9848  156.5257 LP  0  0  0  0  0  0  0  0  0  0  0  0  # atno 17394 bound_to 11000
  140.8375  133.8231  155.9042 LP  0  0  0  0  0  0  0  0  0  0  0  0  # atno 17395 bound_to 11000

$$$$
