AV-unprocessed.smi:2526|AV-procd|sdf|9937|dock10
  -GOLD-   2272013583D 1   1.00000     0.00000
 Structure written by MMmdl.
 29 30  0  0  0  0  0  0  0  0  2 V2000
  151.0816  138.3605  154.7380 C   0  0  0  0  0  0  0  0  0  0  0  0
  150.9495  139.5619  155.5339 N   0  0  0  0  0  0  0  0  0  0  0  0
  151.1488  139.7221  156.8878 C   0  0  0  0  0  0  0  0  0  0  0  0
  150.9016  141.0337  157.1895 C   0  0  0  0  0  0  0  0  0  0  0  0
  150.9803  141.7403  158.5217 C   0  0  1  0  0  0  0  0  0  0  0  0
  152.2684  141.4794  159.1698 N   0  0  0  0  0  0  0  0  0  0  0  0
  152.9665  142.3255  159.9483 C   0  0  0  0  0  0  0  0  0  0  0  0
  154.0092  141.9784  160.4966 O   0  0  0  0  0  0  0  0  0  0  0  0
  152.4665  143.7679  160.1236 C   0  0  0  0  0  0  0  0  0  0  0  0
  151.0051  143.9737  159.6917 C   0  0  0  0  0  0  0  0  0  0  0  0
  150.7186  143.2568  158.3672 C   0  0  2  0  0  0  0  0  0  0  0  0
  149.3473  143.5299  157.8996 N   0  3  0  0  0  0  0  0  0  0  0  0
  150.5488  141.5959  155.9284 C   0  0  0  0  0  0  0  0  0  0  0  0
  150.5814  140.7161  154.9422 N   0  0  0  0  0  0  0  0  0  0  0  0
  151.6630  137.6151  155.2814 H   0  0  0  0  0  0  0  0  0  0  0  0
  151.5884  138.5874  153.7992 H   0  0  0  0  0  0  0  0  0  0  0  0
  150.0932  137.9535  154.5224 H   0  0  0  0  0  0  0  0  0  0  0  0
  151.4489  138.8979  157.5187 H   0  0  0  0  0  0  0  0  0  0  0  0
  150.2263  141.3315  159.1965 H   0  0  0  0  0  0  0  0  0  0  0  0
  152.6425  140.5477  159.0575 H   0  0  0  0  0  0  0  0  0  0  0  0
  152.5964  144.0745  161.1622 H   0  0  0  0  0  0  0  0  0  0  0  0
  153.1137  144.4115  159.5269 H   0  0  0  0  0  0  0  0  0  0  0  0
  150.3362  143.6030  160.4701 H   0  0  0  0  0  0  0  0  0  0  0  0
  150.8040  145.0413  159.5947 H   0  0  0  0  0  0  0  0  0  0  0  0
  151.3947  143.6582  157.6101 H   0  0  0  0  0  0  0  0  0  0  0  0
  148.7275  142.8014  158.2241 H   0  0  0  0  0  0  0  0  0  0  0  0
  149.3369  143.5567  156.8899 H   0  0  0  0  0  0  0  0  0  0  0  0
  150.2742  142.6155  155.7018 H   0  0  0  0  0  0  0  0  0  0  0  0
  149.0387  144.4206  158.2623 H   0  0  0  0  0  0  0  0  0  0  0  0
  1  2  1  0  0  0  0
  1 15  1  0  0  0  0
  1 16  1  0  0  0  0
  1 17  1  0  0  0  0
  2 14  1  0  0  0  0
  2  3  1  0  0  0  0
  3  4  2  0  0  0  0
  3 18  1  0  0  0  0
  4  5  1  0  0  0  0
  4 13  1  0  0  0  0
  5 11  1  0  0  0  0
  5  6  1  0  0  0  0
  5 19  1  0  0  0  0
  6  7  1  0  0  0  0
  6 20  1  0  0  0  0
  7  8  2  0  0  0  0
  7  9  1  0  0  0  0
  9 10  1  0  0  0  0
  9 21  1  0  0  0  0
  9 22  1  0  0  0  0
 10 11  1  0  0  0  0
 10 23  1  0  0  0  0
 10 24  1  0  0  0  0
 11 12  1  0  0  0  0
 11 25  1  0  0  0  0
 12 26  1  0  0  0  0
 12 27  1  0  0  0  0
 12 29  1  0  0  0  0
 13 14  2  0  0  0  0
 13 28  1  0  0  0  0
M  CHG  1  12   1
M  END
> <s_m_source_file>
AV-unprocessed.smi

> <i_m_source_file_index>
2526

> <i_lp_mmshare_version>
43012

> <i_f3d_flags>
0

> <s_epik_input>
W0NIM11uMVtjSF1jKFtjSF1uMSlbQ0BASF0yW05IXUMoPU8pW0NIMl1bQ0gyXVtDQEhdMltOSDJd

> <s_epik_cmdline>
J2VwaWtfcHl0aG9uJywgJy1waCcsICc3LjAnLCAnLXRuJywgJzgnLCAnLW1hJywgJzIwMCcsICctbWV0YWxfYmluZGluZycsICctaW1hZScsICc8aW5maWxlLm1hZT4nLCAnLW9tYWUnLCAnPG91dGZpbGUubWFlPic=

> <r_lp_tautomer_probability>
1

> <r_epik_Ionization_Penalty>
0.00878543

> <r_epik_Ionization_Penalty_Charging>
0.00874185

> <r_epik_Ionization_Penalty_Neutral>
4.35793e-05

> <r_epik_State_Penalty>
0.00660351

> <r_epik_Charging_Adjusted_Penalty>
0.0153454

> <i_epik_Tot_Q>
1

> <i_epik_Tot_abs_Q>
1

> <r_epik_Metal_State_Penalty>
0.00660727

> <b_epik_Metal_Only>
0

> <s_lp_Force_Field>
OPLS_2005

> <r_lp_Energy>
10.7235

> <b_lp_Chiralities_Consistent>
1

> <s_lp_Variant>
AV-unprocessed.smi:2526-4

> <Gold.Version>
5.8.1

> <Gold.Id.Protein>
6NUR|6NUR_protein|mol2

> <Gold.PLP.Fitness>
40.5153

> <Gold.PLP.PLP>
-28.2563

> <Gold.PLP.part.hbond>
-3.0000

> <Gold.PLP.part.metal>
0.0000

> <Gold.PLP.part.buried>
-2.0692

> <Gold.PLP.part.nonpolar>
-22.5053

> <Gold.PLP.part.repulsive>
0.2374

> <Gold.PLP.ligand.clash>
0.0000

> <Gold.PLP.ligand.torsion>
0.0931

> <Gold.PLP.Chemscore.Hbond>
3.1412

> <Gold.PLP.Chemscore.CHOScore>
1.0000

> <Gold.PLP.Chemscore.Metal>
0.0000

> <Gold.Chemscore.Hbonds>
donor molecule, donor type, donor heavy atom, donor atom, acceptor molecule, acceptor atom, score
      L1  H    12    27       P1  8028  1.41
      L1  H    12    29       P1  8029  0.80
      P1  H  7989  7998       L1    14  0.90
      L1  C    13    28       P1  8028  1.00

> <Gold.PLP.Chemscore.Internal.Correction>
0.0215

> <Gold.Rescore>
     Score         DG    S(hbond)    S(metal)    S(lipo)     H(rot)  DE(clash)    DE(int)     intcor
     15.33     -15.43       1.55        0.00      62.76       1.00       0.02       0.08       ----

> <Gold.Chemscore.Fitness>
15.3282

> <Gold.Chemscore.DG>
-15.4304

> <Gold.Chemscore.ZeroCoef>
-5.4800

> <Gold.Chemscore.Hbond>
1.5470

> <Gold.Chemscore.Metal>
0.0000

> <Gold.Chemscore.Lipo>
62.7635

> <Gold.Chemscore.Internal_Hbond>
0.0000

> <Gold.Chemscore.DEClash>
0.0207

> <Gold.Chemscore.DEInternal>
0.0815

> <Gold.Chemscore.Rot>
1.0000

> <Gold.Chemscore.Internal.Correction>
   9.000000E+99

> <Gold.Chemscore.Hbonds>
donor molecule, donor type, donor heavy atom, donor atom, acceptor molecule, acceptor atom, score
      L1  H    12    27       P1  8028  0.63
      L1  H    12    29       P1  8029  0.12
      P1  H  7989  7998       L1    14  0.48

> <Gold.Chemscore.Hbond.Weighted>
-5.1671

> <Gold.Chemscore.Metal.Weighted>
-0.0000

> <Gold.Chemscore.Lipo.Weighted>
-7.3433

> <Gold.Chemscore.Internal_Hbond.Weighted>
0.0000

> <Gold.Chemscore.DEClash.Weighted>
0.0207

> <Gold.Chemscore.DEInternal.Weighted>
0.0815

> <Gold.Chemscore.Rot.Weighted>
2.5600

> <Gold.Chemscore.Internal.Correction.Weighted>
   9.000000E+99

> <Gold.Protein.RotatedTorsions>
[ 6907 6896 6895 6894 ] final   94.47 input  -60.11 | X-H torsion
[ 7974 7965 7964 7962 ] final  163.32 input  175.53 | X-H torsion
[ 8008 7997 7996 7995 ] final -107.05 input   59.86 | X-H torsion
[ 10167 10162 10161 10158 ] final  139.96 input  -65.29 | X-H torsion
[ 10718 10713 10712 10709 ] final  -71.57 input   66.30 | X-H torsion
[ 10763 10752 10751 10750 ] final  126.02 input  -60.55 | X-H torsion
[ 11005 11000 10999 10996 ] final   13.54 input  -57.11 | X-H torsion

> <Gold.Protein.ActiveResidues>
 VAL166  LYS551  ARG553  GLY616  TRP617  ASP618  TYR619  PRO620  LYS621  CYS622 
 ASP623  PHE694  ASN695  SER759  ASP760  ASP761  ALA762  ILE779  LEU786  VAL792 
 PHE793  MET794  SER795  GLU796  ALA797  LYS798  CYS799  TRP800  GLU811  SER814 

> <Gold.Protein.RotatedAtoms>
  152.5449  134.1189  159.8390 H   0  0  0  0  0  0  0  0  0  0  0  0  # atno 6907 bound_to 6896
  151.1247  133.5072  159.2608 H   0  0  0  0  0  0  0  0  0  0  0  0  # atno 6908 bound_to 6896
  151.1740  135.0341  159.8818 H   0  0  0  0  0  0  0  0  0  0  0  0  # atno 6909 bound_to 6896
  144.7595  139.8166  143.6338 H   0  0  0  0  0  0  0  0  0  0  0  0  # atno 7974 bound_to 7965
  154.9236  140.0406  157.2011 H   0  0  0  0  0  0  0  0  0  0  0  0  # atno 8008 bound_to 7997
  154.8229  140.2886  155.5753 H   0  0  0  0  0  0  0  0  0  0  0  0  # atno 8009 bound_to 7997
  156.2981  140.2515  156.3140 H   0  0  0  0  0  0  0  0  0  0  0  0  # atno 8010 bound_to 7997
  139.5063  144.6263  151.5929 H   0  0  0  0  0  0  0  0  0  0  0  0  # atno 10167 bound_to 10162
  156.0357  130.4354  150.2463 H   0  0  0  0  0  0  0  0  0  0  0  0  # atno 10718 bound_to 10713
  153.6867  135.3305  155.3192 H   0  0  0  0  0  0  0  0  0  0  0  0  # atno 10763 bound_to 10752
  154.8451  135.4422  154.1551 H   0  0  0  0  0  0  0  0  0  0  0  0  # atno 10764 bound_to 10752
  153.2581  135.6988  153.7684 H   0  0  0  0  0  0  0  0  0  0  0  0  # atno 10765 bound_to 10752
  140.4796  134.0949  155.7748 H   0  0  0  0  0  0  0  0  0  0  0  0  # atno 11005 bound_to 11000
  146.1643  139.4768  142.9968 LP  0  0  0  0  0  0  0  0  0  0  0  0  # atno 17320 bound_to 7965
  145.6667  141.0227  143.1680 LP  0  0  0  0  0  0  0  0  0  0  0  0  # atno 17321 bound_to 7965
  140.5981  143.9659  150.6368 LP  0  0  0  0  0  0  0  0  0  0  0  0  # atno 17342 bound_to 10162
  140.2862  143.3355  152.1105 LP  0  0  0  0  0  0  0  0  0  0  0  0  # atno 17343 bound_to 10162
  157.0563  131.0077  151.3237 LP  0  0  0  0  0  0  0  0  0  0  0  0  # atno 17370 bound_to 10713
  157.5104  130.7935  149.7698 LP  0  0  0  0  0  0  0  0  0  0  0  0  # atno 17371 bound_to 10713
  141.1537  133.8921  157.2031 LP  0  0  0  0  0  0  0  0  0  0  0  0  # atno 17394 bound_to 11000
  139.9834  135.0090  156.9805 LP  0  0  0  0  0  0  0  0  0  0  0  0  # atno 17395 bound_to 11000

$$$$
