AV-unprocessed.smi:1645|AV-procd|sdf|6610|dock2
  -GOLD-   22720 7313D 1   1.00000     0.00000
 Structure written by MMmdl.
 56 59  0  0  0  0  0  0  0  0  3 V2000
  149.4128  135.2998  156.2418 O   0  0  0  0  0  0  0  0  0  0  0  0
  149.2688  135.6967  155.0861 C   0  0  0  0  0  0  0  0  0  0  0  0
  149.5199  136.9454  154.6550 N   0  0  0  0  0  0  0  0  0  0  0  0
  150.0091  138.0578  155.3943 C   0  0  0  0  0  0  0  0  0  0  0  0
  149.8201  139.3448  154.8491 C   0  0  0  0  0  0  0  0  0  0  0  0
  150.2856  140.4796  155.5447 C   0  0  0  0  0  0  0  0  0  0  0  0
  150.9340  140.3245  156.7956 C   0  0  0  0  0  0  0  0  0  0  0  0
  151.4470  141.3984  157.5580 N   0  0  0  0  0  0  0  0  0  0  0  0
  151.6751  141.1426  158.9842 C   0  0  0  0  0  0  0  0  0  0  0  0
  152.6351  142.1781  159.5938 C   0  0  0  0  0  0  0  0  0  0  0  0
  152.1551  143.6089  159.3147 C   0  0  0  0  0  0  0  0  0  0  0  0
  151.9729  143.8115  157.8043 C   0  0  0  0  0  0  0  0  0  0  0  0
  151.0237  142.7563  157.2103 C   0  0  0  0  0  0  0  0  0  0  0  0
  151.0774  139.0689  157.2843 N   0  3  0  0  0  0  0  0  0  0  0  0
  150.6486  137.9556  156.6523 C   0  0  0  0  0  0  0  0  0  0  0  0
  148.8432  134.9110  154.0863 N   0  0  0  0  0  0  0  0  0  0  0  0
  148.4984  133.4978  154.2206 C   0  0  2  0  0  0  0  0  0  0  0  0
  149.7045  132.6055  154.4880 C   0  0  0  0  0  0  0  0  0  0  0  0
  149.1748  131.2229  154.1012 C   0  0  0  0  0  0  0  0  0  0  0  0
  148.2204  131.4456  152.9899 N   0  3  1  0  0  0  0  0  0  0  0  0
  147.0401  130.5467  153.0022 C   0  0  0  0  0  0  0  0  0  0  0  0
  146.1211  130.8317  151.7992 C   0  0  0  0  0  0  0  0  0  0  0  0
  145.8121  132.3319  151.6127 C   0  0  0  0  0  0  0  0  0  0  0  0
  146.4062  133.1941  152.7365 C   0  0  0  0  0  0  0  0  0  0  0  0
  147.9120  132.9029  152.9296 C   0  0  1  0  0  0  0  0  0  0  0  0
  149.4022  137.1035  153.6647 H   0  0  0  0  0  0  0  0  0  0  0  0
  149.3244  139.4675  153.8971 H   0  0  0  0  0  0  0  0  0  0  0  0
  150.1254  141.4523  155.1046 H   0  0  0  0  0  0  0  0  0  0  0  0
  150.7149  141.1779  159.5001 H   0  0  0  0  0  0  0  0  0  0  0  0
  152.0868  140.1486  159.1575 H   0  0  0  0  0  0  0  0  0  0  0  0
  152.7234  142.0159  160.6684 H   0  0  0  0  0  0  0  0  0  0  0  0
  153.6335  142.0400  159.1765 H   0  0  0  0  0  0  0  0  0  0  0  0
  151.2107  143.7897  159.8297 H   0  0  0  0  0  0  0  0  0  0  0  0
  152.8713  144.3307  159.7087 H   0  0  0  0  0  0  0  0  0  0  0  0
  151.5904  144.8126  157.6035 H   0  0  0  0  0  0  0  0  0  0  0  0
  152.9432  143.7468  157.3097 H   0  0  0  0  0  0  0  0  0  0  0  0
  151.0081  142.8845  156.1278 H   0  0  0  0  0  0  0  0  0  0  0  0
  150.0080  142.9173  157.5740 H   0  0  0  0  0  0  0  0  0  0  0  0
  150.8328  137.0373  157.1883 H   0  0  0  0  0  0  0  0  0  0  0  0
  148.7575  135.3160  153.1653 H   0  0  0  0  0  0  0  0  0  0  0  0
  147.7944  133.3559  155.0435 H   0  0  0  0  0  0  0  0  0  0  0  0
  150.5377  132.8815  153.8398 H   0  0  0  0  0  0  0  0  0  0  0  0
  150.0480  132.6515  155.5220 H   0  0  0  0  0  0  0  0  0  0  0  0
  149.9709  130.5368  153.8111 H   0  0  0  0  0  0  0  0  0  0  0  0
  148.6559  130.7863  154.9563 H   0  0  0  0  0  0  0  0  0  0  0  0
  147.3715  129.5079  152.9804 H   0  0  0  0  0  0  0  0  0  0  0  0
  146.4882  130.6799  153.9343 H   0  0  0  0  0  0  0  0  0  0  0  0
  146.5867  130.4497  150.8897 H   0  0  0  0  0  0  0  0  0  0  0  0
  145.1920  130.2732  151.9165 H   0  0  0  0  0  0  0  0  0  0  0  0
  146.2203  132.6644  150.6575 H   0  0  0  0  0  0  0  0  0  0  0  0
  144.7348  132.4896  151.5516 H   0  0  0  0  0  0  0  0  0  0  0  0
  146.2536  134.2502  152.5126 H   0  0  0  0  0  0  0  0  0  0  0  0
  145.8631  133.0013  153.6627 H   0  0  0  0  0  0  0  0  0  0  0  0
  148.4622  133.2904  152.0702 H   0  0  0  0  0  0  0  0  0  0  0  0
  148.7200  131.2405  152.1364 H   0  0  0  0  0  0  0  0  0  0  0  0
  151.5417  138.9559  158.1857 H   0  0  0  0  0  0  0  0  0  0  0  0
  1  2  2  0  0  0  0
  2  3  1  0  0  0  0
  2 16  1  0  0  0  0
  3  4  1  0  0  0  0
  3 26  1  0  0  0  0
  4 15  1  0  0  0  0
  4  5  2  0  0  0  0
  5  6  1  0  0  0  0
  5 27  1  0  0  0  0
  6  7  2  0  0  0  0
  6 28  1  0  0  0  0
  7  8  1  0  0  0  0
  7 14  1  0  0  0  0
  8 13  1  0  0  0  0
  8  9  1  0  0  0  0
  9 10  1  0  0  0  0
  9 29  1  0  0  0  0
  9 30  1  0  0  0  0
 10 11  1  0  0  0  0
 10 31  1  0  0  0  0
 10 32  1  0  0  0  0
 11 12  1  0  0  0  0
 11 33  1  0  0  0  0
 11 34  1  0  0  0  0
 12 13  1  0  0  0  0
 12 35  1  0  0  0  0
 12 36  1  0  0  0  0
 13 37  1  0  0  0  0
 13 38  1  0  0  0  0
 14 15  2  0  0  0  0
 14 56  1  0  0  0  0
 15 39  1  0  0  0  0
 16 17  1  0  0  0  0
 16 40  1  0  0  0  0
 17 25  1  0  0  0  0
 17 18  1  0  0  0  0
 17 41  1  0  0  0  0
 18 19  1  0  0  0  0
 18 42  1  0  0  0  0
 18 43  1  0  0  0  0
 19 20  1  0  0  0  0
 19 44  1  0  0  0  0
 19 45  1  0  0  0  0
 20 25  1  0  0  0  0
 20 21  1  0  0  0  0
 20 55  1  0  0  0  0
 21 22  1  0  0  0  0
 21 46  1  0  0  0  0
 21 47  1  0  0  0  0
 22 23  1  0  0  0  0
 22 48  1  0  0  0  0
 22 49  1  0  0  0  0
 23 24  1  0  0  0  0
 23 50  1  0  0  0  0
 23 51  1  0  0  0  0
 24 25  1  0  0  0  0
 24 52  1  0  0  0  0
 24 53  1  0  0  0  0
 25 54  1  0  0  0  0
M  CHG  1  14   1
M  CHG  1  20   1
M  END
> <s_m_source_file>
AV-unprocessed.smi

> <i_m_source_file_index>
1645

> <i_lp_mmshare_version>
43012

> <i_f3d_flags>
0

> <s_epik_input>
W0NIMl0xW0NIMl1bQ0gyXVtDSDJdW0NASF0oTjEyKVtDQEBIXShbQ0gyXVtDSDJdMilbTkhdQyg9TylbTkhdYzNbY0hdW2NIXWMobltjSF0zKU40W0NIMl1bQ0gyXVtDSDJdW0NIMl1bQ0gyXTQ=

> <s_epik_cmdline>
J2VwaWtfcHl0aG9uJywgJy1waCcsICc3LjAnLCAnLXRuJywgJzgnLCAnLW1hJywgJzIwMCcsICctbWV0YWxfYmluZGluZycsICctaW1hZScsICc8aW5maWxlLm1hZT4nLCAnLW9tYWUnLCAnPG91dGZpbGUubWFlPic=

> <r_lp_tautomer_probability>
0.999994

> <r_epik_Ionization_Penalty>
1.26838

> <r_epik_Ionization_Penalty_Charging>
1.26836

> <r_epik_Ionization_Penalty_Neutral>
1.95562e-05

> <r_epik_State_Penalty>
1.33841

> <r_epik_Charging_Adjusted_Penalty>
2.60677

> <i_epik_Tot_Q>
2

> <i_epik_Tot_abs_Q>
2

> <r_epik_Metal_State_Penalty>
1.40601

> <b_epik_Metal_Only>
0

> <s_lp_Force_Field>
OPLS_2005

> <r_lp_Energy>
64.1893

> <b_lp_Chiralities_Consistent>
1

> <s_lp_Variant>
AV-unprocessed.smi:1645-11

> <Gold.Version>
5.8.1

> <Gold.Id.Protein>
6NUR|6NUR_protein|mol2

> <Gold.PLP.Fitness>
54.8292

> <Gold.PLP.PLP>
-46.4318

> <Gold.PLP.part.hbond>
-3.0000

> <Gold.PLP.part.metal>
0.0000

> <Gold.PLP.part.buried>
-4.4992

> <Gold.PLP.part.nonpolar>
-39.2984

> <Gold.PLP.part.repulsive>
0.0690

> <Gold.PLP.ligand.clash>
0.1025

> <Gold.PLP.ligand.torsion>
0.2633

> <Gold.PLP.Chemscore.Hbond>
2.9120

> <Gold.PLP.Chemscore.CHOScore>
0.0000

> <Gold.PLP.Chemscore.Metal>
0.0000

> <Gold.Chemscore.Hbonds>
donor molecule, donor type, donor heavy atom, donor atom, acceptor molecule, acceptor atom, score
      L1  H     3    26       P1  7948  0.91
      L1  H    16    40       P1  7948  1.00
      L1  H    20    55       P1 10747  1.00

> <Gold.PLP.Chemscore.Internal.Correction>
0.2905

> <Gold.Rescore>
     Score         DG    S(hbond)    S(metal)    S(lipo)     H(rot)  DE(clash)    DE(int)     intcor
     24.22     -25.76       2.69        0.00     118.37       1.00       0.10       1.44       ----

> <Gold.Chemscore.Fitness>
24.2247

> <Gold.Chemscore.DG>
-25.7637

> <Gold.Chemscore.ZeroCoef>
-5.4800

> <Gold.Chemscore.Hbond>
2.6928

> <Gold.Chemscore.Metal>
0.0000

> <Gold.Chemscore.Lipo>
118.3737

> <Gold.Chemscore.Internal_Hbond>
0.0000

> <Gold.Chemscore.DEClash>
0.0965

> <Gold.Chemscore.DEInternal>
1.4426

> <Gold.Chemscore.Rot>
1.0000

> <Gold.Chemscore.Internal.Correction>
   9.000000E+99

> <Gold.Chemscore.Hbonds>
donor molecule, donor type, donor heavy atom, donor atom, acceptor molecule, acceptor atom, score
      L1  H     3    26       P1  7948  0.80
      L1  H    16    40       P1  7948  0.72
      L1  H    20    55       P1 10747  0.90

> <Gold.Chemscore.Hbond.Weighted>
-8.9940

> <Gold.Chemscore.Metal.Weighted>
-0.0000

> <Gold.Chemscore.Lipo.Weighted>
-13.8497

> <Gold.Chemscore.Internal_Hbond.Weighted>
0.0000

> <Gold.Chemscore.DEClash.Weighted>
0.0965

> <Gold.Chemscore.DEInternal.Weighted>
1.4426

> <Gold.Chemscore.Rot.Weighted>
2.5600

> <Gold.Chemscore.Internal.Correction.Weighted>
   9.000000E+99

> <Gold.Protein.RotatedTorsions>
[ 6907 6896 6895 6894 ] final  133.11 input  -60.11 | X-H torsion
[ 7974 7965 7964 7962 ] final -168.90 input  175.53 | X-H torsion
[ 8008 7997 7996 7995 ] final  161.48 input   59.86 | X-H torsion
[ 10167 10162 10161 10158 ] final   90.97 input  -65.29 | X-H torsion
[ 10718 10713 10712 10709 ] final   70.52 input   66.30 | X-H torsion
[ 10763 10752 10751 10750 ] final   77.99 input  -60.55 | X-H torsion
[ 11005 11000 10999 10996 ] final   30.61 input  -57.11 | X-H torsion

> <Gold.Protein.ActiveResidues>
 VAL166  LYS551  ARG553  GLY616  TRP617  ASP618  TYR619  PRO620  LYS621  CYS622 
 ASP623  PHE694  ASN695  SER759  ASP760  ASP761  ALA762  ILE779  LEU786  VAL792 
 PHE793  MET794  SER795  GLU796  ALA797  LYS798  CYS799  TRP800  GLU811  SER814 

> <Gold.Protein.RotatedAtoms>
  152.3254  133.5899  159.5772 H   0  0  0  0  0  0  0  0  0  0  0  0  # atno 6907 bound_to 6896
  150.7394  133.9949  159.3628 H   0  0  0  0  0  0  0  0  0  0  0  0  # atno 6908 bound_to 6896
  151.7829  135.0757  160.0427 H   0  0  0  0  0  0  0  0  0  0  0  0  # atno 6909 bound_to 6896
  144.7194  140.2301  143.6305 H   0  0  0  0  0  0  0  0  0  0  0  0  # atno 7974 bound_to 7965
  156.2100  140.1776  156.7715 H   0  0  0  0  0  0  0  0  0  0  0  0  # atno 8008 bound_to 7997
  154.5709  140.0682  156.8993 H   0  0  0  0  0  0  0  0  0  0  0  0  # atno 8009 bound_to 7997
  155.2674  140.3340  155.4270 H   0  0  0  0  0  0  0  0  0  0  0  0  # atno 8010 bound_to 7997
  139.8420  144.6636  150.9272 H   0  0  0  0  0  0  0  0  0  0  0  0  # atno 10167 bound_to 10162
  157.6404  130.9481  150.0662 H   0  0  0  0  0  0  0  0  0  0  0  0  # atno 10718 bound_to 10713
  153.0840  135.4894  154.8560 H   0  0  0  0  0  0  0  0  0  0  0  0  # atno 10763 bound_to 10752
  154.7187  135.3035  154.9085 H   0  0  0  0  0  0  0  0  0  0  0  0  # atno 10764 bound_to 10752
  153.9756  135.6796  153.4801 H   0  0  0  0  0  0  0  0  0  0  0  0  # atno 10765 bound_to 10752
  140.2925  134.2848  155.7772 H   0  0  0  0  0  0  0  0  0  0  0  0  # atno 11005 bound_to 11000
  145.8419  139.2134  143.1822 LP  0  0  0  0  0  0  0  0  0  0  0  0  # atno 17320 bound_to 7965
  146.0339  140.8231  142.9862 LP  0  0  0  0  0  0  0  0  0  0  0  0  # atno 17321 bound_to 7965
  140.7797  143.3904  151.1320 LP  0  0  0  0  0  0  0  0  0  0  0  0  # atno 17342 bound_to 10162
  139.7549  143.8722  152.3086 LP  0  0  0  0  0  0  0  0  0  0  0  0  # atno 17343 bound_to 10162
  156.1680  130.3645  149.9205 LP  0  0  0  0  0  0  0  0  0  0  0  0  # atno 17370 bound_to 10713
  156.7188  130.8998  151.3616 LP  0  0  0  0  0  0  0  0  0  0  0  0  # atno 17371 bound_to 10713
  141.2143  133.7594  156.9646 LP  0  0  0  0  0  0  0  0  0  0  0  0  # atno 17394 bound_to 11000
  140.1182  134.9434  157.2165 LP  0  0  0  0  0  0  0  0  0  0  0  0  # atno 17395 bound_to 11000

$$$$
