AV-unprocessed.smi:3117|AV-procd|sdf|11880|dock3
  -GOLD-   2272017263D 1   1.00000     0.00000
 Structure written by MMmdl.
 37 37  0  0  0  0  0  0  0  0  2 V2000
  149.4229  141.6125  156.8964 C   0  0  0  0  0  0  0  0  0  0  0  0
  150.9559  141.5015  156.9836 C   0  0  2  0  0  0  0  0  0  0  0  0
  151.3703  140.1907  156.4361 N   0  3  0  0  0  0  0  0  0  0  0  0
  150.6587  139.7712  155.2094 C   0  0  0  0  0  0  0  0  0  0  0  0
  151.1285  138.3898  154.7058 C   0  0  0  0  0  0  0  0  0  0  0  0
  152.6362  138.4161  154.4042 C   0  0  0  0  0  0  0  0  0  0  0  0
  150.8038  137.2658  155.7073 C   0  0  0  0  0  0  0  0  0  0  0  0
  150.4706  138.1115  153.4848 O   0  0  0  0  0  0  0  0  0  0  0  0
  151.5027  141.6765  158.4249 C   0  0  1  0  0  0  0  0  0  0  0  0
  152.8639  140.9886  158.6377 C   0  0  0  0  0  0  0  0  0  0  0  0
  151.5932  143.0813  158.8035 N   0  0  0  0  0  0  0  0  0  0  0  0
  151.2919  144.2009  158.0530 C   0  0  0  0  0  0  0  0  0  0  0  0
  151.5217  145.2935  158.8388 C   0  0  0  0  0  0  0  0  0  0  0  0
  151.9631  144.7365  160.0712 C   0  0  0  0  0  0  0  0  0  0  0  0
  152.0029  143.4141  160.0473 N   0  0  0  0  0  0  0  0  0  0  0  0
  149.0691  142.6007  157.1912 H   0  0  0  0  0  0  0  0  0  0  0  0
  148.9350  140.8794  157.5398 H   0  0  0  0  0  0  0  0  0  0  0  0
  149.0764  141.4421  155.8766 H   0  0  0  0  0  0  0  0  0  0  0  0
  151.3682  142.2969  156.3599 H   0  0  0  0  0  0  0  0  0  0  0  0
  152.3601  140.2261  156.2388 H   0  0  0  0  0  0  0  0  0  0  0  0
  149.5877  139.7544  155.4173 H   0  0  0  0  0  0  0  0  0  0  0  0
  150.8175  140.5181  154.4304 H   0  0  0  0  0  0  0  0  0  0  0  0
  153.2146  138.6292  155.3040 H   0  0  0  0  0  0  0  0  0  0  0  0
  152.8826  139.1816  153.6669 H   0  0  0  0  0  0  0  0  0  0  0  0
  152.9820  137.4591  154.0112 H   0  0  0  0  0  0  0  0  0  0  0  0
  151.2824  137.4481  156.6701 H   0  0  0  0  0  0  0  0  0  0  0  0
  151.1543  136.2984  155.3454 H   0  0  0  0  0  0  0  0  0  0  0  0
  149.7318  137.1756  155.8850 H   0  0  0  0  0  0  0  0  0  0  0  0
  150.9032  137.3811  153.0681 H   0  0  0  0  0  0  0  0  0  0  0  0
  150.7936  141.2042  159.1081 H   0  0  0  0  0  0  0  0  0  0  0  0
  152.7945  139.9104  158.4937 H   0  0  0  0  0  0  0  0  0  0  0  0
  153.2299  141.1534  159.6516 H   0  0  0  0  0  0  0  0  0  0  0  0
  153.6175  141.3679  157.9469 H   0  0  0  0  0  0  0  0  0  0  0  0
  150.9425  144.1283  157.0337 H   0  0  0  0  0  0  0  0  0  0  0  0
  151.3926  146.3326  158.5739 H   0  0  0  0  0  0  0  0  0  0  0  0
  152.2526  145.2496  160.9764 H   0  0  0  0  0  0  0  0  0  0  0  0
  151.2133  139.4839  157.1406 H   0  0  0  0  0  0  0  0  0  0  0  0
  1  2  1  0  0  0  0
  1 16  1  0  0  0  0
  1 17  1  0  0  0  0
  1 18  1  0  0  0  0
  2  3  1  0  0  0  0
  2  9  1  0  0  0  0
  2 19  1  0  0  0  0
  3  4  1  0  0  0  0
  3 20  1  0  0  0  0
  3 37  1  0  0  0  0
  4  5  1  0  0  0  0
  4 21  1  0  0  0  0
  4 22  1  0  0  0  0
  5  6  1  0  0  0  0
  5  7  1  0  0  0  0
  5  8  1  0  0  0  0
  6 23  1  0  0  0  0
  6 24  1  0  0  0  0
  6 25  1  0  0  0  0
  7 26  1  0  0  0  0
  7 27  1  0  0  0  0
  7 28  1  0  0  0  0
  8 29  1  0  0  0  0
  9 10  1  0  0  0  0
  9 11  1  0  0  0  0
  9 30  1  0  0  0  0
 10 31  1  0  0  0  0
 10 32  1  0  0  0  0
 10 33  1  0  0  0  0
 11 15  1  0  0  0  0
 11 12  1  0  0  0  0
 12 13  2  0  0  0  0
 12 34  1  0  0  0  0
 13 14  1  0  0  0  0
 13 35  1  0  0  0  0
 14 15  2  0  0  0  0
 14 36  1  0  0  0  0
M  CHG  1   3   1
M  END
> <s_m_source_file>
AV-unprocessed.smi

> <i_m_source_file_index>
3117

> <i_lp_mmshare_version>
43012

> <i_f3d_flags>
0

> <s_epik_input>
W0NIM11DKFtDSDNdKShbT0hdKVtDSDJdW05IXVtDQEBIXShbQ0gzXSlbQ0BIXShbQ0gzXSluMVtjSF1bY0hdW2NIXW4x

> <s_epik_cmdline>
J2VwaWtfcHl0aG9uJywgJy1waCcsICc3LjAnLCAnLXRuJywgJzgnLCAnLW1hJywgJzIwMCcsICctbWV0YWxfYmluZGluZycsICctaW1hZScsICc8aW5maWxlLm1hZT4nLCAnLW9tYWUnLCAnPG91dGZpbGUubWFlPic=

> <r_lp_tautomer_probability>
1

> <r_epik_Ionization_Penalty>
0.0164263

> <r_epik_Ionization_Penalty_Charging>
0.0164138

> <r_epik_Ionization_Penalty_Neutral>
1.24697e-05

> <r_epik_State_Penalty>
0.0129543

> <r_epik_Charging_Adjusted_Penalty>
0.0293681

> <i_epik_Tot_Q>
1

> <i_epik_Tot_abs_Q>
1

> <r_epik_Metal_State_Penalty>
0.0129806

> <b_epik_Metal_Only>
0

> <s_lp_Force_Field>
OPLS_2005

> <r_lp_Energy>
14.6887

> <b_lp_Chiralities_Consistent>
1

> <s_lp_Variant>
AV-unprocessed.smi:3117-3

> <Gold.Version>
5.8.1

> <Gold.Id.Protein>
6NUR|6NUR_protein|mol2

> <Gold.PLP.Fitness>
38.0703

> <Gold.PLP.PLP>
-33.9469

> <Gold.PLP.part.hbond>
-2.6362

> <Gold.PLP.part.metal>
0.0000

> <Gold.PLP.part.buried>
-3.6986

> <Gold.PLP.part.nonpolar>
-26.7846

> <Gold.PLP.part.repulsive>
0.1413

> <Gold.PLP.ligand.clash>
0.0000

> <Gold.PLP.ligand.torsion>
0.6757

> <Gold.PLP.Chemscore.Hbond>
0.7963

> <Gold.PLP.Chemscore.CHOScore>
0.9982

> <Gold.PLP.Chemscore.Metal>
0.0000

> <Gold.Chemscore.Hbonds>
donor molecule, donor type, donor heavy atom, donor atom, acceptor molecule, acceptor atom, score
      L1  H     8    29       P1  7949  0.70
      L1  C    12    34       P1  8028  1.00

> <Gold.PLP.Chemscore.Internal.Correction>
0.0914

> <Gold.Rescore>
     Score         DG    S(hbond)    S(metal)    S(lipo)     H(rot)  DE(clash)    DE(int)     intcor
     11.02     -12.16       0.49        0.00      92.83       2.27       0.54       0.60       ----

> <Gold.Chemscore.Fitness>
11.0215

> <Gold.Chemscore.DG>
-12.1611

> <Gold.Chemscore.ZeroCoef>
-5.4800

> <Gold.Chemscore.Hbond>
0.4901

> <Gold.Chemscore.Metal>
0.0000

> <Gold.Chemscore.Lipo>
92.8343

> <Gold.Chemscore.Internal_Hbond>
0.0000

> <Gold.Chemscore.DEClash>
0.5414

> <Gold.Chemscore.DEInternal>
0.5983

> <Gold.Chemscore.Rot>
2.2725

> <Gold.Chemscore.Internal.Correction>
   9.000000E+99

> <Gold.Chemscore.Hbonds>
donor molecule, donor type, donor heavy atom, donor atom, acceptor molecule, acceptor atom, score
      L1  H     8    29       P1  7949  0.13

> <Gold.Chemscore.Hbond.Weighted>
-1.6371

> <Gold.Chemscore.Metal.Weighted>
-0.0000

> <Gold.Chemscore.Lipo.Weighted>
-10.8616

> <Gold.Chemscore.Internal_Hbond.Weighted>
0.0000

> <Gold.Chemscore.DEClash.Weighted>
0.5414

> <Gold.Chemscore.DEInternal.Weighted>
0.5983

> <Gold.Chemscore.Rot.Weighted>
5.8176

> <Gold.Chemscore.Internal.Correction.Weighted>
   9.000000E+99

> <Gold.Protein.RotatedTorsions>
[ 6907 6896 6895 6894 ] final  -55.46 input  -60.11 | X-H torsion
[ 7974 7965 7964 7962 ] final   70.72 input  175.53 | X-H torsion
[ 8008 7997 7996 7995 ] final  134.79 input   59.86 | X-H torsion
[ 10167 10162 10161 10158 ] final   91.11 input  -65.29 | X-H torsion
[ 10718 10713 10712 10709 ] final  -48.52 input   66.30 | X-H torsion
[ 10763 10752 10751 10750 ] final  -70.84 input  -60.55 | X-H torsion
[ 11005 11000 10999 10996 ] final  102.35 input  -57.11 | X-H torsion

> <Gold.Protein.ActiveResidues>
 VAL166  LYS551  ARG553  GLY616  TRP617  ASP618  TYR619  PRO620  LYS621  CYS622 
 ASP623  PHE694  ASN695  SER759  ASP760  ASP761  ALA762  ILE779  LEU786  VAL792 
 PHE793  MET794  SER795  GLU796  ALA797  LYS798  CYS799  TRP800  GLU811  SER814 

> <Gold.Protein.RotatedAtoms>
  150.8250  134.7476  159.6804 H   0  0  0  0  0  0  0  0  0  0  0  0  # atno 6907 bound_to 6896
  152.4361  134.5679  159.9923 H   0  0  0  0  0  0  0  0  0  0  0  0  # atno 6908 bound_to 6896
  151.5854  133.3335  159.3053 H   0  0  0  0  0  0  0  0  0  0  0  0  # atno 6909 bound_to 6896
  145.7747  139.2859  143.1300 H   0  0  0  0  0  0  0  0  0  0  0  0  # atno 7974 bound_to 7965
  156.3000  140.2487  156.3475 H   0  0  0  0  0  0  0  0  0  0  0  0  # atno 8008 bound_to 7997
  154.8997  140.0406  157.1905 H   0  0  0  0  0  0  0  0  0  0  0  0  # atno 8009 bound_to 7997
  154.8513  140.2906  155.5600 H   0  0  0  0  0  0  0  0  0  0  0  0  # atno 8010 bound_to 7997
  139.8407  144.6642  150.9287 H   0  0  0  0  0  0  0  0  0  0  0  0  # atno 10167 bound_to 10162
  156.1980  130.4155  149.9280 H   0  0  0  0  0  0  0  0  0  0  0  0  # atno 10718 bound_to 10713
  154.4233  135.5981  153.6023 H   0  0  0  0  0  0  0  0  0  0  0  0  # atno 10763 bound_to 10752
  152.9795  135.5957  154.3928 H   0  0  0  0  0  0  0  0  0  0  0  0  # atno 10764 bound_to 10752
  154.3757  135.2841  155.2219 H   0  0  0  0  0  0  0  0  0  0  0  0  # atno 10765 bound_to 10752
  139.8777  134.9220  156.5045 H   0  0  0  0  0  0  0  0  0  0  0  0  # atno 11005 bound_to 11000
  146.0134  140.8414  142.9959 LP  0  0  0  0  0  0  0  0  0  0  0  0  # atno 17320 bound_to 7965
  144.6806  140.2523  143.7330 LP  0  0  0  0  0  0  0  0  0  0  0  0  # atno 17321 bound_to 7965
  140.7798  143.3915  151.1301 LP  0  0  0  0  0  0  0  0  0  0  0  0  # atno 17342 bound_to 10162
  139.7562  143.8704  152.3089 LP  0  0  0  0  0  0  0  0  0  0  0  0  # atno 17343 bound_to 10162
  156.6999  130.8929  151.3598 LP  0  0  0  0  0  0  0  0  0  0  0  0  # atno 17370 bound_to 10713
  157.6969  130.9291  150.0670 LP  0  0  0  0  0  0  0  0  0  0  0  0  # atno 17371 bound_to 10713
  140.8565  133.8092  155.9221 LP  0  0  0  0  0  0  0  0  0  0  0  0  # atno 17394 bound_to 11000
  140.9092  134.2282  157.4996 LP  0  0  0  0  0  0  0  0  0  0  0  0  # atno 17395 bound_to 11000

$$$$
