#       Name:                AV-unprocessed.smi:2718
#       Creating user name   scv26
#       Creation time:       Fri Mar 27 14:53:53 2020


#       File generated by GOLD software.
#

@<TRIPOS>MOLECULE
AV-unprocessed.smi:2718
    51    52     1
SMALL
NO_CHARGES


@<TRIPOS>ATOM
      1 ****        -1.4974  -3.3188   2.3605 C.3            1 S1                 0.0000
      2 ****        -2.0543  -2.0937   1.6632 C.2            1 S1                 0.0000
      3 ****        -2.3154  -0.9085   2.5765 C.3            1 S1                 0.0000
      4 ****        -2.2899  -2.0810   0.3370 C.2            1 S1                 0.0000
      5 ****        -2.8400  -0.9432  -0.4573 C.3            1 S1                 0.0000
      6 ****        -1.9810   0.1683  -1.0485 C.3            1 S1                 0.0000
      7 ****        -0.4913   0.1358  -0.9137 C.2            1 S1                 0.0000
      8 ****         0.2610   0.0601  -1.8853 O.2            1 S1                 0.0000
      9 ****        -0.0478   0.2777   0.3444 N.am           1 S1                 0.0000
     10 ****         1.3559   0.3084   0.7404 C.3            1 S1                 0.0000
     11 ****         1.9983   1.6954   0.5293 C.3            1 S1                 0.0000
     12 ****         1.3067   2.8088   1.3358 C.3            1 S1                 0.0000
     13 ****         3.4744   1.6538   0.8109 C.2            1 S1                 0.0000
     14 ****         3.9909   1.4244   2.0260 N.2            1 S1                 0.0000
     15 ****         5.3611   1.4496   1.8619 N.2            1 S1                 0.0000
     16 ****         5.5380   1.6861   0.5631 C.2            1 S1                 0.0000
     17 ****         4.4092   1.8203  -0.1489 N.pl3          1 S1                 0.0000
     18 ****         4.2654   2.0720  -1.5691 C.3            1 S1                 0.0000
     19 ****        -2.6713  -0.8408  -1.9637 C.3            1 S1                 0.0000
     20 ****        -1.9139  -1.9191  -2.7363 C.3            1 S1                 0.0000
     21 ****        -3.8424  -0.3585  -2.8019 C.3            1 S1                 0.0000
     22 ****        -2.1893  -3.6625   3.1298 H              1 S1                 0.0000
     23 ****        -0.5452  -3.0827   2.8357 H              1 S1                 0.0000
     24 ****        -1.3327  -4.1392   1.6615 H              1 S1                 0.0000
     25 ****        -1.3942  -0.6145   3.0807 H              1 S1                 0.0000
     26 ****        -3.0492  -1.1759   3.3370 H              1 S1                 0.0000
     27 ****        -2.6912  -0.0391   2.0378 H              1 S1                 0.0000
     28 ****        -2.0729  -2.9791  -0.2219 H              1 S1                 0.0000
     29 ****        -3.8025  -0.6285  -0.0580 H              1 S1                 0.0000
     30 ****        -2.4041   1.1710  -1.0519 H              1 S1                 0.0000
     31 ****        -0.7325   0.3583   1.0825 H              1 S1                 0.0000
     32 ****         1.4199   0.0188   1.7897 H              1 S1                 0.0000
     33 ****         1.9059  -0.4505   0.1808 H              1 S1                 0.0000
     34 ****         1.8654   1.9537  -0.5208 H              1 S1                 0.0000
     35 ****         1.7652   3.7773   1.1338 H              1 S1                 0.0000
     36 ****         1.3770   2.6249   2.4084 H              1 S1                 0.0000
     37 ****         0.2498   2.8912   1.0822 H              1 S1                 0.0000
     38 ****         6.5198   1.7601   0.1188 H              1 S1                 0.0000
     39 ****         5.2463   2.1356  -2.0407 H              1 S1                 0.0000
     40 ****         3.7365   3.0126  -1.7251 H              1 S1                 0.0000
     41 ****         3.7025   1.2607  -2.0317 H              1 S1                 0.0000
     42 ****        -1.5328  -1.5130  -3.6737 H              1 S1                 0.0000
     43 ****        -2.5766  -2.7536  -2.9669 H              1 S1                 0.0000
     44 ****        -1.0677  -2.3106  -2.1722 H              1 S1                 0.0000
     45 ****        -3.4883   0.0573  -3.7456 H              1 S1                 0.0000
     46 ****        -4.4029   0.4153  -2.2765 H              1 S1                 0.0000
     47 ****        -4.5217  -1.1839  -3.0168 H              1 S1                 0.0000
     48 ****        -0.1186   0.0176  -2.8095 LP             1 S1                 0.0000
     49 ****         1.2517   0.0411  -1.7503 LP             1 S1                 0.0000
     50 ****         3.4877   1.2674   2.8758 LP             1 S1                 0.0000
     51 ****         6.0637   1.3194   2.5614 LP             1 S1                 0.0000
@<TRIPOS>BOND
    1    1    2 1     
    2    1   22 1     
    3    1   23 1     
    4    1   24 1     
    5    2    3 1     
    6    2    4 2     
    7    3   25 1     
    8    3   26 1     
    9    3   27 1     
   10    4    5 1     
   11    4   28 1     
   12    5   19 1     
   13    5    6 1     
   14    5   29 1     
   15    6    7 1     
   16    6   19 1     
   17    6   30 1     
   18    7    8 2     
   19    7    9 am    
   20    9   10 1     
   21    9   31 1     
   22   10   11 1     
   23   10   32 1     
   24   10   33 1     
   25   11   12 1     
   26   11   13 1     
   27   11   34 1     
   28   12   35 1     
   29   12   36 1     
   30   12   37 1     
   31   13   17 1     
   32   13   14 2     
   33   14   15 1     
   34   15   16 2     
   35   16   17 1     
   36   16   38 1     
   37   17   18 1     
   38   18   39 1     
   39   18   40 1     
   40   18   41 1     
   41   19   20 1     
   42   19   21 1     
   43   20   42 1     
   44   20   43 1     
   45   20   44 1     
   46   21   45 1     
   47   21   46 1     
   48   21   47 1     
   49    8   48 1     
   50    8   49 1     
   51   14   50 1     
   52   15   51 1     
@<TRIPOS>SUBSTRUCTURE
      1 S1             1
@<TRIPOS>SET
LONE_PAIRS      STATIC     ATOMS    <user>   **** ""
4 48 49 50 51
DONOR_HYDROGENS      STATIC     ATOMS    <user>   **** ""
1 31
ATOM$BLUE        STATIC     ATOMS    COLORGROUP SYSTEM
4 48 49 50 51
ATOM$RED        STATIC     ATOMS    COLORGROUP SYSTEM
1 31
