AV-unprocessed.smi:50|AV-procd|sdf|495|dock9
  -GOLD-   2262016363D 1   1.00000     0.00000
 Structure written by MMmdl.
 43 44  0  0  0  0  0  0  0  0  3 V2000
  143.7714  135.1529  162.8595 C   0  0  0  0  0  0  0  0  0  0  0  0
  145.0554  134.9303  162.0379 C   0  0  0  0  0  0  0  0  0  0  0  0
  145.6461  133.5499  162.3856 C   0  0  0  0  0  0  0  0  0  0  0  0
  146.0572  136.1032  162.2269 C   0  0  2  0  0  0  0  0  0  0  0  0
  145.3750  137.4068  162.1106 N   0  3  0  0  0  0  0  0  0  0  0  0
  147.2135  136.1126  161.2086 C   0  0  0  0  0  0  0  0  0  0  0  0
  148.1379  136.9284  161.2076 O   0  0  0  0  0  0  0  0  0  0  0  0
  147.0632  135.1097  160.3229 O   0  0  0  0  0  0  0  0  0  0  0  0
  148.1533  134.6720  159.5219 C   0  0  0  0  0  0  0  0  0  0  0  0
  148.5115  135.7455  158.4872 C   0  0  0  0  0  0  0  0  0  0  0  0
  149.8645  136.1449  158.6620 O   0  0  0  0  0  0  0  0  0  0  0  0
  150.0479  137.5001  158.9229 C   0  0  0  0  0  0  0  0  0  0  0  0
  151.1253  137.9835  158.0769 N   0  0  0  0  0  0  0  0  0  0  0  0
  152.4161  138.1313  158.4336 C   0  0  0  0  0  0  0  0  0  0  0  0
  153.2294  138.5678  157.4732 N   0  0  0  0  0  0  0  0  0  0  0  0
  152.3572  138.7215  156.4028 C   0  0  0  0  0  0  0  0  0  0  0  0
  152.5901  139.1314  154.9972 C   0  0  0  0  0  0  0  0  0  0  0  0
  153.7272  139.4382  154.6454 O   0  0  0  0  0  0  0  0  0  0  0  0
  151.4904  139.0986  154.1866 N   0  5  0  0  0  0  0  0  0  0  0  0
  150.2381  138.7382  154.7026 C   0  0  0  0  0  0  0  0  0  0  0  0
  149.2356  138.7899  153.7594 N   0  0  0  0  0  0  0  0  0  0  0  0
  149.9591  138.3782  155.9312 N   0  0  0  0  0  0  0  0  0  0  0  0
  151.0776  138.3751  156.7430 C   0  0  0  0  0  0  0  0  0  0  0  0
  146.4784  136.0476  163.2316 H   0  0  0  0  0  0  0  0  0  0  0  0
  143.9944  135.2303  163.9243 H   0  0  0  0  0  0  0  0  0  0  0  0
  143.0717  134.3268  162.7280 H   0  0  0  0  0  0  0  0  0  0  0  0
  143.2479  136.0616  162.5621 H   0  0  0  0  0  0  0  0  0  0  0  0
  144.7646  134.8985  160.9866 H   0  0  0  0  0  0  0  0  0  0  0  0
  146.0433  133.5349  163.4013 H   0  0  0  0  0  0  0  0  0  0  0  0
  146.4491  133.2667  161.7051 H   0  0  0  0  0  0  0  0  0  0  0  0
  144.8885  132.7685  162.3155 H   0  0  0  0  0  0  0  0  0  0  0  0
  144.8877  137.6049  162.9736 H   0  0  0  0  0  0  0  0  0  0  0  0
  144.7091  137.3728  161.3521 H   0  0  0  0  0  0  0  0  0  0  0  0
  149.0011  134.5299  160.1920 H   0  0  0  0  0  0  0  0  0  0  0  0
  147.9663  133.7066  159.0496 H   0  0  0  0  0  0  0  0  0  0  0  0
  148.2914  135.3751  157.4865 H   0  0  0  0  0  0  0  0  0  0  0  0
  147.8875  136.6271  158.6341 H   0  0  0  0  0  0  0  0  0  0  0  0
  149.1478  138.0977  158.7669 H   0  0  0  0  0  0  0  0  0  0  0  0
  150.3575  137.6105  159.9625 H   0  0  0  0  0  0  0  0  0  0  0  0
  152.7727  137.8985  159.4262 H   0  0  0  0  0  0  0  0  0  0  0  0
  149.3867  139.0588  152.7983 H   0  0  0  0  0  0  0  0  0  0  0  0
  148.2795  138.5318  153.9557 H   0  0  0  0  0  0  0  0  0  0  0  0
  146.0565  138.1312  161.9370 H   0  0  0  0  0  0  0  0  0  0  0  0
  1  2  1  0  0  0  0
  1 25  1  0  0  0  0
  1 26  1  0  0  0  0
  1 27  1  0  0  0  0
  2  3  1  0  0  0  0
  2  4  1  0  0  0  0
  2 28  1  0  0  0  0
  3 29  1  0  0  0  0
  3 30  1  0  0  0  0
  3 31  1  0  0  0  0
  4 24  1  0  0  0  0
  4  5  1  0  0  0  0
  4  6  1  0  0  0  0
  5 32  1  0  0  0  0
  5 33  1  0  0  0  0
  5 43  1  0  0  0  0
  6  7  2  0  0  0  0
  6  8  1  0  0  0  0
  8  9  1  0  0  0  0
  9 10  1  0  0  0  0
  9 34  1  0  0  0  0
  9 35  1  0  0  0  0
 10 11  1  0  0  0  0
 10 36  1  0  0  0  0
 10 37  1  0  0  0  0
 11 12  1  0  0  0  0
 12 13  1  0  0  0  0
 12 38  1  0  0  0  0
 12 39  1  0  0  0  0
 13 23  1  0  0  0  0
 13 14  1  0  0  0  0
 14 15  2  0  0  0  0
 14 40  1  0  0  0  0
 15 16  1  0  0  0  0
 16 23  2  0  0  0  0
 16 17  1  0  0  0  0
 17 18  2  0  0  0  0
 17 19  1  0  0  0  0
 19 20  1  0  0  0  0
 20 21  1  0  0  0  0
 20 22  2  0  0  0  0
 21 41  1  0  0  0  0
 21 42  1  0  0  0  0
 22 23  1  0  0  0  0
M  CHG  1   5   1
M  CHG  1  19  -1
M  END
> <s_m_source_file>
AV-unprocessed.smi

> <i_m_source_file_index>
50

> <i_lp_mmshare_version>
43012

> <i_f3d_flags>
0

> <s_epik_input>
W0NIM11bQ0hdKFtDSDNdKVtDQEhdKFtOSDJdKUMoPU8pT1tDSDJdW0NIMl1PW0NIMl1uKFtjSF1uMSljKGMxMiluYyhbTkgyXSlbbkhdYzI9Tw==

> <s_epik_cmdline>
J2VwaWtfcHl0aG9uJywgJy1waCcsICc3LjAnLCAnLXRuJywgJzgnLCAnLW1hJywgJzIwMCcsICctbWV0YWxfYmluZGluZycsICctaW1hZScsICc8aW5maWxlLm1hZT4nLCAnLW9tYWUnLCAnPG91dGZpbGUubWFlPic=

> <r_lp_tautomer_probability>
0.99994

> <r_epik_Ionization_Penalty>
3.77459

> <r_epik_Ionization_Penalty_Charging>
0.215994

> <r_epik_Ionization_Penalty_Neutral>
3.5586

> <r_epik_State_Penalty>
3.75449

> <r_epik_Charging_Adjusted_Penalty>
3.97048

> <i_epik_Tot_Q>
0

> <i_epik_Tot_abs_Q>
2

> <r_epik_Metal_State_Penalty>
0.723824

> <b_epik_Metal_Only>
1

> <s_epik_Chemistry_Notes>
This compound has an ester and may undergo hydrolysis at high or low pH. This compound contains an acetal/aminal-like group ( X-CH(R)-Y where X, Y are N, S, or O) that may be acid/base labile, releasing an aldehyde.

> <s_lp_Force_Field>
OPLS_2005

> <r_lp_Energy>
6.41072

> <b_lp_Chiralities_Consistent>
1

> <s_lp_Variant>
AV-unprocessed.smi:50-5

> <Gold.Version>
5.8.1

> <Gold.Id.Protein>
6NUR|6NUR_protein|mol2

> <Gold.PLP.Fitness>
48.1137

> <Gold.PLP.PLP>
-32.4021

> <Gold.PLP.part.hbond>
-7.7712

> <Gold.PLP.part.metal>
0.0000

> <Gold.PLP.part.buried>
-2.9296

> <Gold.PLP.part.nonpolar>
-21.1793

> <Gold.PLP.part.repulsive>
0.5484

> <Gold.PLP.ligand.clash>
0.0000

> <Gold.PLP.ligand.torsion>
1.7943

> <Gold.PLP.Chemscore.Hbond>
6.3622

> <Gold.PLP.Chemscore.CHOScore>
0.0000

> <Gold.PLP.Chemscore.Metal>
0.0000

> <Gold.Chemscore.Hbonds>
donor molecule, donor type, donor heavy atom, donor atom, acceptor molecule, acceptor atom, score
      L1  H    21    41       P1  7957  1.00
      P1  H  6896  6908       L1    11  1.00
      P1  H  6931  6943       L1     7  1.00
      P1  H  6934  6947       L1     7  0.21
      P1  H  7989  7998       L1    19  0.90
      P1  H  7997  8008       L1    18  0.90
      P1  H  7997  8010       L1    15  0.70

> <Gold.PLP.Chemscore.Internal.Correction>
0.2138

> <Gold.Rescore>
     Score         DG    S(hbond)    S(metal)    S(lipo)     H(rot)  DE(clash)    DE(int)     intcor
      8.47     -11.83       4.31        0.00      36.87       4.83       0.29       3.07       ----

> <Gold.Chemscore.Fitness>
8.4695

> <Gold.Chemscore.DG>
-11.8286

> <Gold.Chemscore.ZeroCoef>
-5.4800

> <Gold.Chemscore.Hbond>
4.3122

> <Gold.Chemscore.Metal>
0.0000

> <Gold.Chemscore.Lipo>
36.8708

> <Gold.Chemscore.Internal_Hbond>
0.0000

> <Gold.Chemscore.DEClash>
0.2851

> <Gold.Chemscore.DEInternal>
3.0741

> <Gold.Chemscore.Rot>
4.8312

> <Gold.Chemscore.Internal.Correction>
   9.000000E+99

> <Gold.Chemscore.Hbonds>
donor molecule, donor type, donor heavy atom, donor atom, acceptor molecule, acceptor atom, score
      L1  H    21    41       P1  7957  0.99
      P1  H  6896  6908       L1    11  0.54
      P1  H  6931  6943       L1     7  0.99
      P1  H  6934  6947       L1     7  0.13
      P1  H  7989  7998       L1    19  0.16
      P1  H  7997  8008       L1    18  0.88
      P1  H  7997  8010       L1    15  0.34

> <Gold.Chemscore.Hbond.Weighted>
-14.4026

> <Gold.Chemscore.Metal.Weighted>
-0.0000

> <Gold.Chemscore.Lipo.Weighted>
-4.3139

> <Gold.Chemscore.Internal_Hbond.Weighted>
0.0000

> <Gold.Chemscore.DEClash.Weighted>
0.2851

> <Gold.Chemscore.DEInternal.Weighted>
3.0741

> <Gold.Chemscore.Rot.Weighted>
12.3678

> <Gold.Chemscore.Internal.Correction.Weighted>
   9.000000E+99

> <Gold.Protein.RotatedTorsions>
[ 6907 6896 6895 6894 ] final  176.42 input  -60.11 | X-H torsion
[ 7974 7965 7964 7962 ] final   -4.08 input  175.53 | X-H torsion
[ 8008 7997 7996 7995 ] final   21.75 input   59.86 | X-H torsion
[ 10167 10162 10161 10158 ] final -110.32 input  -65.29 | X-H torsion
[ 10718 10713 10712 10709 ] final  -63.02 input   66.30 | X-H torsion
[ 10763 10752 10751 10750 ] final   89.68 input  -60.55 | X-H torsion
[ 11005 11000 10999 10996 ] final   49.30 input  -57.11 | X-H torsion

> <Gold.Protein.ActiveResidues>
 VAL166  LYS551  ARG553  GLY616  TRP617  ASP618  TYR619  PRO620  LYS621  CYS622 
 ASP623  PHE694  ASN695  SER759  ASP760  ASP761  ALA762  ILE779  LEU786  VAL792 
 PHE793  MET794  SER795  GLU796  ALA797  LYS798  CYS799  TRP800  GLU811  SER814 

> <Gold.Protein.RotatedAtoms>
  151.7205  133.3314  159.3313 H   0  0  0  0  0  0  0  0  0  0  0  0  # atno 6907 bound_to 6896
  150.7655  134.6453  159.6268 H   0  0  0  0  0  0  0  0  0  0  0  0  # atno 6908 bound_to 6896
  152.3655  134.6813  160.0245 H   0  0  0  0  0  0  0  0  0  0  0  0  # atno 6909 bound_to 6896
  146.2379  140.1817  142.8332 H   0  0  0  0  0  0  0  0  0  0  0  0  # atno 7974 bound_to 7965
  154.9553  140.3071  155.5056 H   0  0  0  0  0  0  0  0  0  0  0  0  # atno 8008 bound_to 7997
  156.2983  140.2311  156.4573 H   0  0  0  0  0  0  0  0  0  0  0  0  # atno 8009 bound_to 7997
  154.8016  140.0434  157.1265 H   0  0  0  0  0  0  0  0  0  0  0  0  # atno 8010 bound_to 7997
  140.1458  143.4241  152.1530 H   0  0  0  0  0  0  0  0  0  0  0  0  # atno 10167 bound_to 10162
  156.0817  130.4216  150.1218 H   0  0  0  0  0  0  0  0  0  0  0  0  # atno 10718 bound_to 10713
  153.1896  135.4461  155.0132 H   0  0  0  0  0  0  0  0  0  0  0  0  # atno 10763 bound_to 10752
  154.8082  135.3283  154.7378 H   0  0  0  0  0  0  0  0  0  0  0  0  # atno 10764 bound_to 10752
  153.7833  135.6976  153.4939 H   0  0  0  0  0  0  0  0  0  0  0  0  # atno 10765 bound_to 10752
  140.1116  134.4947  155.8673 H   0  0  0  0  0  0  0  0  0  0  0  0  # atno 11005 bound_to 11000
  144.9929  140.8563  143.5328 LP  0  0  0  0  0  0  0  0  0  0  0  0  # atno 17320 bound_to 7965
  145.1826  139.2344  143.5284 LP  0  0  0  0  0  0  0  0  0  0  0  0  # atno 17321 bound_to 7965
  139.5450  144.7290  151.4613 LP  0  0  0  0  0  0  0  0  0  0  0  0  # atno 17342 bound_to 10162
  140.6733  143.8246  150.7026 LP  0  0  0  0  0  0  0  0  0  0  0  0  # atno 17343 bound_to 10162
  156.9248  130.9694  151.3543 LP  0  0  0  0  0  0  0  0  0  0  0  0  # atno 17370 bound_to 10713
  157.5937  130.8462  149.8697 LP  0  0  0  0  0  0  0  0  0  0  0  0  # atno 17371 bound_to 10713
  141.2131  133.6729  156.6715 LP  0  0  0  0  0  0  0  0  0  0  0  0  # atno 17394 bound_to 11000
  140.3084  134.8106  157.4156 LP  0  0  0  0  0  0  0  0  0  0  0  0  # atno 17395 bound_to 11000

$$$$
