AV-unprocessed.smi:107|AV-procd|sdf|1017|dock7
  -GOLD-   2262018 13D 1   1.00000     0.00000
 Structure written by MMmdl.
 31 32  0  0  0  0  0  0  0  0  1 V2000
  148.9258  137.4941  158.8892 C   0  0  0  0  0  0  0  0  0  0  0  0
  150.0423  138.0054  157.9941 C   0  0  0  0  0  0  0  0  0  0  0  0
  149.8077  138.8071  156.9243 C   0  0  0  0  0  0  0  0  0  0  0  0
  150.8033  139.2891  156.0866 N   0  0  0  0  0  0  0  0  0  0  0  0
  150.4492  140.1580  154.9010 C   0  0  2  0  0  0  0  0  0  0  0  0
  149.7948  141.4704  155.3476 C   0  0  0  0  0  0  0  0  0  0  0  0
  148.3553  141.2895  154.8999 C   0  0  1  0  0  0  0  0  0  0  0  0
  147.7756  142.5280  154.5436 O   0  0  0  0  0  0  0  0  0  0  0  0
  148.4909  140.3428  153.7042 C   0  0  2  0  0  0  0  0  0  0  0  0
  147.2152  139.5385  153.4112 C   0  0  0  0  0  0  0  0  0  0  0  0
  147.4166  138.7014  152.2927 O   0  0  0  0  0  0  0  0  0  0  0  0
  149.5339  139.4631  154.1104 O   0  0  0  0  0  0  0  0  0  0  0  0
  152.1459  138.9294  156.3322 C   0  0  0  0  0  0  0  0  0  0  0  0
  153.0867  139.3133  155.6383 O   0  0  0  0  0  0  0  0  0  0  0  0
  152.3877  138.1061  157.4309 N   0  0  0  0  0  0  0  0  0  0  0  0
  151.4179  137.6061  158.3034 C   0  0  0  0  0  0  0  0  0  0  0  0
  151.7577  136.8885  159.2427 O   0  0  0  0  0  0  0  0  0  0  0  0
  153.3470  137.8488  157.6116 H   0  0  0  0  0  0  0  0  0  0  0  0
  147.9506  137.8621  158.5697 H   0  0  0  0  0  0  0  0  0  0  0  0
  149.0835  137.8175  159.9187 H   0  0  0  0  0  0  0  0  0  0  0  0
  148.8941  136.4041  158.8729 H   0  0  0  0  0  0  0  0  0  0  0  0
  148.7856  139.0816  156.7101 H   0  0  0  0  0  0  0  0  0  0  0  0
  151.3531  140.3244  154.3143 H   0  0  0  0  0  0  0  0  0  0  0  0
  149.9000  141.6433  156.4195 H   0  0  0  0  0  0  0  0  0  0  0  0
  150.2784  142.2892  154.8125 H   0  0  0  0  0  0  0  0  0  0  0  0
  147.7710  140.8254  155.6952 H   0  0  0  0  0  0  0  0  0  0  0  0
  148.3661  143.2215  154.7956 H   0  0  0  0  0  0  0  0  0  0  0  0
  148.8195  140.9034  152.8264 H   0  0  0  0  0  0  0  0  0  0  0  0
  146.9087  138.9512  154.2773 H   0  0  0  0  0  0  0  0  0  0  0  0
  146.3932  140.2129  153.1694 H   0  0  0  0  0  0  0  0  0  0  0  0
  148.0302  139.1215  151.7094 H   0  0  0  0  0  0  0  0  0  0  0  0
  1  2  1  0  0  0  0
  1 19  1  0  0  0  0
  1 20  1  0  0  0  0
  1 21  1  0  0  0  0
  2 16  1  0  0  0  0
  2  3  2  0  0  0  0
  3  4  1  0  0  0  0
  3 22  1  0  0  0  0
  4  5  1  0  0  0  0
  4 13  1  0  0  0  0
  5 12  1  0  0  0  0
  5  6  1  0  0  0  0
  5 23  1  0  0  0  0
  6  7  1  0  0  0  0
  6 24  1  0  0  0  0
  6 25  1  0  0  0  0
  7  8  1  0  0  0  0
  7  9  1  0  0  0  0
  7 26  1  0  0  0  0
  8 27  1  0  0  0  0
  9 10  1  0  0  0  0
  9 12  1  0  0  0  0
  9 28  1  0  0  0  0
 10 11  1  0  0  0  0
 10 29  1  0  0  0  0
 10 30  1  0  0  0  0
 11 31  1  0  0  0  0
 13 14  2  0  0  0  0
 13 15  1  0  0  0  0
 15 18  1  0  0  0  0
 15 16  1  0  0  0  0
 16 17  2  0  0  0  0
M  END
> <s_m_source_file>
AV-unprocessed.smi

> <i_m_source_file_index>
107

> <i_lp_mmshare_version>
43012

> <i_f3d_flags>
0

> <s_epik_input>
Tz1jMVtuSF1jKD1PKW4oW2NIXWMxW0NIM10pW0NAQEhdMltDSDJdW0NAQEhdKFtPSF0pW0NASF0oTzIpW0NIMl1bT0hd

> <s_epik_cmdline>
J2VwaWtfcHl0aG9uJywgJy1waCcsICc3LjAnLCAnLXRuJywgJzgnLCAnLW1hJywgJzIwMCcsICctbWV0YWxfYmluZGluZycsICctaW1hZScsICc8aW5maWxlLm1hZT4nLCAnLW9tYWUnLCAnPG91dGZpbGUubWFlPic=

> <r_lp_tautomer_probability>
0.999537

> <r_epik_Ionization_Penalty>
0.00121888

> <r_epik_Ionization_Penalty_Charging>
0.00121876

> <r_epik_Ionization_Penalty_Neutral>
1.19946e-07

> <r_epik_State_Penalty>
0.000805124

> <r_epik_Charging_Adjusted_Penalty>
0.00202389

> <i_epik_Tot_Q>
0

> <i_epik_Tot_abs_Q>
0

> <r_epik_Metal_State_Penalty>
0.662472

> <b_epik_Metal_Only>
0

> <s_epik_Chemistry_Notes>
This compound contains an acetal/aminal-like group ( X-CH(R)-Y where X, Y are N, S, or O) that may be acid/base labile, releasing an aldehyde.

> <s_lp_Force_Field>
OPLS_2005

> <r_lp_Energy>
24.9707

> <b_lp_Chiralities_Consistent>
1

> <s_lp_Variant>
AV-unprocessed.smi:107-5

> <Gold.Version>
5.8.1

> <Gold.Id.Protein>
6NUR|6NUR_protein|mol2

> <Gold.PLP.Fitness>
36.5728

> <Gold.PLP.PLP>
-24.6104

> <Gold.PLP.part.hbond>
-5.0000

> <Gold.PLP.part.metal>
0.0000

> <Gold.PLP.part.buried>
-1.4803

> <Gold.PLP.part.nonpolar>
-18.9187

> <Gold.PLP.part.repulsive>
1.0787

> <Gold.PLP.ligand.clash>
0.0000

> <Gold.PLP.ligand.torsion>
0.0251

> <Gold.PLP.Chemscore.Hbond>
4.0000

> <Gold.PLP.Chemscore.CHOScore>
0.0000

> <Gold.PLP.Chemscore.Metal>
0.0000

> <Gold.Chemscore.Hbonds>
donor molecule, donor type, donor heavy atom, donor atom, acceptor molecule, acceptor atom, score
      L1  H     8    27       P1  8028  1.00
      L1  H    11    31       P1  7957  1.00
      P1  H  6896  6909       L1    17  1.00
      P1  H  7997  8008       L1    14  1.00

> <Gold.PLP.Chemscore.Internal.Correction>
0.0127

> <Gold.Rescore>
     Score         DG    S(hbond)    S(metal)    S(lipo)     H(rot)  DE(clash)    DE(int)     intcor
     15.54     -15.75       3.97        0.00      34.14       2.73       0.18       0.03       ----

> <Gold.Chemscore.Fitness>
15.5419

> <Gold.Chemscore.DG>
-15.7523

> <Gold.Chemscore.ZeroCoef>
-5.4800

> <Gold.Chemscore.Hbond>
3.9685

> <Gold.Chemscore.Metal>
0.0000

> <Gold.Chemscore.Lipo>
34.1412

> <Gold.Chemscore.Internal_Hbond>
0.0000

> <Gold.Chemscore.DEClash>
0.1776

> <Gold.Chemscore.DEInternal>
0.0328

> <Gold.Chemscore.Rot>
2.7253

> <Gold.Chemscore.Internal.Correction>
   9.000000E+99

> <Gold.Chemscore.Hbonds>
donor molecule, donor type, donor heavy atom, donor atom, acceptor molecule, acceptor atom, score
      L1  H     8    27       P1  8028  0.98
      L1  H    11    31       P1  7957  0.95
      P1  H  6896  6909       L1    17  0.96
      P1  H  7997  8008       L1    14  0.98

> <Gold.Chemscore.Hbond.Weighted>
-13.2547

> <Gold.Chemscore.Metal.Weighted>
-0.0000

> <Gold.Chemscore.Lipo.Weighted>
-3.9945

> <Gold.Chemscore.Internal_Hbond.Weighted>
0.0000

> <Gold.Chemscore.DEClash.Weighted>
0.1776

> <Gold.Chemscore.DEInternal.Weighted>
0.0328

> <Gold.Chemscore.Rot.Weighted>
6.9769

> <Gold.Chemscore.Internal.Correction.Weighted>
   9.000000E+99

> <Gold.Protein.RotatedTorsions>
[ 6907 6896 6895 6894 ] final  110.17 input  -60.11 | X-H torsion
[ 7974 7965 7964 7962 ] final  -57.03 input  175.53 | X-H torsion
[ 8008 7997 7996 7995 ] final  -32.06 input   59.86 | X-H torsion
[ 10167 10162 10161 10158 ] final   19.41 input  -65.29 | X-H torsion
[ 10718 10713 10712 10709 ] final -125.55 input   66.30 | X-H torsion
[ 10763 10752 10751 10750 ] final  -89.96 input  -60.55 | X-H torsion
[ 11005 11000 10999 10996 ] final -172.69 input  -57.11 | X-H torsion

> <Gold.Protein.ActiveResidues>
 VAL166  LYS551  ARG553  GLY616  TRP617  ASP618  TYR619  PRO620  LYS621  CYS622 
 ASP623  PHE694  ASN695  SER759  ASP760  ASP761  ALA762  ILE779  LEU786  VAL792 
 PHE793  MET794  SER795  GLU796  ALA797  LYS798  CYS799  TRP800  GLU811  SER814 

> <Gold.Protein.RotatedAtoms>
  152.5032  133.8838  159.7359 H   0  0  0  0  0  0  0  0  0  0  0  0  # atno 6907 bound_to 6896
  150.9294  133.6776  159.2821 H   0  0  0  0  0  0  0  0  0  0  0  0  # atno 6908 bound_to 6896
  151.4126  135.0991  159.9642 H   0  0  0  0  0  0  0  0  0  0  0  0  # atno 6909 bound_to 6896
  145.8558  140.8320  142.9962 H   0  0  0  0  0  0  0  0  0  0  0  0  # atno 7974 bound_to 7965
  154.4192  140.1747  156.1667 H   0  0  0  0  0  0  0  0  0  0  0  0  # atno 8008 bound_to 7997
  155.9794  140.3379  155.6625 H   0  0  0  0  0  0  0  0  0  0  0  0  # atno 8009 bound_to 7997
  155.6520  140.0691  157.2574 H   0  0  0  0  0  0  0  0  0  0  0  0  # atno 8010 bound_to 7997
  140.5581  143.9387  150.6623 H   0  0  0  0  0  0  0  0  0  0  0  0  # atno 10167 bound_to 10162
  156.1686  130.6651  151.0148 H   0  0  0  0  0  0  0  0  0  0  0  0  # atno 10718 bound_to 10713
  154.6607  135.5322  153.8015 H   0  0  0  0  0  0  0  0  0  0  0  0  # atno 10763 bound_to 10752
  153.0440  135.6505  154.0875 H   0  0  0  0  0  0  0  0  0  0  0  0  # atno 10764 bound_to 10752
  154.0784  135.2949  155.3275 H   0  0  0  0  0  0  0  0  0  0  0  0  # atno 10765 bound_to 10752
  140.4941  134.5956  157.4965 H   0  0  0  0  0  0  0  0  0  0  0  0  # atno 11005 bound_to 11000
  144.6728  140.1021  143.7460 LP  0  0  0  0  0  0  0  0  0  0  0  0  # atno 17320 bound_to 7965
  145.9306  139.2603  143.1327 LP  0  0  0  0  0  0  0  0  0  0  0  0  # atno 17321 bound_to 7965
  140.2830  143.3376  152.1133 LP  0  0  0  0  0  0  0  0  0  0  0  0  # atno 17342 bound_to 10162
  139.5057  144.6800  151.6032 LP  0  0  0  0  0  0  0  0  0  0  0  0  # atno 17343 bound_to 10162
  157.6786  131.0844  150.7430 LP  0  0  0  0  0  0  0  0  0  0  0  0  # atno 17370 bound_to 10713
  156.7490  130.4762  149.5461 LP  0  0  0  0  0  0  0  0  0  0  0  0  # atno 17371 bound_to 10713
  139.9752  134.7228  155.9964 LP  0  0  0  0  0  0  0  0  0  0  0  0  # atno 17394 bound_to 11000
  141.1469  133.6554  156.3894 LP  0  0  0  0  0  0  0  0  0  0  0  0  # atno 17395 bound_to 11000

$$$$
