AV-unprocessed.smi:261|AV-procd|sdf|1995|dock4
  -GOLD-   2262021183D 1   1.00000     0.00000
 Structure written by MMmdl.
 51 54  0  0  0  0  0  0  0  0  1 V2000
  151.9309  145.6324  159.1538 C   0  0  0  0  0  0  0  0  0  0  0  0
  152.5353  144.3507  159.2137 O   0  0  0  0  0  0  0  0  0  0  0  0
  151.6130  143.2840  159.0479 C   0  0  1  0  0  0  0  0  0  0  0  0
  150.7784  143.4793  157.7879 C   0  0  0  0  0  0  0  0  0  0  0  0
  150.2789  142.0603  157.4875 C   0  0  1  0  0  0  0  0  0  0  0  0
  149.9124  141.8776  156.0080 C   0  0  0  0  0  0  0  0  0  0  0  0
  149.0432  142.7500  155.4922 N   0  0  0  0  0  0  0  0  0  0  0  0
  150.4114  140.9767  155.3357 O   0  0  0  0  0  0  0  0  0  0  0  0
  151.3928  141.1988  157.8929 N   0  0  0  0  0  0  0  0  0  0  0  0
  151.0489  139.9568  158.2986 C   0  0  0  0  0  0  0  0  0  0  0  0
  152.0532  139.1174  158.6492 N   0  0  0  0  0  0  0  0  0  0  0  0
  151.7733  137.8726  159.0477 C   0  0  0  0  0  0  0  0  0  0  0  0
  150.5825  137.2794  159.1615 N   0  0  0  0  0  0  0  0  0  0  0  0
  149.5718  138.1248  158.8087 C   0  0  0  0  0  0  0  0  0  0  0  0
  149.7134  139.4710  158.3723 C   0  0  0  0  0  0  0  0  0  0  0  0
  148.4648  140.0180  158.1014 N   0  0  0  0  0  0  0  0  0  0  0  0
  147.6316  139.0462  158.3558 C   0  0  0  0  0  0  0  0  0  0  0  0
  148.2126  137.8714  158.7776 N   0  0  0  0  0  0  0  0  0  0  0  0
  147.5300  136.6348  159.1127 C   0  0  0  0  0  0  0  0  0  0  0  0
  147.6041  136.3009  160.6173 C   0  0  1  0  0  0  0  0  0  0  0  0
  147.2992  137.4621  161.3633 O   0  0  0  0  0  0  0  0  0  0  0  0
  146.7117  135.1180  161.0576 C   0  0  1  0  0  0  0  0  0  0  0  0
  146.7224  134.7688  162.5553 C   0  0  0  0  0  0  0  0  0  0  0  0
  145.2502  134.6034  162.9022 C   0  0  0  0  0  0  0  0  0  0  0  0
  144.5705  134.4902  161.5417 C   0  0  0  0  0  0  0  0  0  0  0  0
  145.3486  135.3459  160.7226 O   0  0  0  0  0  0  0  0  0  0  0  0
  152.2829  141.9305  158.7897 C   0  0  0  0  0  0  0  0  0  0  0  0
  150.9412  143.2139  159.9057 H   0  0  0  0  0  0  0  0  0  0  0  0
  149.4007  141.8568  158.1038 H   0  0  0  0  0  0  0  0  0  0  0  0
  152.6956  146.4007  159.2670 H   0  0  0  0  0  0  0  0  0  0  0  0
  151.2004  145.7695  159.9515 H   0  0  0  0  0  0  0  0  0  0  0  0
  151.4361  145.7902  158.1947 H   0  0  0  0  0  0  0  0  0  0  0  0
  149.9658  144.1919  157.9327 H   0  0  0  0  0  0  0  0  0  0  0  0
  151.4107  143.8496  156.9783 H   0  0  0  0  0  0  0  0  0  0  0  0
  148.7676  142.6758  154.5237 H   0  0  0  0  0  0  0  0  0  0  0  0
  148.6645  143.4824  156.0750 H   0  0  0  0  0  0  0  0  0  0  0  0
  152.6262  137.2643  159.3108 H   0  0  0  0  0  0  0  0  0  0  0  0
  146.5641  139.1570  158.2313 H   0  0  0  0  0  0  0  0  0  0  0  0
  146.4910  136.7163  158.7913 H   0  0  0  0  0  0  0  0  0  0  0  0
  147.9759  135.8298  158.5268 H   0  0  0  0  0  0  0  0  0  0  0  0
  148.6355  136.0439  160.8608 H   0  0  0  0  0  0  0  0  0  0  0  0
  146.8743  137.1979  162.1652 H   0  0  0  0  0  0  0  0  0  0  0  0
  147.0184  134.2236  160.5119 H   0  0  0  0  0  0  0  0  0  0  0  0
  147.2735  133.8426  162.7224 H   0  0  0  0  0  0  0  0  0  0  0  0
  147.1815  135.5368  163.1777 H   0  0  0  0  0  0  0  0  0  0  0  0
  145.0567  133.7435  163.5442 H   0  0  0  0  0  0  0  0  0  0  0  0
  144.8926  135.4959  163.4170 H   0  0  0  0  0  0  0  0  0  0  0  0
  144.6250  133.4690  161.1608 H   0  0  0  0  0  0  0  0  0  0  0  0
  143.5240  134.7949  161.5653 H   0  0  0  0  0  0  0  0  0  0  0  0
  153.2299  142.0694  158.2664 H   0  0  0  0  0  0  0  0  0  0  0  0
  152.5009  141.4052  159.7215 H   0  0  0  0  0  0  0  0  0  0  0  0
  1  2  1  0  0  0  0
  1 30  1  0  0  0  0
  1 31  1  0  0  0  0
  1 32  1  0  0  0  0
  2  3  1  0  0  0  0
  3 28  1  0  0  0  0
  3 27  1  0  0  0  0
  3  4  1  0  0  0  0
  4  5  1  0  0  0  0
  4 33  1  0  0  0  0
  4 34  1  0  0  0  0
  5 29  1  0  0  0  0
  5  6  1  0  0  0  0
  5  9  1  0  0  0  0
  6  7  1  0  0  0  0
  6  8  2  0  0  0  0
  7 35  1  0  0  0  0
  7 36  1  0  0  0  0
  9 10  1  0  0  0  0
  9 27  1  0  0  0  0
 10 15  1  0  0  0  0
 10 11  2  0  0  0  0
 11 12  1  0  0  0  0
 12 13  2  0  0  0  0
 12 37  1  0  0  0  0
 13 14  1  0  0  0  0
 14 18  1  0  0  0  0
 14 15  2  0  0  0  0
 15 16  1  0  0  0  0
 16 17  2  0  0  0  0
 17 18  1  0  0  0  0
 17 38  1  0  0  0  0
 18 19  1  0  0  0  0
 19 20  1  0  0  0  0
 19 39  1  0  0  0  0
 19 40  1  0  0  0  0
 20 21  1  0  0  0  0
 20 22  1  0  0  0  0
 20 41  1  0  0  0  0
 21 42  1  0  0  0  0
 22 26  1  0  0  0  0
 22 23  1  0  0  0  0
 22 43  1  0  0  0  0
 23 24  1  0  0  0  0
 23 44  1  0  0  0  0
 23 45  1  0  0  0  0
 24 25  1  0  0  0  0
 24 46  1  0  0  0  0
 24 47  1  0  0  0  0
 25 26  1  0  0  0  0
 25 48  1  0  0  0  0
 25 49  1  0  0  0  0
 27 50  1  0  0  0  0
 27 51  1  0  0  0  0
M  END
> <s_m_source_file>
AV-unprocessed.smi

> <i_m_source_file_index>
261

> <i_lp_mmshare_version>
43012

> <i_f3d_flags>
0

> <s_epik_input>
W0NIM11PW0NASF0xW0NIMl1bQ0BASF0oQyg9TylbTkgyXSlOKFtDSDJdMSljKG5bY0hdbjIpYyhjMjMpbltjSF1uM1tDSDJdW0NASF0oW09IXSlbQ0BASF00W0NIMl1bQ0gyXVtDSDJdTzQ=

> <s_epik_cmdline>
J2VwaWtfcHl0aG9uJywgJy1waCcsICc3LjAnLCAnLXRuJywgJzgnLCAnLW1hJywgJzIwMCcsICctbWV0YWxfYmluZGluZycsICctaW1hZScsICc8aW5maWxlLm1hZT4nLCAnLW9tYWUnLCAnPG91dGZpbGUubWFlPic=

> <r_lp_tautomer_probability>
1

> <r_epik_Ionization_Penalty>
0.000713824

> <r_epik_Ionization_Penalty_Charging>
0

> <r_epik_Ionization_Penalty_Neutral>
0.000713824

> <r_epik_State_Penalty>
0.000402132

> <r_epik_Charging_Adjusted_Penalty>
0.000402132

> <i_epik_Tot_Q>
0

> <i_epik_Tot_abs_Q>
0

> <r_epik_Metal_State_Penalty>
-0

> <b_epik_Metal_Only>
0

> <s_lp_Force_Field>
OPLS_2005

> <r_lp_Energy>
47.7975

> <b_lp_Chiralities_Consistent>
1

> <s_lp_Variant>
AV-unprocessed.smi:261-13

> <Gold.Version>
5.8.1

> <Gold.Id.Protein>
6NUR|6NUR_protein|mol2

> <Gold.PLP.Fitness>
58.8653

> <Gold.PLP.PLP>
-45.3457

> <Gold.PLP.part.hbond>
-5.0000

> <Gold.PLP.part.metal>
0.0000

> <Gold.PLP.part.buried>
-7.6418

> <Gold.PLP.part.nonpolar>
-33.2839

> <Gold.PLP.part.repulsive>
0.2450

> <Gold.PLP.ligand.clash>
0.0000

> <Gold.PLP.ligand.torsion>
0.3996

> <Gold.PLP.Chemscore.Hbond>
4.6880

> <Gold.PLP.Chemscore.CHOScore>
0.0000

> <Gold.PLP.Chemscore.Metal>
0.0000

> <Gold.Chemscore.Hbonds>
donor molecule, donor type, donor heavy atom, donor atom, acceptor molecule, acceptor atom, score
      L1  H     7    36       P1  8028  0.16
      P1  H  6896  6908       L1    13  0.15
      P1  H  6931  6943       L1    21  0.74
      P1  H  6934  6947       L1    21  0.96
      P1  H  7989  7998       L1     8  0.43

> <Gold.PLP.Chemscore.Internal.Correction>
0.2547

> <Gold.Rescore>
     Score         DG    S(hbond)    S(metal)    S(lipo)     H(rot)  DE(clash)    DE(int)     intcor
     16.08     -18.10       3.38        0.00      89.50       3.57       0.18       1.84       ----

> <Gold.Chemscore.Fitness>
16.0792

> <Gold.Chemscore.DG>
-18.0986

> <Gold.Chemscore.ZeroCoef>
-5.4800

> <Gold.Chemscore.Hbond>
3.3822

> <Gold.Chemscore.Metal>
0.0000

> <Gold.Chemscore.Lipo>
89.5000

> <Gold.Chemscore.Internal_Hbond>
0.0000

> <Gold.Chemscore.DEClash>
0.1778

> <Gold.Chemscore.DEInternal>
1.8416

> <Gold.Chemscore.Rot>
3.5740

> <Gold.Chemscore.Internal.Correction>
   9.000000E+99

> <Gold.Chemscore.Hbonds>
donor molecule, donor type, donor heavy atom, donor atom, acceptor molecule, acceptor atom, score
      L1  H     7    36       P1  8028  0.15
      P1  H  6896  6908       L1    13  0.08
      P1  H  6931  6943       L1    21  0.24
      P1  H  6934  6947       L1    21  0.86
      P1  H  7989  7998       L1     8  0.43

> <Gold.Chemscore.Hbond.Weighted>
-11.2966

> <Gold.Chemscore.Metal.Weighted>
-0.0000

> <Gold.Chemscore.Lipo.Weighted>
-10.4715

> <Gold.Chemscore.Internal_Hbond.Weighted>
0.0000

> <Gold.Chemscore.DEClash.Weighted>
0.1778

> <Gold.Chemscore.DEInternal.Weighted>
1.8416

> <Gold.Chemscore.Rot.Weighted>
9.1495

> <Gold.Chemscore.Internal.Correction.Weighted>
   9.000000E+99

> <Gold.Protein.RotatedTorsions>
[ 6907 6896 6895 6894 ] final -152.24 input  -60.11 | X-H torsion
[ 7974 7965 7964 7962 ] final -102.70 input  175.53 | X-H torsion
[ 8008 7997 7996 7995 ] final  173.82 input   59.86 | X-H torsion
[ 10167 10162 10161 10158 ] final  -62.17 input  -65.29 | X-H torsion
[ 10718 10713 10712 10709 ] final -108.37 input   66.30 | X-H torsion
[ 10763 10752 10751 10750 ] final   49.31 input  -60.55 | X-H torsion
[ 11005 11000 10999 10996 ] final   35.33 input  -57.11 | X-H torsion

> <Gold.Protein.ActiveResidues>
 VAL166  LYS551  ARG553  GLY616  TRP617  ASP618  TYR619  PRO620  LYS621  CYS622 
 ASP623  PHE694  ASN695  SER759  ASP760  ASP761  ALA762  ILE779  LEU786  VAL792 
 PHE793  MET794  SER795  GLU796  ALA797  LYS798  CYS799  TRP800  GLU811  SER814 

> <Gold.Protein.RotatedAtoms>
  151.2249  133.4482  159.2601 H   0  0  0  0  0  0  0  0  0  0  0  0  # atno 6907 bound_to 6896
  151.0849  134.9881  159.8384 H   0  0  0  0  0  0  0  0  0  0  0  0  # atno 6908 bound_to 6896
  152.5428  134.2186  159.8831 H   0  0  0  0  0  0  0  0  0  0  0  0  # atno 6909 bound_to 6896
  145.2654  140.9282  143.3017 H   0  0  0  0  0  0  0  0  0  0  0  0  # atno 7974 bound_to 7965
  156.1037  140.1450  156.9433 H   0  0  0  0  0  0  0  0  0  0  0  0  # atno 8008 bound_to 7997
  154.4719  140.0907  156.7212 H   0  0  0  0  0  0  0  0  0  0  0  0  # atno 8009 bound_to 7997
  155.4716  140.3442  155.4329 H   0  0  0  0  0  0  0  0  0  0  0  0  # atno 8010 bound_to 7997
  140.5957  143.2350  151.6041 H   0  0  0  0  0  0  0  0  0  0  0  0  # atno 10167 bound_to 10162
  156.0482  130.5709  150.7952 H   0  0  0  0  0  0  0  0  0  0  0  0  # atno 10718 bound_to 10713
  152.9787  135.5916  154.4068 H   0  0  0  0  0  0  0  0  0  0  0  0  # atno 10763 bound_to 10752
  154.3707  135.2767  155.2269 H   0  0  0  0  0  0  0  0  0  0  0  0  # atno 10764 bound_to 10752
  154.4226  135.6055  153.6074 H   0  0  0  0  0  0  0  0  0  0  0  0  # atno 10765 bound_to 10752
  140.2437  134.3384  155.7916 H   0  0  0  0  0  0  0  0  0  0  0  0  # atno 11005 bound_to 11000
  144.9382  139.4220  143.6462 LP  0  0  0  0  0  0  0  0  0  0  0  0  # atno 17320 bound_to 7965
  146.3263  139.8328  142.8905 LP  0  0  0  0  0  0  0  0  0  0  0  0  # atno 17321 bound_to 7965
  139.5256  144.3068  152.1027 LP  0  0  0  0  0  0  0  0  0  0  0  0  # atno 17342 bound_to 10162
  140.2240  144.4437  150.6329 LP  0  0  0  0  0  0  0  0  0  0  0  0  # atno 17343 bound_to 10162
  157.5381  131.0939  150.9865 LP  0  0  0  0  0  0  0  0  0  0  0  0  # atno 17370 bound_to 10713
  157.0154  130.5653  149.5325 LP  0  0  0  0  0  0  0  0  0  0  0  0  # atno 17371 bound_to 10713
  141.2208  133.7313  156.8926 LP  0  0  0  0  0  0  0  0  0  0  0  0  # atno 17394 bound_to 11000
  140.1627  134.9154  157.2735 LP  0  0  0  0  0  0  0  0  0  0  0  0  # atno 17395 bound_to 11000

$$$$
