AV-unprocessed.smi:3204|AV-procd|sdf|12251|dock5
  -GOLD-   2272018 83D 1   1.00000     0.00000
 Structure written by MMmdl.
 30 31  0  0  0  0  0  0  0  0  1 V2000
  153.2736  142.4547  159.4567 C   0  0  0  0  0  0  0  0  0  0  0  0
  152.7194  141.0342  159.2974 C   0  0  0  0  0  0  0  0  0  0  0  0
  152.2138  140.7659  157.8919 C   0  0  0  0  0  0  0  0  0  0  0  0
  152.7742  139.7268  157.2330 N   0  0  0  0  0  0  0  0  0  0  0  0
  152.3338  139.4917  155.9946 C   0  0  0  0  0  0  0  0  0  0  0  0
  151.3964  140.1787  155.3366 N   0  0  0  0  0  0  0  0  0  0  0  0
  150.8281  141.2256  155.9813 C   0  0  0  0  0  0  0  0  0  0  0  0
  149.8403  141.9829  155.3358 N   0  0  0  0  0  0  0  0  0  0  0  0
  148.9859  141.4028  154.3037 C   0  0  1  0  0  0  0  0  0  0  0  0
  148.5478  139.9751  154.6020 C   0  0  0  0  0  0  0  0  0  0  0  0
  147.4878  139.7697  153.6790 O   0  0  0  0  0  0  0  0  0  0  0  0
  146.7844  140.9959  153.4799 C   0  0  0  0  0  0  0  0  0  0  0  0
  147.6467  142.1047  154.1010 C   0  0  1  0  0  0  0  0  0  0  0  0
  147.0617  142.5093  155.3268 O   0  0  0  0  0  0  0  0  0  0  0  0
  151.2156  141.5669  157.2949 C   0  0  0  0  0  0  0  0  0  0  0  0
  150.6571  142.6148  157.9487 F   0  0  0  0  0  0  0  0  0  0  0  0
  153.6296  142.6204  160.4736 H   0  0  0  0  0  0  0  0  0  0  0  0
  152.5070  143.2009  159.2459 H   0  0  0  0  0  0  0  0  0  0  0  0
  154.1094  142.6306  158.7789 H   0  0  0  0  0  0  0  0  0  0  0  0
  153.4947  140.3064  159.5402 H   0  0  0  0  0  0  0  0  0  0  0  0
  151.9139  140.8704  160.0140 H   0  0  0  0  0  0  0  0  0  0  0  0
  152.7823  138.6615  155.4699 H   0  0  0  0  0  0  0  0  0  0  0  0
  149.7469  142.9653  155.5501 H   0  0  0  0  0  0  0  0  0  0  0  0
  149.5284  141.3924  153.3570 H   0  0  0  0  0  0  0  0  0  0  0  0
  149.3482  139.2479  154.4637 H   0  0  0  0  0  0  0  0  0  0  0  0
  148.1645  139.8796  155.6194 H   0  0  0  0  0  0  0  0  0  0  0  0
  146.6642  141.1521  152.4076 H   0  0  0  0  0  0  0  0  0  0  0  0
  145.7867  140.9431  153.9184 H   0  0  0  0  0  0  0  0  0  0  0  0
  147.7309  142.9725  153.4464 H   0  0  0  0  0  0  0  0  0  0  0  0
  147.6438  143.1253  155.7446 H   0  0  0  0  0  0  0  0  0  0  0  0
  1  2  1  0  0  0  0
  1 17  1  0  0  0  0
  1 18  1  0  0  0  0
  1 19  1  0  0  0  0
  2  3  1  0  0  0  0
  2 20  1  0  0  0  0
  2 21  1  0  0  0  0
  3 15  1  0  0  0  0
  3  4  2  0  0  0  0
  4  5  1  0  0  0  0
  5  6  2  0  0  0  0
  5 22  1  0  0  0  0
  6  7  1  0  0  0  0
  7  8  1  0  0  0  0
  7 15  2  0  0  0  0
  8  9  1  0  0  0  0
  8 23  1  0  0  0  0
  9 13  1  0  0  0  0
  9 10  1  0  0  0  0
  9 24  1  0  0  0  0
 10 11  1  0  0  0  0
 10 25  1  0  0  0  0
 10 26  1  0  0  0  0
 11 12  1  0  0  0  0
 12 13  1  0  0  0  0
 12 27  1  0  0  0  0
 12 28  1  0  0  0  0
 13 14  1  0  0  0  0
 13 29  1  0  0  0  0
 14 30  1  0  0  0  0
 15 16  1  0  0  0  0
M  END
> <s_m_source_file>
AV-unprocessed.smi

> <i_m_source_file_index>
3204

> <i_lp_mmshare_version>
43012

> <i_f3d_flags>
0

> <s_epik_input>
W0NIM11bQ0gyXWMxbltjSF1uYyhjMUYpW05IXVtDQEBIXTJbQ0gyXU9bQ0gyXVtDQEhdMltPSF0=

> <s_epik_cmdline>
J2VwaWtfcHl0aG9uJywgJy1waCcsICc3LjAnLCAnLXRuJywgJzgnLCAnLW1hJywgJzIwMCcsICctbWV0YWxfYmluZGluZycsICctaW1hZScsICc8aW5maWxlLm1hZT4nLCAnLW9tYWUnLCAnPG91dGZpbGUubWFlPic=

> <r_lp_tautomer_probability>
1

> <r_epik_Ionization_Penalty>
0.000484964

> <r_epik_Ionization_Penalty_Charging>
0

> <r_epik_Ionization_Penalty_Neutral>
0.000484964

> <r_epik_State_Penalty>
-0

> <r_epik_Charging_Adjusted_Penalty>
0

> <i_epik_Tot_Q>
0

> <i_epik_Tot_abs_Q>
0

> <r_epik_Metal_State_Penalty>
-0

> <b_epik_Metal_Only>
0

> <s_lp_Force_Field>
OPLS_2005

> <r_lp_Energy>
19.2614

> <b_lp_Chiralities_Consistent>
1

> <s_lp_Variant>
AV-unprocessed.smi:3204-2

> <Gold.Version>
5.8.1

> <Gold.Id.Protein>
6NUR|6NUR_protein|mol2

> <Gold.PLP.Fitness>
43.1695

> <Gold.PLP.PLP>
-32.1346

> <Gold.PLP.part.hbond>
-4.0000

> <Gold.PLP.part.metal>
0.0000

> <Gold.PLP.part.buried>
-1.9234

> <Gold.PLP.part.nonpolar>
-25.4097

> <Gold.PLP.part.repulsive>
0.4045

> <Gold.PLP.ligand.clash>
0.0000

> <Gold.PLP.ligand.torsion>
0.4851

> <Gold.PLP.Chemscore.Hbond>
4.0000

> <Gold.PLP.Chemscore.CHOScore>
0.0000

> <Gold.PLP.Chemscore.Metal>
0.0000

> <Gold.Chemscore.Hbonds>
donor molecule, donor type, donor heavy atom, donor atom, acceptor molecule, acceptor atom, score
      L1  H     8    23       P1  8028  1.00
      L1  H    14    30       P1  8028  1.00
      P1  H  7989  7998       L1     6  1.00
      P1  H  7997  8008       L1     4  1.00

> <Gold.PLP.Chemscore.Internal.Correction>
0.0052

> <Gold.Rescore>
     Score         DG    S(hbond)    S(metal)    S(lipo)     H(rot)  DE(clash)    DE(int)     intcor
     14.87     -15.61       2.36        0.00      59.28       1.83       0.30       0.44       ----

> <Gold.Chemscore.Fitness>
14.8659

> <Gold.Chemscore.DG>
-15.6121

> <Gold.Chemscore.ZeroCoef>
-5.4800

> <Gold.Chemscore.Hbond>
2.3625

> <Gold.Chemscore.Metal>
0.0000

> <Gold.Chemscore.Lipo>
59.2782

> <Gold.Chemscore.Internal_Hbond>
0.0000

> <Gold.Chemscore.DEClash>
0.3027

> <Gold.Chemscore.DEInternal>
0.4435

> <Gold.Chemscore.Rot>
1.8337

> <Gold.Chemscore.Internal.Correction>
   9.000000E+99

> <Gold.Chemscore.Hbonds>
donor molecule, donor type, donor heavy atom, donor atom, acceptor molecule, acceptor atom, score
      L1  H     8    23       P1  8028  0.98
      L1  H    14    30       P1  8028  0.23
      P1  H  7989  7998       L1     6  0.37
      P1  H  7997  8008       L1     4  0.19

> <Gold.Chemscore.Hbond.Weighted>
-7.8908

> <Gold.Chemscore.Metal.Weighted>
-0.0000

> <Gold.Chemscore.Lipo.Weighted>
-6.9356

> <Gold.Chemscore.Internal_Hbond.Weighted>
0.0000

> <Gold.Chemscore.DEClash.Weighted>
0.3027

> <Gold.Chemscore.DEInternal.Weighted>
0.4435

> <Gold.Chemscore.Rot.Weighted>
4.6942

> <Gold.Chemscore.Internal.Correction.Weighted>
   9.000000E+99

> <Gold.Protein.RotatedTorsions>
[ 6907 6896 6895 6894 ] final -152.88 input  -60.11 | X-H torsion
[ 7974 7965 7964 7962 ] final  -66.54 input  175.53 | X-H torsion
[ 8008 7997 7996 7995 ] final  -77.37 input   59.86 | X-H torsion
[ 10167 10162 10161 10158 ] final -147.89 input  -65.29 | X-H torsion
[ 10718 10713 10712 10709 ] final   39.44 input   66.30 | X-H torsion
[ 10763 10752 10751 10750 ] final  107.18 input  -60.55 | X-H torsion
[ 11005 11000 10999 10996 ] final  119.33 input  -57.11 | X-H torsion

> <Gold.Protein.ActiveResidues>
 VAL166  LYS551  ARG553  GLY616  TRP617  ASP618  TYR619  PRO620  LYS621  CYS622 
 ASP623  PHE694  ASN695  SER759  ASP760  ASP761  ALA762  ILE779  LEU786  VAL792 
 PHE793  MET794  SER795  GLU796  ALA797  LYS798  CYS799  TRP800  GLU811  SER814 

> <Gold.Protein.RotatedAtoms>
  151.2343  133.4433  159.2604 H   0  0  0  0  0  0  0  0  0  0  0  0  # atno 6907 bound_to 6896
  151.0765  134.9831  159.8345 H   0  0  0  0  0  0  0  0  0  0  0  0  # atno 6908 bound_to 6896
  152.5419  134.2285  159.8868 H   0  0  0  0  0  0  0  0  0  0  0  0  # atno 6909 bound_to 6896
  145.7405  140.8955  143.0532 H   0  0  0  0  0  0  0  0  0  0  0  0  # atno 7974 bound_to 7965
  154.5590  140.0711  156.8789 H   0  0  0  0  0  0  0  0  0  0  0  0  # atno 8008 bound_to 7997
  155.2847  140.3374  155.4238 H   0  0  0  0  0  0  0  0  0  0  0  0  # atno 8009 bound_to 7997
  156.2026  140.1728  156.7852 H   0  0  0  0  0  0  0  0  0  0  0  0  # atno 8010 bound_to 7997
  139.7581  143.8418  152.2601 H   0  0  0  0  0  0  0  0  0  0  0  0  # atno 10167 bound_to 10162
  157.3706  130.7699  149.7116 H   0  0  0  0  0  0  0  0  0  0  0  0  # atno 10718 bound_to 10713
  153.4031  135.3853  155.2001 H   0  0  0  0  0  0  0  0  0  0  0  0  # atno 10763 bound_to 10752
  154.8731  135.3776  154.4594 H   0  0  0  0  0  0  0  0  0  0  0  0  # atno 10764 bound_to 10752
  153.5093  135.7087  153.5851 H   0  0  0  0  0  0  0  0  0  0  0  0  # atno 10765 bound_to 10752
  139.9142  134.9627  156.7639 H   0  0  0  0  0  0  0  0  0  0  0  0  # atno 11005 bound_to 11000
  144.6871  139.9454  143.7476 LP  0  0  0  0  0  0  0  0  0  0  0  0  # atno 17320 bound_to 7965
  146.0452  139.3459  143.0673 LP  0  0  0  0  0  0  0  0  0  0  0  0  # atno 17321 bound_to 7965
  139.8416  144.7207  150.9324 LP  0  0  0  0  0  0  0  0  0  0  0  0  # atno 17342 bound_to 10162
  140.7804  143.3978  151.1199 LP  0  0  0  0  0  0  0  0  0  0  0  0  # atno 17343 bound_to 10162
  155.9755  130.4088  150.3846 LP  0  0  0  0  0  0  0  0  0  0  0  0  # atno 17370 bound_to 10713
  157.1937  131.0421  151.2687 LP  0  0  0  0  0  0  0  0  0  0  0  0  # atno 17371 bound_to 10713
  140.6675  133.9589  155.7838 LP  0  0  0  0  0  0  0  0  0  0  0  0  # atno 17394 bound_to 11000
  141.0600  134.0360  157.3671 LP  0  0  0  0  0  0  0  0  0  0  0  0  # atno 17395 bound_to 11000

$$$$
