#       Name:                AV-unprocessed.smi:2988
#       Creating user name   scv26
#       Creation time:       Fri Mar 27 16:31:20 2020


#       File generated by GOLD software.
#

@<TRIPOS>MOLECULE
AV-unprocessed.smi:2988
    42    43     1
SMALL
NO_CHARGES


@<TRIPOS>ATOM
      1 ****        -1.7997   0.0595   1.5452 C.3            1 S1                 0.0000
      2 ****        -2.2683  -0.6382   0.2564 C.3            1 S1                 0.0000
      3 ****        -1.9286  -2.1430   0.2734 C.3            1 S1                 0.0000
      4 ****        -2.4630  -2.8572  -0.9783 C.3            1 S1                 0.0000
      5 ****        -1.9481  -2.1944  -2.2647 C.3            1 S1                 0.0000
      6 ****        -2.2788  -0.6914  -2.2890 C.3            1 S1                 0.0000
      7 ****        -1.7511   0.0419  -1.0392 C.3            1 S1                 0.0000
      8 ****        -0.2890   0.0991  -1.0852 N.am           1 S1                 0.0000
      9 ****         0.4756   1.1506  -0.7532 C.2            1 S1                 0.0000
     10 ****         0.0212   2.2337  -0.3832 O.2            1 S1                 0.0000
     11 ****         1.9915   0.9447  -0.8656 C.3            1 S1                 0.0000
     12 ****         2.7117   1.4401   0.3158 N.am           1 S1                 0.0000
     13 ****         3.3289   2.6650   0.1321 N.2            1 S1                 0.0000
     14 ****         3.9712   3.2041   1.1103 C.2            1 S1                 0.0000
     15 ****         4.0777   2.5692   2.4055 C.2            1 S1                 0.0000
     16 ****         4.9511   3.3419   3.6812 Cl             1 S1                 0.0000
     17 ****         3.4771   1.3641   2.5719 C.2            1 S1                 0.0000
     18 ****         3.5627   0.5410   4.0916 Cl             1 S1                 0.0000
     19 ****         2.7374   0.7184   1.4788 C.2            1 S1                 0.0000
     20 ****         2.1835  -0.3765   1.5884 O.2            1 S1                 0.0000
     21 ****        -0.7248  -0.0447   1.6947 H              1 S1                 0.0000
     22 ****        -2.2928  -0.3656   2.4196 H              1 S1                 0.0000
     23 ****        -2.0324   1.1245   1.5222 H              1 S1                 0.0000
     24 ****        -3.3563  -0.5563   0.2415 H              1 S1                 0.0000
     25 ****        -0.8486  -2.2808   0.3411 H              1 S1                 0.0000
     26 ****        -2.3518  -2.6096   1.1636 H              1 S1                 0.0000
     27 ****        -2.1713  -3.9077  -0.9596 H              1 S1                 0.0000
     28 ****        -3.5537  -2.8394  -0.9706 H              1 S1                 0.0000
     29 ****        -0.8699  -2.3381  -2.3434 H              1 S1                 0.0000
     30 ****        -2.3860  -2.6843  -3.1347 H              1 S1                 0.0000
     31 ****        -1.8747  -0.2349  -3.1934 H              1 S1                 0.0000
     32 ****        -3.3609  -0.5670  -2.3464 H              1 S1                 0.0000
     33 ****        -2.1457   1.0590  -1.0726 H              1 S1                 0.0000
     34 ****         0.1814  -0.7451  -1.3776 H              1 S1                 0.0000
     35 ****         2.2203  -0.1108  -1.0262 H              1 S1                 0.0000
     36 ****         2.3357   1.4579  -1.7653 H              1 S1                 0.0000
     37 ****         4.4694   4.1689   1.0138 H              1 S1                 0.0000
     38 ****        -0.9680   2.3647  -0.3173 LP             1 S1                 0.0000
     39 ****         0.6414   2.9823  -0.1485 LP             1 S1                 0.0000
     40 ****         3.2768   3.1280  -0.7527 LP             1 S1                 0.0000
     41 ****         1.6924  -0.7685   0.8105 LP             1 S1                 0.0000
     42 ****         2.2249  -0.8732   2.4553 LP             1 S1                 0.0000
@<TRIPOS>BOND
    1    1    2 1     
    2    1   21 1     
    3    1   22 1     
    4    1   23 1     
    5    2    7 1     
    6    2    3 1     
    7    2   24 1     
    8    3    4 1     
    9    3   25 1     
   10    3   26 1     
   11    4    5 1     
   12    4   27 1     
   13    4   28 1     
   14    5    6 1     
   15    5   29 1     
   16    5   30 1     
   17    6    7 1     
   18    6   31 1     
   19    6   32 1     
   20    7    8 1     
   21    7   33 1     
   22    8    9 am    
   23    8   34 1     
   24    9   10 2     
   25    9   11 1     
   26   11   12 1     
   27   11   35 1     
   28   11   36 1     
   29   12   19 am    
   30   12   13 1     
   31   13   14 2     
   32   14   15 1     
   33   14   37 1     
   34   15   16 1     
   35   15   17 2     
   36   17   18 1     
   37   17   19 1     
   38   19   20 2     
   39   10   38 1     
   40   10   39 1     
   41   13   40 1     
   42   20   41 1     
   43   20   42 1     
@<TRIPOS>SUBSTRUCTURE
      1 S1             1
@<TRIPOS>SET
LONE_PAIRS      STATIC     ATOMS    <user>   **** ""
5 38 39 40 41 42
DONOR_HYDROGENS      STATIC     ATOMS    <user>   **** ""
1 34
ATOM$BLUE        STATIC     ATOMS    COLORGROUP SYSTEM
5 38 39 40 41 42
ATOM$RED        STATIC     ATOMS    COLORGROUP SYSTEM
1 34
