#       Name:                AV-unprocessed.smi:298
#       Creating user name   scv26
#       Creation time:       Thu Mar 26 22:15:10 2020


#       File generated by GOLD software.
#

@<TRIPOS>MOLECULE
AV-unprocessed.smi:298
    44    46     1
SMALL
NO_CHARGES


@<TRIPOS>ATOM
      1 ****        -2.3807   3.8640   2.5854 C.3            1 S1                 0.0000
      2 ****        -2.0935   2.7437   1.6003 C.ar           1 S1                 0.0000
      3 ****        -2.4602   2.9252   0.2475 C.ar           1 S1                 0.0000
      4 ****        -2.1865   1.8821  -0.6291 C.ar           1 S1                 0.0000
      5 ****        -2.4206   1.7526  -1.9998 N.pl3          1 S1                 1.0000
      6 ****        -1.9753   0.5374  -2.4239 C.2            1 S1                 0.0000
      7 ****        -1.4590  -0.1095  -1.3438 N.pl3          1 S1                 0.0000
      8 ****        -0.8442  -1.4393  -1.2424 C.3            1 S1                 0.0000
      9 ****         0.6956  -1.3859  -1.2372 C.3            1 S1                 0.0000
     10 ****         1.1531  -0.7529  -2.4182 O.3            1 S1                 0.0000
     11 ****         1.3195  -2.7891  -1.1198 C.3            1 S1                 0.0000
     12 ****         2.7686  -2.7494  -1.0529 N.pl3          1 S1                 0.0000
     13 ****         3.6905  -3.0014  -1.9879 C.2            1 S1                 0.0000
     14 ****         4.9404  -2.8602  -1.5644 N.2            1 S1                 0.0000
     15 ****         4.6864  -2.4967  -0.2736 C.2            1 S1                 0.0000
     16 ****         5.7626  -2.2137   0.6608 C.1            1 S1                 0.0000
     17 ****         6.6196  -1.9886   1.4052 N.1            1 S1                 0.0000
     18 ****         3.4090  -2.4141   0.0931 N.2            1 S1                 0.0000
     19 ****        -1.5697   0.6905  -0.2021 C.ar           1 S1                 0.0000
     20 ****        -1.1997   0.4955   1.1260 C.ar           1 S1                 0.0000
     21 ****        -1.4702   1.5446   2.0336 C.ar           1 S1                 0.0000
     22 ****        -1.0794   1.3606   3.4901 C.3            1 S1                 0.0000
     23 ****        -2.8978   4.6953   2.1053 H              1 S1                 0.0000
     24 ****        -1.4519   4.2484   3.0077 H              1 S1                 0.0000
     25 ****        -3.0113   3.5070   3.4000 H              1 S1                 0.0000
     26 ****        -2.9332   3.8357  -0.0898 H              1 S1                 0.0000
     27 ****        -2.0188   0.1579  -3.4346 H              1 S1                 0.0000
     28 ****        -1.2216  -1.9253  -0.3416 H              1 S1                 0.0000
     29 ****        -1.2018  -2.0309  -2.0864 H              1 S1                 0.0000
     30 ****         1.0274  -0.7811  -0.3922 H              1 S1                 0.0000
     31 ****         0.8954  -1.2774  -3.1608 H              1 S1                 0.0000
     32 ****         0.9501  -3.2925  -0.2253 H              1 S1                 0.0000
     33 ****         1.0289  -3.4090  -1.9691 H              1 S1                 0.0000
     34 ****         3.4425  -3.2910  -2.9986 H              1 S1                 0.0000
     35 ****        -0.7245  -0.4171   1.4544 H              1 S1                 0.0000
     36 ****        -0.5740   0.4078   3.6504 H              1 S1                 0.0000
     37 ****        -1.9634   1.3812   4.1279 H              1 S1                 0.0000
     38 ****        -0.4023   2.1532   3.8096 H              1 S1                 0.0000
     39 ****        -2.8503   2.4416  -2.6039 H              1 S1                 0.0000
     40 ****         2.1495  -0.6718  -2.3926 LP             1 S1                 0.0000
     41 ****         0.7464   0.1577  -2.4916 LP             1 S1                 0.0000
     42 ****         5.8079  -2.9832  -2.0464 LP             1 S1                 0.0000
     43 ****         7.3602  -1.7941   2.0484 LP             1 S1                 0.0000
     44 ****         3.0230  -2.1686   0.9823 LP             1 S1                 0.0000
@<TRIPOS>BOND
    1    1    2 1     
    2    1   23 1     
    3    1   24 1     
    4    1   25 1     
    5    2   21 ar    
    6    2    3 ar    
    7    3    4 ar    
    8    3   26 1     
    9    4   19 ar    
   10    4    5 1     
   11    5    6 2     
   12    5   39 1     
   13    6    7 1     
   14    6   27 1     
   15    7    8 1     
   16    7   19 1     
   17    8    9 1     
   18    8   28 1     
   19    8   29 1     
   20    9   10 1     
   21    9   11 1     
   22    9   30 1     
   23   10   31 1     
   24   11   12 1     
   25   11   32 1     
   26   11   33 1     
   27   12   18 1     
   28   12   13 1     
   29   13   14 2     
   30   13   34 1     
   31   14   15 1     
   32   15   16 1     
   33   15   18 2     
   34   16   17 3     
   35   19   20 ar    
   36   20   21 ar    
   37   20   35 1     
   38   21   22 1     
   39   22   36 1     
   40   22   37 1     
   41   22   38 1     
   42   10   40 1     
   43   10   41 1     
   44   14   42 1     
   45   17   43 1     
   46   18   44 1     
@<TRIPOS>SUBSTRUCTURE
      1 S1             1
@<TRIPOS>SET
LONE_PAIRS      STATIC     ATOMS    <user>   **** ""
5 40 41 42 43 44
DONOR_HYDROGENS      STATIC     ATOMS    <user>   **** ""
2 39 31
ATOM$BLUE        STATIC     ATOMS    COLORGROUP SYSTEM
5 40 41 42 43 44
ATOM$RED        STATIC     ATOMS    COLORGROUP SYSTEM
2 39 31
