AV-unprocessed.smi:937|AV-procd|sdf|4214|dock1
  -GOLD-   22720 2123D 1   1.00000     0.00000
 Structure written by MMmdl.
 46 47  0  0  0  0  0  0  0  0  2 V2000
  151.1585  143.7937  159.0726 C   0  0  0  0  0  0  0  0  0  0  0  0
  151.2216  142.6048  158.1373 C   0  0  0  0  0  0  0  0  0  0  0  0
  151.8943  141.4126  158.4817 C   0  0  0  0  0  0  0  0  0  0  0  0
  151.9103  140.3408  157.5648 C   0  0  0  0  0  0  0  0  0  0  0  0
  151.2525  140.4826  156.3235 C   0  0  0  0  0  0  0  0  0  0  0  0
  151.2492  139.3520  155.3140 C   0  0  0  0  0  0  0  0  0  0  0  0
  149.9460  139.3046  154.5001 C   0  0  0  0  0  0  0  0  0  0  0  0
  149.5483  137.9318  154.2143 N   0  0  0  0  0  0  0  0  0  0  0  0
  149.2524  137.0094  155.1461 C   0  0  0  0  0  0  0  0  0  0  0  0
  149.2728  137.2397  156.3540 O   0  0  0  0  0  0  0  0  0  0  0  0
  148.9325  135.7963  154.6606 N   0  0  0  0  0  0  0  0  0  0  0  0
  148.5642  134.5873  155.3997 C   0  0  1  0  0  0  0  0  0  0  0  0
  147.0831  134.2295  155.1587 C   0  0  0  0  0  0  0  0  0  0  0  0
  146.7057  132.9146  155.8564 C   0  0  0  0  0  0  0  0  0  0  0  0
  147.6275  131.7658  155.4189 C   0  0  0  0  0  0  0  0  0  0  0  0
  149.1129  132.1028  155.6674 C   0  0  1  0  0  0  0  0  0  0  0  0
  150.0460  130.9478  155.2482 C   0  0  0  0  0  0  0  0  0  0  0  0
  151.3213  131.2591  155.4819 F   0  0  0  0  0  0  0  0  0  0  0  0
  149.7403  129.8435  155.9295 F   0  0  0  0  0  0  0  0  0  0  0  0
  149.8967  130.6887  153.9491 F   0  0  0  0  0  0  0  0  0  0  0  0
  149.4794  133.4272  154.9634 C   0  0  0  0  0  0  0  0  0  0  0  0
  150.5970  141.6984  156.0330 C   0  0  0  0  0  0  0  0  0  0  0  0
  150.6045  142.7011  156.9382 N   0  3  0  0  0  0  0  0  0  0  0  0
  152.0038  143.7903  159.7612 H   0  0  0  0  0  0  0  0  0  0  0  0
  150.2394  143.7640  159.6580 H   0  0  0  0  0  0  0  0  0  0  0  0
  151.1812  144.7301  158.5140 H   0  0  0  0  0  0  0  0  0  0  0  0
  152.3914  141.3179  159.4363 H   0  0  0  0  0  0  0  0  0  0  0  0
  152.4219  139.4223  157.8131 H   0  0  0  0  0  0  0  0  0  0  0  0
  152.1039  139.4654  154.6454 H   0  0  0  0  0  0  0  0  0  0  0  0
  151.3988  138.4110  155.8453 H   0  0  0  0  0  0  0  0  0  0  0  0
  149.1432  139.8193  155.0311 H   0  0  0  0  0  0  0  0  0  0  0  0
  150.0773  139.8283  153.5529 H   0  0  0  0  0  0  0  0  0  0  0  0
  149.5030  137.6586  153.2433 H   0  0  0  0  0  0  0  0  0  0  0  0
  148.9388  135.7043  153.6548 H   0  0  0  0  0  0  0  0  0  0  0  0
  148.7241  134.7507  156.4670 H   0  0  0  0  0  0  0  0  0  0  0  0
  146.4339  135.0291  155.5169 H   0  0  0  0  0  0  0  0  0  0  0  0
  146.8949  134.1369  154.0881 H   0  0  0  0  0  0  0  0  0  0  0  0
  146.7691  133.0429  156.9377 H   0  0  0  0  0  0  0  0  0  0  0  0
  145.6683  132.6622  155.6354 H   0  0  0  0  0  0  0  0  0  0  0  0
  147.3525  130.8583  155.9571 H   0  0  0  0  0  0  0  0  0  0  0  0
  147.4680  131.5563  154.3605 H   0  0  0  0  0  0  0  0  0  0  0  0
  149.2434  132.2516  156.7405 H   0  0  0  0  0  0  0  0  0  0  0  0
  149.4138  133.2948  153.8823 H   0  0  0  0  0  0  0  0  0  0  0  0
  150.5174  133.6842  155.1781 H   0  0  0  0  0  0  0  0  0  0  0  0
  150.0711  141.8980  155.1104 H   0  0  0  0  0  0  0  0  0  0  0  0
  150.1225  143.5698  156.7059 H   0  0  0  0  0  0  0  0  0  0  0  0
  1  2  1  0  0  0  0
  1 24  1  0  0  0  0
  1 25  1  0  0  0  0
  1 26  1  0  0  0  0
  2 23  1  0  0  0  0
  2  3  2  0  0  0  0
  3  4  1  0  0  0  0
  3 27  1  0  0  0  0
  4  5  2  0  0  0  0
  4 28  1  0  0  0  0
  5  6  1  0  0  0  0
  5 22  1  0  0  0  0
  6  7  1  0  0  0  0
  6 29  1  0  0  0  0
  6 30  1  0  0  0  0
  7  8  1  0  0  0  0
  7 31  1  0  0  0  0
  7 32  1  0  0  0  0
  8  9  1  0  0  0  0
  8 33  1  0  0  0  0
  9 10  2  0  0  0  0
  9 11  1  0  0  0  0
 11 12  1  0  0  0  0
 11 34  1  0  0  0  0
 12 21  1  0  0  0  0
 12 13  1  0  0  0  0
 12 35  1  0  0  0  0
 13 14  1  0  0  0  0
 13 36  1  0  0  0  0
 13 37  1  0  0  0  0
 14 15  1  0  0  0  0
 14 38  1  0  0  0  0
 14 39  1  0  0  0  0
 15 16  1  0  0  0  0
 15 40  1  0  0  0  0
 15 41  1  0  0  0  0
 16 17  1  0  0  0  0
 16 21  1  0  0  0  0
 16 42  1  0  0  0  0
 17 18  1  0  0  0  0
 17 19  1  0  0  0  0
 17 20  1  0  0  0  0
 21 43  1  0  0  0  0
 21 44  1  0  0  0  0
 22 23  2  0  0  0  0
 22 45  1  0  0  0  0
 23 46  1  0  0  0  0
M  CHG  1  23   1
M  END
> <s_m_source_file>
AV-unprocessed.smi

> <i_m_source_file_index>
937

> <i_lp_mmshare_version>
43012

> <i_f3d_flags>
0

> <s_epik_input>
W0NIM11jMVtjSF1bY0hdYyhbY0hdbjEpW0NIMl1bQ0gyXVtOSF1DKD1PKVtOSF1bQ0BASF0yW0NIMl1bQ0gyXVtDSDJdW0NAQEhdKEMoRikoRilGKVtDSDJdMg==

> <s_epik_cmdline>
J2VwaWtfcHl0aG9uJywgJy1waCcsICc3LjAnLCAnLXRuJywgJzgnLCAnLW1hJywgJzIwMCcsICctbWV0YWxfYmluZGluZycsICctaW1hZScsICc8aW5maWxlLm1hZT4nLCAnLW9tYWUnLCAnPG91dGZpbGUubWFlPic=

> <r_epik_Ionization_Penalty>
1.4226

> <r_epik_Ionization_Penalty_Charging>
1.42255

> <r_epik_Ionization_Penalty_Neutral>
5.16456e-05

> <r_epik_State_Penalty>
1.50646

> <r_epik_Charging_Adjusted_Penalty>
2.92901

> <i_epik_Tot_Q>
1

> <i_epik_Tot_abs_Q>
1

> <r_epik_Metal_State_Penalty>
1.55846

> <b_epik_Metal_Only>
0

> <s_lp_Force_Field>
OPLS_2005

> <r_lp_Energy>
24.5693

> <b_lp_Chiralities_Consistent>
1

> <s_lp_Variant>
AV-unprocessed.smi:937-6

> <Gold.Version>
5.8.1

> <Gold.Id.Protein>
6NUR|6NUR_protein|mol2

> <Gold.PLP.Fitness>
45.4035

> <Gold.PLP.PLP>
-34.7921

> <Gold.PLP.part.hbond>
-3.0000

> <Gold.PLP.part.metal>
0.0000

> <Gold.PLP.part.buried>
-5.2623

> <Gold.PLP.part.nonpolar>
-27.0070

> <Gold.PLP.part.repulsive>
0.0874

> <Gold.PLP.ligand.clash>
0.0000

> <Gold.PLP.ligand.torsion>
0.6723

> <Gold.PLP.Chemscore.Hbond>
3.9760

> <Gold.PLP.Chemscore.CHOScore>
0.0000

> <Gold.PLP.Chemscore.Metal>
0.0000

> <Gold.Chemscore.Hbonds>
donor molecule, donor type, donor heavy atom, donor atom, acceptor molecule, acceptor atom, score
      L1  H     8    33       P1  7948  0.98
      L1  H    11    34       P1  7948  1.00
      L1  H    23    46       P1  8028  2.00

> <Gold.PLP.Chemscore.Internal.Correction>
0.0280

> <Gold.Rescore>
     Score         DG    S(hbond)    S(metal)    S(lipo)     H(rot)  DE(clash)    DE(int)     intcor
     20.25     -21.01       2.90        0.00      86.22       1.66       0.08       0.68       ----

> <Gold.Chemscore.Fitness>
20.2494

> <Gold.Chemscore.DG>
-21.0084

> <Gold.Chemscore.ZeroCoef>
-5.4800

> <Gold.Chemscore.Hbond>
2.9001

> <Gold.Chemscore.Metal>
0.0000

> <Gold.Chemscore.Lipo>
86.2200

> <Gold.Chemscore.Internal_Hbond>
0.0000

> <Gold.Chemscore.DEClash>
0.0828

> <Gold.Chemscore.DEInternal>
0.6762

> <Gold.Chemscore.Rot>
1.6585

> <Gold.Chemscore.Internal.Correction>
   9.000000E+99

> <Gold.Chemscore.Hbonds>
donor molecule, donor type, donor heavy atom, donor atom, acceptor molecule, acceptor atom, score
      L1  H     8    33       P1  7948  0.79
      L1  H    11    34       P1  7948  0.90
      L1  H    23    46       P1  8028  0.96

> <Gold.Chemscore.Hbond.Weighted>
-9.6864

> <Gold.Chemscore.Metal.Weighted>
-0.0000

> <Gold.Chemscore.Lipo.Weighted>
-10.0877

> <Gold.Chemscore.Internal_Hbond.Weighted>
0.0000

> <Gold.Chemscore.DEClash.Weighted>
0.0828

> <Gold.Chemscore.DEInternal.Weighted>
0.6762

> <Gold.Chemscore.Rot.Weighted>
4.2457

> <Gold.Chemscore.Internal.Correction.Weighted>
   9.000000E+99

> <Gold.Protein.RotatedTorsions>
[ 6907 6896 6895 6894 ] final    0.63 input  -60.11 | X-H torsion
[ 7974 7965 7964 7962 ] final  -48.93 input  175.53 | X-H torsion
[ 8008 7997 7996 7995 ] final  149.55 input   59.86 | X-H torsion
[ 10167 10162 10161 10158 ] final -173.45 input  -65.29 | X-H torsion
[ 10718 10713 10712 10709 ] final  120.63 input   66.30 | X-H torsion
[ 10763 10752 10751 10750 ] final  -37.51 input  -60.55 | X-H torsion
[ 11005 11000 10999 10996 ] final   38.62 input  -57.11 | X-H torsion

> <Gold.Protein.ActiveResidues>
 VAL166  LYS551  ARG553  GLY616  TRP617  ASP618  TYR619  PRO620  LYS621  CYS622 
 ASP623  PHE694  ASN695  SER759  ASP760  ASP761  ALA762  ILE779  LEU786  VAL792 
 PHE793  MET794  SER795  GLU796  ALA797  LYS798  CYS799  TRP800  GLU811  SER814 

> <Gold.Protein.RotatedAtoms>
  151.5796  135.1059  160.0013 H   0  0  0  0  0  0  0  0  0  0  0  0  # atno 6907 bound_to 6896
  152.4360  133.7358  159.6624 H   0  0  0  0  0  0  0  0  0  0  0  0  # atno 6908 bound_to 6896
  150.8258  133.8104  159.3142 H   0  0  0  0  0  0  0  0  0  0  0  0  # atno 6909 bound_to 6896
  145.9460  140.7617  142.9528 H   0  0  0  0  0  0  0  0  0  0  0  0  # atno 7974 bound_to 7965
  156.2750  140.2099  156.5876 H   0  0  0  0  0  0  0  0  0  0  0  0  # atno 8008 bound_to 7997
  154.7008  140.0521  157.0480 H   0  0  0  0  0  0  0  0  0  0  0  0  # atno 8009 bound_to 7997
  155.0737  140.3179  155.4625 H   0  0  0  0  0  0  0  0  0  0  0  0  # atno 8010 bound_to 7997
  139.5688  144.1692  152.1352 H   0  0  0  0  0  0  0  0  0  0  0  0  # atno 10167 bound_to 10162
  157.5876  131.1068  150.8062 H   0  0  0  0  0  0  0  0  0  0  0  0  # atno 10718 bound_to 10713
  153.8974  135.6806  153.4757 H   0  0  0  0  0  0  0  0  0  0  0  0  # atno 10763 bound_to 10752
  153.1148  135.4766  154.9094 H   0  0  0  0  0  0  0  0  0  0  0  0  # atno 10764 bound_to 10752
  154.7592  135.3206  154.8365 H   0  0  0  0  0  0  0  0  0  0  0  0  # atno 10765 bound_to 10752
  140.2108  134.3757  155.8050 H   0  0  0  0  0  0  0  0  0  0  0  0  # atno 11005 bound_to 11000
  144.6787  140.2357  143.7350 LP  0  0  0  0  0  0  0  0  0  0  0  0  # atno 17320 bound_to 7965
  145.8236  139.2054  143.1924 LP  0  0  0  0  0  0  0  0  0  0  0  0  # atno 17321 bound_to 7965
  140.1220  144.5364  150.6856 LP  0  0  0  0  0  0  0  0  0  0  0  0  # atno 17342 bound_to 10162
  140.6972  143.2411  151.4968 LP  0  0  0  0  0  0  0  0  0  0  0  0  # atno 17343 bound_to 10162
  156.8492  130.5074  149.5313 LP  0  0  0  0  0  0  0  0  0  0  0  0  # atno 17370 bound_to 10713
  156.0927  130.5908  150.9761 LP  0  0  0  0  0  0  0  0  0  0  0  0  # atno 17371 bound_to 10713
  141.2226  133.7142  156.8415 LP  0  0  0  0  0  0  0  0  0  0  0  0  # atno 17394 bound_to 11000
  140.1953  134.8936  157.3107 LP  0  0  0  0  0  0  0  0  0  0  0  0  # atno 17395 bound_to 11000

$$$$
