#       Name:                AV-unprocessed.smi:1147
#       Creating user name   scv26
#       Creation time:       Fri Mar 27 03:46:10 2020


#       File generated by GOLD software.
#

@<TRIPOS>MOLECULE
AV-unprocessed.smi:1147
    46    47     1
SMALL
NO_CHARGES


@<TRIPOS>ATOM
      1 ****        -5.2869  -0.2298   0.8100 C.3            1 S1                 0.0000
      2 ****        -4.6121   1.0503   0.3125 C.2            1 S1                 0.0000
      3 ****        -5.2361   2.1068   0.4138 O.2            1 S1                 0.0000
      4 ****        -3.3676   0.9818  -0.2191 N.am           1 S1                 0.0000
      5 ****        -2.5537  -0.2400  -0.3306 C.3            1 S1                 0.0000
      6 ****        -1.2634  -0.0627   0.4938 C.3            1 S1                 0.0000
      7 ****        -0.5331   1.1144  -0.0139 N.am           1 S1                 0.0000
      8 ****         0.6682   1.1113  -0.6452 C.2            1 S1                 0.0000
      9 ****         1.1958   2.1275  -1.0994 O.2            1 S1                 0.0000
     10 ****         1.2520  -0.0954  -0.7339 N.am           1 S1                 0.0000
     11 ****         2.5653  -0.3724  -1.3114 C.3            1 S1                 0.0000
     12 ****         2.4541  -0.5058  -2.8385 C.3            1 S1                 0.0000
     13 ****         3.1600  -1.6454  -0.6785 C.3            1 S1                 0.0000
     14 ****         3.3609  -1.5079   0.7535 N.pl3          1 S1                 0.0000
     15 ****         4.3890  -0.8715   1.4163 C.2            1 S1                 0.0000
     16 ****         4.1460  -0.9934   2.7545 C.2            1 S1                 0.0000
     17 ****         2.9307  -1.7313   2.8117 C.2            1 S1                 0.0000
     18 ****         2.4628  -2.0377   1.6126 N.2            1 S1                 0.0000
     19 ****        -1.3431   2.3339   0.1232 C.3            1 S1                 0.0000
     20 ****        -2.6398   2.1691  -0.6950 C.3            1 S1                 0.0000
     21 ****        -4.7099  -0.6828   1.6167 H              1 S1                 0.0000
     22 ****        -5.3933  -0.9510  -0.0006 H              1 S1                 0.0000
     23 ****        -6.2842  -0.0139   1.1945 H              1 S1                 0.0000
     24 ****        -3.0675  -1.1408   0.0010 H              1 S1                 0.0000
     25 ****        -2.3087  -0.4091  -1.3803 H              1 S1                 0.0000
     26 ****        -1.5100   0.0978   1.5444 H              1 S1                 0.0000
     27 ****        -0.6882  -0.9881   0.4708 H              1 S1                 0.0000
     28 ****         0.7615  -0.8819  -0.3333 H              1 S1                 0.0000
     29 ****         3.2352   0.4603  -1.0884 H              1 S1                 0.0000
     30 ****         3.4277  -0.7093  -3.2854 H              1 S1                 0.0000
     31 ****         2.0725   0.4104  -3.2903 H              1 S1                 0.0000
     32 ****         1.7833  -1.3190  -3.1178 H              1 S1                 0.0000
     33 ****         2.5179  -2.5071  -0.8694 H              1 S1                 0.0000
     34 ****         4.1259  -1.8720  -1.1313 H              1 S1                 0.0000
     35 ****         5.1961  -0.3877   0.8858 H              1 S1                 0.0000
     36 ****         4.7448  -0.6128   3.5687 H              1 S1                 0.0000
     37 ****         2.3782  -2.0508   3.6830 H              1 S1                 0.0000
     38 ****        -1.5778   2.4954   1.1764 H              1 S1                 0.0000
     39 ****        -0.8170   3.2311  -0.2055 H              1 S1                 0.0000
     40 ****        -2.4059   2.0448  -1.7534 H              1 S1                 0.0000
     41 ****        -3.2296   3.0838  -0.6239 H              1 S1                 0.0000
     42 ****        -6.1538   2.1094   0.8112 LP             1 S1                 0.0000
     43 ****        -4.8253   2.9624   0.0988 LP             1 S1                 0.0000
     44 ****         0.7364   3.0114  -1.0114 LP             1 S1                 0.0000
     45 ****         2.0835   2.0686  -1.5560 LP             1 S1                 0.0000
     46 ****         1.6311  -2.5471   1.3918 LP             1 S1                 0.0000
@<TRIPOS>BOND
    1    1    2 1     
    2    1   21 1     
    3    1   22 1     
    4    1   23 1     
    5    2    3 2     
    6    2    4 am    
    7    4   20 1     
    8    4    5 1     
    9    5    6 1     
   10    5   24 1     
   11    5   25 1     
   12    6    7 1     
   13    6   26 1     
   14    6   27 1     
   15    7    8 am    
   16    7   19 1     
   17    8    9 2     
   18    8   10 am    
   19   10   11 1     
   20   10   28 1     
   21   11   12 1     
   22   11   13 1     
   23   11   29 1     
   24   12   30 1     
   25   12   31 1     
   26   12   32 1     
   27   13   14 1     
   28   13   33 1     
   29   13   34 1     
   30   14   18 1     
   31   14   15 1     
   32   15   16 2     
   33   15   35 1     
   34   16   17 1     
   35   16   36 1     
   36   17   18 2     
   37   17   37 1     
   38   19   20 1     
   39   19   38 1     
   40   19   39 1     
   41   20   40 1     
   42   20   41 1     
   43    3   42 1     
   44    3   43 1     
   45    9   44 1     
   46    9   45 1     
   47   18   46 1     
@<TRIPOS>SUBSTRUCTURE
      1 S1             1
@<TRIPOS>SET
LONE_PAIRS      STATIC     ATOMS    <user>   **** ""
5 42 43 44 45 46
DONOR_HYDROGENS      STATIC     ATOMS    <user>   **** ""
1 28
ATOM$BLUE        STATIC     ATOMS    COLORGROUP SYSTEM
5 42 43 44 45 46
ATOM$RED        STATIC     ATOMS    COLORGROUP SYSTEM
1 28
