AV-unprocessed.smi:1972|AV-procd|sdf|7975|dock6
  -GOLD-   2272010153D 1   1.00000     0.00000
 Structure written by MMmdl.
 44 45  0  0  0  0  0  0  0  0  1 V2000
  144.3005  144.9373  153.7665 C   0  0  0  0  0  0  0  0  0  0  0  0
  144.4622  144.0189  155.3193 S   0  0  0  0  0  0  0  0  0  0  0  0
  145.3104  142.5353  154.7042 C   0  0  0  0  0  0  0  0  0  0  0  0
  146.5869  142.8786  153.9160 C   0  0  0  0  0  0  0  0  0  0  0  0
  147.5990  141.7292  153.8822 C   0  0  0  0  0  0  0  0  0  0  0  0
  147.3430  140.6947  153.2659 O   0  0  0  0  0  0  0  0  0  0  0  0
  148.7434  141.9234  154.5535 N   0  0  0  0  0  0  0  0  0  0  0  0
  149.8432  140.9678  154.6217 C   0  0  0  0  0  0  0  0  0  0  0  0
  150.6959  141.1125  155.8723 C   0  0  0  0  0  0  0  0  0  0  0  0
  150.6264  142.2519  156.7015 C   0  0  0  0  0  0  0  0  0  0  0  0
  151.4543  142.3218  157.8382 C   0  0  0  0  0  0  0  0  0  0  0  0
  152.3365  141.2512  158.1188 C   0  0  0  0  0  0  0  0  0  0  0  0
  153.1741  141.2984  159.2546 N   0  0  0  0  0  0  0  0  0  0  0  0
  154.0275  140.1435  159.5267 C   0  0  0  0  0  0  0  0  0  0  0  0
  155.0647  140.4880  160.6076 C   0  0  0  0  0  0  0  0  0  0  0  0
  154.4014  140.9718  161.7707 O   0  0  0  0  0  0  0  0  0  0  0  0
  153.6650  142.1639  161.5120 C   0  0  2  0  0  0  0  0  0  0  0  0
  153.0673  142.6567  162.8341 C   0  0  0  0  0  0  0  0  0  0  0  0
  152.5786  141.8724  160.4586 C   0  0  0  0  0  0  0  0  0  0  0  0
  152.4106  140.1651  157.3101 N   0  0  0  0  0  0  0  0  0  0  0  0
  151.6146  140.1028  156.2220 C   0  0  0  0  0  0  0  0  0  0  0  0
  143.7951  145.8868  153.9421 H   0  0  0  0  0  0  0  0  0  0  0  0
  143.7203  144.3640  153.0435 H   0  0  0  0  0  0  0  0  0  0  0  0
  145.2832  145.1422  153.3413 H   0  0  0  0  0  0  0  0  0  0  0  0
  145.5688  141.9124  155.5608 H   0  0  0  0  0  0  0  0  0  0  0  0
  144.6191  141.9524  154.0942 H   0  0  0  0  0  0  0  0  0  0  0  0
  146.3282  143.1908  152.9030 H   0  0  0  0  0  0  0  0  0  0  0  0
  147.0778  143.7326  154.3832 H   0  0  0  0  0  0  0  0  0  0  0  0
  148.8683  142.8004  155.0382 H   0  0  0  0  0  0  0  0  0  0  0  0
  149.4298  139.9594  154.5768 H   0  0  0  0  0  0  0  0  0  0  0  0
  150.4988  141.0830  153.7567 H   0  0  0  0  0  0  0  0  0  0  0  0
  149.9568  143.0682  156.4746 H   0  0  0  0  0  0  0  0  0  0  0  0
  151.4144  143.1981  158.4677 H   0  0  0  0  0  0  0  0  0  0  0  0
  153.4093  139.3071  159.8561 H   0  0  0  0  0  0  0  0  0  0  0  0
  154.5442  139.8309  158.6182 H   0  0  0  0  0  0  0  0  0  0  0  0
  155.6412  139.6010  160.8703 H   0  0  0  0  0  0  0  0  0  0  0  0
  155.7744  141.2325  160.2431 H   0  0  0  0  0  0  0  0  0  0  0  0
  154.3459  142.9288  161.1339 H   0  0  0  0  0  0  0  0  0  0  0  0
  152.5036  143.5788  162.6903 H   0  0  0  0  0  0  0  0  0  0  0  0
  153.8510  142.8570  163.5648 H   0  0  0  0  0  0  0  0  0  0  0  0
  152.3930  141.9147  163.2629 H   0  0  0  0  0  0  0  0  0  0  0  0
  152.0404  142.7936  160.2408 H   0  0  0  0  0  0  0  0  0  0  0  0
  151.8485  141.1666  160.8572 H   0  0  0  0  0  0  0  0  0  0  0  0
  151.7148  139.2162  155.6132 H   0  0  0  0  0  0  0  0  0  0  0  0
  1  2  1  0  0  0  0
  1 22  1  0  0  0  0
  1 23  1  0  0  0  0
  1 24  1  0  0  0  0
  2  3  1  0  0  0  0
  3  4  1  0  0  0  0
  3 25  1  0  0  0  0
  3 26  1  0  0  0  0
  4  5  1  0  0  0  0
  4 27  1  0  0  0  0
  4 28  1  0  0  0  0
  5  6  2  0  0  0  0
  5  7  1  0  0  0  0
  7  8  1  0  0  0  0
  7 29  1  0  0  0  0
  8  9  1  0  0  0  0
  8 30  1  0  0  0  0
  8 31  1  0  0  0  0
  9 21  1  0  0  0  0
  9 10  2  0  0  0  0
 10 11  1  0  0  0  0
 10 32  1  0  0  0  0
 11 12  2  0  0  0  0
 11 33  1  0  0  0  0
 12 13  1  0  0  0  0
 12 20  1  0  0  0  0
 13 19  1  0  0  0  0
 13 14  1  0  0  0  0
 14 15  1  0  0  0  0
 14 34  1  0  0  0  0
 14 35  1  0  0  0  0
 15 16  1  0  0  0  0
 15 36  1  0  0  0  0
 15 37  1  0  0  0  0
 16 17  1  0  0  0  0
 17 18  1  0  0  0  0
 17 19  1  0  0  0  0
 17 38  1  0  0  0  0
 18 39  1  0  0  0  0
 18 40  1  0  0  0  0
 18 41  1  0  0  0  0
 19 42  1  0  0  0  0
 19 43  1  0  0  0  0
 20 21  2  0  0  0  0
 21 44  1  0  0  0  0
M  END
> <s_m_source_file>
AV-unprocessed.smi

> <i_m_source_file_index>
1972

> <i_lp_mmshare_version>
43012

> <i_f3d_flags>
0

> <s_epik_input>
W0NIM11TW0NIMl1bQ0gyXUMoPU8pW05IXVtDSDJdYzFbY0hdW2NIXWMobltjSF0xKU4yW0NIMl1bQ0gyXU9bQ0BASF0oW0NIM10pW0NIMl0y

> <s_epik_cmdline>
J2VwaWtfcHl0aG9uJywgJy1waCcsICc3LjAnLCAnLXRuJywgJzgnLCAnLW1hJywgJzIwMCcsICctbWV0YWxfYmluZGluZycsICctaW1hZScsICc8aW5maWxlLm1hZT4nLCAnLW9tYWUnLCAnPG91dGZpbGUubWFlPic=

> <r_lp_tautomer_probability>
1

> <r_epik_Ionization_Penalty>
0.00559088

> <r_epik_Ionization_Penalty_Charging>
0

> <r_epik_Ionization_Penalty_Neutral>
0.00559088

> <r_epik_State_Penalty>
0.00409544

> <r_epik_Charging_Adjusted_Penalty>
0.00409544

> <i_epik_Tot_Q>
0

> <i_epik_Tot_abs_Q>
0

> <r_epik_Metal_State_Penalty>
-0

> <b_epik_Metal_Only>
0

> <s_lp_Force_Field>
OPLS_2005

> <r_lp_Energy>
17.9422

> <b_lp_Chiralities_Consistent>
1

> <s_lp_Variant>
AV-unprocessed.smi:1972-2

> <Gold.Version>
5.8.1

> <Gold.Id.Protein>
6NUR|6NUR_protein|mol2

> <Gold.PLP.Fitness>
50.3929

> <Gold.PLP.PLP>
-46.2944

> <Gold.PLP.part.hbond>
-2.5510

> <Gold.PLP.part.metal>
0.0000

> <Gold.PLP.part.buried>
-5.0131

> <Gold.PLP.part.nonpolar>
-38.2643

> <Gold.PLP.part.repulsive>
0.3853

> <Gold.PLP.ligand.clash>
0.0000

> <Gold.PLP.ligand.torsion>
0.8527

> <Gold.PLP.Chemscore.Hbond>
1.8125

> <Gold.PLP.Chemscore.CHOScore>
0.0000

> <Gold.PLP.Chemscore.Metal>
0.0000

> <Gold.Chemscore.Hbonds>
donor molecule, donor type, donor heavy atom, donor atom, acceptor molecule, acceptor atom, score
      L1  H     7    29       P1  8028  1.00
      P1  H  7997  8010       L1    20  0.89

> <Gold.PLP.Chemscore.Internal.Correction>
0.3665

> <Gold.Rescore>
     Score         DG    S(hbond)    S(metal)    S(lipo)     H(rot)  DE(clash)    DE(int)     intcor
     16.16     -18.30       1.18        0.00     114.05       1.75       1.21       0.92       ----

> <Gold.Chemscore.Fitness>
16.1649

> <Gold.Chemscore.DG>
-18.3015

> <Gold.Chemscore.ZeroCoef>
-5.4800

> <Gold.Chemscore.Hbond>
1.1820

> <Gold.Chemscore.Metal>
0.0000

> <Gold.Chemscore.Lipo>
114.0458

> <Gold.Chemscore.Internal_Hbond>
0.0000

> <Gold.Chemscore.DEClash>
1.2126

> <Gold.Chemscore.DEInternal>
0.9240

> <Gold.Chemscore.Rot>
1.7460

> <Gold.Chemscore.Internal.Correction>
   9.000000E+99

> <Gold.Chemscore.Hbonds>
donor molecule, donor type, donor heavy atom, donor atom, acceptor molecule, acceptor atom, score
      L1  H     7    29       P1  8028  0.96
      P1  H  7997  8010       L1    20  0.28

> <Gold.Chemscore.Hbond.Weighted>
-3.9478

> <Gold.Chemscore.Metal.Weighted>
-0.0000

> <Gold.Chemscore.Lipo.Weighted>
-13.3434

> <Gold.Chemscore.Internal_Hbond.Weighted>
0.0000

> <Gold.Chemscore.DEClash.Weighted>
1.2126

> <Gold.Chemscore.DEInternal.Weighted>
0.9240

> <Gold.Chemscore.Rot.Weighted>
4.4697

> <Gold.Chemscore.Internal.Correction.Weighted>
   9.000000E+99

> <Gold.Protein.RotatedTorsions>
[ 6907 6896 6895 6894 ] final    8.42 input  -60.11 | X-H torsion
[ 7974 7965 7964 7962 ] final  127.38 input  175.53 | X-H torsion
[ 8008 7997 7996 7995 ] final   61.29 input   59.86 | X-H torsion
[ 10167 10162 10161 10158 ] final  -21.02 input  -65.29 | X-H torsion
[ 10718 10713 10712 10709 ] final -119.77 input   66.30 | X-H torsion
[ 10763 10752 10751 10750 ] final   74.97 input  -60.55 | X-H torsion
[ 11005 11000 10999 10996 ] final   12.77 input  -57.11 | X-H torsion

> <Gold.Protein.ActiveResidues>
 VAL166  LYS551  ARG553  GLY616  TRP617  ASP618  TYR619  PRO620  LYS621  CYS622 
 ASP623  PHE694  ASN695  SER759  ASP760  ASP761  ALA762  ILE779  LEU786  VAL792 
 PHE793  MET794  SER795  GLU796  ALA797  LYS798  CYS799  TRP800  GLU811  SER814 

> <Gold.Protein.RotatedAtoms>
  151.7057  135.0922  160.0258 H   0  0  0  0  0  0  0  0  0  0  0  0  # atno 6907 bound_to 6896
  152.3693  133.6393  159.6083 H   0  0  0  0  0  0  0  0  0  0  0  0  # atno 6908 bound_to 6896
  150.7661  133.9213  159.3440 H   0  0  0  0  0  0  0  0  0  0  0  0  # atno 6909 bound_to 6896
  145.0512  139.3881  143.5053 H   0  0  0  0  0  0  0  0  0  0  0  0  # atno 7974 bound_to 7965
  155.5960  140.3493  155.4580 H   0  0  0  0  0  0  0  0  0  0  0  0  # atno 8008 bound_to 7997
  156.0265  140.1265  157.0328 H   0  0  0  0  0  0  0  0  0  0  0  0  # atno 8009 bound_to 7997
  154.4335  140.1052  156.6024 H   0  0  0  0  0  0  0  0  0  0  0  0  # atno 8010 bound_to 7997
  140.7279  143.4667  151.0303 H   0  0  0  0  0  0  0  0  0  0  0  0  # atno 10167 bound_to 10162
  156.1206  130.6320  150.9457 H   0  0  0  0  0  0  0  0  0  0  0  0  # atno 10718 bound_to 10713
  153.0623  135.5006  154.8121 H   0  0  0  0  0  0  0  0  0  0  0  0  # atno 10763 bound_to 10752
  154.6901  135.2983  154.9494 H   0  0  0  0  0  0  0  0  0  0  0  0  # atno 10764 bound_to 10752
  154.0251  135.6737  153.4828 H   0  0  0  0  0  0  0  0  0  0  0  0  # atno 10765 bound_to 10752
  140.4883  134.0866  155.7765 H   0  0  0  0  0  0  0  0  0  0  0  0  # atno 11005 bound_to 11000
  146.3518  140.0163  142.8662 LP  0  0  0  0  0  0  0  0  0  0  0  0  # atno 17320 bound_to 7965
  145.1525  140.9630  143.4425 LP  0  0  0  0  0  0  0  0  0  0  0  0  # atno 17321 bound_to 7965
  139.8356  143.7632  152.3180 LP  0  0  0  0  0  0  0  0  0  0  0  0  # atno 17342 bound_to 10162
  139.7763  144.7460  151.0152 LP  0  0  0  0  0  0  0  0  0  0  0  0  # atno 17343 bound_to 10162
  157.6389  131.0912  150.8291 LP  0  0  0  0  0  0  0  0  0  0  0  0  # atno 17370 bound_to 10713
  156.8388  130.5041  149.5323 LP  0  0  0  0  0  0  0  0  0  0  0  0  # atno 17371 bound_to 10713
  141.1497  133.8991  157.2129 LP  0  0  0  0  0  0  0  0  0  0  0  0  # atno 17394 bound_to 11000
  139.9785  135.0106  156.9690 LP  0  0  0  0  0  0  0  0  0  0  0  0  # atno 17395 bound_to 11000

$$$$
