AV-unprocessed.smi:2275|AV-procd|sdf|9171|dock5
  -GOLD-   2272012383D 1   1.00000     0.00000
 Structure written by MMmdl.
 38 39  0  0  0  0  0  0  0  0  1 V2000
  146.6478  138.9713  153.6169 C   0  0  0  0  0  0  0  0  0  0  0  0
  148.0287  139.5066  153.9521 C   0  0  0  0  0  0  0  0  0  0  0  0
  149.0849  138.6087  153.7711 N   0  0  0  0  0  0  0  0  0  0  0  0
  150.2972  138.9797  154.0252 C   0  0  0  0  0  0  0  0  0  0  0  0
  150.5921  140.2752  154.4791 N   0  0  0  0  0  0  0  0  0  0  0  0
  152.0130  140.5728  154.7220 C   0  0  0  0  0  0  0  0  0  0  0  0
  152.5760  139.7802  155.9230 C   0  0  1  0  0  0  0  0  0  0  0  0
  153.9789  139.9328  155.9990 O   0  0  0  0  0  0  0  0  0  0  0  0
  151.9833  140.2248  157.2704 C   0  0  0  0  0  0  0  0  0  0  0  0
  151.4138  141.5226  157.1444 O   0  0  0  0  0  0  0  0  0  0  0  0
  151.7422  142.4749  158.0850 C   0  0  0  0  0  0  0  0  0  0  0  0
  151.1613  143.7509  157.9319 C   0  0  0  0  0  0  0  0  0  0  0  0
  151.4403  144.7849  158.8460 C   0  0  0  0  0  0  0  0  0  0  0  0
  152.3076  144.5511  159.9288 C   0  0  0  0  0  0  0  0  0  0  0  0
  152.8948  143.2830  160.0939 C   0  0  0  0  0  0  0  0  0  0  0  0
  152.6159  142.2488  159.1790 C   0  0  0  0  0  0  0  0  0  0  0  0
  149.6201  141.2060  154.7037 C   0  0  0  0  0  0  0  0  0  0  0  0
  149.8877  142.3307  155.1312 O   0  0  0  0  0  0  0  0  0  0  0  0
  148.2463  140.7726  154.4016 C   0  0  0  0  0  0  0  0  0  0  0  0
  147.1366  141.7943  154.6165 C   0  0  0  0  0  0  0  0  0  0  0  0
  146.2031  139.5458  152.8043 H   0  0  0  0  0  0  0  0  0  0  0  0
  145.9932  139.0306  154.4867 H   0  0  0  0  0  0  0  0  0  0  0  0
  146.6907  137.9274  153.3038 H   0  0  0  0  0  0  0  0  0  0  0  0
  151.1561  138.3165  153.9076 H   0  0  0  0  0  0  0  0  0  0  0  0
  152.6245  140.4086  153.8321 H   0  0  0  0  0  0  0  0  0  0  0  0
  152.1119  141.6424  154.9170 H   0  0  0  0  0  0  0  0  0  0  0  0
  152.3704  138.7154  155.8050 H   0  0  0  0  0  0  0  0  0  0  0  0
  154.3757  139.0769  155.9409 H   0  0  0  0  0  0  0  0  0  0  0  0
  151.2013  139.5185  157.5540 H   0  0  0  0  0  0  0  0  0  0  0  0
  152.7469  140.2033  158.0501 H   0  0  0  0  0  0  0  0  0  0  0  0
  150.4942  143.9393  157.1036 H   0  0  0  0  0  0  0  0  0  0  0  0
  150.9886  145.7573  158.7157 H   0  0  0  0  0  0  0  0  0  0  0  0
  152.5226  145.3430  160.6312 H   0  0  0  0  0  0  0  0  0  0  0  0
  153.5610  143.1024  160.9245 H   0  0  0  0  0  0  0  0  0  0  0  0
  153.0850  141.2901  159.3395 H   0  0  0  0  0  0  0  0  0  0  0  0
  147.1047  142.0996  155.6629 H   0  0  0  0  0  0  0  0  0  0  0  0
  146.1493  141.4183  154.3534 H   0  0  0  0  0  0  0  0  0  0  0  0
  147.3205  142.6820  154.0105 H   0  0  0  0  0  0  0  0  0  0  0  0
  1  2  1  0  0  0  0
  1 21  1  0  0  0  0
  1 22  1  0  0  0  0
  1 23  1  0  0  0  0
  2 19  2  0  0  0  0
  2  3  1  0  0  0  0
  3  4  2  0  0  0  0
  4  5  1  0  0  0  0
  4 24  1  0  0  0  0
  5  6  1  0  0  0  0
  5 17  1  0  0  0  0
  6  7  1  0  0  0  0
  6 25  1  0  0  0  0
  6 26  1  0  0  0  0
  7  8  1  0  0  0  0
  7  9  1  0  0  0  0
  7 27  1  0  0  0  0
  8 28  1  0  0  0  0
  9 10  1  0  0  0  0
  9 29  1  0  0  0  0
  9 30  1  0  0  0  0
 10 11  1  0  0  0  0
 11 16  1  0  0  0  0
 11 12  2  0  0  0  0
 12 13  1  0  0  0  0
 12 31  1  0  0  0  0
 13 14  2  0  0  0  0
 13 32  1  0  0  0  0
 14 15  1  0  0  0  0
 14 33  1  0  0  0  0
 15 16  2  0  0  0  0
 15 34  1  0  0  0  0
 16 35  1  0  0  0  0
 17 18  2  0  0  0  0
 17 19  1  0  0  0  0
 19 20  1  0  0  0  0
 20 36  1  0  0  0  0
 20 37  1  0  0  0  0
 20 38  1  0  0  0  0
M  END
> <s_m_source_file>
AV-unprocessed.smi

> <i_m_source_file_index>
2275

> <i_lp_mmshare_version>
43012

> <i_f3d_flags>
0

> <s_epik_input>
W0NIM11jMW5bY0hdbihjKD1PKWMxW0NIM10pW0NIMl1bQ0BIXShbT0hdKVtDSDJdT2MyW2NIXVtjSF1bY0hdW2NIXVtjSF0y

> <s_epik_cmdline>
J2VwaWtfcHl0aG9uJywgJy1waCcsICc3LjAnLCAnLXRuJywgJzgnLCAnLW1hJywgJzIwMCcsICctbWV0YWxfYmluZGluZycsICctaW1hZScsICc8aW5maWxlLm1hZT4nLCAnLW9tYWUnLCAnPG91dGZpbGUubWFlPic=

> <r_lp_tautomer_probability>
1

> <r_epik_Ionization_Penalty>
4.18311e-05

> <r_epik_Ionization_Penalty_Charging>
1.04093e-07

> <r_epik_Ionization_Penalty_Neutral>
4.1727e-05

> <r_epik_State_Penalty>
-0

> <r_epik_Charging_Adjusted_Penalty>
1.04093e-07

> <i_epik_Tot_Q>
0

> <i_epik_Tot_abs_Q>
0

> <r_epik_Metal_State_Penalty>
-0

> <b_epik_Metal_Only>
0

> <s_lp_Force_Field>
OPLS_2005

> <r_lp_Energy>
23.5562

> <b_lp_Chiralities_Consistent>
1

> <s_lp_Variant>
AV-unprocessed.smi:2275-2

> <Gold.Version>
5.8.1

> <Gold.Id.Protein>
6NUR|6NUR_protein|mol2

> <Gold.PLP.Fitness>
42.4337

> <Gold.PLP.PLP>
-41.4402

> <Gold.PLP.part.hbond>
-1.7956

> <Gold.PLP.part.metal>
0.0000

> <Gold.PLP.part.buried>
-1.8398

> <Gold.PLP.part.nonpolar>
-39.1838

> <Gold.PLP.part.repulsive>
0.7238

> <Gold.PLP.ligand.clash>
0.0000

> <Gold.PLP.ligand.torsion>
1.0380

> <Gold.PLP.Chemscore.Hbond>
1.0000

> <Gold.PLP.Chemscore.CHOScore>
0.0000

> <Gold.PLP.Chemscore.Metal>
0.0000

> <Gold.PLP.Chemscore.Internal.Correction>
0.0694

> <Gold.Rescore>
     Score         DG    S(hbond)    S(metal)    S(lipo)     H(rot)  DE(clash)    DE(int)     intcor
     13.85     -16.93       1.67        0.00     102.35       2.38       0.14       2.94       ----

> <Gold.Chemscore.Fitness>
13.8508

> <Gold.Chemscore.DG>
-16.9290

> <Gold.Chemscore.ZeroCoef>
-5.4800

> <Gold.Chemscore.Hbond>
1.6686

> <Gold.Chemscore.Metal>
0.0000

> <Gold.Chemscore.Lipo>
102.3541

> <Gold.Chemscore.Internal_Hbond>
0.0000

> <Gold.Chemscore.DEClash>
0.1400

> <Gold.Chemscore.DEInternal>
2.9382

> <Gold.Chemscore.Rot>
2.3826

> <Gold.Chemscore.Internal.Correction>
   9.000000E+99

> <Gold.Chemscore.Hbond.Weighted>
-5.5731

> <Gold.Chemscore.Metal.Weighted>
-0.0000

> <Gold.Chemscore.Lipo.Weighted>
-11.9754

> <Gold.Chemscore.Internal_Hbond.Weighted>
0.0000

> <Gold.Chemscore.DEClash.Weighted>
0.1400

> <Gold.Chemscore.DEInternal.Weighted>
2.9382

> <Gold.Chemscore.Rot.Weighted>
6.0996

> <Gold.Chemscore.Internal.Correction.Weighted>
   9.000000E+99

> <Gold.Protein.RotatedTorsions>
[ 6907 6896 6895 6894 ] final   -7.73 input  -60.11 | X-H torsion
[ 7974 7965 7964 7962 ] final -124.27 input  175.53 | X-H torsion
[ 8008 7997 7996 7995 ] final   33.75 input   59.86 | X-H torsion
[ 10167 10162 10161 10158 ] final   67.98 input  -65.29 | X-H torsion
[ 10718 10713 10712 10709 ] final  161.32 input   66.30 | X-H torsion
[ 10763 10752 10751 10750 ] final -120.83 input  -60.55 | X-H torsion
[ 11005 11000 10999 10996 ] final   45.71 input  -57.11 | X-H torsion

> <Gold.Protein.ActiveResidues>
 VAL166  LYS551  ARG553  GLY616  TRP617  ASP618  TYR619  PRO620  LYS621  CYS622 
 ASP623  PHE694  ASN695  SER759  ASP760  ASP761  ALA762  ILE779  LEU786  VAL792 
 PHE793  MET794  SER795  GLU796  ALA797  LYS798  CYS799  TRP800  GLU811  SER814 

> <Gold.Protein.RotatedAtoms>
  151.4450  135.1024  159.9680 H   0  0  0  0  0  0  0  0  0  0  0  0  # atno 6907 bound_to 6896
  152.4909  133.8493  159.7204 H   0  0  0  0  0  0  0  0  0  0  0  0  # atno 6908 bound_to 6896
  150.9062  133.6996  159.2893 H   0  0  0  0  0  0  0  0  0  0  0  0  # atno 6909 bound_to 6896
  145.0099  140.7896  143.4445 H   0  0  0  0  0  0  0  0  0  0  0  0  # atno 7974 bound_to 7965
  155.1436  140.3268  155.4446 H   0  0  0  0  0  0  0  0  0  0  0  0  # atno 8008 bound_to 7997
  156.2597  140.1989  156.6500 H   0  0  0  0  0  0  0  0  0  0  0  0  # atno 8009 bound_to 7997
  154.6524  140.0557  156.9957 H   0  0  0  0  0  0  0  0  0  0  0  0  # atno 8010 bound_to 7997
  140.0836  144.5049  150.7145 H   0  0  0  0  0  0  0  0  0  0  0  0  # atno 10167 bound_to 10162
  157.1381  131.0533  151.2340 H   0  0  0  0  0  0  0  0  0  0  0  0  # atno 10718 bound_to 10713
  154.8654  135.4189  154.2523 H   0  0  0  0  0  0  0  0  0  0  0  0  # atno 10763 bound_to 10752
  153.3467  135.6996  153.6828 H   0  0  0  0  0  0  0  0  0  0  0  0  # atno 10764 bound_to 10752
  153.5784  135.3577  155.2838 H   0  0  0  0  0  0  0  0  0  0  0  0  # atno 10765 bound_to 10752
  140.1435  134.4553  155.8432 H   0  0  0  0  0  0  0  0  0  0  0  0  # atno 11005 bound_to 11000
  145.2038  139.2239  143.5179 LP  0  0  0  0  0  0  0  0  0  0  0  0  # atno 17320 bound_to 7965
  146.3468  140.1861  142.8589 LP  0  0  0  0  0  0  0  0  0  0  0  0  # atno 17321 bound_to 7965
  140.7065  143.2472  151.4711 LP  0  0  0  0  0  0  0  0  0  0  0  0  # atno 17342 bound_to 10162
  139.5765  144.1807  152.1910 LP  0  0  0  0  0  0  0  0  0  0  0  0  # atno 17343 bound_to 10162
  157.4332  130.7502  149.7007 LP  0  0  0  0  0  0  0  0  0  0  0  0  # atno 17370 bound_to 10713
  155.9794  130.4040  150.3590 LP  0  0  0  0  0  0  0  0  0  0  0  0  # atno 17371 bound_to 10713
  141.2189  133.6843  156.7290 LP  0  0  0  0  0  0  0  0  0  0  0  0  # atno 17394 bound_to 11000
  140.2693  134.8405  157.3832 LP  0  0  0  0  0  0  0  0  0  0  0  0  # atno 17395 bound_to 11000

$$$$
