AV-unprocessed.smi:276|AV-procd|sdf|2074|dock5
  -GOLD-   2262021333D 1   1.00000     0.00000
 Structure written by MMmdl.
 57 61  0  0  0  0  0  0  0  0  1 V2000
  150.0651  144.7848  159.5730 C   0  0  0  0  0  0  0  0  0  0  0  0
  150.0428  143.3735  159.6918 O   0  0  0  0  0  0  0  0  0  0  0  0
  150.3157  142.7181  158.4634 C   0  0  2  0  0  0  0  0  0  0  0  0
  150.5254  141.2029  158.5814 C   0  0  0  0  0  0  0  0  0  0  0  0
  151.6820  141.3294  157.5696 C   0  0  1  0  0  0  0  0  0  0  0  0
  151.2179  141.1095  156.1918 N   0  0  0  0  0  0  0  0  0  0  0  0
  149.8208  141.4390  155.9281 C   0  0  0  0  0  0  0  0  0  0  0  0
  151.4999  139.8952  155.6713 C   0  0  0  0  0  0  0  0  0  0  0  0
  152.6010  139.8013  154.8853 N   0  0  0  0  0  0  0  0  0  0  0  0
  152.9387  138.6253  154.3479 C   0  0  0  0  0  0  0  0  0  0  0  0
  152.3206  137.4476  154.4596 N   0  0  0  0  0  0  0  0  0  0  0  0
  151.2024  137.5450  155.2343 C   0  0  0  0  0  0  0  0  0  0  0  0
  150.7204  138.7208  155.8744 C   0  0  0  0  0  0  0  0  0  0  0  0
  149.5540  138.4351  156.5741 N   0  0  0  0  0  0  0  0  0  0  0  0
  149.3571  137.1632  156.3590 C   0  0  0  0  0  0  0  0  0  0  0  0
  150.2940  136.5527  155.5565 N   0  0  0  0  0  0  0  0  0  0  0  0
  150.3131  135.1603  155.1465 C   0  0  0  0  0  0  0  0  0  0  0  0
  148.9277  134.4815  155.2195 C   0  0  1  0  0  0  0  0  0  0  0  0
  148.2030  134.8963  154.0789 O   0  0  0  0  0  0  0  0  0  0  0  0
  148.9629  132.9362  155.2586 C   0  0  2  0  0  0  0  0  0  0  0  0
  149.5759  132.2942  154.0094 C   0  0  0  0  0  0  0  0  0  0  0  0
  148.9178  130.9346  153.9931 C   0  0  0  0  0  0  0  0  0  0  0  0
  147.5047  131.2814  154.4420 C   0  0  0  0  0  0  0  0  0  0  0  0
  147.6456  132.3877  155.3267 O   0  0  0  0  0  0  0  0  0  0  0  0
  151.7862  142.8131  158.0180 C   0  0  0  0  0  0  0  0  0  0  0  0
  152.8683  143.2218  159.0352 C   0  0  0  0  0  0  0  0  0  0  0  0
  152.8379  144.6249  158.4230 C   0  0  0  0  0  0  0  0  0  0  0  0
  152.2835  143.9838  157.1488 C   0  0  0  0  0  0  0  0  0  0  0  0
  149.8611  145.2359  160.5439 H   0  0  0  0  0  0  0  0  0  0  0  0
  149.3062  145.1366  158.8732 H   0  0  0  0  0  0  0  0  0  0  0  0
  151.0412  145.1364  159.2369 H   0  0  0  0  0  0  0  0  0  0  0  0
  149.6292  142.9926  157.6594 H   0  0  0  0  0  0  0  0  0  0  0  0
  150.8720  140.9055  159.5727 H   0  0  0  0  0  0  0  0  0  0  0  0
  149.6660  140.6078  158.2740 H   0  0  0  0  0  0  0  0  0  0  0  0
  152.5451  140.7255  157.8509 H   0  0  0  0  0  0  0  0  0  0  0  0
  149.4841  141.0471  154.9665 H   0  0  0  0  0  0  0  0  0  0  0  0
  149.6782  142.5186  155.9013 H   0  0  0  0  0  0  0  0  0  0  0  0
  149.1756  141.0287  156.7059 H   0  0  0  0  0  0  0  0  0  0  0  0
  153.8322  138.6283  153.7413 H   0  0  0  0  0  0  0  0  0  0  0  0
  148.5110  136.6355  156.7741 H   0  0  0  0  0  0  0  0  0  0  0  0
  150.7005  135.1165  154.1276 H   0  0  0  0  0  0  0  0  0  0  0  0
  151.0273  134.6263  155.7750 H   0  0  0  0  0  0  0  0  0  0  0  0
  148.3906  134.8468  156.0952 H   0  0  0  0  0  0  0  0  0  0  0  0
  148.7701  135.4258  153.5397 H   0  0  0  0  0  0  0  0  0  0  0  0
  149.5096  132.5938  156.1390 H   0  0  0  0  0  0  0  0  0  0  0  0
  149.2952  132.8504  153.1137 H   0  0  0  0  0  0  0  0  0  0  0  0
  150.6642  132.2399  154.0492 H   0  0  0  0  0  0  0  0  0  0  0  0
  148.9494  130.4523  153.0157 H   0  0  0  0  0  0  0  0  0  0  0  0
  149.3956  130.2759  154.7195 H   0  0  0  0  0  0  0  0  0  0  0  0
  146.9000  131.5959  153.5905 H   0  0  0  0  0  0  0  0  0  0  0  0
  147.0017  130.4440  154.9262 H   0  0  0  0  0  0  0  0  0  0  0  0
  152.5748  143.1722  160.0841 H   0  0  0  0  0  0  0  0  0  0  0  0
  153.8183  142.7123  158.8646 H   0  0  0  0  0  0  0  0  0  0  0  0
  152.1193  145.2853  158.9111 H   0  0  0  0  0  0  0  0  0  0  0  0
  153.8141  145.0971  158.3106 H   0  0  0  0  0  0  0  0  0  0  0  0
  153.0862  143.7166  156.4612 H   0  0  0  0  0  0  0  0  0  0  0  0
  151.4988  144.5548  156.6519 H   0  0  0  0  0  0  0  0  0  0  0  0
  1  2  1  0  0  0  0
  1 29  1  0  0  0  0
  1 30  1  0  0  0  0
  1 31  1  0  0  0  0
  2  3  1  0  0  0  0
  3 25  1  0  0  0  0
  3  4  1  0  0  0  0
  3 32  1  0  0  0  0
  4  5  1  0  0  0  0
  4 33  1  0  0  0  0
  4 34  1  0  0  0  0
  5  6  1  0  0  0  0
  5 25  1  0  0  0  0
  5 35  1  0  0  0  0
  6  7  1  0  0  0  0
  6  8  1  0  0  0  0
  7 36  1  0  0  0  0
  7 37  1  0  0  0  0
  7 38  1  0  0  0  0
  8 13  1  0  0  0  0
  8  9  2  0  0  0  0
  9 10  1  0  0  0  0
 10 11  2  0  0  0  0
 10 39  1  0  0  0  0
 11 12  1  0  0  0  0
 12 16  1  0  0  0  0
 12 13  2  0  0  0  0
 13 14  1  0  0  0  0
 14 15  2  0  0  0  0
 15 16  1  0  0  0  0
 15 40  1  0  0  0  0
 16 17  1  0  0  0  0
 17 18  1  0  0  0  0
 17 41  1  0  0  0  0
 17 42  1  0  0  0  0
 18 19  1  0  0  0  0
 18 20  1  0  0  0  0
 18 43  1  0  0  0  0
 19 44  1  0  0  0  0
 20 24  1  0  0  0  0
 20 21  1  0  0  0  0
 20 45  1  0  0  0  0
 21 22  1  0  0  0  0
 21 46  1  0  0  0  0
 21 47  1  0  0  0  0
 22 23  1  0  0  0  0
 22 48  1  0  0  0  0
 22 49  1  0  0  0  0
 23 24  1  0  0  0  0
 23 50  1  0  0  0  0
 23 51  1  0  0  0  0
 25 28  1  0  0  0  0
 25 26  1  0  0  0  0
 26 27  1  0  0  0  0
 26 52  1  0  0  0  0
 26 53  1  0  0  0  0
 27 28  1  0  0  0  0
 27 54  1  0  0  0  0
 27 55  1  0  0  0  0
 28 56  1  0  0  0  0
 28 57  1  0  0  0  0
M  END
> <s_m_source_file>
AV-unprocessed.smi

> <i_m_source_file_index>
276

> <i_lp_mmshare_version>
43012

> <i_f3d_flags>
0

> <s_epik_input>
W0NIMl0xW0NIMl1bQ0gyXUMxMltDQEhdKE9bQ0gzXSlbQ0gyXVtDQEhdMk4oW0NIM10pYyhuW2NIXW4zKWMoYzM0KW5bY0hdbjRbQ0gyXVtDQEhdKFtPSF0pW0NAQEhdNVtDSDJdW0NIMl1bQ0gyXU81

> <s_epik_cmdline>
J2VwaWtfcHl0aG9uJywgJy1waCcsICc3LjAnLCAnLXRuJywgJzgnLCAnLW1hJywgJzIwMCcsICctbWV0YWxfYmluZGluZycsICctaW1hZScsICc8aW5maWxlLm1hZT4nLCAnLW9tYWUnLCAnPG91dGZpbGUubWFlPic=

> <r_lp_tautomer_probability>
1

> <r_epik_Ionization_Penalty>
0.00204117

> <r_epik_Ionization_Penalty_Charging>
0

> <r_epik_Ionization_Penalty_Neutral>
0.00204117

> <r_epik_State_Penalty>
0.00127401

> <r_epik_Charging_Adjusted_Penalty>
0.00127401

> <i_epik_Tot_Q>
0

> <i_epik_Tot_abs_Q>
0

> <r_epik_Metal_State_Penalty>
-0

> <b_epik_Metal_Only>
0

> <s_lp_Force_Field>
OPLS_2005

> <r_lp_Energy>
56.3497

> <b_lp_Chiralities_Consistent>
1

> <s_lp_Variant>
AV-unprocessed.smi:276-5

> <Gold.Version>
5.8.1

> <Gold.Id.Protein>
6NUR|6NUR_protein|mol2

> <Gold.PLP.Fitness>
48.4261

> <Gold.PLP.PLP>
-46.9368

> <Gold.PLP.part.hbond>
-4.5136

> <Gold.PLP.part.metal>
0.0000

> <Gold.PLP.part.buried>
-8.0590

> <Gold.PLP.part.nonpolar>
-34.6547

> <Gold.PLP.part.repulsive>
0.2724

> <Gold.PLP.ligand.clash>
3.8397

> <Gold.PLP.ligand.torsion>
1.5876

> <Gold.PLP.Chemscore.Hbond>
2.6043

> <Gold.PLP.Chemscore.CHOScore>
0.0000

> <Gold.PLP.Chemscore.Metal>
0.0000

> <Gold.Chemscore.Hbonds>
donor molecule, donor type, donor heavy atom, donor atom, acceptor molecule, acceptor atom, score
      L1  H    19    44       P1  7948  0.90
      P1  H  7989  7998       L1     9  0.28
      P1  H  7997  8008       L1     9  0.63
      P1  H 10752 10765       L1    11  0.74

> <Gold.PLP.Chemscore.Internal.Correction>
0.6914

> <Gold.Rescore>
     Score         DG    S(hbond)    S(metal)    S(lipo)     H(rot)  DE(clash)    DE(int)     intcor
     13.52     -17.26       2.02        0.00     102.47       2.72       0.04       3.71       ----

> <Gold.Chemscore.Fitness>
13.5158

> <Gold.Chemscore.DG>
-17.2626

> <Gold.Chemscore.ZeroCoef>
-5.4800

> <Gold.Chemscore.Hbond>
2.0208

> <Gold.Chemscore.Metal>
0.0000

> <Gold.Chemscore.Lipo>
102.4713

> <Gold.Chemscore.Internal_Hbond>
0.0000

> <Gold.Chemscore.DEClash>
0.0402

> <Gold.Chemscore.DEInternal>
3.7066

> <Gold.Chemscore.Rot>
2.7172

> <Gold.Chemscore.Internal.Correction>
   9.000000E+99

> <Gold.Chemscore.Hbonds>
donor molecule, donor type, donor heavy atom, donor atom, acceptor molecule, acceptor atom, score
      L1  H    19    44       P1  7948  0.78
      P1  H  7989  7998       L1     9  0.01
      P1  H  7997  8008       L1     9  0.11
      P1  H 10752 10765       L1    11  0.65

> <Gold.Chemscore.Hbond.Weighted>
-6.7495

> <Gold.Chemscore.Metal.Weighted>
-0.0000

> <Gold.Chemscore.Lipo.Weighted>
-11.9891

> <Gold.Chemscore.Internal_Hbond.Weighted>
0.0000

> <Gold.Chemscore.DEClash.Weighted>
0.0402

> <Gold.Chemscore.DEInternal.Weighted>
3.7066

> <Gold.Chemscore.Rot.Weighted>
6.9560

> <Gold.Chemscore.Internal.Correction.Weighted>
   9.000000E+99

> <Gold.Protein.RotatedTorsions>
[ 6907 6896 6895 6894 ] final  -90.17 input  -60.11 | X-H torsion
[ 7974 7965 7964 7962 ] final  156.98 input  175.53 | X-H torsion
[ 8008 7997 7996 7995 ] final  -27.43 input   59.86 | X-H torsion
[ 10167 10162 10161 10158 ] final  117.87 input  -65.29 | X-H torsion
[ 10718 10713 10712 10709 ] final   -5.45 input   66.30 | X-H torsion
[ 10763 10752 10751 10750 ] final  160.35 input  -60.55 | X-H torsion
[ 11005 11000 10999 10996 ] final  -26.09 input  -57.11 | X-H torsion

> <Gold.Protein.ActiveResidues>
 VAL166  LYS551  ARG553  GLY616  TRP617  ASP618  TYR619  PRO620  LYS621  CYS622 
 ASP623  PHE694  ASN695  SER759  ASP760  ASP761  ALA762  ILE779  LEU786  VAL792 
 PHE793  MET794  SER795  GLU796  ALA797  LYS798  CYS799  TRP800  GLU811  SER814 

> <Gold.Protein.RotatedAtoms>
  150.6879  134.2474  159.4496 H   0  0  0  0  0  0  0  0  0  0  0  0  # atno 6907 bound_to 6896
  152.0414  134.9707  160.0583 H   0  0  0  0  0  0  0  0  0  0  0  0  # atno 6908 bound_to 6896
  152.1207  133.4317  159.4711 H   0  0  0  0  0  0  0  0  0  0  0  0  # atno 6909 bound_to 6896
  144.7930  139.7278  143.6213 H   0  0  0  0  0  0  0  0  0  0  0  0  # atno 7974 bound_to 7965
  154.4378  140.1872  156.0930 H   0  0  0  0  0  0  0  0  0  0  0  0  # atno 8008 bound_to 7997
  156.0351  140.3326  155.7156 H   0  0  0  0  0  0  0  0  0  0  0  0  # atno 8009 bound_to 7997
  155.5782  140.0619  157.2780 H   0  0  0  0  0  0  0  0  0  0  0  0  # atno 8010 bound_to 7997
  139.6150  144.7090  151.2760 H   0  0  0  0  0  0  0  0  0  0  0  0  # atno 10167 bound_to 10162
  156.7464  130.5225  149.5813 H   0  0  0  0  0  0  0  0  0  0  0  0  # atno 10718 bound_to 10713
  154.2461  135.2773  155.2835 H   0  0  0  0  0  0  0  0  0  0  0  0  # atno 10763 bound_to 10752
  154.5504  135.5676  153.6921 H   0  0  0  0  0  0  0  0  0  0  0  0  # atno 10764 bound_to 10752
  152.9990  135.6273  154.2606 H   0  0  0  0  0  0  0  0  0  0  0  0  # atno 10765 bound_to 10752
  140.8998  133.7532  156.0528 H   0  0  0  0  0  0  0  0  0  0  0  0  # atno 11005 bound_to 11000
  146.2189  139.5600  142.9631 LP  0  0  0  0  0  0  0  0  0  0  0  0  # atno 17320 bound_to 7965
  145.5744  141.0390  143.2156 LP  0  0  0  0  0  0  0  0  0  0  0  0  # atno 17321 bound_to 7965
  140.7344  143.6765  150.8037 LP  0  0  0  0  0  0  0  0  0  0  0  0  # atno 17342 bound_to 10162
  140.0366  143.5388  152.2736 LP  0  0  0  0  0  0  0  0  0  0  0  0  # atno 17343 bound_to 10162
  156.1430  130.6258  151.0493 LP  0  0  0  0  0  0  0  0  0  0  0  0  # atno 17370 bound_to 10713
  157.6796  131.0841  150.7404 LP  0  0  0  0  0  0  0  0  0  0  0  0  # atno 17371 bound_to 10713
  140.8244  134.3251  157.5370 LP  0  0  0  0  0  0  0  0  0  0  0  0  # atno 17394 bound_to 11000
  139.8740  134.9328  156.3563 LP  0  0  0  0  0  0  0  0  0  0  0  0  # atno 17395 bound_to 11000

$$$$
