AV-unprocessed.smi:2293|AV-procd|sdf|9215|dock9
  -GOLD-   2272012433D 1   1.00000     0.00000
 Structure written by MMmdl.
 34 35  0  0  0  0  0  0  0  0  1 V2000
  151.5495  138.2153  154.1487 C   0  0  0  0  0  0  0  0  0  0  0  0
  151.2665  139.2490  155.2244 C   0  0  0  0  0  0  0  0  0  0  0  0
  150.6556  140.4264  154.7840 N   0  0  0  0  0  0  0  0  0  0  0  0
  150.3758  141.3626  155.6305 C   0  0  0  0  0  0  0  0  0  0  0  0
  150.6721  141.2353  156.9981 N   0  0  0  0  0  0  0  0  0  0  0  0
  150.2959  142.3722  157.8565 C   0  0  0  0  0  0  0  0  0  0  0  0
  151.4598  143.3698  158.0553 C   0  0  1  0  0  0  0  0  0  0  0  0
  151.0180  144.6678  157.7112 O   0  0  0  0  0  0  0  0  0  0  0  0
  151.9738  143.3293  159.4864 C   0  0  0  0  0  0  0  0  0  0  0  0
  151.7092  144.3947  160.3756 C   0  0  0  0  0  0  0  0  0  0  0  0
  152.1835  144.3483  161.7010 C   0  0  0  0  0  0  0  0  0  0  0  0
  152.9230  143.2358  162.1461 C   0  0  0  0  0  0  0  0  0  0  0  0
  153.1857  142.1686  161.2659 C   0  0  0  0  0  0  0  0  0  0  0  0
  153.8939  141.0970  161.6941 F   0  0  0  0  0  0  0  0  0  0  0  0
  152.7118  142.2147  159.9403 C   0  0  0  0  0  0  0  0  0  0  0  0
  151.2671  140.1199  157.5113 C   0  0  0  0  0  0  0  0  0  0  0  0
  151.5232  140.0151  158.7122 O   0  0  0  0  0  0  0  0  0  0  0  0
  151.5773  139.0616  156.5362 C   0  0  0  0  0  0  0  0  0  0  0  0
  152.2417  137.7999  157.0731 C   0  0  0  0  0  0  0  0  0  0  0  0
  151.0191  137.2872  154.3622 H   0  0  0  0  0  0  0  0  0  0  0  0
  152.6175  138.0032  154.0942 H   0  0  0  0  0  0  0  0  0  0  0  0
  151.2282  138.5652  153.1669 H   0  0  0  0  0  0  0  0  0  0  0  0
  149.8938  142.2978  155.3402 H   0  0  0  0  0  0  0  0  0  0  0  0
  149.4051  142.8868  157.4909 H   0  0  0  0  0  0  0  0  0  0  0  0
  149.9946  141.9803  158.8303 H   0  0  0  0  0  0  0  0  0  0  0  0
  152.2853  143.1170  157.3885 H   0  0  0  0  0  0  0  0  0  0  0  0
  150.3857  144.5945  157.0126 H   0  0  0  0  0  0  0  0  0  0  0  0
  151.1395  145.2505  160.0434 H   0  0  0  0  0  0  0  0  0  0  0  0
  151.9791  145.1660  162.3764 H   0  0  0  0  0  0  0  0  0  0  0  0
  153.2871  143.2004  163.1624 H   0  0  0  0  0  0  0  0  0  0  0  0
  152.9175  141.3898  159.2739 H   0  0  0  0  0  0  0  0  0  0  0  0
  153.2002  138.0461  157.5313 H   0  0  0  0  0  0  0  0  0  0  0  0
  152.4284  137.0520  156.3046 H   0  0  0  0  0  0  0  0  0  0  0  0
  151.6116  137.3371  157.8332 H   0  0  0  0  0  0  0  0  0  0  0  0
  1  2  1  0  0  0  0
  1 20  1  0  0  0  0
  1 21  1  0  0  0  0
  1 22  1  0  0  0  0
  2 18  2  0  0  0  0
  2  3  1  0  0  0  0
  3  4  2  0  0  0  0
  4  5  1  0  0  0  0
  4 23  1  0  0  0  0
  5  6  1  0  0  0  0
  5 16  1  0  0  0  0
  6  7  1  0  0  0  0
  6 24  1  0  0  0  0
  6 25  1  0  0  0  0
  7  8  1  0  0  0  0
  7  9  1  0  0  0  0
  7 26  1  0  0  0  0
  8 27  1  0  0  0  0
  9 15  1  0  0  0  0
  9 10  2  0  0  0  0
 10 11  1  0  0  0  0
 10 28  1  0  0  0  0
 11 12  2  0  0  0  0
 11 29  1  0  0  0  0
 12 13  1  0  0  0  0
 12 30  1  0  0  0  0
 13 14  1  0  0  0  0
 13 15  2  0  0  0  0
 15 31  1  0  0  0  0
 16 17  2  0  0  0  0
 16 18  1  0  0  0  0
 18 19  1  0  0  0  0
 19 32  1  0  0  0  0
 19 33  1  0  0  0  0
 19 34  1  0  0  0  0
M  END
> <s_m_source_file>
AV-unprocessed.smi

> <i_m_source_file_index>
2293

> <i_lp_mmshare_version>
43012

> <i_f3d_flags>
0

> <s_epik_input>
W0NIM11jMW5bY0hdbihjKD1PKWMxW0NIM10pW0NIMl1bQ0BIXShbT0hdKWMyW2NIXVtjSF1bY0hdYyhGKVtjSF0y

> <s_epik_cmdline>
J2VwaWtfcHl0aG9uJywgJy1waCcsICc3LjAnLCAnLXRuJywgJzgnLCAnLW1hJywgJzIwMCcsICctbWV0YWxfYmluZGluZycsICctaW1hZScsICc8aW5maWxlLm1hZT4nLCAnLW9tYWUnLCAnPG91dGZpbGUubWFlPic=

> <r_lp_tautomer_probability>
1

> <r_epik_Ionization_Penalty>
5.08222e-05

> <r_epik_Ionization_Penalty_Charging>
7.56727e-08

> <r_epik_Ionization_Penalty_Neutral>
5.07465e-05

> <r_epik_State_Penalty>
-0

> <r_epik_Charging_Adjusted_Penalty>
7.56727e-08

> <i_epik_Tot_Q>
0

> <i_epik_Tot_abs_Q>
0

> <r_epik_Metal_State_Penalty>
-0

> <b_epik_Metal_Only>
0

> <s_lp_Force_Field>
OPLS_2005

> <r_lp_Energy>
19.6901

> <b_lp_Chiralities_Consistent>
1

> <s_lp_Variant>
AV-unprocessed.smi:2293-2

> <Gold.Version>
5.8.1

> <Gold.Id.Protein>
6NUR|6NUR_protein|mol2

> <Gold.PLP.Fitness>
51.9811

> <Gold.PLP.PLP>
-46.2545

> <Gold.PLP.part.hbond>
-2.0086

> <Gold.PLP.part.metal>
0.0000

> <Gold.PLP.part.buried>
-4.3039

> <Gold.PLP.part.nonpolar>
-38.2972

> <Gold.PLP.part.repulsive>
0.0862

> <Gold.PLP.ligand.clash>
0.0000

> <Gold.PLP.ligand.torsion>
1.3634

> <Gold.PLP.Chemscore.Hbond>
2.0000

> <Gold.PLP.Chemscore.CHOScore>
0.8145

> <Gold.PLP.Chemscore.Metal>
0.0000

> <Gold.Chemscore.Hbonds>
donor molecule, donor type, donor heavy atom, donor atom, acceptor molecule, acceptor atom, score
      L1  H     8    27       P1  8028  1.00
      P1  H  7989  7998       L1     3  1.00
      L1  C     4    23       P1  8028  0.73

> <Gold.PLP.Chemscore.Internal.Correction>
0.0097

> <Gold.Rescore>
     Score         DG    S(hbond)    S(metal)    S(lipo)     H(rot)  DE(clash)    DE(int)     intcor
     16.93     -18.52       1.60        0.00     110.04       2.02       0.25       1.34       ----

> <Gold.Chemscore.Fitness>
16.9339

> <Gold.Chemscore.DG>
-18.5199

> <Gold.Chemscore.ZeroCoef>
-5.4800

> <Gold.Chemscore.Hbond>
1.5964

> <Gold.Chemscore.Metal>
0.0000

> <Gold.Chemscore.Lipo>
110.0369

> <Gold.Chemscore.Internal_Hbond>
0.0000

> <Gold.Chemscore.DEClash>
0.2500

> <Gold.Chemscore.DEInternal>
1.3359

> <Gold.Chemscore.Rot>
2.0181

> <Gold.Chemscore.Internal.Correction>
   9.000000E+99

> <Gold.Chemscore.Hbonds>
donor molecule, donor type, donor heavy atom, donor atom, acceptor molecule, acceptor atom, score
      L1  H     8    27       P1  8028  0.68
      P1  H  7989  7998       L1     3  0.35

> <Gold.Chemscore.Hbond.Weighted>
-5.3319

> <Gold.Chemscore.Metal.Weighted>
-0.0000

> <Gold.Chemscore.Lipo.Weighted>
-12.8743

> <Gold.Chemscore.Internal_Hbond.Weighted>
0.0000

> <Gold.Chemscore.DEClash.Weighted>
0.2500

> <Gold.Chemscore.DEInternal.Weighted>
1.3359

> <Gold.Chemscore.Rot.Weighted>
5.1663

> <Gold.Chemscore.Internal.Correction.Weighted>
   9.000000E+99

> <Gold.Protein.RotatedTorsions>
[ 6907 6896 6895 6894 ] final    0.54 input  -60.11 | X-H torsion
[ 7974 7965 7964 7962 ] final -146.02 input  175.53 | X-H torsion
[ 8008 7997 7996 7995 ] final   65.80 input   59.86 | X-H torsion
[ 10167 10162 10161 10158 ] final  -20.41 input  -65.29 | X-H torsion
[ 10718 10713 10712 10709 ] final  -51.14 input   66.30 | X-H torsion
[ 10763 10752 10751 10750 ] final  110.32 input  -60.55 | X-H torsion
[ 11005 11000 10999 10996 ] final   35.87 input  -57.11 | X-H torsion

> <Gold.Protein.ActiveResidues>
 VAL166  LYS551  ARG553  GLY616  TRP617  ASP618  TYR619  PRO620  LYS621  CYS622 
 ASP623  PHE694  ASN695  SER759  ASP760  ASP761  ALA762  ILE779  LEU786  VAL792 
 PHE793  MET794  SER795  GLU796  ALA797  LYS798  CYS799  TRP800  GLU811  SER814 

> <Gold.Protein.RotatedAtoms>
  151.5780  135.1059  160.0010 H   0  0  0  0  0  0  0  0  0  0  0  0  # atno 6907 bound_to 6896
  152.4368  133.7371  159.6631 H   0  0  0  0  0  0  0  0  0  0  0  0  # atno 6908 bound_to 6896
  150.8267  133.8090  159.3139 H   0  0  0  0  0  0  0  0  0  0  0  0  # atno 6909 bound_to 6896
  144.8187  140.5509  143.5593 H   0  0  0  0  0  0  0  0  0  0  0  0  # atno 7974 bound_to 7965
  155.6675  140.3497  155.4805 H   0  0  0  0  0  0  0  0  0  0  0  0  # atno 8008 bound_to 7997
  155.9717  140.1157  157.0829 H   0  0  0  0  0  0  0  0  0  0  0  0  # atno 8009 bound_to 7997
  154.4168  140.1156  156.5301 H   0  0  0  0  0  0  0  0  0  0  0  0  # atno 8010 bound_to 7997
  140.7276  143.4726  151.0227 H   0  0  0  0  0  0  0  0  0  0  0  0  # atno 10167 bound_to 10162
  156.1737  130.4149  149.9609 H   0  0  0  0  0  0  0  0  0  0  0  0  # atno 10718 bound_to 10713
  153.4473  135.3752  155.2263 H   0  0  0  0  0  0  0  0  0  0  0  0  # atno 10763 bound_to 10752
  154.8755  135.3877  154.4080 H   0  0  0  0  0  0  0  0  0  0  0  0  # atno 10764 bound_to 10752
  153.4634  135.7087  153.6100 H   0  0  0  0  0  0  0  0  0  0  0  0  # atno 10765 bound_to 10752
  140.2383  134.3445  155.7936 H   0  0  0  0  0  0  0  0  0  0  0  0  # atno 11005 bound_to 11000
  145.5154  139.1478  143.3582 LP  0  0  0  0  0  0  0  0  0  0  0  0  # atno 17320 bound_to 7965
  146.2492  140.5294  142.8901 LP  0  0  0  0  0  0  0  0  0  0  0  0  # atno 17321 bound_to 7965
  139.8418  143.7553  152.3180 LP  0  0  0  0  0  0  0  0  0  0  0  0  # atno 17342 bound_to 10162
  139.7705  144.7478  151.0232 LP  0  0  0  0  0  0  0  0  0  0  0  0  # atno 17343 bound_to 10162
  156.7402  130.9076  151.3631 LP  0  0  0  0  0  0  0  0  0  0  0  0  # atno 17370 bound_to 10713
  157.6820  130.9149  150.0292 LP  0  0  0  0  0  0  0  0  0  0  0  0  # atno 17371 bound_to 10713
  141.2212  133.7284  156.8844 LP  0  0  0  0  0  0  0  0  0  0  0  0  # atno 17394 bound_to 11000
  140.1679  134.9120  157.2797 LP  0  0  0  0  0  0  0  0  0  0  0  0  # atno 17395 bound_to 11000

$$$$
