AV-unprocessed.smi:1911|AV-procd|sdf|7743|dock3
  -GOLD-   22720 9483D 1   1.00000     0.00000
 Structure written by MMmdl.
 53 55  0  0  0  0  0  0  0  0  3 V2000
  144.0215  133.3186  148.5414 N   0  0  0  0  0  0  0  0  0  0  0  0
  144.3736  132.5030  149.5378 C   0  0  0  0  0  0  0  0  0  0  0  0
  143.6314  131.6134  149.9501 O   0  0  0  0  0  0  0  0  0  0  0  0
  145.7668  132.7104  150.1409 C   0  0  0  0  0  0  0  0  0  0  0  0
  145.7317  133.0440  151.5885 N   0  3  2  0  0  0  0  0  0  0  0  0
  145.3516  134.4578  151.8522 C   0  0  0  0  0  0  0  0  0  0  0  0
  145.1913  134.7171  153.3602 C   0  0  0  0  0  0  0  0  0  0  0  0
  146.4616  134.3416  154.1491 C   0  0  2  0  0  0  0  0  0  0  0  0
  147.5615  135.2703  153.8881 N   0  0  0  0  0  0  0  0  0  0  0  0
  148.0598  136.1487  154.7704 C   0  0  0  0  0  0  0  0  0  0  0  0
  147.6231  136.2839  155.9128 O   0  0  0  0  0  0  0  0  0  0  0  0
  149.0667  136.8597  154.2345 N   0  0  0  0  0  0  0  0  0  0  0  0
  149.8499  137.8777  154.8425 C   0  0  0  0  0  0  0  0  0  0  0  0
  151.1025  138.3177  154.3463 C   0  0  0  0  0  0  0  0  0  0  0  0
  151.7908  139.3503  155.0161 C   0  0  0  0  0  0  0  0  0  0  0  0
  151.2217  139.9312  156.1736 C   0  0  0  0  0  0  0  0  0  0  0  0
  151.8136  140.9763  156.8992 N   0  0  0  0  0  0  0  0  0  0  0  0
  151.0455  142.2138  157.0238 C   0  0  0  0  0  0  0  0  0  0  0  0
  151.2448  142.7024  158.4596 C   0  0  0  0  0  0  0  0  0  0  0  0
  151.5033  141.4133  159.2287 C   0  0  0  0  0  0  0  0  0  0  0  0
  152.2821  140.5707  158.2194 C   0  0  0  0  0  0  0  0  0  0  0  0
  150.0144  139.4979  156.5975 N   0  3  0  0  0  0  0  0  0  0  0  0
  149.3215  138.5141  155.9850 C   0  0  0  0  0  0  0  0  0  0  0  0
  146.8784  132.9015  153.8032 C   0  0  0  0  0  0  0  0  0  0  0  0
  146.9924  132.6788  152.2836 C   0  0  0  0  0  0  0  0  0  0  0  0
  143.1137  133.2182  148.1092 H   0  0  0  0  0  0  0  0  0  0  0  0
  144.6594  134.0312  148.2171 H   0  0  0  0  0  0  0  0  0  0  0  0
  146.3110  131.7767  149.9928 H   0  0  0  0  0  0  0  0  0  0  0  0
  146.3120  133.4807  149.5925 H   0  0  0  0  0  0  0  0  0  0  0  0
  146.1062  135.1248  151.4325 H   0  0  0  0  0  0  0  0  0  0  0  0
  144.4128  134.6940  151.3504 H   0  0  0  0  0  0  0  0  0  0  0  0
  144.9227  135.7597  153.5340 H   0  0  0  0  0  0  0  0  0  0  0  0
  144.3534  134.1270  153.7335 H   0  0  0  0  0  0  0  0  0  0  0  0
  146.2369  134.3802  155.2166 H   0  0  0  0  0  0  0  0  0  0  0  0
  147.9849  135.2283  152.9726 H   0  0  0  0  0  0  0  0  0  0  0  0
  149.2589  136.6916  153.2578 H   0  0  0  0  0  0  0  0  0  0  0  0
  151.5424  137.8982  153.4549 H   0  0  0  0  0  0  0  0  0  0  0  0
  152.7379  139.6958  154.6283 H   0  0  0  0  0  0  0  0  0  0  0  0
  151.4012  142.9539  156.3065 H   0  0  0  0  0  0  0  0  0  0  0  0
  149.9853  142.0590  156.8257 H   0  0  0  0  0  0  0  0  0  0  0  0
  152.1237  143.3466  158.5144 H   0  0  0  0  0  0  0  0  0  0  0  0
  150.3906  143.2635  158.8396 H   0  0  0  0  0  0  0  0  0  0  0  0
  152.0479  141.5714  160.1600 H   0  0  0  0  0  0  0  0  0  0  0  0
  150.5562  140.9275  159.4672 H   0  0  0  0  0  0  0  0  0  0  0  0
  152.1552  139.5034  158.4087 H   0  0  0  0  0  0  0  0  0  0  0  0
  153.3480  140.7909  158.2839 H   0  0  0  0  0  0  0  0  0  0  0  0
  148.3694  138.2651  156.4312 H   0  0  0  0  0  0  0  0  0  0  0  0
  147.8219  132.6521  154.2907 H   0  0  0  0  0  0  0  0  0  0  0  0
  146.1380  132.2096  154.2073 H   0  0  0  0  0  0  0  0  0  0  0  0
  147.2243  131.6296  152.0966 H   0  0  0  0  0  0  0  0  0  0  0  0
  147.8179  133.2623  151.8731 H   0  0  0  0  0  0  0  0  0  0  0  0
  145.0076  132.4646  151.9900 H   0  0  0  0  0  0  0  0  0  0  0  0
  149.6060  139.9356  157.4239 H   0  0  0  0  0  0  0  0  0  0  0  0
  1  2  1  0  0  0  0
  1 26  1  0  0  0  0
  1 27  1  0  0  0  0
  2  3  2  0  0  0  0
  2  4  1  0  0  0  0
  4  5  1  0  0  0  0
  4 28  1  0  0  0  0
  4 29  1  0  0  0  0
  5 25  1  0  0  0  0
  5  6  1  0  0  0  0
  5 52  1  0  0  0  0
  6  7  1  0  0  0  0
  6 30  1  0  0  0  0
  6 31  1  0  0  0  0
  7  8  1  0  0  0  0
  7 32  1  0  0  0  0
  7 33  1  0  0  0  0
  8  9  1  0  0  0  0
  8 24  1  0  0  0  0
  8 34  1  0  0  0  0
  9 10  1  0  0  0  0
  9 35  1  0  0  0  0
 10 11  2  0  0  0  0
 10 12  1  0  0  0  0
 12 13  1  0  0  0  0
 12 36  1  0  0  0  0
 13 23  1  0  0  0  0
 13 14  2  0  0  0  0
 14 15  1  0  0  0  0
 14 37  1  0  0  0  0
 15 16  2  0  0  0  0
 15 38  1  0  0  0  0
 16 17  1  0  0  0  0
 16 22  1  0  0  0  0
 17 21  1  0  0  0  0
 17 18  1  0  0  0  0
 18 19  1  0  0  0  0
 18 39  1  0  0  0  0
 18 40  1  0  0  0  0
 19 20  1  0  0  0  0
 19 41  1  0  0  0  0
 19 42  1  0  0  0  0
 20 21  1  0  0  0  0
 20 43  1  0  0  0  0
 20 44  1  0  0  0  0
 21 45  1  0  0  0  0
 21 46  1  0  0  0  0
 22 23  2  0  0  0  0
 22 53  1  0  0  0  0
 23 47  1  0  0  0  0
 24 25  1  0  0  0  0
 24 48  1  0  0  0  0
 24 49  1  0  0  0  0
 25 50  1  0  0  0  0
 25 51  1  0  0  0  0
M  CHG  1   5   1
M  CHG  1  22   1
M  END
> <s_m_source_file>
AV-unprocessed.smi

> <i_m_source_file_index>
1911

> <i_lp_mmshare_version>
43012

> <i_f3d_flags>
0

> <s_epik_input>
W05IMl1DKD1PKVtDSDJdTjFbQ0gyXVtDSDJdW0NIXShbQ0gyXVtDSDJdMSlbTkhdQyg9TylbTkhdYzJbY0hdW2NIXWMobltjSF0yKU4zW0NIMl1bQ0gyXVtDSDJdW0NIMl0z

> <s_epik_cmdline>
J2VwaWtfcHl0aG9uJywgJy1waCcsICc3LjAnLCAnLXRuJywgJzgnLCAnLW1hJywgJzIwMCcsICctbWV0YWxfYmluZGluZycsICctaW1hZScsICc8aW5maWxlLm1hZT4nLCAnLW9tYWUnLCAnPG91dGZpbGUubWFlPic=

> <r_lp_tautomer_probability>
0.999994

> <r_epik_Ionization_Penalty>
2.11361

> <r_epik_Ionization_Penalty_Charging>
2.11355

> <r_epik_Ionization_Penalty_Neutral>
5.99226e-05

> <r_epik_State_Penalty>
2.13444

> <r_epik_Charging_Adjusted_Penalty>
4.24799

> <i_epik_Tot_Q>
2

> <i_epik_Tot_abs_Q>
2

> <r_epik_Metal_State_Penalty>
2.23538

> <b_epik_Metal_Only>
0

> <s_lp_Force_Field>
OPLS_2005

> <r_lp_Energy>
50.1523

> <b_lp_Chiralities_Consistent>
1

> <s_lp_Variant>
AV-unprocessed.smi:1911-6

> <Gold.Version>
5.8.1

> <Gold.Id.Protein>
6NUR|6NUR_protein|mol2

> <Gold.PLP.Fitness>
45.3935

> <Gold.PLP.PLP>
-34.7314

> <Gold.PLP.part.hbond>
-4.6345

> <Gold.PLP.part.metal>
0.0000

> <Gold.PLP.part.buried>
-4.9386

> <Gold.PLP.part.nonpolar>
-26.1862

> <Gold.PLP.part.repulsive>
0.3984

> <Gold.PLP.ligand.clash>
0.0000

> <Gold.PLP.ligand.torsion>
0.4438

> <Gold.PLP.Chemscore.Hbond>
3.8080

> <Gold.PLP.Chemscore.CHOScore>
0.0000

> <Gold.PLP.Chemscore.Metal>
0.0000

> <Gold.Chemscore.Hbonds>
donor molecule, donor type, donor heavy atom, donor atom, acceptor molecule, acceptor atom, score
      L1  H     1    27       P1  7921  1.00
      L1  H     9    35       P1  7948  0.83
      L1  H    12    36       P1  7948  0.86
      P1  H 10785 10796       L1     3  0.91

> <Gold.PLP.Chemscore.Internal.Correction>
0.1257

> <Gold.Rescore>
     Score         DG    S(hbond)    S(metal)    S(lipo)     H(rot)  DE(clash)    DE(int)     intcor
     19.18     -21.07       3.55        0.00      80.60       2.22       0.05       1.84       ----

> <Gold.Chemscore.Fitness>
19.1772

> <Gold.Chemscore.DG>
-21.0698

> <Gold.Chemscore.ZeroCoef>
-5.4800

> <Gold.Chemscore.Hbond>
3.5464

> <Gold.Chemscore.Metal>
0.0000

> <Gold.Chemscore.Lipo>
80.5958

> <Gold.Chemscore.Internal_Hbond>
0.0000

> <Gold.Chemscore.DEClash>
0.0507

> <Gold.Chemscore.DEInternal>
1.8419

> <Gold.Chemscore.Rot>
2.2207

> <Gold.Chemscore.Internal.Correction>
   9.000000E+99

> <Gold.Chemscore.Hbonds>
donor molecule, donor type, donor heavy atom, donor atom, acceptor molecule, acceptor atom, score
      L1  H     1    27       P1  7921  1.00
      L1  H     9    35       P1  7948  0.83
      L1  H    12    36       P1  7948  0.80
      P1  H 10785 10796       L1     3  0.85

> <Gold.Chemscore.Hbond.Weighted>
-11.8450

> <Gold.Chemscore.Metal.Weighted>
-0.0000

> <Gold.Chemscore.Lipo.Weighted>
-9.4297

> <Gold.Chemscore.Internal_Hbond.Weighted>
0.0000

> <Gold.Chemscore.DEClash.Weighted>
0.0507

> <Gold.Chemscore.DEInternal.Weighted>
1.8419

> <Gold.Chemscore.Rot.Weighted>
5.6849

> <Gold.Chemscore.Internal.Correction.Weighted>
   9.000000E+99

> <Gold.Protein.RotatedTorsions>
[ 6907 6896 6895 6894 ] final -160.43 input  -60.11 | X-H torsion
[ 7974 7965 7964 7962 ] final   77.45 input  175.53 | X-H torsion
[ 8008 7997 7996 7995 ] final  -55.79 input   59.86 | X-H torsion
[ 10167 10162 10161 10158 ] final  -31.11 input  -65.29 | X-H torsion
[ 10718 10713 10712 10709 ] final -159.87 input   66.30 | X-H torsion
[ 10763 10752 10751 10750 ] final   18.94 input  -60.55 | X-H torsion
[ 11005 11000 10999 10996 ] final -114.93 input  -57.11 | X-H torsion

> <Gold.Protein.ActiveResidues>
 VAL166  LYS551  ARG553  GLY616  TRP617  ASP618  TYR619  PRO620  LYS621  CYS622 
 ASP623  PHE694  ASN695  SER759  ASP760  ASP761  ALA762  ILE779  LEU786  VAL792 
 PHE793  MET794  SER795  GLU796  ALA797  LYS798  CYS799  TRP800  GLU811  SER814 

> <Gold.Protein.RotatedAtoms>
  151.3490  133.3932  159.2678 H   0  0  0  0  0  0  0  0  0  0  0  0  # atno 6907 bound_to 6896
  150.9816  134.9171  159.7858 H   0  0  0  0  0  0  0  0  0  0  0  0  # atno 6908 bound_to 6896
  152.5219  134.3454  159.9284 H   0  0  0  0  0  0  0  0  0  0  0  0  # atno 6909 bound_to 6896
  145.6898  139.2549  143.1766 H   0  0  0  0  0  0  0  0  0  0  0  0  # atno 7974 bound_to 7965
  154.4207  140.1145  156.5533 H   0  0  0  0  0  0  0  0  0  0  0  0  # atno 8008 bound_to 7997
  155.6387  140.3496  155.4688 H   0  0  0  0  0  0  0  0  0  0  0  0  # atno 8009 bound_to 7997
  155.9889  140.1175  157.0647 H   0  0  0  0  0  0  0  0  0  0  0  0  # atno 8010 bound_to 7997
  140.7240  143.3796  151.1625 H   0  0  0  0  0  0  0  0  0  0  0  0  # atno 10167 bound_to 10162
  156.5742  130.8701  151.2846 H   0  0  0  0  0  0  0  0  0  0  0  0  # atno 10718 bound_to 10713
  153.1205  135.6718  153.9344 H   0  0  0  0  0  0  0  0  0  0  0  0  # atno 10763 bound_to 10752
  153.8861  135.3052  155.3448 H   0  0  0  0  0  0  0  0  0  0  0  0  # atno 10764 bound_to 10752
  154.7617  135.4985  153.9555 H   0  0  0  0  0  0  0  0  0  0  0  0  # atno 10765 bound_to 10752
  141.0520  133.9671  157.2819 H   0  0  0  0  0  0  0  0  0  0  0  0  # atno 11005 bound_to 11000
  146.0891  140.7676  142.9604 LP  0  0  0  0  0  0  0  0  0  0  0  0  # atno 17320 bound_to 7965
  144.7000  140.3610  143.7164 LP  0  0  0  0  0  0  0  0  0  0  0  0  # atno 17321 bound_to 7965
  139.7382  143.8965  152.3042 LP  0  0  0  0  0  0  0  0  0  0  0  0  # atno 17342 bound_to 10162
  139.8777  144.7034  150.8913 LP  0  0  0  0  0  0  0  0  0  0  0  0  # atno 17343 bound_to 10162
  157.7341  130.9741  150.2013 LP  0  0  0  0  0  0  0  0  0  0  0  0  # atno 17370 bound_to 10713
  156.2688  130.3719  149.8053 LP  0  0  0  0  0  0  0  0  0  0  0  0  # atno 17371 bound_to 10713
  139.9359  135.0196  156.8552 LP  0  0  0  0  0  0  0  0  0  0  0  0  # atno 17394 bound_to 11000
  140.6036  134.0148  155.7547 LP  0  0  0  0  0  0  0  0  0  0  0  0  # atno 17395 bound_to 11000

$$$$
