AV-unprocessed.smi:3336|AV-procd|sdf|12853|dock8
  -GOLD-   2272019243D 1   1.00000     0.00000
 Structure written by MMmdl.
 42 43  0  0  0  0  0  0  0  0  2 V2000
  149.1671  142.7054  158.4005 C   0  0  0  0  0  0  0  0  0  0  0  0
  150.5492  142.5126  157.7544 C   0  0  2  0  0  0  0  0  0  0  0  0
  151.5152  143.6771  158.0734 C   0  0  0  0  0  0  0  0  0  0  0  0
  151.8884  143.7358  159.4748 N   0  0  0  0  0  0  0  0  0  0  0  0
  152.5427  142.7856  160.2309 C   0  0  0  0  0  0  0  0  0  0  0  0
  152.6633  143.2867  161.4952 C   0  0  0  0  0  0  0  0  0  0  0  0
  152.0377  144.5623  161.4152 C   0  0  0  0  0  0  0  0  0  0  0  0
  151.5720  144.8268  160.2050 N   0  0  0  0  0  0  0  0  0  0  0  0
  150.3840  142.3507  156.2902 N   0  3  0  0  0  0  0  0  0  0  0  0
  149.6866  141.1209  155.8375 C   0  0  2  0  0  0  0  0  0  0  0  0
  150.7361  140.0600  155.4660 C   0  0  0  0  0  0  0  0  0  0  0  0
  148.7595  141.3984  154.6335 C   0  0  0  0  0  0  0  0  0  0  0  0
  149.2714  141.4627  153.5141 O   0  0  0  0  0  0  0  0  0  0  0  0
  147.4247  141.5574  154.8196 N   0  0  0  0  0  0  0  0  0  0  0  0
  146.7912  141.4687  156.1402 C   0  0  0  0  0  0  0  0  0  0  0  0
  146.1629  142.8317  156.4797 C   0  0  0  0  0  0  0  0  0  0  0  0
  145.2187  143.1837  155.4730 O   0  0  0  0  0  0  0  0  0  0  0  0
  145.7956  143.2600  154.1729 C   0  0  0  0  0  0  0  0  0  0  0  0
  146.4272  141.9058  153.8005 C   0  0  0  0  0  0  0  0  0  0  0  0
  149.2312  142.7253  159.4887 H   0  0  0  0  0  0  0  0  0  0  0  0
  148.4940  141.8893  158.1346 H   0  0  0  0  0  0  0  0  0  0  0  0
  148.7033  143.6380  158.0770 H   0  0  0  0  0  0  0  0  0  0  0  0
  150.9642  141.5888  158.1598 H   0  0  0  0  0  0  0  0  0  0  0  0
  152.4328  143.5986  157.4903 H   0  0  0  0  0  0  0  0  0  0  0  0
  151.0568  144.6287  157.8015 H   0  0  0  0  0  0  0  0  0  0  0  0
  152.8669  141.8442  159.8118 H   0  0  0  0  0  0  0  0  0  0  0  0
  153.1259  142.8130  162.3484 H   0  0  0  0  0  0  0  0  0  0  0  0
  151.9081  145.2980  162.1952 H   0  0  0  0  0  0  0  0  0  0  0  0
  149.8496  143.1356  155.9447 H   0  0  0  0  0  0  0  0  0  0  0  0
  149.1038  140.7584  156.6815 H   0  0  0  0  0  0  0  0  0  0  0  0
  150.2747  139.1231  155.1544 H   0  0  0  0  0  0  0  0  0  0  0  0
  151.3800  139.8344  156.3165 H   0  0  0  0  0  0  0  0  0  0  0  0
  151.3751  140.3995  154.6495 H   0  0  0  0  0  0  0  0  0  0  0  0
  146.0211  140.6959  156.1193 H   0  0  0  0  0  0  0  0  0  0  0  0
  147.4842  141.1794  156.9310 H   0  0  0  0  0  0  0  0  0  0  0  0
  145.6515  142.7830  157.4409 H   0  0  0  0  0  0  0  0  0  0  0  0
  146.9287  143.6047  156.5623 H   0  0  0  0  0  0  0  0  0  0  0  0
  145.0163  143.5220  153.4572 H   0  0  0  0  0  0  0  0  0  0  0  0
  146.5387  144.0583  154.1423 H   0  0  0  0  0  0  0  0  0  0  0  0
  146.8215  141.9713  152.7897 H   0  0  0  0  0  0  0  0  0  0  0  0
  145.6599  141.1306  153.7723 H   0  0  0  0  0  0  0  0  0  0  0  0
  151.3016  142.3801  155.8699 H   0  0  0  0  0  0  0  0  0  0  0  0
  1  2  1  0  0  0  0
  1 20  1  0  0  0  0
  1 21  1  0  0  0  0
  1 22  1  0  0  0  0
  2  3  1  0  0  0  0
  2  9  1  0  0  0  0
  2 23  1  0  0  0  0
  3  4  1  0  0  0  0
  3 24  1  0  0  0  0
  3 25  1  0  0  0  0
  4  8  1  0  0  0  0
  4  5  1  0  0  0  0
  5  6  2  0  0  0  0
  5 26  1  0  0  0  0
  6  7  1  0  0  0  0
  6 27  1  0  0  0  0
  7  8  2  0  0  0  0
  7 28  1  0  0  0  0
  9 10  1  0  0  0  0
  9 29  1  0  0  0  0
  9 42  1  0  0  0  0
 10 11  1  0  0  0  0
 10 12  1  0  0  0  0
 10 30  1  0  0  0  0
 11 31  1  0  0  0  0
 11 32  1  0  0  0  0
 11 33  1  0  0  0  0
 12 13  2  0  0  0  0
 12 14  1  0  0  0  0
 14 19  1  0  0  0  0
 14 15  1  0  0  0  0
 15 16  1  0  0  0  0
 15 34  1  0  0  0  0
 15 35  1  0  0  0  0
 16 17  1  0  0  0  0
 16 36  1  0  0  0  0
 16 37  1  0  0  0  0
 17 18  1  0  0  0  0
 18 19  1  0  0  0  0
 18 38  1  0  0  0  0
 18 39  1  0  0  0  0
 19 40  1  0  0  0  0
 19 41  1  0  0  0  0
M  CHG  1   9   1
M  END
> <s_m_source_file>
AV-unprocessed.smi

> <i_m_source_file_index>
3336

> <i_lp_mmshare_version>
43012

> <i_f3d_flags>
0

> <s_epik_input>
bjFbY0hdW2NIXVtjSF1uMVtDSDJdW0NAQEhdKFtDSDNdKVtOSF1bQ0BIXShbQ0gzXSlDKD1PKU4yW0NIMl1bQ0gyXU9bQ0gyXVtDSDJdMg==

> <s_epik_cmdline>
J2VwaWtfcHl0aG9uJywgJy1waCcsICc3LjAnLCAnLXRuJywgJzgnLCAnLW1hJywgJzIwMCcsICctbWV0YWxfYmluZGluZycsICctaW1hZScsICc8aW5maWxlLm1hZT4nLCAnLW9tYWUnLCAnPG91dGZpbGUubWFlPic=

> <r_lp_tautomer_probability>
1

> <r_epik_Ionization_Penalty>
0.200288

> <r_epik_Ionization_Penalty_Charging>
0.200285

> <r_epik_Ionization_Penalty_Neutral>
3.37705e-06

> <r_epik_State_Penalty>
0.190126

> <r_epik_Charging_Adjusted_Penalty>
0.39041

> <i_epik_Tot_Q>
1

> <i_epik_Tot_abs_Q>
1

> <r_epik_Metal_State_Penalty>
0.190133

> <b_epik_Metal_Only>
0

> <s_lp_Force_Field>
OPLS_2005

> <r_lp_Energy>
27.4401

> <b_lp_Chiralities_Consistent>
1

> <s_lp_Variant>
AV-unprocessed.smi:3336-1

> <Gold.Version>
5.8.1

> <Gold.Id.Protein>
6NUR|6NUR_protein|mol2

> <Gold.PLP.Fitness>
47.7886

> <Gold.PLP.PLP>
-41.3842

> <Gold.PLP.part.hbond>
-2.7355

> <Gold.PLP.part.metal>
0.0000

> <Gold.PLP.part.buried>
-6.0947

> <Gold.PLP.part.nonpolar>
-35.7334

> <Gold.PLP.part.repulsive>
3.0064

> <Gold.PLP.ligand.clash>
0.0000

> <Gold.PLP.ligand.torsion>
1.1494

> <Gold.PLP.Chemscore.Hbond>
2.8800

> <Gold.PLP.Chemscore.CHOScore>
0.0000

> <Gold.PLP.Chemscore.Metal>
0.0000

> <Gold.Chemscore.Hbonds>
donor molecule, donor type, donor heavy atom, donor atom, acceptor molecule, acceptor atom, score
      L1  H     9    29       P1  8028  2.00
      P1  H  7989  7998       L1    13  0.01
      P1  H  8011  8017       L1    13  0.88

> <Gold.PLP.Chemscore.Internal.Correction>
0.0632

> <Gold.Rescore>
     Score         DG    S(hbond)    S(metal)    S(lipo)     H(rot)  DE(clash)    DE(int)     intcor
     14.94     -16.55       1.74        0.00      85.57       1.85       0.48       1.14       ----

> <Gold.Chemscore.Fitness>
14.9351

> <Gold.Chemscore.DG>
-16.5523

> <Gold.Chemscore.ZeroCoef>
-5.4800

> <Gold.Chemscore.Hbond>
1.7386

> <Gold.Chemscore.Metal>
0.0000

> <Gold.Chemscore.Lipo>
85.5733

> <Gold.Chemscore.Internal_Hbond>
0.0000

> <Gold.Chemscore.DEClash>
0.4770

> <Gold.Chemscore.DEInternal>
1.1403

> <Gold.Chemscore.Rot>
1.8541

> <Gold.Chemscore.Internal.Correction>
   9.000000E+99

> <Gold.Chemscore.Hbonds>
donor molecule, donor type, donor heavy atom, donor atom, acceptor molecule, acceptor atom, score
      L1  H     9    29       P1  8028  1.00
      P1  H  7989  7998       L1    13  0.01
      P1  H  8011  8017       L1    13  0.85

> <Gold.Chemscore.Hbond.Weighted>
-5.8068

> <Gold.Chemscore.Metal.Weighted>
-0.0000

> <Gold.Chemscore.Lipo.Weighted>
-10.0121

> <Gold.Chemscore.Internal_Hbond.Weighted>
0.0000

> <Gold.Chemscore.DEClash.Weighted>
0.4770

> <Gold.Chemscore.DEInternal.Weighted>
1.1403

> <Gold.Chemscore.Rot.Weighted>
4.7465

> <Gold.Chemscore.Internal.Correction.Weighted>
   9.000000E+99

> <Gold.Protein.RotatedTorsions>
[ 6907 6896 6895 6894 ] final  -32.75 input  -60.11 | X-H torsion
[ 7974 7965 7964 7962 ] final  169.38 input  175.53 | X-H torsion
[ 8008 7997 7996 7995 ] final   30.76 input   59.86 | X-H torsion
[ 10167 10162 10161 10158 ] final   24.84 input  -65.29 | X-H torsion
[ 10718 10713 10712 10709 ] final   48.05 input   66.30 | X-H torsion
[ 10763 10752 10751 10750 ] final  121.38 input  -60.55 | X-H torsion
[ 11005 11000 10999 10996 ] final -176.40 input  -57.11 | X-H torsion

> <Gold.Protein.ActiveResidues>
 VAL166  LYS551  ARG553  GLY616  TRP617  ASP618  TYR619  PRO620  LYS621  CYS622 
 ASP623  PHE694  ASN695  SER759  ASP760  ASP761  ALA762  ILE779  LEU786  VAL792 
 PHE793  MET794  SER795  GLU796  ALA797  LYS798  CYS799  TRP800  GLU811  SER814 

> <Gold.Protein.RotatedAtoms>
  151.0746  134.9820  159.8325 H   0  0  0  0  0  0  0  0  0  0  0  0  # atno 6907 bound_to 6896
  152.5412  134.2256  159.8815 H   0  0  0  0  0  0  0  0  0  0  0  0  # atno 6908 bound_to 6896
  151.2283  133.4421  159.2636 H   0  0  0  0  0  0  0  0  0  0  0  0  # atno 6909 bound_to 6896
  144.7357  139.9046  143.6411 H   0  0  0  0  0  0  0  0  0  0  0  0  # atno 7974 bound_to 7965
  155.0956  140.3224  155.4561 H   0  0  0  0  0  0  0  0  0  0  0  0  # atno 8008 bound_to 7997
  156.2731  140.2070  156.6029 H   0  0  0  0  0  0  0  0  0  0  0  0  # atno 8009 bound_to 7997
  154.6869  140.0520  157.0311 H   0  0  0  0  0  0  0  0  0  0  0  0  # atno 8010 bound_to 7997
  140.5155  144.0090  150.6392 H   0  0  0  0  0  0  0  0  0  0  0  0  # atno 10167 bound_to 10162
  157.4647  130.8218  149.7923 H   0  0  0  0  0  0  0  0  0  0  0  0  # atno 10718 bound_to 10713
  153.6132  135.3427  155.2985 H   0  0  0  0  0  0  0  0  0  0  0  0  # atno 10763 bound_to 10752
  154.8614  135.4255  154.2288 H   0  0  0  0  0  0  0  0  0  0  0  0  # atno 10764 bound_to 10752
  153.3143  135.7034  153.7160 H   0  0  0  0  0  0  0  0  0  0  0  0  # atno 10765 bound_to 10752
  140.4525  134.6330  157.4807 H   0  0  0  0  0  0  0  0  0  0  0  0  # atno 11005 bound_to 11000
  146.1046  139.4044  143.0325 LP  0  0  0  0  0  0  0  0  0  0  0  0  # atno 17320 bound_to 7965
  145.7530  140.9965  143.1240 LP  0  0  0  0  0  0  0  0  0  0  0  0  # atno 17321 bound_to 7965
  140.3424  143.3011  152.0574 LP  0  0  0  0  0  0  0  0  0  0  0  0  # atno 17342 bound_to 10162
  139.4908  144.6433  151.6832 LP  0  0  0  0  0  0  0  0  0  0  0  0  # atno 17343 bound_to 10162
  156.0045  130.3863  150.2483 LP  0  0  0  0  0  0  0  0  0  0  0  0  # atno 17370 bound_to 10713
  157.0662  131.0104  151.3206 LP  0  0  0  0  0  0  0  0  0  0  0  0  # atno 17371 bound_to 10713
  139.9997  134.6855  155.9550 LP  0  0  0  0  0  0  0  0  0  0  0  0  # atno 17394 bound_to 11000
  141.1658  133.6537  156.4474 LP  0  0  0  0  0  0  0  0  0  0  0  0  # atno 17395 bound_to 11000

$$$$
