#       Name:                AV-unprocessed.smi:2531
#       Creating user name   scv26
#       Creation time:       Fri Mar 27 14:00:30 2020


#       File generated by GOLD software.
#

@<TRIPOS>MOLECULE
AV-unprocessed.smi:2531
    50    52     1
SMALL
NO_CHARGES


@<TRIPOS>ATOM
      1 ****        -2.1818   2.5045  -2.7929 O.2            1 S1                 0.0000
      2 ****        -2.5847   2.2202  -1.6642 C.2            1 S1                 0.0000
      3 ****        -4.0959   2.1106  -1.3573 C.3            1 S1                 0.0000
      4 ****        -4.9982   2.4300  -2.5616 C.3            1 S1                 0.0000
      5 ****        -5.1779   3.9541  -2.5592 C.3            1 S1                 0.0000
      6 ****        -4.8704   4.4199  -1.1278 C.3            1 S1                 0.0000
      7 ****        -4.5504   3.1531  -0.3239 C.3            1 S1                 0.0000
      8 ****        -1.6904   1.9068  -0.6359 N.am           1 S1                 0.0000
      9 ****        -1.9500   0.8355   0.3141 C.3            1 S1                 0.0000
     10 ****        -0.4254   0.7112   0.4148 C.3            1 S1                 0.0000
     11 ****         0.1515  -1.0433   0.3622 S.o2           1 S1                 0.0000
     12 ****        -0.4491  -1.7638   1.4954 O.2            1 S1                 0.0000
     13 ****         0.0130  -1.5777  -1.0013 O.2            1 S1                 0.0000
     14 ****         1.8368  -0.8858   0.6834 N.3            1 S1                 0.0000
     15 ****         2.5872  -2.1006   0.9950 C.3            1 S1                 0.0000
     16 ****         4.0781  -1.7782   1.1625 C.3            1 S1                 0.0000
     17 ****         4.9003  -3.0138   1.4764 C.ar           1 S1                 0.0000
     18 ****         5.3003  -3.2970   2.7999 C.ar           1 S1                 0.0000
     19 ****         6.0568  -4.4611   3.0373 C.ar           1 S1                 0.0000
     20 ****         6.3812  -5.2932   1.9486 C.ar           1 S1                 0.0000
     21 ****         5.9327  -4.9228   0.6651 C.ar           1 S1                 0.0000
     22 ****         5.2074  -3.8088   0.4264 N.ar           1 S1                 0.0000
     23 ****        -0.3367   1.4578  -0.9237 C.3            1 S1                 0.0000
     24 ****        -4.3040   1.0998  -1.0060 H              1 S1                 0.0000
     25 ****        -4.6133   2.0596  -3.5128 H              1 S1                 0.0000
     26 ****        -5.9680   1.9530  -2.4128 H              1 S1                 0.0000
     27 ****        -4.4793   4.4177  -3.2568 H              1 S1                 0.0000
     28 ****        -6.1843   4.2342  -2.8720 H              1 S1                 0.0000
     29 ****        -4.0061   5.0850  -1.1368 H              1 S1                 0.0000
     30 ****        -5.7016   4.9721  -0.6885 H              1 S1                 0.0000
     31 ****        -5.4552   2.7961   0.1695 H              1 S1                 0.0000
     32 ****        -3.8170   3.3439   0.4608 H              1 S1                 0.0000
     33 ****        -2.4411   1.1613   1.2316 H              1 S1                 0.0000
     34 ****        -2.4262  -0.0395  -0.1329 H              1 S1                 0.0000
     35 ****        -0.0066   1.2530   1.2645 H              1 S1                 0.0000
     36 ****         2.2962  -0.3570  -0.0577 H              1 S1                 0.0000
     37 ****         2.1885  -2.5457   1.9072 H              1 S1                 0.0000
     38 ****         2.4428  -2.8224   0.1901 H              1 S1                 0.0000
     39 ****         4.4671  -1.3182   0.2528 H              1 S1                 0.0000
     40 ****         4.2140  -1.0451   1.9591 H              1 S1                 0.0000
     41 ****         5.0338  -2.6406   3.6153 H              1 S1                 0.0000
     42 ****         6.3813  -4.7115   4.0365 H              1 S1                 0.0000
     43 ****         6.9590  -6.1941   2.0934 H              1 S1                 0.0000
     44 ****         6.1624  -5.5376  -0.1926 H              1 S1                 0.0000
     45 ****        -0.2747   0.8142  -1.8028 H              1 S1                 0.0000
     46 ****         0.3981   2.2629  -0.9442 H              1 S1                 0.0000
     47 ****        -2.8364   2.6692  -3.5307 LP             1 S1                 0.0000
     48 ****        -1.2001   2.5707  -2.9714 LP             1 S1                 0.0000
     49 ****         1.8544  -0.3859   1.5494 LP             1 S1                 0.0000
     50 ****         4.9065  -3.5787  -0.4990 LP             1 S1                 0.0000
@<TRIPOS>BOND
    1    1    2 2     
    2    2    3 1     
    3    2    8 am    
    4    3    7 1     
    5    3    4 1     
    6    3   24 1     
    7    4    5 1     
    8    4   25 1     
    9    4   26 1     
   10    5    6 1     
   11    5   27 1     
   12    5   28 1     
   13    6    7 1     
   14    6   29 1     
   15    6   30 1     
   16    7   31 1     
   17    7   32 1     
   18    8   23 1     
   19    8    9 1     
   20    9   10 1     
   21    9   33 1     
   22    9   34 1     
   23   10   11 1     
   24   10   23 1     
   25   10   35 1     
   26   11   12 2     
   27   11   13 2     
   28   11   14 1     
   29   14   15 1     
   30   14   36 1     
   31   15   16 1     
   32   15   37 1     
   33   15   38 1     
   34   16   17 1     
   35   16   39 1     
   36   16   40 1     
   37   17   22 ar    
   38   17   18 ar    
   39   18   19 ar    
   40   18   41 1     
   41   19   20 ar    
   42   19   42 1     
   43   20   21 ar    
   44   20   43 1     
   45   21   22 ar    
   46   21   44 1     
   47   23   45 1     
   48   23   46 1     
   49    1   47 1     
   50    1   48 1     
   51   14   49 1     
   52   22   50 1     
@<TRIPOS>SUBSTRUCTURE
      1 S1             1
@<TRIPOS>SET
LONE_PAIRS      STATIC     ATOMS    <user>   **** ""
6 47 48 12 13 49 50
DONOR_HYDROGENS      STATIC     ATOMS    <user>   **** ""
1 36
ATOM$BLUE        STATIC     ATOMS    COLORGROUP SYSTEM
6 47 48 12 13 49 50
ATOM$RED        STATIC     ATOMS    COLORGROUP SYSTEM
1 36
