AV-unprocessed.smi:1013|AV-procd|sdf|4426|dock2
  -GOLD-   22720 2383D 1   1.00000     0.00000
 Structure written by MMmdl.
 30 31  0  0  0  0  0  0  0  0  3 V2000
  151.4893  139.6740  154.4059 O   0  0  0  0  0  0  0  0  0  0  0  0
  151.9055  140.0358  155.5281 C   0  0  0  0  0  0  0  0  0  0  0  0
  153.0661  139.8519  155.9605 O   0  5  0  0  0  0  0  0  0  0  0  0
  150.8980  140.7513  156.4475 C   0  0  2  0  0  0  0  0  0  0  0  0
  151.0147  140.2425  157.9026 C   0  0  0  0  0  0  0  0  0  0  0  0
  151.4867  141.2668  158.8192 N   0  0  0  0  0  0  0  0  0  0  0  0
  152.4690  141.1702  159.7809 C   0  0  0  0  0  0  0  0  0  0  0  0
  152.5599  142.3878  160.3912 C   0  0  0  0  0  0  0  0  0  0  0  0
  151.5833  143.1836  159.7245 C   0  0  0  0  0  0  0  0  0  0  0  0
  151.2256  144.6256  159.9711 C   0  0  0  0  0  0  0  0  0  0  0  0
  151.8782  145.0871  161.0380 F   0  0  0  0  0  0  0  0  0  0  0  0
  151.5595  145.3638  158.9127 F   0  0  0  0  0  0  0  0  0  0  0  0
  149.9155  144.7410  160.1865 F   0  0  0  0  0  0  0  0  0  0  0  0
  150.9505  142.5045  158.7771 N   0  0  0  0  0  0  0  0  0  0  0  0
  149.5259  140.5215  155.9442 N   0  3  0  0  0  0  0  0  0  0  0  0
  149.1742  141.2972  154.7368 C   0  0  0  0  0  0  0  0  0  0  0  0
  147.7421  141.7715  154.7127 C   0  0  0  0  0  0  0  0  0  0  0  0
  148.1693  140.5981  153.8552 C   0  0  0  0  0  0  0  0  0  0  0  0
  151.0813  141.8280  156.4399 H   0  0  0  0  0  0  0  0  0  0  0  0
  150.0373  139.9138  158.2578 H   0  0  0  0  0  0  0  0  0  0  0  0
  151.6693  139.3708  157.9650 H   0  0  0  0  0  0  0  0  0  0  0  0
  153.0114  140.2525  159.9533 H   0  0  0  0  0  0  0  0  0  0  0  0
  153.2233  142.6688  161.1955 H   0  0  0  0  0  0  0  0  0  0  0  0
  149.4299  139.5356  155.7449 H   0  0  0  0  0  0  0  0  0  0  0  0
  149.9702  141.8883  154.2876 H   0  0  0  0  0  0  0  0  0  0  0  0
  147.1172  141.5629  155.5793 H   0  0  0  0  0  0  0  0  0  0  0  0
  147.5345  142.7112  154.2048 H   0  0  0  0  0  0  0  0  0  0  0  0
  148.2401  140.7654  152.7824 H   0  0  0  0  0  0  0  0  0  0  0  0
  147.8227  139.6088  154.1495 H   0  0  0  0  0  0  0  0  0  0  0  0
  148.8753  140.7721  156.6739 H   0  0  0  0  0  0  0  0  0  0  0  0
  1  2  2  0  0  0  0
  2  3  1  0  0  0  0
  2  4  1  0  0  0  0
  4  5  1  0  0  0  0
  4 15  1  0  0  0  0
  4 19  1  0  0  0  0
  5  6  1  0  0  0  0
  5 20  1  0  0  0  0
  5 21  1  0  0  0  0
  6 14  1  0  0  0  0
  6  7  1  0  0  0  0
  7  8  2  0  0  0  0
  7 22  1  0  0  0  0
  8  9  1  0  0  0  0
  8 23  1  0  0  0  0
  9 10  1  0  0  0  0
  9 14  2  0  0  0  0
 10 11  1  0  0  0  0
 10 12  1  0  0  0  0
 10 13  1  0  0  0  0
 15 16  1  0  0  0  0
 15 24  1  0  0  0  0
 15 30  1  0  0  0  0
 16 18  1  0  0  0  0
 16 17  1  0  0  0  0
 16 25  1  0  0  0  0
 17 18  1  0  0  0  0
 17 26  1  0  0  0  0
 17 27  1  0  0  0  0
 18 28  1  0  0  0  0
 18 29  1  0  0  0  0
M  CHG  1   3  -1
M  CHG  1  15   1
M  END
> <s_m_source_file>
AV-unprocessed.smi

> <i_m_source_file_index>
1013

> <i_lp_mmshare_version>
43012

> <i_f3d_flags>
0

> <s_epik_input>
W0NIMl0xW0NIMl1bQ0hdMVtOSF1bQ0BIXShDKD1PKVtPSF0pW0NIMl1uMltjSF1bY0hdYyhuMilDKEYpKEYpRg==

> <s_epik_cmdline>
J2VwaWtfcHl0aG9uJywgJy1waCcsICc3LjAnLCAnLXRuJywgJzgnLCAnLW1hJywgJzIwMCcsICctbWV0YWxfYmluZGluZycsICctaW1hZScsICc8aW5maWxlLm1hZT4nLCAnLW9tYWUnLCAnPG91dGZpbGUubWFlPic=

> <r_lp_tautomer_probability>
1

> <r_epik_Ionization_Penalty>
0.183175

> <r_epik_Ionization_Penalty_Charging>
0.183175

> <r_epik_Ionization_Penalty_Neutral>
3.57035e-11

> <r_epik_State_Penalty>
0.172705

> <r_epik_Charging_Adjusted_Penalty>
0.35588

> <i_epik_Tot_Q>
0

> <i_epik_Tot_abs_Q>
2

> <r_epik_Metal_State_Penalty>
0.172705

> <b_epik_Metal_Only>
0

> <s_lp_Force_Field>
OPLS_2005

> <r_lp_Energy>
11.6824

> <b_lp_Chiralities_Consistent>
1

> <s_lp_Variant>
AV-unprocessed.smi:1013-1

> <Gold.Version>
5.8.1

> <Gold.Id.Protein>
6NUR|6NUR_protein|mol2

> <Gold.PLP.Fitness>
47.1278

> <Gold.PLP.PLP>
-41.4601

> <Gold.PLP.part.hbond>
-2.0000

> <Gold.PLP.part.metal>
0.0000

> <Gold.PLP.part.buried>
-4.2265

> <Gold.PLP.part.nonpolar>
-35.9088

> <Gold.PLP.part.repulsive>
0.2076

> <Gold.PLP.ligand.clash>
0.0000

> <Gold.PLP.ligand.torsion>
2.0134

> <Gold.PLP.Chemscore.Hbond>
3.0000

> <Gold.PLP.Chemscore.CHOScore>
0.0000

> <Gold.PLP.Chemscore.Metal>
0.0000

> <Gold.Chemscore.Hbonds>
donor molecule, donor type, donor heavy atom, donor atom, acceptor molecule, acceptor atom, score
      P1  H  7989  7998       L1     1  0.93
      P1  H  7997  8008       L1     3  1.01

> <Gold.PLP.Chemscore.Internal.Correction>
0.6945

> <Gold.Rescore>
     Score         DG    S(hbond)    S(metal)    S(lipo)     H(rot)  DE(clash)    DE(int)     intcor
     11.03     -13.61       1.94        0.00      70.90       2.60       0.19       2.40       ----

> <Gold.Chemscore.Fitness>
11.0269

> <Gold.Chemscore.DG>
-13.6139

> <Gold.Chemscore.ZeroCoef>
-5.4800

> <Gold.Chemscore.Hbond>
1.9422

> <Gold.Chemscore.Metal>
0.0000

> <Gold.Chemscore.Lipo>
70.9012

> <Gold.Chemscore.Internal_Hbond>
0.0000

> <Gold.Chemscore.DEClash>
0.1851

> <Gold.Chemscore.DEInternal>
2.4019

> <Gold.Chemscore.Rot>
2.5970

> <Gold.Chemscore.Internal.Correction>
   9.000000E+99

> <Gold.Chemscore.Hbonds>
donor molecule, donor type, donor heavy atom, donor atom, acceptor molecule, acceptor atom, score
      P1  H  7989  7998       L1     1  0.53
      P1  H  7997  8008       L1     3  0.52

> <Gold.Chemscore.Hbond.Weighted>
-6.4868

> <Gold.Chemscore.Metal.Weighted>
-0.0000

> <Gold.Chemscore.Lipo.Weighted>
-8.2954

> <Gold.Chemscore.Internal_Hbond.Weighted>
0.0000

> <Gold.Chemscore.DEClash.Weighted>
0.1851

> <Gold.Chemscore.DEInternal.Weighted>
2.4019

> <Gold.Chemscore.Rot.Weighted>
6.6484

> <Gold.Chemscore.Internal.Correction.Weighted>
   9.000000E+99

> <Gold.Protein.RotatedTorsions>
[ 6907 6896 6895 6894 ] final -137.98 input  -60.11 | X-H torsion
[ 7974 7965 7964 7962 ] final -154.65 input  175.53 | X-H torsion
[ 8008 7997 7996 7995 ] final  -33.76 input   59.86 | X-H torsion
[ 10167 10162 10161 10158 ] final  -93.16 input  -65.29 | X-H torsion
[ 10718 10713 10712 10709 ] final  -55.09 input   66.30 | X-H torsion
[ 10763 10752 10751 10750 ] final  151.43 input  -60.55 | X-H torsion
[ 11005 11000 10999 10996 ] final  126.30 input  -57.11 | X-H torsion

> <Gold.Protein.ActiveResidues>
 VAL166  LYS551  ARG553  GLY616  TRP617  ASP618  TYR619  PRO620  LYS621  CYS622 
 ASP623  PHE694  ASN695  SER759  ASP760  ASP761  ALA762  ILE779  LEU786  VAL792 
 PHE793  MET794  SER795  GLU796  ALA797  LYS798  CYS799  TRP800  GLU811  SER814 

> <Gold.Protein.RotatedAtoms>
  151.0293  133.5805  159.2662 H   0  0  0  0  0  0  0  0  0  0  0  0  # atno 6907 bound_to 6896
  151.2893  135.0736  159.9208 H   0  0  0  0  0  0  0  0  0  0  0  0  # atno 6908 bound_to 6896
  152.5341  133.9994  159.7942 H   0  0  0  0  0  0  0  0  0  0  0  0  # atno 6909 bound_to 6896
  144.7679  140.4359  143.5929 H   0  0  0  0  0  0  0  0  0  0  0  0  # atno 7974 bound_to 7965
  154.4139  140.1702  156.1940 H   0  0  0  0  0  0  0  0  0  0  0  0  # atno 8008 bound_to 7997
  155.9579  140.3396  155.6441 H   0  0  0  0  0  0  0  0  0  0  0  0  # atno 8009 bound_to 7997
  155.6786  140.0720  157.2484 H   0  0  0  0  0  0  0  0  0  0  0  0  # atno 8010 bound_to 7997
  140.3275  143.3014  151.9979 H   0  0  0  0  0  0  0  0  0  0  0  0  # atno 10167 bound_to 10162
  156.1397  130.4155  150.0125 H   0  0  0  0  0  0  0  0  0  0  0  0  # atno 10718 bound_to 10713
  154.1037  135.2844  155.3246 H   0  0  0  0  0  0  0  0  0  0  0  0  # atno 10763 bound_to 10752
  154.6538  135.5359  153.7937 H   0  0  0  0  0  0  0  0  0  0  0  0  # atno 10764 bound_to 10752
  153.0370  135.6516  154.1199 H   0  0  0  0  0  0  0  0  0  0  0  0  # atno 10765 bound_to 10752
  139.9449  134.9631  156.8686 H   0  0  0  0  0  0  0  0  0  0  0  0  # atno 11005 bound_to 11000
  145.6414  139.1550  143.2913 LP  0  0  0  0  0  0  0  0  0  0  0  0  # atno 17320 bound_to 7965
  146.1802  140.6510  142.9193 LP  0  0  0  0  0  0  0  0  0  0  0  0  # atno 17321 bound_to 7965
  139.4862  144.6262  151.7160 LP  0  0  0  0  0  0  0  0  0  0  0  0  # atno 17342 bound_to 10162
  140.5428  144.0552  150.6095 LP  0  0  0  0  0  0  0  0  0  0  0  0  # atno 17343 bound_to 10162
  156.8014  130.9292  151.3646 LP  0  0  0  0  0  0  0  0  0  0  0  0  # atno 17370 bound_to 10713
  157.6564  130.8928  149.9738 LP  0  0  0  0  0  0  0  0  0  0  0  0  # atno 17371 bound_to 10713
  140.5860  134.0307  155.7481 LP  0  0  0  0  0  0  0  0  0  0  0  0  # atno 17394 bound_to 11000
  141.1096  133.9638  157.2934 LP  0  0  0  0  0  0  0  0  0  0  0  0  # atno 17395 bound_to 11000

$$$$
