AV-unprocessed.smi:1040|AV-procd|sdf|4524|dock10
  -GOLD-   22720 2543D 1   1.00000     0.00000
 Structure written by MMmdl.
 54 55  0  0  0  0  0  0  0  0  1 V2000
  148.5673  134.9515  158.1720 C   0  0  0  0  0  0  0  0  0  0  0  0
  147.5781  136.1076  158.3962 C   0  0  2  0  0  0  0  0  0  0  0  0
  148.1254  137.3026  157.7557 N   0  0  0  0  0  0  0  0  0  0  0  0
  147.4823  138.0644  156.8581 C   0  0  0  0  0  0  0  0  0  0  0  0
  146.3429  137.8233  156.4608 O   0  0  0  0  0  0  0  0  0  0  0  0
  148.2472  139.1017  156.4777 N   0  0  0  0  0  0  0  0  0  0  0  0
  147.9815  140.1560  155.5529 C   0  0  0  0  0  0  0  0  0  0  0  0
  146.7227  140.7958  155.4277 C   0  0  0  0  0  0  0  0  0  0  0  0
  146.5694  141.8364  154.4939 C   0  0  0  0  0  0  0  0  0  0  0  0
  147.6787  142.2051  153.7141 C   0  0  0  0  0  0  0  0  0  0  0  0
  148.8810  141.6043  153.8137 N   0  0  0  0  0  0  0  0  0  0  0  0
  149.0370  140.5984  154.7088 C   0  0  0  0  0  0  0  0  0  0  0  0
  150.3012  139.9784  154.7650 N   0  0  0  0  0  0  0  0  0  0  0  0
  151.0179  140.2337  156.0131 C   0  0  0  0  0  0  0  0  0  0  0  0
  152.4996  139.8424  155.8802 C   0  0  0  0  0  0  0  0  0  0  0  0
  152.6444  138.3883  155.4028 C   0  0  0  0  0  0  0  0  0  0  0  0
  151.8465  138.1692  154.1070 C   0  0  0  0  0  0  0  0  0  0  0  0
  150.3802  138.5994  154.2842 C   0  0  0  0  0  0  0  0  0  0  0  0
  147.4342  136.3256  159.9106 C   0  0  0  0  0  0  0  0  0  0  0  0
  147.8099  137.3799  160.4250 O   0  0  0  0  0  0  0  0  0  0  0  0
  146.9013  135.3020  160.6011 N   0  0  0  0  0  0  0  0  0  0  0  0
  146.6456  135.2084  162.0433 C   0  0  0  0  0  0  0  0  0  0  0  0
  145.2313  135.7646  162.2843 C   0  0  0  0  0  0  0  0  0  0  0  0
  147.6597  136.0610  162.8353 C   0  0  0  0  0  0  0  0  0  0  0  0
  146.6919  133.7374  162.5067 C   0  0  0  0  0  0  0  0  0  0  0  0
  148.2107  134.0300  158.6343 H   0  0  0  0  0  0  0  0  0  0  0  0
  149.5521  135.1720  158.5869 H   0  0  0  0  0  0  0  0  0  0  0  0
  148.6967  134.7507  157.1082 H   0  0  0  0  0  0  0  0  0  0  0  0
  146.6127  135.8549  157.9530 H   0  0  0  0  0  0  0  0  0  0  0  0
  149.0556  137.5786  158.0332 H   0  0  0  0  0  0  0  0  0  0  0  0
  149.1478  139.1625  156.9301 H   0  0  0  0  0  0  0  0  0  0  0  0
  145.8663  140.5178  156.0194 H   0  0  0  0  0  0  0  0  0  0  0  0
  145.6216  142.3411  154.3794 H   0  0  0  0  0  0  0  0  0  0  0  0
  147.5981  143.0006  152.9882 H   0  0  0  0  0  0  0  0  0  0  0  0
  150.9389  141.2835  156.2971 H   0  0  0  0  0  0  0  0  0  0  0  0
  150.5500  139.6565  156.8120 H   0  0  0  0  0  0  0  0  0  0  0  0
  152.9902  140.5105  155.1710 H   0  0  0  0  0  0  0  0  0  0  0  0
  153.0087  139.9758  156.8351 H   0  0  0  0  0  0  0  0  0  0  0  0
  153.6956  138.1462  155.2443 H   0  0  0  0  0  0  0  0  0  0  0  0
  152.2798  137.7110  156.1762 H   0  0  0  0  0  0  0  0  0  0  0  0
  152.2990  138.7438  153.2978 H   0  0  0  0  0  0  0  0  0  0  0  0
  151.8949  137.1218  153.8086 H   0  0  0  0  0  0  0  0  0  0  0  0
  149.8849  137.9367  154.9955 H   0  0  0  0  0  0  0  0  0  0  0  0
  149.8504  138.5078  153.3350 H   0  0  0  0  0  0  0  0  0  0  0  0
  146.6353  134.4907  160.0621 H   0  0  0  0  0  0  0  0  0  0  0  0
  144.9684  135.7369  163.3424 H   0  0  0  0  0  0  0  0  0  0  0  0
  144.4785  135.1876  161.7456 H   0  0  0  0  0  0  0  0  0  0  0  0
  145.1492  136.8010  161.9540 H   0  0  0  0  0  0  0  0  0  0  0  0
  147.6637  137.0957  162.4900 H   0  0  0  0  0  0  0  0  0  0  0  0
  148.6767  135.6796  162.7463 H   0  0  0  0  0  0  0  0  0  0  0  0
  147.4167  136.0717  163.8983 H   0  0  0  0  0  0  0  0  0  0  0  0
  146.4112  133.6479  163.5567 H   0  0  0  0  0  0  0  0  0  0  0  0
  147.6879  133.3065  162.4051 H   0  0  0  0  0  0  0  0  0  0  0  0
  146.0041  133.1179  161.9299 H   0  0  0  0  0  0  0  0  0  0  0  0
  1  2  1  0  0  0  0
  1 26  1  0  0  0  0
  1 27  1  0  0  0  0
  1 28  1  0  0  0  0
  2  3  1  0  0  0  0
  2 19  1  0  0  0  0
  2 29  1  0  0  0  0
  3  4  1  0  0  0  0
  3 30  1  0  0  0  0
  4  5  2  0  0  0  0
  4  6  1  0  0  0  0
  6  7  1  0  0  0  0
  6 31  1  0  0  0  0
  7 12  1  0  0  0  0
  7  8  2  0  0  0  0
  8  9  1  0  0  0  0
  8 32  1  0  0  0  0
  9 10  2  0  0  0  0
  9 33  1  0  0  0  0
 10 11  1  0  0  0  0
 10 34  1  0  0  0  0
 11 12  2  0  0  0  0
 12 13  1  0  0  0  0
 13 18  1  0  0  0  0
 13 14  1  0  0  0  0
 14 15  1  0  0  0  0
 14 35  1  0  0  0  0
 14 36  1  0  0  0  0
 15 16  1  0  0  0  0
 15 37  1  0  0  0  0
 15 38  1  0  0  0  0
 16 17  1  0  0  0  0
 16 39  1  0  0  0  0
 16 40  1  0  0  0  0
 17 18  1  0  0  0  0
 17 41  1  0  0  0  0
 17 42  1  0  0  0  0
 18 43  1  0  0  0  0
 18 44  1  0  0  0  0
 19 20  2  0  0  0  0
 19 21  1  0  0  0  0
 21 22  1  0  0  0  0
 21 45  1  0  0  0  0
 22 23  1  0  0  0  0
 22 24  1  0  0  0  0
 22 25  1  0  0  0  0
 23 46  1  0  0  0  0
 23 47  1  0  0  0  0
 23 48  1  0  0  0  0
 24 49  1  0  0  0  0
 24 50  1  0  0  0  0
 24 51  1  0  0  0  0
 25 52  1  0  0  0  0
 25 53  1  0  0  0  0
 25 54  1  0  0  0  0
M  END
> <s_m_source_file>
AV-unprocessed.smi

> <i_m_source_file_index>
1040

> <i_lp_mmshare_version>
43012

> <i_f3d_flags>
0

> <s_epik_input>
W0NIM11DKFtDSDNdKShbQ0gzXSlbTkhdQyg9TylbQ0BIXShbQ0gzXSlbTkhdQyg9TylbTkhdYzFbY0hdW2NIXVtjSF1uYzFOMltDSDJdW0NIMl1bQ0gyXVtDSDJdW0NIMl0y

> <s_epik_cmdline>
J2VwaWtfcHl0aG9uJywgJy1waCcsICc3LjAnLCAnLXRuJywgJzgnLCAnLW1hJywgJzIwMCcsICctbWV0YWxfYmluZGluZycsICctaW1hZScsICc8aW5maWxlLm1hZT4nLCAnLW9tYWUnLCAnPG91dGZpbGUubWFlPic=

> <r_lp_tautomer_probability>
1

> <r_epik_Ionization_Penalty>
0.0878593

> <r_epik_Ionization_Penalty_Charging>
0

> <r_epik_Ionization_Penalty_Neutral>
0.0878593

> <r_epik_State_Penalty>
0.07381

> <r_epik_Charging_Adjusted_Penalty>
0.07381

> <i_epik_Tot_Q>
0

> <i_epik_Tot_abs_Q>
0

> <r_epik_Metal_State_Penalty>
0.0646628

> <b_epik_Metal_Only>
0

> <s_lp_Force_Field>
OPLS_2005

> <r_lp_Energy>
21.1097

> <b_lp_Chiralities_Consistent>
1

> <s_lp_Variant>
AV-unprocessed.smi:1040-1

> <Gold.Version>
5.8.1

> <Gold.Id.Protein>
6NUR|6NUR_protein|mol2

> <Gold.PLP.Fitness>
45.9779

> <Gold.PLP.PLP>
-39.0121

> <Gold.PLP.part.hbond>
-4.1282

> <Gold.PLP.part.metal>
0.0000

> <Gold.PLP.part.buried>
-3.4239

> <Gold.PLP.part.nonpolar>
-31.0586

> <Gold.PLP.part.repulsive>
0.3464

> <Gold.PLP.ligand.clash>
0.0000

> <Gold.PLP.ligand.torsion>
1.0435

> <Gold.PLP.Chemscore.Hbond>
2.9224

> <Gold.PLP.Chemscore.CHOScore>
0.0000

> <Gold.PLP.Chemscore.Metal>
0.0000

> <Gold.Chemscore.Hbonds>
donor molecule, donor type, donor heavy atom, donor atom, acceptor molecule, acceptor atom, score
      P1  H  6931  6943       L1    20  0.54
      P1  H  6934  6947       L1    20  0.82
      P1  H  7989  7998       L1    13  0.88
      P1  H  8011  8017       L1    11  0.67

> <Gold.PLP.Chemscore.Internal.Correction>
0.2856

> <Gold.Rescore>
     Score         DG    S(hbond)    S(metal)    S(lipo)     H(rot)  DE(clash)    DE(int)     intcor
     14.48     -18.12       1.73        0.00      93.89       1.61       0.23       3.42       ----

> <Gold.Chemscore.Fitness>
14.4785

> <Gold.Chemscore.DG>
-18.1210

> <Gold.Chemscore.ZeroCoef>
-5.4800

> <Gold.Chemscore.Hbond>
1.7329

> <Gold.Chemscore.Metal>
0.0000

> <Gold.Chemscore.Lipo>
93.8939

> <Gold.Chemscore.Internal_Hbond>
0.0000

> <Gold.Chemscore.DEClash>
0.2255

> <Gold.Chemscore.DEInternal>
3.4170

> <Gold.Chemscore.Rot>
1.6143

> <Gold.Chemscore.Internal.Correction>
   9.000000E+99

> <Gold.Chemscore.Hbonds>
donor molecule, donor type, donor heavy atom, donor atom, acceptor molecule, acceptor atom, score
      P1  H  6931  6943       L1    20  0.53
      P1  H  6934  6947       L1    20  0.81
      P1  H  7989  7998       L1    13  0.03
      P1  H  8011  8017       L1    11  0.17

> <Gold.Chemscore.Hbond.Weighted>
-5.7880

> <Gold.Chemscore.Metal.Weighted>
-0.0000

> <Gold.Chemscore.Lipo.Weighted>
-10.9856

> <Gold.Chemscore.Internal_Hbond.Weighted>
0.0000

> <Gold.Chemscore.DEClash.Weighted>
0.2255

> <Gold.Chemscore.DEInternal.Weighted>
3.4170

> <Gold.Chemscore.Rot.Weighted>
4.1326

> <Gold.Chemscore.Internal.Correction.Weighted>
   9.000000E+99

> <Gold.Protein.RotatedTorsions>
[ 6907 6896 6895 6894 ] final   93.88 input  -60.11 | X-H torsion
[ 7974 7965 7964 7962 ] final -147.07 input  175.53 | X-H torsion
[ 8008 7997 7996 7995 ] final   94.16 input   59.86 | X-H torsion
[ 10167 10162 10161 10158 ] final  124.60 input  -65.29 | X-H torsion
[ 10718 10713 10712 10709 ] final -133.68 input   66.30 | X-H torsion
[ 10763 10752 10751 10750 ] final  -72.16 input  -60.55 | X-H torsion
[ 11005 11000 10999 10996 ] final  -52.08 input  -57.11 | X-H torsion

> <Gold.Protein.ActiveResidues>
 VAL166  LYS551  ARG553  GLY616  TRP617  ASP618  TYR619  PRO620  LYS621  CYS622 
 ASP623  PHE694  ASN695  SER759  ASP760  ASP761  ALA762  ILE779  LEU786  VAL792 
 PHE793  MET794  SER795  GLU796  ALA797  LYS798  CYS799  TRP800  GLU811  SER814 

> <Gold.Protein.RotatedAtoms>
  152.5451  134.1280  159.8426 H   0  0  0  0  0  0  0  0  0  0  0  0  # atno 6907 bound_to 6896
  151.1329  133.5017  159.2606 H   0  0  0  0  0  0  0  0  0  0  0  0  # atno 6908 bound_to 6896
  151.1656  135.0304  159.8784 H   0  0  0  0  0  0  0  0  0  0  0  0  # atno 6909 bound_to 6896
  144.8117  140.5374  143.5638 H   0  0  0  0  0  0  0  0  0  0  0  0  # atno 7974 bound_to 7965
  156.0548  140.3303  155.7393 H   0  0  0  0  0  0  0  0  0  0  0  0  # atno 8008 bound_to 7997
  155.5546  140.0613  157.2860 H   0  0  0  0  0  0  0  0  0  0  0  0  # atno 8009 bound_to 7997
  154.4453  140.1888  156.0709 H   0  0  0  0  0  0  0  0  0  0  0  0  # atno 8010 bound_to 7997
  139.5732  144.6950  151.3722 H   0  0  0  0  0  0  0  0  0  0  0  0  # atno 10167 bound_to 10162
  156.2475  130.7133  151.1019 H   0  0  0  0  0  0  0  0  0  0  0  0  # atno 10718 bound_to 10713
  154.4418  135.5939  153.6134 H   0  0  0  0  0  0  0  0  0  0  0  0  # atno 10763 bound_to 10752
  152.9806  135.6000  154.3713 H   0  0  0  0  0  0  0  0  0  0  0  0  # atno 10764 bound_to 10752
  154.3564  135.2841  155.2323 H   0  0  0  0  0  0  0  0  0  0  0  0  # atno 10765 bound_to 10752
  141.0905  133.6633  156.3971 H   0  0  0  0  0  0  0  0  0  0  0  0  # atno 11005 bound_to 11000
  145.5308  139.1475  143.3501 LP  0  0  0  0  0  0  0  0  0  0  0  0  # atno 17320 bound_to 7965
  146.2416  140.5448  142.8931 LP  0  0  0  0  0  0  0  0  0  0  0  0  # atno 17321 bound_to 7965
  140.7016  143.7617  150.7412 LP  0  0  0  0  0  0  0  0  0  0  0  0  # atno 17342 bound_to 10162
  140.1130  143.4682  152.2359 LP  0  0  0  0  0  0  0  0  0  0  0  0  # atno 17343 bound_to 10162
  157.7201  131.0687  150.6170 LP  0  0  0  0  0  0  0  0  0  0  0  0  # atno 17370 bound_to 10713
  156.6248  130.4416  149.5808 LP  0  0  0  0  0  0  0  0  0  0  0  0  # atno 17371 bound_to 10713
  140.5263  134.6256  157.5335 LP  0  0  0  0  0  0  0  0  0  0  0  0  # atno 17394 bound_to 11000
  139.9730  134.7261  156.0004 LP  0  0  0  0  0  0  0  0  0  0  0  0  # atno 17395 bound_to 11000

$$$$
