AV-unprocessed.smi:1172|AV-procd|sdf|4943|dock9
  -GOLD-   22720 3533D 1   1.00000     0.00000
 Structure written by MMmdl.
 36 37  0  0  0  0  0  0  0  0  1 V2000
  152.8061  132.3159  156.4386 N   0  0  0  0  0  0  0  0  0  0  0  0
  151.6962  131.8226  156.9944 C   0  0  0  0  0  0  0  0  0  0  0  0
  151.4648  131.9207  158.1974 O   0  0  0  0  0  0  0  0  0  0  0  0
  150.7021  131.1202  156.0673 C   0  0  0  0  0  0  0  0  0  0  0  0
  150.0587  132.0684  155.1751 N   0  0  0  0  0  0  0  0  0  0  0  0
  149.1303  131.8131  154.1844 C   0  0  0  0  0  0  0  0  0  0  0  0
  148.8366  133.0268  153.6301 C   0  0  0  0  0  0  0  0  0  0  0  0
  147.9451  133.3443  152.5741 N   0  0  0  0  0  0  0  0  0  0  0  0
  147.0886  132.5207  151.9398 C   0  0  0  0  0  0  0  0  0  0  0  0
  147.0180  131.3139  152.1761 O   0  0  0  0  0  0  0  0  0  0  0  0
  146.3395  133.1249  150.9818 N   0  0  0  0  0  0  0  0  0  0  0  0
  145.9749  134.5527  150.9345 C   0  0  0  0  0  0  0  0  0  0  0  0
  144.5040  134.7033  151.3651 C   0  0  0  0  0  0  0  0  0  0  0  0
  143.5819  133.8463  150.4775 C   0  0  0  0  0  0  0  0  0  0  0  0
  144.0836  132.3913  150.3786 C   0  0  1  0  0  0  0  0  0  0  0  0
  143.3229  131.6947  149.4150 O   0  0  0  0  0  0  0  0  0  0  0  0
  145.5755  132.3508  149.9938 C   0  0  0  0  0  0  0  0  0  0  0  0
  149.6219  133.9746  154.3360 C   0  0  0  0  0  0  0  0  0  0  0  0
  150.3566  133.3888  155.2689 N   0  0  0  0  0  0  0  0  0  0  0  0
  153.4872  132.7865  157.0168 H   0  0  0  0  0  0  0  0  0  0  0  0
  152.9623  132.2182  155.4458 H   0  0  0  0  0  0  0  0  0  0  0  0
  151.2061  130.3610  155.4675 H   0  0  0  0  0  0  0  0  0  0  0  0
  149.9453  130.6067  156.6626 H   0  0  0  0  0  0  0  0  0  0  0  0
  148.7786  130.8139  153.9741 H   0  0  0  0  0  0  0  0  0  0  0  0
  147.9412  134.3095  152.2784 H   0  0  0  0  0  0  0  0  0  0  0  0
  146.6060  135.1938  151.5497 H   0  0  0  0  0  0  0  0  0  0  0  0
  146.1020  134.9199  149.9151 H   0  0  0  0  0  0  0  0  0  0  0  0
  144.3962  134.3993  152.4071 H   0  0  0  0  0  0  0  0  0  0  0  0
  144.2025  135.7498  151.3145 H   0  0  0  0  0  0  0  0  0  0  0  0
  142.5611  133.8719  150.8604 H   0  0  0  0  0  0  0  0  0  0  0  0
  143.5486  134.2873  149.4800 H   0  0  0  0  0  0  0  0  0  0  0  0
  143.9459  131.8941  151.3399 H   0  0  0  0  0  0  0  0  0  0  0  0
  142.4896  131.4659  149.7970 H   0  0  0  0  0  0  0  0  0  0  0  0
  145.7249  132.7859  149.0041 H   0  0  0  0  0  0  0  0  0  0  0  0
  145.9179  131.3176  149.9145 H   0  0  0  0  0  0  0  0  0  0  0  0
  149.6825  135.0452  154.2066 H   0  0  0  0  0  0  0  0  0  0  0  0
  1  2  1  0  0  0  0
  1 20  1  0  0  0  0
  1 21  1  0  0  0  0
  2  3  2  0  0  0  0
  2  4  1  0  0  0  0
  4  5  1  0  0  0  0
  4 22  1  0  0  0  0
  4 23  1  0  0  0  0
  5 19  1  0  0  0  0
  5  6  1  0  0  0  0
  6  7  2  0  0  0  0
  6 24  1  0  0  0  0
  7  8  1  0  0  0  0
  7 18  1  0  0  0  0
  8  9  1  0  0  0  0
  8 25  1  0  0  0  0
  9 10  2  0  0  0  0
  9 11  1  0  0  0  0
 11 17  1  0  0  0  0
 11 12  1  0  0  0  0
 12 13  1  0  0  0  0
 12 26  1  0  0  0  0
 12 27  1  0  0  0  0
 13 14  1  0  0  0  0
 13 28  1  0  0  0  0
 13 29  1  0  0  0  0
 14 15  1  0  0  0  0
 14 30  1  0  0  0  0
 14 31  1  0  0  0  0
 15 16  1  0  0  0  0
 15 17  1  0  0  0  0
 15 32  1  0  0  0  0
 16 33  1  0  0  0  0
 17 34  1  0  0  0  0
 17 35  1  0  0  0  0
 18 19  2  0  0  0  0
 18 36  1  0  0  0  0
M  END
> <s_m_source_file>
AV-unprocessed.smi

> <i_m_source_file_index>
1172

> <i_lp_mmshare_version>
43012

> <i_f3d_flags>
0

> <s_epik_input>
W05IMl1DKD1PKVtDSDJdbjFbY0hdYyhbY0hdbjEpW05IXUMoPU8pTjJbQ0gyXVtDSDJdW0NIMl1bQ0BASF0oW09IXSlbQ0gyXTI=

> <s_epik_cmdline>
J2VwaWtfcHl0aG9uJywgJy1waCcsICc3LjAnLCAnLXRuJywgJzgnLCAnLW1hJywgJzIwMCcsICctbWV0YWxfYmluZGluZycsICctaW1hZScsICc8aW5maWxlLm1hZT4nLCAnLW9tYWUnLCAnPG91dGZpbGUubWFlPic=

> <r_lp_tautomer_probability>
1

> <r_epik_Ionization_Penalty>
4.44977e-05

> <r_epik_Ionization_Penalty_Charging>
0

> <r_epik_Ionization_Penalty_Neutral>
4.44977e-05

> <r_epik_State_Penalty>
-0

> <r_epik_Charging_Adjusted_Penalty>
0

> <i_epik_Tot_Q>
0

> <i_epik_Tot_abs_Q>
0

> <r_epik_Metal_State_Penalty>
-0

> <b_epik_Metal_Only>
0

> <s_lp_Force_Field>
OPLS_2005

> <r_lp_Energy>
33.3056

> <b_lp_Chiralities_Consistent>
1

> <s_lp_Variant>
AV-unprocessed.smi:1172-1

> <Gold.Version>
5.8.1

> <Gold.Id.Protein>
6NUR|6NUR_protein|mol2

> <Gold.PLP.Fitness>
40.4622

> <Gold.PLP.PLP>
-31.0030

> <Gold.PLP.part.hbond>
-4.2014

> <Gold.PLP.part.metal>
0.0000

> <Gold.PLP.part.buried>
-1.0279

> <Gold.PLP.part.nonpolar>
-27.1553

> <Gold.PLP.part.repulsive>
0.7912

> <Gold.PLP.ligand.clash>
0.0000

> <Gold.PLP.ligand.torsion>
0.2616

> <Gold.PLP.Chemscore.Hbond>
2.9695

> <Gold.PLP.Chemscore.CHOScore>
0.3454

> <Gold.PLP.Chemscore.Metal>
0.0000

> <Gold.Chemscore.Hbonds>
donor molecule, donor type, donor heavy atom, donor atom, acceptor molecule, acceptor atom, score
      L1  H     8    25       P1  7948  0.65
      L1  H    16    33       P1 10952  0.90
      P1  H  6896  6908       L1     3  1.00
      P1  H 10785 10796       L1    16  0.15
      L1  C    18    36       P1  7948  0.40

> <Gold.PLP.Chemscore.Internal.Correction>
0.0376

> <Gold.Rescore>
     Score         DG    S(hbond)    S(metal)    S(lipo)     H(rot)  DE(clash)    DE(int)     intcor
      9.74     -13.56       2.06        0.00      58.37       2.20       1.45       2.36       ----

> <Gold.Chemscore.Fitness>
9.7392

> <Gold.Chemscore.DG>
-13.5570

> <Gold.Chemscore.ZeroCoef>
-5.4800

> <Gold.Chemscore.Hbond>
2.0572

> <Gold.Chemscore.Metal>
0.0000

> <Gold.Chemscore.Lipo>
58.3684

> <Gold.Chemscore.Internal_Hbond>
0.0000

> <Gold.Chemscore.DEClash>
1.4538

> <Gold.Chemscore.DEInternal>
2.3641

> <Gold.Chemscore.Rot>
2.1966

> <Gold.Chemscore.Internal.Correction>
   9.000000E+99

> <Gold.Chemscore.Hbonds>
donor molecule, donor type, donor heavy atom, donor atom, acceptor molecule, acceptor atom, score
      L1  H     8    25       P1  7948  0.14
      L1  H    16    33       P1 10952  0.82
      P1  H  6896  6908       L1     3  1.00

> <Gold.Chemscore.Hbond.Weighted>
-6.8711

> <Gold.Chemscore.Metal.Weighted>
-0.0000

> <Gold.Chemscore.Lipo.Weighted>
-6.8291

> <Gold.Chemscore.Internal_Hbond.Weighted>
0.0000

> <Gold.Chemscore.DEClash.Weighted>
1.4538

> <Gold.Chemscore.DEInternal.Weighted>
2.3641

> <Gold.Chemscore.Rot.Weighted>
5.6232

> <Gold.Chemscore.Internal.Correction.Weighted>
   9.000000E+99

> <Gold.Protein.RotatedTorsions>
[ 6907 6896 6895 6894 ] final   68.72 input  -60.11 | X-H torsion
[ 7974 7965 7964 7962 ] final -151.58 input  175.53 | X-H torsion
[ 8008 7997 7996 7995 ] final  -81.08 input   59.86 | X-H torsion
[ 10167 10162 10161 10158 ] final -135.28 input  -65.29 | X-H torsion
[ 10718 10713 10712 10709 ] final  149.23 input   66.30 | X-H torsion
[ 10763 10752 10751 10750 ] final   87.99 input  -60.55 | X-H torsion
[ 11005 11000 10999 10996 ] final   42.60 input  -57.11 | X-H torsion

> <Gold.Protein.ActiveResidues>
 VAL166  LYS551  ARG553  GLY616  TRP617  ASP618  TYR619  PRO620  LYS621  CYS622 
 ASP623  PHE694  ASN695  SER759  ASP760  ASP761  ALA762  ILE779  LEU786  VAL792 
 PHE793  MET794  SER795  GLU796  ALA797  LYS798  CYS799  TRP800  GLU811  SER814 

> <Gold.Protein.RotatedAtoms>
  152.4639  134.5121  159.9756 H   0  0  0  0  0  0  0  0  0  0  0  0  # atno 6907 bound_to 6896
  151.5164  133.3469  159.2901 H   0  0  0  0  0  0  0  0  0  0  0  0  # atno 6908 bound_to 6896
  150.8614  134.7995  159.7147 H   0  0  0  0  0  0  0  0  0  0  0  0  # atno 6909 bound_to 6896
  144.7842  140.4778  143.5818 H   0  0  0  0  0  0  0  0  0  0  0  0  # atno 7974 bound_to 7965
  154.5947  140.0653  156.9287 H   0  0  0  0  0  0  0  0  0  0  0  0  # atno 8008 bound_to 7997
  155.2235  140.3332  155.4294 H   0  0  0  0  0  0  0  0  0  0  0  0  # atno 8009 bound_to 7997
  156.2279  140.1827  156.7301 H   0  0  0  0  0  0  0  0  0  0  0  0  # atno 8010 bound_to 7997
  139.8795  143.6856  152.2629 H   0  0  0  0  0  0  0  0  0  0  0  0  # atno 10167 bound_to 10162
  157.2987  131.0867  151.1407 H   0  0  0  0  0  0  0  0  0  0  0  0  # atno 10718 bound_to 10713
  153.1724  135.4523  154.9920 H   0  0  0  0  0  0  0  0  0  0  0  0  # atno 10763 bound_to 10752
  154.7975  135.3243  154.7634 H   0  0  0  0  0  0  0  0  0  0  0  0  # atno 10764 bound_to 10752
  153.8109  135.6955  153.4896 H   0  0  0  0  0  0  0  0  0  0  0  0  # atno 10765 bound_to 10752
  140.1724  134.4206  155.8249 H   0  0  0  0  0  0  0  0  0  0  0  0  # atno 11005 bound_to 11000
  145.5967  139.1500  143.3152 LP  0  0  0  0  0  0  0  0  0  0  0  0  # atno 17320 bound_to 7965
  146.2065  140.6091  142.9078 LP  0  0  0  0  0  0  0  0  0  0  0  0  # atno 17321 bound_to 7965
  139.7209  144.7603  151.0957 LP  0  0  0  0  0  0  0  0  0  0  0  0  # atno 17342 bound_to 10162
  140.7747  143.5209  150.9538 LP  0  0  0  0  0  0  0  0  0  0  0  0  # atno 17343 bound_to 10162
  157.2775  130.6734  149.6049 LP  0  0  0  0  0  0  0  0  0  0  0  0  # atno 17370 bound_to 10713
  155.9670  130.4460  150.5524 LP  0  0  0  0  0  0  0  0  0  0  0  0  # atno 17371 bound_to 10713
  141.2218  133.6962  156.7786 LP  0  0  0  0  0  0  0  0  0  0  0  0  # atno 17394 bound_to 11000
  140.2362  134.8648  157.3527 LP  0  0  0  0  0  0  0  0  0  0  0  0  # atno 17395 bound_to 11000

$$$$
