#       Name:                AV-unprocessed.smi:263
#       Creating user name   scv26
#       Creation time:       Thu Mar 26 21:19:48 2020


#       File generated by GOLD software.
#

@<TRIPOS>MOLECULE
AV-unprocessed.smi:263
    67    71     1
SMALL
NO_CHARGES


@<TRIPOS>ATOM
      1 ****        -4.4042   2.1720  -1.9972 O.3            1 S1                 0.0000
      2 ****        -4.8400   1.3227  -0.9493 C.3            1 S1                 0.0000
      3 ****        -4.2812  -0.0940  -1.2330 C.3            1 S1                 0.0000
      4 ****        -2.8322  -0.1846  -1.1361 N.pl3          1 S1                 0.0000
      5 ****        -1.9164   0.1272  -2.1153 C.2            1 S1                 0.0000
      6 ****        -0.6657  -0.0356  -1.7793 N.2            1 S1                 0.0000
      7 ****        -0.7219  -0.4942  -0.4681 C.ar           1 S1                 0.0000
      8 ****         0.2576  -0.8681   0.4953 C.ar           1 S1                 0.0000
      9 ****         1.5916  -0.8017   0.2509 N.3            1 S1                 0.0000
     10 ****         2.0915   0.5494  -0.0038 C.3            1 S1                 0.0000
     11 ****         3.5036   0.5189  -0.6196 C.3            1 S1                 0.0000
     12 ****         4.4828  -0.3297   0.2186 C.3            1 S1                 0.0000
     13 ****         4.6647   0.3308   1.4610 O.3            1 S1                 0.0000
     14 ****         5.8673  -0.4424  -0.4583 C.3            1 S1                 0.0000
     15 ****         6.8199  -1.3773   0.3114 C.3            1 S1                 0.0000
     16 ****         6.1943  -2.7633   0.5357 C.3            1 S1                 0.0000
     17 ****         4.8253  -2.6579   1.2279 C.3            1 S1                 0.0000
     18 ****         3.8746  -1.7396   0.4355 C.3            1 S1                 0.0000
     19 ****         2.4677  -1.6546   1.0574 C.3            1 S1                 0.0000
     20 ****        -0.1902  -1.3008   1.7050 N.ar           1 S1                 0.0000
     21 ****        -1.5006  -1.3564   1.9607 C.ar           1 S1                 0.0000
     22 ****        -2.5203  -1.0338   1.1634 N.ar           1 S1                 0.0000
     23 ****        -2.0793  -0.6052  -0.0537 C.ar           1 S1                 0.0000
     24 ****        -4.3376   1.9061   0.3902 C.3            1 S1                 0.0000
     25 ****        -5.0542   3.2177   0.7567 C.3            1 S1                 0.0000
     26 ****        -6.4622   3.0171   0.7737 O.3            1 S1                 0.0000
     27 ****        -6.9785   2.6523  -0.5004 C.3            1 S1                 0.0000
     28 ****        -6.3823   1.3046  -0.9456 C.3            1 S1                 0.0000
     29 ****        -4.7460   1.8412  -2.8136 H              1 S1                 0.0000
     30 ****        -4.7096  -0.8095  -0.5297 H              1 S1                 0.0000
     31 ****        -4.5809  -0.4323  -2.2260 H              1 S1                 0.0000
     32 ****        -2.2070   0.4862  -3.0920 H              1 S1                 0.0000
     33 ****         1.4269   1.0990  -0.6693 H              1 S1                 0.0000
     34 ****         2.1052   1.0987   0.9383 H              1 S1                 0.0000
     35 ****         3.4370   0.1060  -1.6271 H              1 S1                 0.0000
     36 ****         3.8802   1.5363  -0.7328 H              1 S1                 0.0000
     37 ****         3.8244   0.4010   1.8874 H              1 S1                 0.0000
     38 ****         5.7439  -0.8268  -1.4717 H              1 S1                 0.0000
     39 ****         6.3214   0.5440  -0.5624 H              1 S1                 0.0000
     40 ****         7.7585  -1.4794  -0.2341 H              1 S1                 0.0000
     41 ****         7.0747  -0.9332   1.2743 H              1 S1                 0.0000
     42 ****         6.0790  -3.2693  -0.4237 H              1 S1                 0.0000
     43 ****         6.8656  -3.3819   1.1319 H              1 S1                 0.0000
     44 ****         4.3884  -3.6525   1.3229 H              1 S1                 0.0000
     45 ****         4.9534  -2.2808   2.2432 H              1 S1                 0.0000
     46 ****         3.7515  -2.1949  -0.5491 H              1 S1                 0.0000
     47 ****         2.5247  -1.2628   2.0740 H              1 S1                 0.0000
     48 ****         2.0424  -2.6571   1.1233 H              1 S1                 0.0000
     49 ****        -1.7704  -1.7075   2.9458 H              1 S1                 0.0000
     50 ****        -4.5147   1.1815   1.1859 H              1 S1                 0.0000
     51 ****        -3.2604   2.0753   0.3630 H              1 S1                 0.0000
     52 ****        -4.7359   3.5511   1.7445 H              1 S1                 0.0000
     53 ****        -4.7967   4.0150   0.0578 H              1 S1                 0.0000
     54 ****        -8.0632   2.5730  -0.4278 H              1 S1                 0.0000
     55 ****        -6.7685   3.4365  -1.2293 H              1 S1                 0.0000
     56 ****        -6.7657   1.0323  -1.9298 H              1 S1                 0.0000
     57 ****        -6.7319   0.5324  -0.2590 H              1 S1                 0.0000
     58 ****        -3.4048   2.1821  -2.0294 LP             1 S1                 0.0000
     59 ****        -4.7421   3.1002  -1.8415 LP             1 S1                 0.0000
     60 ****         0.1471   0.1313  -2.3374 LP             1 S1                 0.0000
     61 ****         1.6592  -1.2657  -0.6323 LP             1 S1                 0.0000
     62 ****         5.0421   1.2438   1.3060 LP             1 S1                 0.0000
     63 ****         5.2917  -0.1960   2.0349 LP             1 S1                 0.0000
     64 ****         0.4653  -1.5790   2.4071 LP             1 S1                 0.0000
     65 ****        -3.4835  -1.0980   1.4245 LP             1 S1                 0.0000
     66 ****        -6.9030   3.8655   1.0669 LP             1 S1                 0.0000
     67 ****        -6.6741   2.2889   1.4255 LP             1 S1                 0.0000
@<TRIPOS>BOND
    1    1    2 1     
    2    1   29 1     
    3    2   28 1     
    4    2    3 1     
    5    2   24 1     
    6    3    4 1     
    7    3   30 1     
    8    3   31 1     
    9    4   23 1     
   10    4    5 1     
   11    5    6 2     
   12    5   32 1     
   13    6    7 1     
   14    7   23 ar    
   15    7    8 ar    
   16    8    9 1     
   17    8   20 ar    
   18    9   19 1     
   19    9   10 1     
   20   10   11 1     
   21   10   33 1     
   22   10   34 1     
   23   11   12 1     
   24   11   35 1     
   25   11   36 1     
   26   12   18 1     
   27   12   13 1     
   28   12   14 1     
   29   13   37 1     
   30   14   15 1     
   31   14   38 1     
   32   14   39 1     
   33   15   16 1     
   34   15   40 1     
   35   15   41 1     
   36   16   17 1     
   37   16   42 1     
   38   16   43 1     
   39   17   18 1     
   40   17   44 1     
   41   17   45 1     
   42   18   19 1     
   43   18   46 1     
   44   19   47 1     
   45   19   48 1     
   46   20   21 ar    
   47   21   22 ar    
   48   21   49 1     
   49   22   23 ar    
   50   24   25 1     
   51   24   50 1     
   52   24   51 1     
   53   25   26 1     
   54   25   52 1     
   55   25   53 1     
   56   26   27 1     
   57   27   28 1     
   58   27   54 1     
   59   27   55 1     
   60   28   56 1     
   61   28   57 1     
   62    1   58 1     
   63    1   59 1     
   64    6   60 1     
   65    9   61 1     
   66   13   62 1     
   67   13   63 1     
   68   20   64 1     
   69   22   65 1     
   70   26   66 1     
   71   26   67 1     
@<TRIPOS>SUBSTRUCTURE
      1 S1             1
@<TRIPOS>SET
LONE_PAIRS      STATIC     ATOMS    <user>   **** ""
10 58 59 60 61 62 63 64 65 66 67
DONOR_HYDROGENS      STATIC     ATOMS    <user>   **** ""
2 29 37
ATOM$BLUE        STATIC     ATOMS    COLORGROUP SYSTEM
10 58 59 60 61 62 63 64 65 66 67
ATOM$RED        STATIC     ATOMS    COLORGROUP SYSTEM
2 29 37
