AV-unprocessed.smi:1646|AV-procd|sdf|6624|dock1
  -GOLD-   22720 7323D 1   1.00000     0.00000
 Structure written by MMmdl.
 29 30  0  0  0  0  0  0  0  0  1 V2000
  150.8686  141.9566  158.4457 O   0  0  0  0  0  0  0  0  0  0  0  0
  150.9256  142.5124  157.3488 C   0  0  0  0  0  0  0  0  0  0  0  0
  150.4371  141.7841  156.0967 C   0  0  0  0  0  0  0  0  0  0  0  0
  151.1723  140.5489  155.8964 N   0  0  0  0  0  0  0  0  0  0  0  0
  152.0615  139.9367  156.7592 C   0  0  0  0  0  0  0  0  0  0  0  0
  152.4695  138.8074  156.1181 C   0  0  0  0  0  0  0  0  0  0  0  0
  153.6989  137.5095  156.7688 Br  0  0  0  0  0  0  0  0  0  0  0  0
  151.7932  138.7872  154.8719 C   0  0  0  0  0  0  0  0  0  0  0  0
  151.0085  139.8477  154.7445 N   0  0  0  0  0  0  0  0  0  0  0  0
  151.3975  143.7559  157.1713 N   0  0  0  0  0  0  0  0  0  0  0  0
  151.8865  144.6304  158.2338 C   0  0  0  0  0  0  0  0  0  0  0  0
  152.7764  143.8474  159.2189 C   0  0  0  0  0  0  0  0  0  0  0  0
  152.2607  144.1842  160.6194 C   0  0  0  0  0  0  0  0  0  0  0  0
  150.7795  144.4851  160.4159 C   0  0  0  0  0  0  0  0  0  0  0  0
  150.7288  145.2103  159.0712 C   0  0  0  0  0  0  0  0  0  0  0  0
  149.3699  141.5668  156.1690 H   0  0  0  0  0  0  0  0  0  0  0  0
  150.5754  142.4213  155.2222 H   0  0  0  0  0  0  0  0  0  0  0  0
  152.3145  140.3465  157.7260 H   0  0  0  0  0  0  0  0  0  0  0  0
  151.8427  138.0580  154.0766 H   0  0  0  0  0  0  0  0  0  0  0  0
  151.4040  144.1305  156.2335 H   0  0  0  0  0  0  0  0  0  0  0  0
  152.4627  145.4467  157.7942 H   0  0  0  0  0  0  0  0  0  0  0  0
  152.6810  142.7726  159.0553 H   0  0  0  0  0  0  0  0  0  0  0  0
  153.8321  144.0955  159.1052 H   0  0  0  0  0  0  0  0  0  0  0  0
  152.4320  143.3791  161.3344 H   0  0  0  0  0  0  0  0  0  0  0  0
  152.7671  145.0752  160.9930 H   0  0  0  0  0  0  0  0  0  0  0  0
  150.2195  143.5512  160.3522 H   0  0  0  0  0  0  0  0  0  0  0  0
  150.3545  145.0753  161.2281 H   0  0  0  0  0  0  0  0  0  0  0  0
  150.9044  146.2748  159.2322 H   0  0  0  0  0  0  0  0  0  0  0  0
  149.7526  145.1179  158.5931 H   0  0  0  0  0  0  0  0  0  0  0  0
  1  2  2  0  0  0  0
  2  3  1  0  0  0  0
  2 10  1  0  0  0  0
  3  4  1  0  0  0  0
  3 16  1  0  0  0  0
  3 17  1  0  0  0  0
  4  9  1  0  0  0  0
  4  5  1  0  0  0  0
  5  6  2  0  0  0  0
  5 18  1  0  0  0  0
  6  7  1  0  0  0  0
  6  8  1  0  0  0  0
  8  9  2  0  0  0  0
  8 19  1  0  0  0  0
 10 11  1  0  0  0  0
 10 20  1  0  0  0  0
 11 15  1  0  0  0  0
 11 12  1  0  0  0  0
 11 21  1  0  0  0  0
 12 13  1  0  0  0  0
 12 22  1  0  0  0  0
 12 23  1  0  0  0  0
 13 14  1  0  0  0  0
 13 24  1  0  0  0  0
 13 25  1  0  0  0  0
 14 15  1  0  0  0  0
 14 26  1  0  0  0  0
 14 27  1  0  0  0  0
 15 28  1  0  0  0  0
 15 29  1  0  0  0  0
M  END
> <s_m_source_file>
AV-unprocessed.smi

> <i_m_source_file_index>
1646

> <i_lp_mmshare_version>
43012

> <i_f3d_flags>
0

> <s_epik_input>
W0NIMl0xW0NIMl1bQ0gyXVtDSDJdW0NIXTFbTkhdQyg9TylbQ0gyXW4yW2NIXWMoQnIpW2NIXW4y

> <s_epik_cmdline>
J2VwaWtfcHl0aG9uJywgJy1waCcsICc3LjAnLCAnLXRuJywgJzgnLCAnLW1hJywgJzIwMCcsICctbWV0YWxfYmluZGluZycsICctaW1hZScsICc8aW5maWxlLm1hZT4nLCAnLW9tYWUnLCAnPG91dGZpbGUubWFlPic=

> <r_lp_tautomer_probability>
1

> <r_epik_Ionization_Penalty>
2.35926e-07

> <r_epik_Ionization_Penalty_Charging>
0

> <r_epik_Ionization_Penalty_Neutral>
2.35926e-07

> <r_epik_State_Penalty>
-0

> <r_epik_Charging_Adjusted_Penalty>
0

> <i_epik_Tot_Q>
0

> <i_epik_Tot_abs_Q>
0

> <r_epik_Metal_State_Penalty>
-0

> <b_epik_Metal_Only>
0

> <s_lp_Force_Field>
OPLS_2005

> <r_lp_Energy>
20.2229

> <b_lp_Chiralities_Consistent>
1

> <s_lp_Variant>
AV-unprocessed.smi:1646-1

> <Gold.Version>
5.8.1

> <Gold.Id.Protein>
6NUR|6NUR_protein|mol2

> <Gold.PLP.Fitness>
39.5942

> <Gold.PLP.PLP>
-37.1462

> <Gold.PLP.part.hbond>
-1.8580

> <Gold.PLP.part.metal>
0.0000

> <Gold.PLP.part.buried>
-4.7487

> <Gold.PLP.part.nonpolar>
-31.8886

> <Gold.PLP.part.repulsive>
0.1112

> <Gold.PLP.ligand.clash>
0.0000

> <Gold.PLP.ligand.torsion>
0.2793

> <Gold.PLP.Chemscore.Hbond>
1.0000

> <Gold.PLP.Chemscore.CHOScore>
0.0000

> <Gold.PLP.Chemscore.Metal>
0.0000

> <Gold.Chemscore.Hbonds>
donor molecule, donor type, donor heavy atom, donor atom, acceptor molecule, acceptor atom, score
      P1  H  7989  7998       L1     9  1.00

> <Gold.PLP.Chemscore.Internal.Correction>
0.0066

> <Gold.Rescore>
     Score         DG    S(hbond)    S(metal)    S(lipo)     H(rot)  DE(clash)    DE(int)     intcor
     12.84     -15.75       0.93        0.00      92.21       1.41       0.02       2.89       ----

> <Gold.Chemscore.Fitness>
12.8366

> <Gold.Chemscore.DG>
-15.7475

> <Gold.Chemscore.ZeroCoef>
-5.4800

> <Gold.Chemscore.Hbond>
0.9286

> <Gold.Chemscore.Metal>
0.0000

> <Gold.Chemscore.Lipo>
92.2055

> <Gold.Chemscore.Internal_Hbond>
0.0000

> <Gold.Chemscore.DEClash>
0.0170

> <Gold.Chemscore.DEInternal>
2.8940

> <Gold.Chemscore.Rot>
1.4148

> <Gold.Chemscore.Internal.Correction>
   9.000000E+99

> <Gold.Chemscore.Hbonds>
donor molecule, donor type, donor heavy atom, donor atom, acceptor molecule, acceptor atom, score
      P1  H  7989  7998       L1     9  0.35

> <Gold.Chemscore.Hbond.Weighted>
-3.1015

> <Gold.Chemscore.Metal.Weighted>
-0.0000

> <Gold.Chemscore.Lipo.Weighted>
-10.7880

> <Gold.Chemscore.Internal_Hbond.Weighted>
0.0000

> <Gold.Chemscore.DEClash.Weighted>
0.0170

> <Gold.Chemscore.DEInternal.Weighted>
2.8940

> <Gold.Chemscore.Rot.Weighted>
3.6220

> <Gold.Chemscore.Internal.Correction.Weighted>
   9.000000E+99

> <Gold.Protein.RotatedTorsions>
[ 6907 6896 6895 6894 ] final   72.81 input  -60.11 | X-H torsion
[ 7974 7965 7964 7962 ] final  -14.87 input  175.53 | X-H torsion
[ 8008 7997 7996 7995 ] final  128.79 input   59.86 | X-H torsion
[ 10167 10162 10161 10158 ] final  171.72 input  -65.29 | X-H torsion
[ 10718 10713 10712 10709 ] final  -21.05 input   66.30 | X-H torsion
[ 10763 10752 10751 10750 ] final  -40.11 input  -60.55 | X-H torsion
[ 11005 11000 10999 10996 ] final -170.42 input  -57.11 | X-H torsion

> <Gold.Protein.ActiveResidues>
 VAL166  LYS551  ARG553  GLY616  TRP617  ASP618  TYR619  PRO620  LYS621  CYS622 
 ASP623  PHE694  ASN695  SER759  ASP760  ASP761  ALA762  ILE779  LEU786  VAL792 
 PHE793  MET794  SER795  GLU796  ALA797  LYS798  CYS799  TRP800  GLU811  SER814 

> <Gold.Protein.RotatedAtoms>
  152.4888  134.4516  159.9576 H   0  0  0  0  0  0  0  0  0  0  0  0  # atno 6907 bound_to 6896
  151.4507  133.3612  159.2802 H   0  0  0  0  0  0  0  0  0  0  0  0  # atno 6908 bound_to 6896
  150.9023  134.8461  159.7429 H   0  0  0  0  0  0  0  0  0  0  0  0  # atno 6909 bound_to 6896
  146.2056  140.3411  142.8408 H   0  0  0  0  0  0  0  0  0  0  0  0  # atno 7974 bound_to 7965
  156.2923  140.2636  156.2494 H   0  0  0  0  0  0  0  0  0  0  0  0  # atno 8008 bound_to 7997
  154.9898  140.0389  157.2333 H   0  0  0  0  0  0  0  0  0  0  0  0  # atno 8009 bound_to 7997
  154.7696  140.2775  155.6153 H   0  0  0  0  0  0  0  0  0  0  0  0  # atno 8010 bound_to 7997
  139.5055  144.3454  151.9976 H   0  0  0  0  0  0  0  0  0  0  0  0  # atno 10167 bound_to 10162
  156.5234  130.4638  149.6584 H   0  0  0  0  0  0  0  0  0  0  0  0  # atno 10718 bound_to 10713
  153.9406  135.6762  153.4744 H   0  0  0  0  0  0  0  0  0  0  0  0  # atno 10763 bound_to 10752
  153.0934  135.4863  154.8729 H   0  0  0  0  0  0  0  0  0  0  0  0  # atno 10764 bound_to 10752
  154.7379  135.3153  154.8737 H   0  0  0  0  0  0  0  0  0  0  0  0  # atno 10765 bound_to 10752
  140.5197  134.5721  157.5044 H   0  0  0  0  0  0  0  0  0  0  0  0  # atno 11005 bound_to 11000
  144.8785  140.7368  143.6002 LP  0  0  0  0  0  0  0  0  0  0  0  0  # atno 17320 bound_to 7965
  145.3331  139.1754  143.4526 LP  0  0  0  0  0  0  0  0  0  0  0  0  # atno 17321 bound_to 7965
  140.2891  144.3774  150.6094 LP  0  0  0  0  0  0  0  0  0  0  0  0  # atno 17342 bound_to 10162
  140.5960  143.2167  151.7163 LP  0  0  0  0  0  0  0  0  0  0  0  0  # atno 17343 bound_to 10162
  156.3127  130.7238  151.2134 LP  0  0  0  0  0  0  0  0  0  0  0  0  # atno 17370 bound_to 10713
  157.7433  131.0477  150.4956 LP  0  0  0  0  0  0  0  0  0  0  0  0  # atno 17371 bound_to 10713
  139.9612  134.7449  156.0232 LP  0  0  0  0  0  0  0  0  0  0  0  0  # atno 17394 bound_to 11000
  141.1341  133.6579  156.3544 LP  0  0  0  0  0  0  0  0  0  0  0  0  # atno 17395 bound_to 11000

$$$$
