AV-unprocessed.smi:2184|AV-procd|sdf|8870|dock3
  -GOLD-   2272012 73D 1   1.00000     0.00000
 Structure written by MMmdl.
 47 48  0  0  0  0  0  0  0  0  1 V2000
  150.0998  133.1424  153.9034 C   0  0  0  0  0  0  0  0  0  0  0  0
  149.2948  133.4505  155.4994 S   0  0  0  0  0  0  0  0  0  0  0  0
  148.9413  135.2290  155.3699 C   0  0  1  0  0  0  0  0  0  0  0  0
  147.9565  135.6570  156.4694 C   0  0  0  0  0  0  0  0  0  0  0  0
  150.2217  136.0717  155.4175 C   0  0  0  0  0  0  0  0  0  0  0  0
  150.9198  136.0868  156.4318 O   0  0  0  0  0  0  0  0  0  0  0  0
  150.5220  136.7672  154.3095 N   0  0  0  0  0  0  0  0  0  0  0  0
  151.6915  137.6265  154.1546 C   0  0  0  0  0  0  0  0  0  0  0  0
  151.7846  138.7521  155.1756 C   0  0  0  0  0  0  0  0  0  0  0  0
  150.8583  139.8156  155.2065 C   0  0  0  0  0  0  0  0  0  0  0  0
  151.0073  140.8241  156.1772 C   0  0  0  0  0  0  0  0  0  0  0  0
  152.0848  140.7494  157.0917 C   0  0  0  0  0  0  0  0  0  0  0  0
  152.2522  141.7488  158.0745 N   0  0  0  0  0  0  0  0  0  0  0  0
  152.5377  141.2685  159.4235 C   0  0  0  0  0  0  0  0  0  0  0  0
  153.0121  142.4291  160.3186 C   0  0  2  0  0  0  0  0  0  0  0  0
  153.2038  141.9913  161.7743 C   0  0  0  0  0  0  0  0  0  0  0  0
  152.0418  143.4725  160.2897 O   0  0  0  0  0  0  0  0  0  0  0  0
  151.8559  144.0069  158.9818 C   0  0  2  0  0  0  0  0  0  0  0  0
  150.8712  145.1770  159.0749 C   0  0  0  0  0  0  0  0  0  0  0  0
  151.3437  142.8931  158.0501 C   0  0  0  0  0  0  0  0  0  0  0  0
  152.9742  139.7262  157.0567 N   0  0  0  0  0  0  0  0  0  0  0  0
  152.8266  138.7621  156.1242 C   0  0  0  0  0  0  0  0  0  0  0  0
  150.3401  132.0839  153.8054 H   0  0  0  0  0  0  0  0  0  0  0  0
  151.0252  133.7121  153.8201 H   0  0  0  0  0  0  0  0  0  0  0  0
  149.4406  133.4235  153.0819 H   0  0  0  0  0  0  0  0  0  0  0  0
  148.4507  135.3915  154.4088 H   0  0  0  0  0  0  0  0  0  0  0  0
  147.7395  136.7246  156.4148 H   0  0  0  0  0  0  0  0  0  0  0  0
  148.3497  135.4464  157.4649 H   0  0  0  0  0  0  0  0  0  0  0  0
  147.0098  135.1255  156.3708 H   0  0  0  0  0  0  0  0  0  0  0  0
  149.8976  136.6963  153.5192 H   0  0  0  0  0  0  0  0  0  0  0  0
  152.5976  137.0197  154.1894 H   0  0  0  0  0  0  0  0  0  0  0  0
  151.6566  138.0710  153.1600 H   0  0  0  0  0  0  0  0  0  0  0  0
  150.0402  139.8637  154.5031 H   0  0  0  0  0  0  0  0  0  0  0  0
  150.2894  141.6296  156.2180 H   0  0  0  0  0  0  0  0  0  0  0  0
  151.6304  140.8235  159.8341 H   0  0  0  0  0  0  0  0  0  0  0  0
  153.2983  140.4890  159.4200 H   0  0  0  0  0  0  0  0  0  0  0  0
  153.9625  142.8151  159.9454 H   0  0  0  0  0  0  0  0  0  0  0  0
  153.9503  141.2003  161.8512 H   0  0  0  0  0  0  0  0  0  0  0  0
  152.2726  141.6159  162.1995 H   0  0  0  0  0  0  0  0  0  0  0  0
  153.5393  142.8255  162.3909 H   0  0  0  0  0  0  0  0  0  0  0  0
  152.8099  144.3858  158.6108 H   0  0  0  0  0  0  0  0  0  0  0  0
  150.7034  145.6273  158.0963 H   0  0  0  0  0  0  0  0  0  0  0  0
  151.2517  145.9545  159.7378 H   0  0  0  0  0  0  0  0  0  0  0  0
  149.9061  144.8507  159.4638 H   0  0  0  0  0  0  0  0  0  0  0  0
  151.2576  143.2825  157.0349 H   0  0  0  0  0  0  0  0  0  0  0  0
  150.3496  142.5686  158.3614 H   0  0  0  0  0  0  0  0  0  0  0  0
  153.5636  137.9727  156.1394 H   0  0  0  0  0  0  0  0  0  0  0  0
  1  2  1  0  0  0  0
  1 23  1  0  0  0  0
  1 24  1  0  0  0  0
  1 25  1  0  0  0  0
  2  3  1  0  0  0  0
  3  4  1  0  0  0  0
  3  5  1  0  0  0  0
  3 26  1  0  0  0  0
  4 27  1  0  0  0  0
  4 28  1  0  0  0  0
  4 29  1  0  0  0  0
  5  6  2  0  0  0  0
  5  7  1  0  0  0  0
  7  8  1  0  0  0  0
  7 30  1  0  0  0  0
  8  9  1  0  0  0  0
  8 31  1  0  0  0  0
  8 32  1  0  0  0  0
  9 22  1  0  0  0  0
  9 10  2  0  0  0  0
 10 11  1  0  0  0  0
 10 33  1  0  0  0  0
 11 12  2  0  0  0  0
 11 34  1  0  0  0  0
 12 13  1  0  0  0  0
 12 21  1  0  0  0  0
 13 20  1  0  0  0  0
 13 14  1  0  0  0  0
 14 15  1  0  0  0  0
 14 35  1  0  0  0  0
 14 36  1  0  0  0  0
 15 16  1  0  0  0  0
 15 17  1  0  0  0  0
 15 37  1  0  0  0  0
 16 38  1  0  0  0  0
 16 39  1  0  0  0  0
 16 40  1  0  0  0  0
 17 18  1  0  0  0  0
 18 19  1  0  0  0  0
 18 20  1  0  0  0  0
 18 41  1  0  0  0  0
 19 42  1  0  0  0  0
 19 43  1  0  0  0  0
 19 44  1  0  0  0  0
 20 45  1  0  0  0  0
 20 46  1  0  0  0  0
 21 22  2  0  0  0  0
 22 47  1  0  0  0  0
M  END
> <s_m_source_file>
AV-unprocessed.smi

> <i_m_source_file_index>
2184

> <i_lp_mmshare_version>
43012

> <i_f3d_flags>
0

> <s_epik_input>
W0NIM11TW0NASF0oW0NIM10pQyg9TylbTkhdW0NIMl1jMVtjSF1bY0hdYyhuW2NIXTEpTjJbQ0gyXVtDQEBIXShbQ0gzXSlPW0NAQEhdKFtDSDNdKVtDSDJdMg==

> <s_epik_cmdline>
J2VwaWtfcHl0aG9uJywgJy1waCcsICc3LjAnLCAnLXRuJywgJzgnLCAnLW1hJywgJzIwMCcsICctbWV0YWxfYmluZGluZycsICctaW1hZScsICc8aW5maWxlLm1hZT4nLCAnLW9tYWUnLCAnPG91dGZpbGUubWFlPic=

> <r_lp_tautomer_probability>
1

> <r_epik_Ionization_Penalty>
0.00551702

> <r_epik_Ionization_Penalty_Charging>
0

> <r_epik_Ionization_Penalty_Neutral>
0.00551702

> <r_epik_State_Penalty>
0.00403758

> <r_epik_Charging_Adjusted_Penalty>
0.00403758

> <i_epik_Tot_Q>
0

> <i_epik_Tot_abs_Q>
0

> <r_epik_Metal_State_Penalty>
-0

> <b_epik_Metal_Only>
0

> <s_lp_Force_Field>
OPLS_2005

> <r_lp_Energy>
14.1544

> <b_lp_Chiralities_Consistent>
1

> <s_lp_Variant>
AV-unprocessed.smi:2184-2

> <Gold.Version>
5.8.1

> <Gold.Id.Protein>
6NUR|6NUR_protein|mol2

> <Gold.PLP.Fitness>
48.8290

> <Gold.PLP.PLP>
-43.2129

> <Gold.PLP.part.hbond>
-2.6349

> <Gold.PLP.part.metal>
0.0000

> <Gold.PLP.part.buried>
-2.6295

> <Gold.PLP.part.nonpolar>
-37.0422

> <Gold.PLP.part.repulsive>
0.1042

> <Gold.PLP.ligand.clash>
0.0000

> <Gold.PLP.ligand.torsion>
0.3261

> <Gold.PLP.Chemscore.Hbond>
1.9600

> <Gold.PLP.Chemscore.CHOScore>
0.0000

> <Gold.PLP.Chemscore.Metal>
0.0000

> <Gold.Chemscore.Hbonds>
donor molecule, donor type, donor heavy atom, donor atom, acceptor molecule, acceptor atom, score
      L1  H     7    30       P1  7948  1.00
      P1  H  7997  8008       L1    21  0.95

> <Gold.PLP.Chemscore.Internal.Correction>
0.3884

> <Gold.Rescore>
     Score         DG    S(hbond)    S(metal)    S(lipo)     H(rot)  DE(clash)    DE(int)     intcor
     17.71     -19.33       1.50        0.00     110.57       1.59       0.06       1.57       ----

> <Gold.Chemscore.Fitness>
17.7103

> <Gold.Chemscore.DG>
-19.3333

> <Gold.Chemscore.ZeroCoef>
-5.4800

> <Gold.Chemscore.Hbond>
1.4967

> <Gold.Chemscore.Metal>
0.0000

> <Gold.Chemscore.Lipo>
110.5702

> <Gold.Chemscore.Internal_Hbond>
0.0000

> <Gold.Chemscore.DEClash>
0.0575

> <Gold.Chemscore.DEInternal>
1.5655

> <Gold.Chemscore.Rot>
1.5947

> <Gold.Chemscore.Internal.Correction>
   9.000000E+99

> <Gold.Chemscore.Hbonds>
donor molecule, donor type, donor heavy atom, donor atom, acceptor molecule, acceptor atom, score
      L1  H     7    30       P1  7948  0.30
      P1  H  7997  8008       L1    21  0.19

> <Gold.Chemscore.Hbond.Weighted>
-4.9990

> <Gold.Chemscore.Metal.Weighted>
-0.0000

> <Gold.Chemscore.Lipo.Weighted>
-12.9367

> <Gold.Chemscore.Internal_Hbond.Weighted>
0.0000

> <Gold.Chemscore.DEClash.Weighted>
0.0575

> <Gold.Chemscore.DEInternal.Weighted>
1.5655

> <Gold.Chemscore.Rot.Weighted>
4.0824

> <Gold.Chemscore.Internal.Correction.Weighted>
   9.000000E+99

> <Gold.Protein.RotatedTorsions>
[ 6907 6896 6895 6894 ] final -115.15 input  -60.11 | X-H torsion
[ 7974 7965 7964 7962 ] final -121.74 input  175.53 | X-H torsion
[ 8008 7997 7996 7995 ] final  -73.19 input   59.86 | X-H torsion
[ 10167 10162 10161 10158 ] final   39.39 input  -65.29 | X-H torsion
[ 10718 10713 10712 10709 ] final  154.32 input   66.30 | X-H torsion
[ 10763 10752 10751 10750 ] final    3.82 input  -60.55 | X-H torsion
[ 11005 11000 10999 10996 ] final -113.97 input  -57.11 | X-H torsion

> <Gold.Protein.ActiveResidues>
 VAL166  LYS551  ARG553  GLY616  TRP617  ASP618  TYR619  PRO620  LYS621  CYS622 
 ASP623  PHE694  ASN695  SER759  ASP760  ASP761  ALA762  ILE779  LEU786  VAL792 
 PHE793  MET794  SER795  GLU796  ALA797  LYS798  CYS799  TRP800  GLU811  SER814 

> <Gold.Protein.RotatedAtoms>
  150.7956  133.8699  159.3255 H   0  0  0  0  0  0  0  0  0  0  0  0  # atno 6907 bound_to 6896
  151.6525  135.0998  160.0173 H   0  0  0  0  0  0  0  0  0  0  0  0  # atno 6908 bound_to 6896
  152.4037  133.6817  159.6373 H   0  0  0  0  0  0  0  0  0  0  0  0  # atno 6909 bound_to 6896
  145.0370  140.8114  143.4289 H   0  0  0  0  0  0  0  0  0  0  0  0  # atno 7974 bound_to 7965
  154.5227  140.0783  156.8201 H   0  0  0  0  0  0  0  0  0  0  0  0  # atno 8008 bound_to 7997
  155.3542  140.3414  155.4221 H   0  0  0  0  0  0  0  0  0  0  0  0  # atno 8009 bound_to 7997
  156.1698  140.1616  156.8454 H   0  0  0  0  0  0  0  0  0  0  0  0  # atno 8010 bound_to 7997
  140.3844  144.1937  150.6130 H   0  0  0  0  0  0  0  0  0  0  0  0  # atno 10167 bound_to 10162
  157.2332  131.0743  151.1840 H   0  0  0  0  0  0  0  0  0  0  0  0  # atno 10718 bound_to 10713
  153.2786  135.6938  153.7408 H   0  0  0  0  0  0  0  0  0  0  0  0  # atno 10763 bound_to 10752
  153.6404  135.3394  155.3070 H   0  0  0  0  0  0  0  0  0  0  0  0  # atno 10764 bound_to 10752
  154.8488  135.4430  154.1832 H   0  0  0  0  0  0  0  0  0  0  0  0  # atno 10765 bound_to 10752
  141.0581  133.9580  157.2717 H   0  0  0  0  0  0  0  0  0  0  0  0  # atno 11005 bound_to 11000
  145.1697  139.2411  143.5348 LP  0  0  0  0  0  0  0  0  0  0  0  0  # atno 17320 bound_to 7965
  146.3505  140.1444  142.8594 LP  0  0  0  0  0  0  0  0  0  0  0  0  # atno 17321 bound_to 7965
  140.4905  143.2349  151.8826 LP  0  0  0  0  0  0  0  0  0  0  0  0  # atno 17342 bound_to 10162
  139.4793  144.5171  151.8852 LP  0  0  0  0  0  0  0  0  0  0  0  0  # atno 17343 bound_to 10162
  157.3456  130.7056  149.6409 LP  0  0  0  0  0  0  0  0  0  0  0  0  # atno 17370 bound_to 10713
  155.9674  130.4267  150.4711 LP  0  0  0  0  0  0  0  0  0  0  0  0  # atno 17371 bound_to 10713
  139.9408  135.0191  156.8701 LP  0  0  0  0  0  0  0  0  0  0  0  0  # atno 17394 bound_to 11000
  140.5924  134.0249  155.7505 LP  0  0  0  0  0  0  0  0  0  0  0  0  # atno 17395 bound_to 11000

$$$$
