AV-unprocessed.smi:1028|AV-procd|sdf|4473|dock9
  -GOLD-   22720 2453D 1   1.00000     0.00000
 Structure written by MMmdl.
 43 44  0  0  0  0  0  0  0  0  1 V2000
  144.4962  133.3437  150.2782 C   0  0  0  0  0  0  0  0  0  0  0  0
  144.9400  134.2987  151.4039 C   0  0  0  0  0  0  0  0  0  0  0  0
  145.4242  135.6312  150.7997 C   0  0  0  0  0  0  0  0  0  0  0  0
  143.7105  134.5955  152.2889 C   0  0  0  0  0  0  0  0  0  0  0  0
  146.0550  133.6621  152.2102 C   0  0  0  0  0  0  0  0  0  0  0  0
  146.6188  132.4173  152.0458 C   0  0  0  0  0  0  0  0  0  0  0  0
  147.8886  132.1074  153.1980 S   0  0  0  0  0  0  0  0  0  0  0  0
  147.6005  133.6947  153.8930 C   0  0  0  0  0  0  0  0  0  0  0  0
  148.3955  134.2498  155.0263 C   0  0  0  0  0  0  0  0  0  0  0  0
  149.8692  134.4718  154.6521 C   0  0  0  0  0  0  0  0  0  0  0  0
  150.1264  135.8592  154.2843 N   0  0  0  0  0  0  0  0  0  0  0  0
  151.0056  136.6687  154.8945 C   0  0  0  0  0  0  0  0  0  0  0  0
  151.6983  136.3130  155.8487 O   0  0  0  0  0  0  0  0  0  0  0  0
  151.1133  138.1003  154.3442 C   0  0  0  0  0  0  0  0  0  0  0  0
  152.1467  138.9449  155.1262 C   0  0  0  0  0  0  0  0  0  0  0  0
  151.3952  140.1543  155.6957 C   0  0  0  0  0  0  0  0  0  0  0  0
  149.9277  139.7387  155.7181 C   0  0  0  0  0  0  0  0  0  0  0  0
  149.7802  138.8629  154.4753 C   0  0  0  0  0  0  0  0  0  0  0  0
  146.6365  134.3742  153.2680 N   0  0  0  0  0  0  0  0  0  0  0  0
  143.6811  133.7706  149.6929 H   0  0  0  0  0  0  0  0  0  0  0  0
  144.1485  132.3915  150.6806 H   0  0  0  0  0  0  0  0  0  0  0  0
  145.3125  133.1295  149.5876 H   0  0  0  0  0  0  0  0  0  0  0  0
  146.2683  135.4838  150.1253 H   0  0  0  0  0  0  0  0  0  0  0  0
  145.7438  136.3257  151.5774 H   0  0  0  0  0  0  0  0  0  0  0  0
  144.6347  136.1186  150.2268 H   0  0  0  0  0  0  0  0  0  0  0  0
  142.9064  135.0513  151.7100 H   0  0  0  0  0  0  0  0  0  0  0  0
  143.9556  135.2842  153.0983 H   0  0  0  0  0  0  0  0  0  0  0  0
  143.3098  133.6853  152.7367 H   0  0  0  0  0  0  0  0  0  0  0  0
  146.3717  131.6616  151.3151 H   0  0  0  0  0  0  0  0  0  0  0  0
  147.9424  135.1892  155.3453 H   0  0  0  0  0  0  0  0  0  0  0  0
  148.3170  133.5633  155.8701 H   0  0  0  0  0  0  0  0  0  0  0  0
  150.5222  134.1732  155.4740 H   0  0  0  0  0  0  0  0  0  0  0  0
  150.1341  133.8431  153.8016 H   0  0  0  0  0  0  0  0  0  0  0  0
  149.5978  136.2311  153.5086 H   0  0  0  0  0  0  0  0  0  0  0  0
  151.3938  138.0544  153.2903 H   0  0  0  0  0  0  0  0  0  0  0  0
  152.5991  138.3787  155.9425 H   0  0  0  0  0  0  0  0  0  0  0  0
  152.9654  139.2672  154.4818 H   0  0  0  0  0  0  0  0  0  0  0  0
  151.7614  140.4496  156.6793 H   0  0  0  0  0  0  0  0  0  0  0  0
  151.5198  141.0077  155.0278 H   0  0  0  0  0  0  0  0  0  0  0  0
  149.7217  139.1515  156.6141 H   0  0  0  0  0  0  0  0  0  0  0  0
  149.2488  140.5920  155.7136 H   0  0  0  0  0  0  0  0  0  0  0  0
  149.6374  139.4955  153.5981 H   0  0  0  0  0  0  0  0  0  0  0  0
  148.9081  138.2099  154.5416 H   0  0  0  0  0  0  0  0  0  0  0  0
  1  2  1  0  0  0  0
  1 20  1  0  0  0  0
  1 21  1  0  0  0  0
  1 22  1  0  0  0  0
  2  3  1  0  0  0  0
  2  4  1  0  0  0  0
  2  5  1  0  0  0  0
  3 23  1  0  0  0  0
  3 24  1  0  0  0  0
  3 25  1  0  0  0  0
  4 26  1  0  0  0  0
  4 27  1  0  0  0  0
  4 28  1  0  0  0  0
  5 19  1  0  0  0  0
  5  6  2  0  0  0  0
  6  7  1  0  0  0  0
  6 29  1  0  0  0  0
  7  8  1  0  0  0  0
  8  9  1  0  0  0  0
  8 19  2  0  0  0  0
  9 10  1  0  0  0  0
  9 30  1  0  0  0  0
  9 31  1  0  0  0  0
 10 11  1  0  0  0  0
 10 32  1  0  0  0  0
 10 33  1  0  0  0  0
 11 12  1  0  0  0  0
 11 34  1  0  0  0  0
 12 13  2  0  0  0  0
 12 14  1  0  0  0  0
 14 18  1  0  0  0  0
 14 15  1  0  0  0  0
 14 35  1  0  0  0  0
 15 16  1  0  0  0  0
 15 36  1  0  0  0  0
 15 37  1  0  0  0  0
 16 17  1  0  0  0  0
 16 38  1  0  0  0  0
 16 39  1  0  0  0  0
 17 18  1  0  0  0  0
 17 40  1  0  0  0  0
 17 41  1  0  0  0  0
 18 42  1  0  0  0  0
 18 43  1  0  0  0  0
M  END
> <s_m_source_file>
AV-unprocessed.smi

> <i_m_source_file_index>
1028

> <i_lp_mmshare_version>
43012

> <i_f3d_flags>
0

> <s_epik_input>
W0NIM11DKFtDSDNdKShbQ0gzXSljMVtjSF1zYyhuMSlbQ0gyXVtDSDJdW05IXUMoPU8pW0NIXTJbQ0gyXVtDSDJdW0NIMl1bQ0gyXTI=

> <s_epik_cmdline>
J2VwaWtfcHl0aG9uJywgJy1waCcsICc3LjAnLCAnLXRuJywgJzgnLCAnLW1hJywgJzIwMCcsICctbWV0YWxfYmluZGluZycsICctaW1hZScsICc8aW5maWxlLm1hZT4nLCAnLW9tYWUnLCAnPG91dGZpbGUubWFlPic=

> <r_epik_Ionization_Penalty>
0.000842107

> <r_epik_Ionization_Penalty_Charging>
0

> <r_epik_Ionization_Penalty_Neutral>
0.000842107

> <r_epik_State_Penalty>
0.000542609

> <r_epik_Charging_Adjusted_Penalty>
0.000542609

> <i_epik_Tot_Q>
0

> <i_epik_Tot_abs_Q>
0

> <r_epik_Metal_State_Penalty>
-0

> <b_epik_Metal_Only>
0

> <s_lp_Force_Field>
OPLS_2005

> <r_lp_Energy>
10.9616

> <b_lp_Chiralities_Consistent>
1

> <s_lp_Variant>
AV-unprocessed.smi:1028-1

> <Gold.Version>
5.8.1

> <Gold.Id.Protein>
6NUR|6NUR_protein|mol2

> <Gold.PLP.Fitness>
42.3782

> <Gold.PLP.PLP>
-36.7990

> <Gold.PLP.part.hbond>
-3.0000

> <Gold.PLP.part.metal>
0.0000

> <Gold.PLP.part.buried>
-0.7843

> <Gold.PLP.part.nonpolar>
-33.1869

> <Gold.PLP.part.repulsive>
0.2095

> <Gold.PLP.ligand.clash>
0.0000

> <Gold.PLP.ligand.torsion>
0.3164

> <Gold.PLP.Chemscore.Hbond>
2.0000

> <Gold.PLP.Chemscore.CHOScore>
0.0654

> <Gold.PLP.Chemscore.Metal>
0.0000

> <Gold.Chemscore.Hbonds>
donor molecule, donor type, donor heavy atom, donor atom, acceptor molecule, acceptor atom, score
      L1  H    11    34       P1  7948  1.00
      P1  H 10752 10764       L1    13  0.80
      L1  C     6    29       P1 10747  0.02

> <Gold.PLP.Chemscore.Internal.Correction>
0.0158

> <Gold.Rescore>
     Score         DG    S(hbond)    S(metal)    S(lipo)     H(rot)  DE(clash)    DE(int)     intcor
     16.12     -17.50       1.58        0.00      88.83       1.42       0.93       0.45       ----

> <Gold.Chemscore.Fitness>
16.1208

> <Gold.Chemscore.DG>
-17.5002

> <Gold.Chemscore.ZeroCoef>
-5.4800

> <Gold.Chemscore.Hbond>
1.5776

> <Gold.Chemscore.Metal>
0.0000

> <Gold.Chemscore.Lipo>
88.8286

> <Gold.Chemscore.Internal_Hbond>
0.0000

> <Gold.Chemscore.DEClash>
0.9251

> <Gold.Chemscore.DEInternal>
0.4543

> <Gold.Chemscore.Rot>
1.4226

> <Gold.Chemscore.Internal.Correction>
   9.000000E+99

> <Gold.Chemscore.Hbonds>
donor molecule, donor type, donor heavy atom, donor atom, acceptor molecule, acceptor atom, score
      L1  H    11    34       P1  7948  0.44
      P1  H 10752 10764       L1    13  0.12

> <Gold.Chemscore.Hbond.Weighted>
-5.2692

> <Gold.Chemscore.Metal.Weighted>
-0.0000

> <Gold.Chemscore.Lipo.Weighted>
-10.3929

> <Gold.Chemscore.Internal_Hbond.Weighted>
0.0000

> <Gold.Chemscore.DEClash.Weighted>
0.9251

> <Gold.Chemscore.DEInternal.Weighted>
0.4543

> <Gold.Chemscore.Rot.Weighted>
3.6419

> <Gold.Chemscore.Internal.Correction.Weighted>
   9.000000E+99

> <Gold.Protein.RotatedTorsions>
[ 6907 6896 6895 6894 ] final   54.84 input  -60.11 | X-H torsion
[ 7974 7965 7964 7962 ] final -129.86 input  175.53 | X-H torsion
[ 8008 7997 7996 7995 ] final  -72.09 input   59.86 | X-H torsion
[ 10167 10162 10161 10158 ] final  -35.05 input  -65.29 | X-H torsion
[ 10718 10713 10712 10709 ] final   67.36 input   66.30 | X-H torsion
[ 10763 10752 10751 10750 ] final  -43.97 input  -60.55 | X-H torsion
[ 11005 11000 10999 10996 ] final  -59.28 input  -57.11 | X-H torsion

> <Gold.Protein.ActiveResidues>
 VAL166  LYS551  ARG553  GLY616  TRP617  ASP618  TYR619  PRO620  LYS621  CYS622 
 ASP623  PHE694  ASN695  SER759  ASP760  ASP761  ALA762  ILE779  LEU786  VAL792 
 PHE793  MET794  SER795  GLU796  ALA797  LYS798  CYS799  TRP800  GLU811  SER814 

> <Gold.Protein.RotatedAtoms>
  152.3479  134.7045  160.0244 H   0  0  0  0  0  0  0  0  0  0  0  0  # atno 6907 bound_to 6896
  151.7409  133.3316  159.3373 H   0  0  0  0  0  0  0  0  0  0  0  0  # atno 6908 bound_to 6896
  150.7521  134.6212  159.6182 H   0  0  0  0  0  0  0  0  0  0  0  0  # atno 6909 bound_to 6896
  144.9530  140.7365  143.4776 H   0  0  0  0  0  0  0  0  0  0  0  0  # atno 7974 bound_to 7965
  154.5139  140.0803  156.8043 H   0  0  0  0  0  0  0  0  0  0  0  0  # atno 8008 bound_to 7997
  155.3724  140.3423  155.4225 H   0  0  0  0  0  0  0  0  0  0  0  0  # atno 8009 bound_to 7997
  156.1605  140.1587  156.8607 H   0  0  0  0  0  0  0  0  0  0  0  0  # atno 8010 bound_to 7997
  140.7173  143.3505  151.2167 H   0  0  0  0  0  0  0  0  0  0  0  0  # atno 10167 bound_to 10162
  157.6225  130.9317  150.0232 H   0  0  0  0  0  0  0  0  0  0  0  0  # atno 10718 bound_to 10713
  154.0044  135.6689  153.4761 H   0  0  0  0  0  0  0  0  0  0  0  0  # atno 10763 bound_to 10752
  153.0648  135.5007  154.8172 H   0  0  0  0  0  0  0  0  0  0  0  0  # atno 10764 bound_to 10752
  154.7033  135.3083  154.9271 H   0  0  0  0  0  0  0  0  0  0  0  0  # atno 10765 bound_to 10752
  141.1242  133.6615  156.5048 H   0  0  0  0  0  0  0  0  0  0  0  0  # atno 11005 bound_to 11000
  145.2814  139.1917  143.4789 LP  0  0  0  0  0  0  0  0  0  0  0  0  # atno 17320 bound_to 7965
  146.3327  140.2777  142.8609 LP  0  0  0  0  0  0  0  0  0  0  0  0  # atno 17321 bound_to 7965
  139.7034  143.9495  152.2916 LP  0  0  0  0  0  0  0  0  0  0  0  0  # atno 17342 bound_to 10162
  139.9196  144.6808  150.8476 LP  0  0  0  0  0  0  0  0  0  0  0  0  # atno 17343 bound_to 10162
  156.1379  130.3642  149.9628 LP  0  0  0  0  0  0  0  0  0  0  0  0  # atno 17370 bound_to 10713
  156.7676  130.9174  151.3643 LP  0  0  0  0  0  0  0  0  0  0  0  0  # atno 17371 bound_to 10713
  140.4416  134.7010  157.4995 LP  0  0  0  0  0  0  0  0  0  0  0  0  # atno 17394 bound_to 11000
  140.0225  134.6526  155.9219 LP  0  0  0  0  0  0  0  0  0  0  0  0  # atno 17395 bound_to 11000

$$$$
