AV-unprocessed.smi:2779|AV-procd|sdf|10711|dock3
  -GOLD-   2272015143D 1   1.00000     0.00000
 Structure written by MMmdl.
 38 39  0  0  0  0  0  0  0  0  1 V2000
  154.1009  139.0135  160.6109 O   0  0  0  0  0  0  0  0  0  0  0  0
  153.6970  140.1109  160.2267 C   0  0  0  0  0  0  0  0  0  0  0  0
  154.0700  141.3705  160.8653 C   0  0  0  0  0  0  0  0  0  0  0  0
  153.6190  142.5586  160.4091 C   0  0  0  0  0  0  0  0  0  0  0  0
  152.7375  142.5942  159.2538 C   0  0  0  0  0  0  0  0  0  0  0  0
  152.1853  143.8694  158.6659 C   0  0  0  0  0  0  0  0  0  0  0  0
  153.1582  144.6202  158.1482 F   0  0  0  0  0  0  0  0  0  0  0  0
  151.3097  143.5869  157.7008 F   0  0  0  0  0  0  0  0  0  0  0  0
  151.5615  144.5762  159.6089 F   0  0  0  0  0  0  0  0  0  0  0  0
  152.3998  141.4810  158.6868 N   0  0  0  0  0  0  0  0  0  0  0  0
  152.8633  140.2644  159.1566 N   0  0  0  0  0  0  0  0  0  0  0  0
  152.3919  139.1083  158.3845 C   0  0  0  0  0  0  0  0  0  0  0  0
  151.4898  138.1803  159.2265 C   0  0  2  0  0  0  0  0  0  0  0  0
  151.9367  136.8423  159.1351 O   0  0  0  0  0  0  0  0  0  0  0  0
  150.0144  138.2145  158.7945 C   0  0  0  0  0  0  0  0  0  0  0  0
  149.1937  137.6451  159.8028 O   0  0  0  0  0  0  0  0  0  0  0  0
  148.7227  136.3509  159.4632 C   0  0  0  0  0  0  0  0  0  0  0  0
  147.9342  135.7142  160.5924 C   0  0  0  0  0  0  0  0  0  0  0  0
  147.4142  134.4092  160.4533 C   0  0  0  0  0  0  0  0  0  0  0  0
  146.7036  133.8129  161.5131 C   0  0  0  0  0  0  0  0  0  0  0  0
  146.5148  134.5158  162.7188 C   0  0  0  0  0  0  0  0  0  0  0  0
  147.0399  135.8142  162.8654 C   0  0  0  0  0  0  0  0  0  0  0  0
  147.7510  136.4108  161.8057 C   0  0  0  0  0  0  0  0  0  0  0  0
  151.5337  138.4653  160.2783 H   0  0  0  0  0  0  0  0  0  0  0  0
  154.7250  141.3491  161.7239 H   0  0  0  0  0  0  0  0  0  0  0  0
  153.9092  143.4774  160.8965 H   0  0  0  0  0  0  0  0  0  0  0  0
  151.8379  139.4676  157.5152 H   0  0  0  0  0  0  0  0  0  0  0  0
  153.2330  138.5488  157.9698 H   0  0  0  0  0  0  0  0  0  0  0  0
  152.6852  136.8158  158.5588 H   0  0  0  0  0  0  0  0  0  0  0  0
  149.7037  139.2365  158.5693 H   0  0  0  0  0  0  0  0  0  0  0  0
  149.8971  137.6352  157.8773 H   0  0  0  0  0  0  0  0  0  0  0  0
  148.0740  136.4076  158.5878 H   0  0  0  0  0  0  0  0  0  0  0  0
  149.5679  135.7117  159.2030 H   0  0  0  0  0  0  0  0  0  0  0  0
  147.5600  133.8599  159.5346 H   0  0  0  0  0  0  0  0  0  0  0  0
  146.3062  132.8148  161.4021 H   0  0  0  0  0  0  0  0  0  0  0  0
  145.9708  134.0577  163.5318 H   0  0  0  0  0  0  0  0  0  0  0  0
  146.9000  136.3515  163.7918 H   0  0  0  0  0  0  0  0  0  0  0  0
  148.1554  137.4049  161.9283 H   0  0  0  0  0  0  0  0  0  0  0  0
  1  2  2  0  0  0  0
  2 11  1  0  0  0  0
  2  3  1  0  0  0  0
  3  4  2  0  0  0  0
  3 25  1  0  0  0  0
  4  5  1  0  0  0  0
  4 26  1  0  0  0  0
  5  6  1  0  0  0  0
  5 10  2  0  0  0  0
  6  7  1  0  0  0  0
  6  8  1  0  0  0  0
  6  9  1  0  0  0  0
 10 11  1  0  0  0  0
 11 12  1  0  0  0  0
 12 13  1  0  0  0  0
 12 27  1  0  0  0  0
 12 28  1  0  0  0  0
 13 24  1  0  0  0  0
 13 14  1  0  0  0  0
 13 15  1  0  0  0  0
 14 29  1  0  0  0  0
 15 16  1  0  0  0  0
 15 30  1  0  0  0  0
 15 31  1  0  0  0  0
 16 17  1  0  0  0  0
 17 18  1  0  0  0  0
 17 32  1  0  0  0  0
 17 33  1  0  0  0  0
 18 23  1  0  0  0  0
 18 19  2  0  0  0  0
 19 20  1  0  0  0  0
 19 34  1  0  0  0  0
 20 21  2  0  0  0  0
 20 35  1  0  0  0  0
 21 22  1  0  0  0  0
 21 36  1  0  0  0  0
 22 23  2  0  0  0  0
 22 37  1  0  0  0  0
 23 38  1  0  0  0  0
M  END
> <s_m_source_file>
AV-unprocessed.smi

> <i_m_source_file_index>
2779

> <i_lp_mmshare_version>
43012

> <i_f3d_flags>
0

> <s_epik_input>
Tz1jMVtjSF1bY0hdYyhDKEYpKEYpRilubjFbQ0gyXVtDQEhdKFtPSF0pW0NIMl1PW0NIMl1jMltjSF1bY0hdW2NIXVtjSF1bY0hdMg==

> <s_epik_cmdline>
J2VwaWtfcHl0aG9uJywgJy1waCcsICc3LjAnLCAnLXRuJywgJzgnLCAnLW1hJywgJzIwMCcsICctbWV0YWxfYmluZGluZycsICctaW1hZScsICc8aW5maWxlLm1hZT4nLCAnLW9tYWUnLCAnPG91dGZpbGUubWFlPic=

> <r_lp_tautomer_probability>
1

> <r_epik_Ionization_Penalty>
6.7226e-08

> <r_epik_Ionization_Penalty_Charging>
6.11342e-09

> <r_epik_Ionization_Penalty_Neutral>
6.11126e-08

> <r_epik_State_Penalty>
-0

> <r_epik_Charging_Adjusted_Penalty>
6.11342e-09

> <i_epik_Tot_Q>
0

> <i_epik_Tot_abs_Q>
0

> <r_epik_Metal_State_Penalty>
-0

> <b_epik_Metal_Only>
0

> <s_lp_Force_Field>
OPLS_2005

> <r_lp_Energy>
33.7736

> <b_lp_Chiralities_Consistent>
1

> <s_lp_Variant>
AV-unprocessed.smi:2779-1

> <Gold.Version>
5.8.1

> <Gold.Id.Protein>
6NUR|6NUR_protein|mol2

> <Gold.PLP.Fitness>
56.8008

> <Gold.PLP.PLP>
-55.9654

> <Gold.PLP.part.hbond>
-2.3044

> <Gold.PLP.part.metal>
0.0000

> <Gold.PLP.part.buried>
-6.0724

> <Gold.PLP.part.nonpolar>
-49.1731

> <Gold.PLP.part.repulsive>
0.0000

> <Gold.PLP.ligand.clash>
0.0000

> <Gold.PLP.ligand.torsion>
1.2627

> <Gold.PLP.Chemscore.Hbond>
1.0570

> <Gold.PLP.Chemscore.CHOScore>
0.0000

> <Gold.PLP.Chemscore.Metal>
0.0000

> <Gold.Chemscore.Hbonds>
donor molecule, donor type, donor heavy atom, donor atom, acceptor molecule, acceptor atom, score
      P1  H  6896  6907       L1    14  0.96
      P1  H  6931  6943       L1    16  0.13

> <Gold.PLP.Chemscore.Internal.Correction>
0.1898

> <Gold.Rescore>
     Score         DG    S(hbond)    S(metal)    S(lipo)     H(rot)  DE(clash)    DE(int)     intcor
     14.01     -15.20       1.20        0.00     109.99       2.80       0.01       1.18       ----

> <Gold.Chemscore.Fitness>
14.0100

> <Gold.Chemscore.DG>
-15.1985

> <Gold.Chemscore.ZeroCoef>
-5.4800

> <Gold.Chemscore.Hbond>
1.2046

> <Gold.Chemscore.Metal>
0.0000

> <Gold.Chemscore.Lipo>
109.9910

> <Gold.Chemscore.Internal_Hbond>
0.0000

> <Gold.Chemscore.DEClash>
0.0059

> <Gold.Chemscore.DEInternal>
1.1826

> <Gold.Chemscore.Rot>
2.8022

> <Gold.Chemscore.Internal.Correction>
   9.000000E+99

> <Gold.Chemscore.Hbonds>
donor molecule, donor type, donor heavy atom, donor atom, acceptor molecule, acceptor atom, score
      P1  H  6896  6907       L1    14  0.83
      P1  H  6931  6943       L1    16  0.14

> <Gold.Chemscore.Hbond.Weighted>
-4.0232

> <Gold.Chemscore.Metal.Weighted>
-0.0000

> <Gold.Chemscore.Lipo.Weighted>
-12.8689

> <Gold.Chemscore.Internal_Hbond.Weighted>
0.0000

> <Gold.Chemscore.DEClash.Weighted>
0.0059

> <Gold.Chemscore.DEInternal.Weighted>
1.1826

> <Gold.Chemscore.Rot.Weighted>
7.1736

> <Gold.Chemscore.Internal.Correction.Weighted>
   9.000000E+99

> <Gold.Protein.RotatedTorsions>
[ 6907 6896 6895 6894 ] final   -7.75 input  -60.11 | X-H torsion
[ 7974 7965 7964 7962 ] final  157.11 input  175.53 | X-H torsion
[ 8008 7997 7996 7995 ] final -123.10 input   59.86 | X-H torsion
[ 10167 10162 10161 10158 ] final -119.05 input  -65.29 | X-H torsion
[ 10718 10713 10712 10709 ] final -171.15 input   66.30 | X-H torsion
[ 10763 10752 10751 10750 ] final   50.10 input  -60.55 | X-H torsion
[ 11005 11000 10999 10996 ] final   94.90 input  -57.11 | X-H torsion

> <Gold.Protein.ActiveResidues>
 VAL166  LYS551  ARG553  GLY616  TRP617  ASP618  TYR619  PRO620  LYS621  CYS622 
 ASP623  PHE694  ASN695  SER759  ASP760  ASP761  ALA762  ILE779  LEU786  VAL792 
 PHE793  MET794  SER795  GLU796  ALA797  LYS798  CYS799  TRP800  GLU811  SER814 

> <Gold.Protein.RotatedAtoms>
  151.4446  135.1024  159.9679 H   0  0  0  0  0  0  0  0  0  0  0  0  # atno 6907 bound_to 6896
  152.4910  133.8496  159.7205 H   0  0  0  0  0  0  0  0  0  0  0  0  # atno 6908 bound_to 6896
  150.9064  133.6994  159.2893 H   0  0  0  0  0  0  0  0  0  0  0  0  # atno 6909 bound_to 6896
  144.7923  139.7295  143.6216 H   0  0  0  0  0  0  0  0  0  0  0  0  # atno 7974 bound_to 7965
  155.1750  140.0409  157.2870 H   0  0  0  0  0  0  0  0  0  0  0  0  # atno 8008 bound_to 7997
  154.6243  140.2508  155.7483 H   0  0  0  0  0  0  0  0  0  0  0  0  # atno 8009 bound_to 7997
  156.2450  140.2888  156.0565 H   0  0  0  0  0  0  0  0  0  0  0  0  # atno 8010 bound_to 7997
  140.0508  143.5062  152.2083 H   0  0  0  0  0  0  0  0  0  0  0  0  # atno 10167 bound_to 10162
  156.7366  130.9326  151.3108 H   0  0  0  0  0  0  0  0  0  0  0  0  # atno 10718 bound_to 10713
  152.9785  135.5890  154.4198 H   0  0  0  0  0  0  0  0  0  0  0  0  # atno 10763 bound_to 10752
  154.3823  135.2767  155.2206 H   0  0  0  0  0  0  0  0  0  0  0  0  # atno 10764 bound_to 10752
  154.4114  135.6080  153.6009 H   0  0  0  0  0  0  0  0  0  0  0  0  # atno 10765 bound_to 10752
  139.8794  134.8870  156.3931 H   0  0  0  0  0  0  0  0  0  0  0  0  # atno 11005 bound_to 11000
  146.2179  139.5582  142.9638 LP  0  0  0  0  0  0  0  0  0  0  0  0  # atno 17320 bound_to 7965
  145.5763  141.0388  143.2146 LP  0  0  0  0  0  0  0  0  0  0  0  0  # atno 17321 bound_to 7965
  139.5954  144.7565  151.3299 LP  0  0  0  0  0  0  0  0  0  0  0  0  # atno 17342 bound_to 10162
  140.7217  143.7116  150.7765 LP  0  0  0  0  0  0  0  0  0  0  0  0  # atno 17343 bound_to 10162
  157.6836  130.9164  150.0330 LP  0  0  0  0  0  0  0  0  0  0  0  0  # atno 17370 bound_to 10713
  156.1493  130.3642  149.9463 LP  0  0  0  0  0  0  0  0  0  0  0  0  # atno 17371 bound_to 10713
  140.9319  133.7573  156.0035 LP  0  0  0  0  0  0  0  0  0  0  0  0  # atno 17394 bound_to 11000
  140.8321  134.3166  157.5345 LP  0  0  0  0  0  0  0  0  0  0  0  0  # atno 17395 bound_to 11000

$$$$
