AV-unprocessed.smi:1507|AV-procd|sdf|6083|dock2
  -GOLD-   22720 6203D 1   1.00000     0.00000
 Structure written by MMmdl.
 33 34  0  0  0  0  0  0  0  0  2 V2000
  147.2734  137.6421  153.1353 N   0  5  0  0  0  0  0  0  0  0  0  0
  148.0665  138.5779  154.1847 S   0  0  0  0  0  0  0  0  0  0  0  0
  147.6515  139.9883  154.1355 O   0  0  0  0  0  0  0  0  0  0  0  0
  148.2514  137.9402  155.4974 O   0  0  0  0  0  0  0  0  0  0  0  0
  149.6043  138.5021  153.4061 N   0  0  0  0  0  0  0  0  0  0  0  0
  150.8341  138.2842  154.1680 C   0  0  0  0  0  0  0  0  0  0  0  0
  151.0289  139.3219  155.2550 C   0  0  0  0  0  0  0  0  0  0  0  0
  150.1223  140.3878  155.4106 C   0  0  0  0  0  0  0  0  0  0  0  0
  150.3484  141.3296  156.4328 C   0  0  0  0  0  0  0  0  0  0  0  0
  151.4787  141.1808  157.2726 C   0  0  0  0  0  0  0  0  0  0  0  0
  151.7238  142.1122  158.3053 N   0  0  0  0  0  0  0  0  0  0  0  0
  152.8205  141.7791  159.2112 C   0  0  0  0  0  0  0  0  0  0  0  0
  152.7876  142.6903  160.4506 C   0  0  0  0  0  0  0  0  0  0  0  0
  152.7980  144.0556  160.0469 O   0  0  0  0  0  0  0  0  0  0  0  0
  151.6581  144.3828  159.2597 C   0  0  0  0  0  0  0  0  0  0  0  0
  151.6549  143.5351  157.9767 C   0  0  0  0  0  0  0  0  0  0  0  0
  152.3538  140.1571  157.1094 N   0  0  0  0  0  0  0  0  0  0  0  0
  152.1313  139.2559  156.1293 C   0  0  0  0  0  0  0  0  0  0  0  0
  147.8874  136.8614  152.8739 H   0  0  0  0  0  0  0  0  0  0  0  0
  149.6924  139.0776  152.5695 H   0  0  0  0  0  0  0  0  0  0  0  0
  150.8127  137.2926  154.6209 H   0  0  0  0  0  0  0  0  0  0  0  0
  151.6834  138.2978  153.4845 H   0  0  0  0  0  0  0  0  0  0  0  0
  149.2684  140.4866  154.7563 H   0  0  0  0  0  0  0  0  0  0  0  0
  149.6654  142.1578  156.5488 H   0  0  0  0  0  0  0  0  0  0  0  0
  152.7765  140.7405  159.5353 H   0  0  0  0  0  0  0  0  0  0  0  0
  153.7650  141.9057  158.6807 H   0  0  0  0  0  0  0  0  0  0  0  0
  151.9051  142.4865  161.0594 H   0  0  0  0  0  0  0  0  0  0  0  0
  153.6579  142.5000  161.0787 H   0  0  0  0  0  0  0  0  0  0  0  0
  150.7455  144.2204  159.8358 H   0  0  0  0  0  0  0  0  0  0  0  0
  151.6917  145.4431  159.0090 H   0  0  0  0  0  0  0  0  0  0  0  0
  152.5070  143.8034  157.3502 H   0  0  0  0  0  0  0  0  0  0  0  0
  150.7494  143.7475  157.4067 H   0  0  0  0  0  0  0  0  0  0  0  0
  152.8562  138.4601  156.0405 H   0  0  0  0  0  0  0  0  0  0  0  0
  1  2  1  0  0  0  0
  1 19  1  0  0  0  0
  2  3  2  0  0  0  0
  2  4  2  0  0  0  0
  2  5  1  0  0  0  0
  5  6  1  0  0  0  0
  5 20  1  0  0  0  0
  6  7  1  0  0  0  0
  6 21  1  0  0  0  0
  6 22  1  0  0  0  0
  7 18  1  0  0  0  0
  7  8  2  0  0  0  0
  8  9  1  0  0  0  0
  8 23  1  0  0  0  0
  9 10  2  0  0  0  0
  9 24  1  0  0  0  0
 10 11  1  0  0  0  0
 10 17  1  0  0  0  0
 11 16  1  0  0  0  0
 11 12  1  0  0  0  0
 12 13  1  0  0  0  0
 12 25  1  0  0  0  0
 12 26  1  0  0  0  0
 13 14  1  0  0  0  0
 13 27  1  0  0  0  0
 13 28  1  0  0  0  0
 14 15  1  0  0  0  0
 15 16  1  0  0  0  0
 15 29  1  0  0  0  0
 15 30  1  0  0  0  0
 16 31  1  0  0  0  0
 16 32  1  0  0  0  0
 17 18  2  0  0  0  0
 18 33  1  0  0  0  0
M  CHG  1   1  -1
M  END
> <s_m_source_file>
AV-unprocessed.smi

> <i_m_source_file_index>
1507

> <i_lp_mmshare_version>
43012

> <i_f3d_flags>
0

> <s_epik_input>
W05IMl1TKD1PKSg9TylbTkhdW0NIMl1jMVtjSF1bY0hdYyhuW2NIXTEpTjJbQ0gyXVtDSDJdT1tDSDJdW0NIMl0y

> <s_epik_cmdline>
J2VwaWtfcHl0aG9uJywgJy1waCcsICc3LjAnLCAnLXRuJywgJzgnLCAnLW1hJywgJzIwMCcsICctbWV0YWxfYmluZGluZycsICctaW1hZScsICc8aW5maWxlLm1hZT4nLCAnLW9tYWUnLCAnPG91dGZpbGUubWFlPic=

> <r_lp_tautomer_probability>
1

> <r_epik_Ionization_Penalty>
2.76303

> <r_epik_Ionization_Penalty_Charging>
2.75358

> <r_epik_Ionization_Penalty_Neutral>
0.00945218

> <r_epik_State_Penalty>
2.93489

> <r_epik_Charging_Adjusted_Penalty>
5.68847

> <i_epik_Tot_Q>
-1

> <i_epik_Tot_abs_Q>
1

> <r_epik_Metal_State_Penalty>
0.838637

> <b_epik_Metal_Only>
1

> <s_lp_Force_Field>
OPLS_2005

> <r_lp_Energy>
17.9143

> <b_lp_Chiralities_Consistent>
1

> <s_lp_Variant>
AV-unprocessed.smi:1507-4

> <Gold.Version>
5.8.1

> <Gold.Id.Protein>
6NUR|6NUR_protein|mol2

> <Gold.PLP.Fitness>
42.2551

> <Gold.PLP.PLP>
-34.9629

> <Gold.PLP.part.hbond>
-4.0000

> <Gold.PLP.part.metal>
0.0000

> <Gold.PLP.part.buried>
-4.6017

> <Gold.PLP.part.nonpolar>
-27.8125

> <Gold.PLP.part.repulsive>
0.3278

> <Gold.PLP.ligand.clash>
0.0000

> <Gold.PLP.ligand.torsion>
0.7533

> <Gold.PLP.Chemscore.Hbond>
2.4686

> <Gold.PLP.Chemscore.CHOScore>
0.0000

> <Gold.PLP.Chemscore.Metal>
0.0000

> <Gold.Chemscore.Hbonds>
donor molecule, donor type, donor heavy atom, donor atom, acceptor molecule, acceptor atom, score
      L1  H     1    19       P1  7948  0.98
      L1  H     5    20       P1  7957  1.00
      P1  H  7997  8008       L1    17  0.46

> <Gold.PLP.Chemscore.Internal.Correction>
1.3928

> <Gold.Rescore>
     Score         DG    S(hbond)    S(metal)    S(lipo)     H(rot)  DE(clash)    DE(int)     intcor
     16.85     -17.80       2.25        0.00      82.25       1.88       0.04       0.91       ----

> <Gold.Chemscore.Fitness>
16.8510

> <Gold.Chemscore.DG>
-17.8041

> <Gold.Chemscore.ZeroCoef>
-5.4800

> <Gold.Chemscore.Hbond>
2.2507

> <Gold.Chemscore.Metal>
0.0000

> <Gold.Chemscore.Lipo>
82.2499

> <Gold.Chemscore.Internal_Hbond>
0.0000

> <Gold.Chemscore.DEClash>
0.0385

> <Gold.Chemscore.DEInternal>
0.9146

> <Gold.Chemscore.Rot>
1.8814

> <Gold.Chemscore.Internal.Correction>
   9.000000E+99

> <Gold.Chemscore.Hbonds>
donor molecule, donor type, donor heavy atom, donor atom, acceptor molecule, acceptor atom, score
      L1  H     1    19       P1  7948  0.92
      L1  H     5    20       P1  7957  0.91
      P1  H  7997  8008       L1    17  0.03

> <Gold.Chemscore.Hbond.Weighted>
-7.5173

> <Gold.Chemscore.Metal.Weighted>
-0.0000

> <Gold.Chemscore.Lipo.Weighted>
-9.6232

> <Gold.Chemscore.Internal_Hbond.Weighted>
0.0000

> <Gold.Chemscore.DEClash.Weighted>
0.0385

> <Gold.Chemscore.DEInternal.Weighted>
0.9146

> <Gold.Chemscore.Rot.Weighted>
4.8165

> <Gold.Chemscore.Internal.Correction.Weighted>
   9.000000E+99

> <Gold.Protein.RotatedTorsions>
[ 6907 6896 6895 6894 ] final -179.48 input  -60.11 | X-H torsion
[ 7974 7965 7964 7962 ] final -139.84 input  175.53 | X-H torsion
[ 8008 7997 7996 7995 ] final  -71.51 input   59.86 | X-H torsion
[ 10167 10162 10161 10158 ] final -155.02 input  -65.29 | X-H torsion
[ 10718 10713 10712 10709 ] final  -10.80 input   66.30 | X-H torsion
[ 10763 10752 10751 10750 ] final   64.51 input  -60.55 | X-H torsion
[ 11005 11000 10999 10996 ] final   -3.60 input  -57.11 | X-H torsion

> <Gold.Protein.ActiveResidues>
 VAL166  LYS551  ARG553  GLY616  TRP617  ASP618  TYR619  PRO620  LYS621  CYS622 
 ASP623  PHE694  ASN695  SER759  ASP760  ASP761  ALA762  ILE779  LEU786  VAL792 
 PHE793  MET794  SER795  GLU796  ALA797  LYS798  CYS799  TRP800  GLU811  SER814 

> <Gold.Protein.RotatedAtoms>
  151.6541  133.3319  159.3158 H   0  0  0  0  0  0  0  0  0  0  0  0  # atno 6907 bound_to 6896
  150.7946  134.6999  159.6554 H   0  0  0  0  0  0  0  0  0  0  0  0  # atno 6908 bound_to 6896
  152.4031  134.6257  160.0114 H   0  0  0  0  0  0  0  0  0  0  0  0  # atno 6909 bound_to 6896
  144.8645  140.6271  143.5307 H   0  0  0  0  0  0  0  0  0  0  0  0  # atno 7974 bound_to 7965
  154.5093  140.0814  156.7958 H   0  0  0  0  0  0  0  0  0  0  0  0  # atno 8008 bound_to 7997
  155.3821  140.3428  155.4229 H   0  0  0  0  0  0  0  0  0  0  0  0  # atno 8009 bound_to 7997
  156.1554  140.1571  156.8689 H   0  0  0  0  0  0  0  0  0  0  0  0  # atno 8010 bound_to 7997
  139.6966  143.9333  152.2410 H   0  0  0  0  0  0  0  0  0  0  0  0  # atno 10167 bound_to 10162
  156.6683  130.5002  149.6008 H   0  0  0  0  0  0  0  0  0  0  0  0  # atno 10718 bound_to 10713
  153.0059  135.5390  154.6522 H   0  0  0  0  0  0  0  0  0  0  0  0  # atno 10763 bound_to 10752
  154.5751  135.2845  155.0791 H   0  0  0  0  0  0  0  0  0  0  0  0  # atno 10764 bound_to 10752
  154.1942  135.6495  153.5121 H   0  0  0  0  0  0  0  0  0  0  0  0  # atno 10765 bound_to 10752
  140.6711  133.9236  155.8495 H   0  0  0  0  0  0  0  0  0  0  0  0  # atno 11005 bound_to 11000
  145.4249  139.1558  143.4054 LP  0  0  0  0  0  0  0  0  0  0  0  0  # atno 17320 bound_to 7965
  146.2885  140.4361  142.8748 LP  0  0  0  0  0  0  0  0  0  0  0  0  # atno 17321 bound_to 7965
  139.9163  144.6826  150.8508 LP  0  0  0  0  0  0  0  0  0  0  0  0  # atno 17342 bound_to 10162
  140.7698  143.3407  151.2215 LP  0  0  0  0  0  0  0  0  0  0  0  0  # atno 17343 bound_to 10162
  156.1958  130.6589  151.1113 LP  0  0  0  0  0  0  0  0  0  0  0  0  # atno 17370 bound_to 10713
  157.7086  131.0745  150.6580 LP  0  0  0  0  0  0  0  0  0  0  0  0  # atno 17371 bound_to 10713
  141.0392  134.0646  157.3923 LP  0  0  0  0  0  0  0  0  0  0  0  0  # atno 17394 bound_to 11000
  139.8981  135.0153  156.7134 LP  0  0  0  0  0  0  0  0  0  0  0  0  # atno 17395 bound_to 11000

$$$$
