AV-unprocessed.smi:2830|AV-procd|sdf|10906|dock9
  -GOLD-   2272015353D 1   1.00000     0.00000
 Structure written by MMmdl.
 28 28  0  0  0  0  0  0  0  0  1 V2000
  146.1897  142.2979  154.2403 C   0  0  0  0  0  0  0  0  0  0  0  0
  146.8322  142.5798  155.4711 O   0  0  0  0  0  0  0  0  0  0  0  0
  147.2557  141.4053  156.1472 C   0  0  0  0  0  0  0  0  0  0  0  0
  148.7720  141.2084  155.9610 C   0  0  2  0  0  0  0  0  0  0  0  0
  149.4867  142.3347  156.5595 N   0  0  0  0  0  0  0  0  0  0  0  0
  150.5376  142.1489  157.4714 C   0  0  0  0  0  0  0  0  0  0  0  0
  151.3154  143.2685  157.8352 C   0  0  0  0  0  0  0  0  0  0  0  0
  152.3692  143.0962  158.7537 C   0  0  0  0  0  0  0  0  0  0  0  0
  152.6078  141.8109  159.2786 C   0  0  0  0  0  0  0  0  0  0  0  0
  153.6812  141.5823  160.2302 C   0  0  0  0  0  0  0  0  0  0  0  0
  154.5364  141.4001  160.9880 N   0  0  0  0  0  0  0  0  0  0  0  0
  151.7773  140.7528  158.8577 C   0  0  0  0  0  0  0  0  0  0  0  0
  150.7655  140.9128  157.9778 N   0  0  0  0  0  0  0  0  0  0  0  0
  149.1023  141.0116  154.4719 C   0  0  0  0  0  0  0  0  0  0  0  0
  149.6573  139.8488  154.1209 N   0  0  0  0  0  0  0  0  0  0  0  0
  148.8494  141.8896  153.6481 O   0  0  0  0  0  0  0  0  0  0  0  0
  145.8912  143.2302  153.7611 H   0  0  0  0  0  0  0  0  0  0  0  0
  145.2930  141.6959  154.3925 H   0  0  0  0  0  0  0  0  0  0  0  0
  146.8567  141.7685  153.5587 H   0  0  0  0  0  0  0  0  0  0  0  0
  146.9994  141.4597  157.2072 H   0  0  0  0  0  0  0  0  0  0  0  0
  146.7196  140.5502  155.7319 H   0  0  0  0  0  0  0  0  0  0  0  0
  149.0479  140.3050  156.5078 H   0  0  0  0  0  0  0  0  0  0  0  0
  149.3965  143.2342  156.1101 H   0  0  0  0  0  0  0  0  0  0  0  0
  151.1121  144.2443  157.4183 H   0  0  0  0  0  0  0  0  0  0  0  0
  152.9788  143.9389  159.0462 H   0  0  0  0  0  0  0  0  0  0  0  0
  151.9228  139.7502  159.2338 H   0  0  0  0  0  0  0  0  0  0  0  0
  149.8942  139.6754  153.1549 H   0  0  0  0  0  0  0  0  0  0  0  0
  149.8404  139.1481  154.8245 H   0  0  0  0  0  0  0  0  0  0  0  0
  1  2  1  0  0  0  0
  1 17  1  0  0  0  0
  1 18  1  0  0  0  0
  1 19  1  0  0  0  0
  2  3  1  0  0  0  0
  3  4  1  0  0  0  0
  3 20  1  0  0  0  0
  3 21  1  0  0  0  0
  4  5  1  0  0  0  0
  4 14  1  0  0  0  0
  4 22  1  0  0  0  0
  5  6  1  0  0  0  0
  5 23  1  0  0  0  0
  6 13  1  0  0  0  0
  6  7  2  0  0  0  0
  7  8  1  0  0  0  0
  7 24  1  0  0  0  0
  8  9  2  0  0  0  0
  8 25  1  0  0  0  0
  9 10  1  0  0  0  0
  9 12  1  0  0  0  0
 10 11  3  0  0  0  0
 12 13  2  0  0  0  0
 12 26  1  0  0  0  0
 14 15  1  0  0  0  0
 14 16  2  0  0  0  0
 15 27  1  0  0  0  0
 15 28  1  0  0  0  0
M  END
> <s_m_source_file>
AV-unprocessed.smi

> <i_m_source_file_index>
2830

> <i_lp_mmshare_version>
43012

> <i_f3d_flags>
0

> <s_epik_input>
W0NIM11PW0NIMl1bQ0BASF0oQyg9TylbTkgyXSlbTkhdYzFbY0hdW2NIXWMoQyNOKVtjSF1uMQ==

> <s_epik_cmdline>
J2VwaWtfcHl0aG9uJywgJy1waCcsICc3LjAnLCAnLXRuJywgJzgnLCAnLW1hJywgJzIwMCcsICctbWV0YWxfYmluZGluZycsICctaW1hZScsICc8aW5maWxlLm1hZT4nLCAnLW9tYWUnLCAnPG91dGZpbGUubWFlPic=

> <r_lp_tautomer_probability>
1

> <r_epik_Ionization_Penalty>
4.37908e-06

> <r_epik_Ionization_Penalty_Charging>
0

> <r_epik_Ionization_Penalty_Neutral>
4.37908e-06

> <r_epik_State_Penalty>
-0

> <r_epik_Charging_Adjusted_Penalty>
0

> <i_epik_Tot_Q>
0

> <i_epik_Tot_abs_Q>
0

> <r_epik_Metal_State_Penalty>
-0

> <b_epik_Metal_Only>
0

> <s_lp_Force_Field>
OPLS_2005

> <r_lp_Energy>
0.179783

> <b_lp_Chiralities_Consistent>
1

> <s_lp_Variant>
AV-unprocessed.smi:2830-1

> <Gold.Version>
5.8.1

> <Gold.Id.Protein>
6NUR|6NUR_protein|mol2

> <Gold.PLP.Fitness>
36.2511

> <Gold.PLP.PLP>
-29.4004

> <Gold.PLP.part.hbond>
-3.8862

> <Gold.PLP.part.metal>
0.0000

> <Gold.PLP.part.buried>
-3.4104

> <Gold.PLP.part.nonpolar>
-23.2255

> <Gold.PLP.part.repulsive>
1.9235

> <Gold.PLP.ligand.clash>
0.0000

> <Gold.PLP.ligand.torsion>
0.4292

> <Gold.PLP.Chemscore.Hbond>
2.5600

> <Gold.PLP.Chemscore.CHOScore>
0.0000

> <Gold.PLP.Chemscore.Metal>
0.0000

> <Gold.Chemscore.Hbonds>
donor molecule, donor type, donor heavy atom, donor atom, acceptor molecule, acceptor atom, score
      L1  H     5    23       P1  8028  1.00
      L1  H    15    27       P1  7957  0.98
      P1  H  8011  8017       L1    16  0.54

> <Gold.PLP.Chemscore.Internal.Correction>
0.0292

> <Gold.Rescore>
     Score         DG    S(hbond)    S(metal)    S(lipo)     H(rot)  DE(clash)    DE(int)     intcor
     10.86     -13.86       2.51        0.00      50.61       2.32       1.43       1.57       ----

> <Gold.Chemscore.Fitness>
10.8598

> <Gold.Chemscore.DG>
-13.8576

> <Gold.Chemscore.ZeroCoef>
-5.4800

> <Gold.Chemscore.Hbond>
2.5132

> <Gold.Chemscore.Metal>
0.0000

> <Gold.Chemscore.Lipo>
50.6139

> <Gold.Chemscore.Internal_Hbond>
0.0000

> <Gold.Chemscore.DEClash>
1.4291

> <Gold.Chemscore.DEInternal>
1.5687

> <Gold.Chemscore.Rot>
2.3197

> <Gold.Chemscore.Internal.Correction>
   9.000000E+99

> <Gold.Chemscore.Hbonds>
donor molecule, donor type, donor heavy atom, donor atom, acceptor molecule, acceptor atom, score
      L1  H     5    23       P1  8028  0.99
      L1  H    15    27       P1  7957  0.87
      P1  H  8011  8017       L1    16  0.54

> <Gold.Chemscore.Hbond.Weighted>
-8.3941

> <Gold.Chemscore.Metal.Weighted>
-0.0000

> <Gold.Chemscore.Lipo.Weighted>
-5.9218

> <Gold.Chemscore.Internal_Hbond.Weighted>
0.0000

> <Gold.Chemscore.DEClash.Weighted>
1.4291

> <Gold.Chemscore.DEInternal.Weighted>
1.5687

> <Gold.Chemscore.Rot.Weighted>
5.9384

> <Gold.Chemscore.Internal.Correction.Weighted>
   9.000000E+99

> <Gold.Protein.RotatedTorsions>
[ 6907 6896 6895 6894 ] final   -2.04 input  -60.11 | X-H torsion
[ 7974 7965 7964 7962 ] final   31.88 input  175.53 | X-H torsion
[ 8008 7997 7996 7995 ] final  101.51 input   59.86 | X-H torsion
[ 10167 10162 10161 10158 ] final  -57.25 input  -65.29 | X-H torsion
[ 10718 10713 10712 10709 ] final   73.01 input   66.30 | X-H torsion
[ 10763 10752 10751 10750 ] final  122.06 input  -60.55 | X-H torsion
[ 11005 11000 10999 10996 ] final  137.17 input  -57.11 | X-H torsion

> <Gold.Protein.ActiveResidues>
 VAL166  LYS551  ARG553  GLY616  TRP617  ASP618  TYR619  PRO620  LYS621  CYS622 
 ASP623  PHE694  ASN695  SER759  ASP760  ASP761  ALA762  ILE779  LEU786  VAL792 
 PHE793  MET794  SER795  GLU796  ALA797  LYS798  CYS799  TRP800  GLU811  SER814 

> <Gold.Protein.RotatedAtoms>
  151.5364  135.1068  159.9915 H   0  0  0  0  0  0  0  0  0  0  0  0  # atno 6907 bound_to 6896
  152.4555  133.7711  159.6810 H   0  0  0  0  0  0  0  0  0  0  0  0  # atno 6908 bound_to 6896
  150.8497  133.7740  159.3054 H   0  0  0  0  0  0  0  0  0  0  0  0  # atno 6909 bound_to 6896
  146.1522  139.6599  142.9091 H   0  0  0  0  0  0  0  0  0  0  0  0  # atno 7974 bound_to 7965
  156.1306  140.3196  155.8344 H   0  0  0  0  0  0  0  0  0  0  0  0  # atno 8008 bound_to 7997
  155.4338  140.0520  157.3033 H   0  0  0  0  0  0  0  0  0  0  0  0  # atno 8009 bound_to 7997
  154.4897  140.2087  155.9590 H   0  0  0  0  0  0  0  0  0  0  0  0  # atno 8010 bound_to 7997
  140.6269  143.2442  151.5341 H   0  0  0  0  0  0  0  0  0  0  0  0  # atno 10167 bound_to 10162
  157.6528  130.9607  150.1010 H   0  0  0  0  0  0  0  0  0  0  0  0  # atno 10718 bound_to 10713
  153.6239  135.3408  155.3020 H   0  0  0  0  0  0  0  0  0  0  0  0  # atno 10763 bound_to 10752
  154.8594  135.4279  154.2178 H   0  0  0  0  0  0  0  0  0  0  0  0  # atno 10764 bound_to 10752
  153.3057  135.7028  153.7234 H   0  0  0  0  0  0  0  0  0  0  0  0  # atno 10765 bound_to 10752
  140.0096  134.9445  157.0248 H   0  0  0  0  0  0  0  0  0  0  0  0  # atno 11005 bound_to 11000
  145.4795  141.0437  143.2653 LP  0  0  0  0  0  0  0  0  0  0  0  0  # atno 17320 bound_to 7965
  144.7918  139.6313  143.7110 LP  0  0  0  0  0  0  0  0  0  0  0  0  # atno 17321 bound_to 7965
  139.5488  144.2450  152.1492 LP  0  0  0  0  0  0  0  0  0  0  0  0  # atno 17342 bound_to 10162
  140.1684  144.4959  150.6593 LP  0  0  0  0  0  0  0  0  0  0  0  0  # atno 17343 bound_to 10162
  156.1932  130.3656  149.8882 LP  0  0  0  0  0  0  0  0  0  0  0  0  # atno 17370 bound_to 10713
  156.6805  130.8856  151.3575 LP  0  0  0  0  0  0  0  0  0  0  0  0  # atno 17371 bound_to 10713
  140.4579  134.1514  155.7188 LP  0  0  0  0  0  0  0  0  0  0  0  0  # atno 17394 bound_to 11000
  141.1701  133.8625  157.1596 LP  0  0  0  0  0  0  0  0  0  0  0  0  # atno 17395 bound_to 11000

$$$$
