AV-unprocessed.smi:2712|AV-procd|sdf|10475|dock6
  -GOLD-   2272014513D 1   1.00000     0.00000
 Structure written by MMmdl.
 52 53  0  0  0  0  0  0  0  0  1 V2000
  148.0542  140.5571  154.1933 C   0  0  0  0  0  0  0  0  0  0  0  0
  149.4061  140.1881  154.7282 C   0  0  0  0  0  0  0  0  0  0  0  0
  150.2010  141.0821  155.5483 C   0  0  0  0  0  0  0  0  0  0  0  0
  151.4105  140.6753  155.9897 C   0  0  0  0  0  0  0  0  0  0  0  0
  151.9435  139.3545  155.6624 C   0  0  0  0  0  0  0  0  0  0  0  0
  153.0425  138.9555  156.0476 O   0  0  0  0  0  0  0  0  0  0  0  0
  151.1094  138.6029  154.8838 N   0  0  0  0  0  0  0  0  0  0  0  0
  151.4890  137.2552  154.4357 C   0  0  0  0  0  0  0  0  0  0  0  0
  150.6456  136.1360  155.0653 C   0  0  0  0  0  0  0  0  0  0  0  0
  150.8832  135.7197  156.2004 O   0  0  0  0  0  0  0  0  0  0  0  0
  149.6556  135.6509  154.2998 N   0  0  0  0  0  0  0  0  0  0  0  0
  148.7300  134.5856  154.6811 C   0  0  1  0  0  0  0  0  0  0  0  0
  147.3535  135.2070  154.9821 C   0  0  0  0  0  0  0  0  0  0  0  0
  146.1937  134.2007  155.0244 C   0  0  0  0  0  0  0  0  0  0  0  0
  145.5352  133.9770  153.6494 C   0  0  0  0  0  0  0  0  0  0  0  0
  146.3424  133.1321  152.6238 C   0  0  1  0  0  0  0  0  0  0  0  0
  145.5748  132.8987  151.2694 C   0  0  0  0  0  0  0  0  0  0  0  0
  144.4369  131.8660  151.4230 C   0  0  0  0  0  0  0  0  0  0  0  0
  146.5345  132.4023  150.1630 C   0  0  0  0  0  0  0  0  0  0  0  0
  144.9688  134.2241  150.7486 C   0  0  0  0  0  0  0  0  0  0  0  0
  147.7800  133.6923  152.4232 C   0  0  0  0  0  0  0  0  0  0  0  0
  148.7108  133.4572  153.6261 C   0  0  0  0  0  0  0  0  0  0  0  0
  149.8666  139.0169  154.4328 N   0  0  0  0  0  0  0  0  0  0  0  0
  147.7376  141.5339  154.5594 H   0  0  0  0  0  0  0  0  0  0  0  0
  147.3027  139.8277  154.4970 H   0  0  0  0  0  0  0  0  0  0  0  0
  148.0669  140.5964  153.1035 H   0  0  0  0  0  0  0  0  0  0  0  0
  149.8222  142.0623  155.7976 H   0  0  0  0  0  0  0  0  0  0  0  0
  152.0021  141.3428  156.5989 H   0  0  0  0  0  0  0  0  0  0  0  0
  151.4204  137.1797  153.3491 H   0  0  0  0  0  0  0  0  0  0  0  0
  152.5386  137.0711  154.6737 H   0  0  0  0  0  0  0  0  0  0  0  0
  149.5308  136.0515  153.3814 H   0  0  0  0  0  0  0  0  0  0  0  0
  149.0944  134.1452  155.6112 H   0  0  0  0  0  0  0  0  0  0  0  0
  147.4169  135.7139  155.9460 H   0  0  0  0  0  0  0  0  0  0  0  0
  147.1208  135.9917  154.2605 H   0  0  0  0  0  0  0  0  0  0  0  0
  146.5039  133.2567  155.4736 H   0  0  0  0  0  0  0  0  0  0  0  0
  145.4296  134.6042  155.6899 H   0  0  0  0  0  0  0  0  0  0  0  0
  144.5882  133.4808  153.8557 H   0  0  0  0  0  0  0  0  0  0  0  0
  145.2748  134.9442  153.2203 H   0  0  0  0  0  0  0  0  0  0  0  0
  146.4498  132.1432  153.0722 H   0  0  0  0  0  0  0  0  0  0  0  0
  143.9218  131.7076  150.4748 H   0  0  0  0  0  0  0  0  0  0  0  0
  143.6847  132.1915  152.1413 H   0  0  0  0  0  0  0  0  0  0  0  0
  144.8080  130.8950  151.7496 H   0  0  0  0  0  0  0  0  0  0  0  0
  146.8878  131.3879  150.3473 H   0  0  0  0  0  0  0  0  0  0  0  0
  147.4059  133.0515  150.0701 H   0  0  0  0  0  0  0  0  0  0  0  0
  146.0431  132.3787  149.1896 H   0  0  0  0  0  0  0  0  0  0  0  0
  144.5589  134.1044  149.7451 H   0  0  0  0  0  0  0  0  0  0  0  0
  145.7197  135.0135  150.6974 H   0  0  0  0  0  0  0  0  0  0  0  0
  144.1469  134.5859  151.3642 H   0  0  0  0  0  0  0  0  0  0  0  0
  148.2568  133.1972  151.5815 H   0  0  0  0  0  0  0  0  0  0  0  0
  147.7570  134.7494  152.1567 H   0  0  0  0  0  0  0  0  0  0  0  0
  149.7251  133.2937  153.2595 H   0  0  0  0  0  0  0  0  0  0  0  0
  148.4464  132.5162  154.1092 H   0  0  0  0  0  0  0  0  0  0  0  0
  1  2  1  0  0  0  0
  1 24  1  0  0  0  0
  1 25  1  0  0  0  0
  1 26  1  0  0  0  0
  2 23  2  0  0  0  0
  2  3  1  0  0  0  0
  3  4  2  0  0  0  0
  3 27  1  0  0  0  0
  4  5  1  0  0  0  0
  4 28  1  0  0  0  0
  5  6  2  0  0  0  0
  5  7  1  0  0  0  0
  7  8  1  0  0  0  0
  7 23  1  0  0  0  0
  8  9  1  0  0  0  0
  8 29  1  0  0  0  0
  8 30  1  0  0  0  0
  9 10  2  0  0  0  0
  9 11  1  0  0  0  0
 11 12  1  0  0  0  0
 11 31  1  0  0  0  0
 12 22  1  0  0  0  0
 12 13  1  0  0  0  0
 12 32  1  0  0  0  0
 13 14  1  0  0  0  0
 13 33  1  0  0  0  0
 13 34  1  0  0  0  0
 14 15  1  0  0  0  0
 14 35  1  0  0  0  0
 14 36  1  0  0  0  0
 15 16  1  0  0  0  0
 15 37  1  0  0  0  0
 15 38  1  0  0  0  0
 16 17  1  0  0  0  0
 16 21  1  0  0  0  0
 16 39  1  0  0  0  0
 17 18  1  0  0  0  0
 17 19  1  0  0  0  0
 17 20  1  0  0  0  0
 18 40  1  0  0  0  0
 18 41  1  0  0  0  0
 18 42  1  0  0  0  0
 19 43  1  0  0  0  0
 19 44  1  0  0  0  0
 19 45  1  0  0  0  0
 20 46  1  0  0  0  0
 20 47  1  0  0  0  0
 20 48  1  0  0  0  0
 21 22  1  0  0  0  0
 21 49  1  0  0  0  0
 21 50  1  0  0  0  0
 22 51  1  0  0  0  0
 22 52  1  0  0  0  0
M  END
> <s_m_source_file>
AV-unprocessed.smi

> <i_m_source_file_index>
2712

> <i_lp_mmshare_version>
43012

> <i_f3d_flags>
0

> <s_epik_input>
W0NIM11jMVtjSF1bY0hdYyg9TyluKG4xKVtDSDJdQyg9TylbTkhdW0NAQEhdMltDSDJdW0NIMl1bQ0gyXVtDQEBIXShDKFtDSDNdKShbQ0gzXSlbQ0gzXSlbQ0gyXVtDSDJdMg==

> <s_epik_cmdline>
J2VwaWtfcHl0aG9uJywgJy1waCcsICc3LjAnLCAnLXRuJywgJzgnLCAnLW1hJywgJzIwMCcsICctbWV0YWxfYmluZGluZycsICctaW1hZScsICc8aW5maWxlLm1hZT4nLCAnLW9tYWUnLCAnPG91dGZpbGUubWFlPic=

> <r_lp_tautomer_probability>
1

> <r_epik_Ionization_Penalty>
8.71758e-07

> <r_epik_Ionization_Penalty_Charging>
8.50442e-07

> <r_epik_Ionization_Penalty_Neutral>
2.13165e-08

> <r_epik_State_Penalty>
-0

> <r_epik_Charging_Adjusted_Penalty>
8.50442e-07

> <i_epik_Tot_Q>
0

> <i_epik_Tot_abs_Q>
0

> <r_epik_Metal_State_Penalty>
-0

> <b_epik_Metal_Only>
0

> <s_lp_Force_Field>
OPLS_2005

> <r_lp_Energy>
40.0092

> <b_lp_Chiralities_Consistent>
1

> <s_lp_Variant>
AV-unprocessed.smi:2712-2

> <Gold.Version>
5.8.1

> <Gold.Id.Protein>
6NUR|6NUR_protein|mol2

> <Gold.PLP.Fitness>
41.8844

> <Gold.PLP.PLP>
-37.7089

> <Gold.PLP.part.hbond>
-2.0000

> <Gold.PLP.part.metal>
0.0000

> <Gold.PLP.part.buried>
1.3742

> <Gold.PLP.part.nonpolar>
-35.5454

> <Gold.PLP.part.repulsive>
0.2140

> <Gold.PLP.ligand.clash>
0.0000

> <Gold.PLP.ligand.torsion>
0.9549

> <Gold.PLP.Chemscore.Hbond>
2.0000

> <Gold.PLP.Chemscore.CHOScore>
0.0000

> <Gold.PLP.Chemscore.Metal>
0.0000

> <Gold.Chemscore.Hbonds>
donor molecule, donor type, donor heavy atom, donor atom, acceptor molecule, acceptor atom, score
      L1  H    11    31       P1  7948  1.00
      P1  H  7997  8008       L1     6  0.96

> <Gold.PLP.Chemscore.Internal.Correction>
0.0853

> <Gold.Rescore>
     Score         DG    S(hbond)    S(metal)    S(lipo)     H(rot)  DE(clash)    DE(int)     intcor
     15.34     -17.73       1.69        0.00      89.58       1.52       1.47       0.92       ----

> <Gold.Chemscore.Fitness>
15.3376

> <Gold.Chemscore.DG>
-17.7291

> <Gold.Chemscore.ZeroCoef>
-5.4800

> <Gold.Chemscore.Hbond>
1.6916

> <Gold.Chemscore.Metal>
0.0000

> <Gold.Chemscore.Lipo>
89.5768

> <Gold.Chemscore.Internal_Hbond>
0.0000

> <Gold.Chemscore.DEClash>
1.4721

> <Gold.Chemscore.DEInternal>
0.9195

> <Gold.Chemscore.Rot>
1.5162

> <Gold.Chemscore.Internal.Correction>
   9.000000E+99

> <Gold.Chemscore.Hbonds>
donor molecule, donor type, donor heavy atom, donor atom, acceptor molecule, acceptor atom, score
      L1  H    11    31       P1  7948  0.34
      P1  H  7997  8008       L1     6  0.92

> <Gold.Chemscore.Hbond.Weighted>
-5.6501

> <Gold.Chemscore.Metal.Weighted>
-0.0000

> <Gold.Chemscore.Lipo.Weighted>
-10.4805

> <Gold.Chemscore.Internal_Hbond.Weighted>
0.0000

> <Gold.Chemscore.DEClash.Weighted>
1.4721

> <Gold.Chemscore.DEInternal.Weighted>
0.9195

> <Gold.Chemscore.Rot.Weighted>
3.8814

> <Gold.Chemscore.Internal.Correction.Weighted>
   9.000000E+99

> <Gold.Protein.RotatedTorsions>
[ 6907 6896 6895 6894 ] final  -49.87 input  -60.11 | X-H torsion
[ 7974 7965 7964 7962 ] final  137.59 input  175.53 | X-H torsion
[ 8008 7997 7996 7995 ] final  -59.39 input   59.86 | X-H torsion
[ 10167 10162 10161 10158 ] final -141.72 input  -65.29 | X-H torsion
[ 10718 10713 10712 10709 ] final   17.44 input   66.30 | X-H torsion
[ 10763 10752 10751 10750 ] final   64.67 input  -60.55 | X-H torsion
[ 11005 11000 10999 10996 ] final  -99.68 input  -57.11 | X-H torsion

> <Gold.Protein.ActiveResidues>
 VAL166  LYS551  ARG553  GLY616  TRP617  ASP618  TYR619  PRO620  LYS621  CYS622 
 ASP623  PHE694  ASN695  SER759  ASP760  ASP761  ALA762  ILE779  LEU786  VAL792 
 PHE793  MET794  SER795  GLU796  ALA797  LYS798  CYS799  TRP800  GLU811  SER814 

> <Gold.Protein.RotatedAtoms>
  150.8763  134.8146  159.7191 H   0  0  0  0  0  0  0  0  0  0  0  0  # atno 6907 bound_to 6896
  152.4748  134.4867  159.9692 H   0  0  0  0  0  0  0  0  0  0  0  0  # atno 6908 bound_to 6896
  151.4948  133.3478  159.2895 H   0  0  0  0  0  0  0  0  0  0  0  0  # atno 6909 bound_to 6896
  144.9453  139.4882  143.5552 H   0  0  0  0  0  0  0  0  0  0  0  0  # atno 7974 bound_to 7965
  154.4350  140.1063  156.6108 H   0  0  0  0  0  0  0  0  0  0  0  0  # atno 8008 bound_to 7997
  155.5811  140.3491  155.4522 H   0  0  0  0  0  0  0  0  0  0  0  0  # atno 8009 bound_to 7997
  156.0317  140.1262  157.0240 H   0  0  0  0  0  0  0  0  0  0  0  0  # atno 8010 bound_to 7997
  139.8157  143.7641  152.2665 H   0  0  0  0  0  0  0  0  0  0  0  0  # atno 10167 bound_to 10162
  157.0821  130.6392  149.5829 H   0  0  0  0  0  0  0  0  0  0  0  0  # atno 10718 bound_to 10713
  153.0065  135.5385  154.6546 H   0  0  0  0  0  0  0  0  0  0  0  0  # atno 10763 bound_to 10752
  154.5770  135.2846  155.0773 H   0  0  0  0  0  0  0  0  0  0  0  0  # atno 10764 bound_to 10752
  154.1917  135.6499  153.5114 H   0  0  0  0  0  0  0  0  0  0  0  0  # atno 10765 bound_to 10752
  141.1299  133.8340  157.1003 H   0  0  0  0  0  0  0  0  0  0  0  0  # atno 11005 bound_to 11000
  146.3301  139.8500  142.8875 LP  0  0  0  0  0  0  0  0  0  0  0  0  # atno 17320 bound_to 7965
  145.2928  141.0172  143.3653 LP  0  0  0  0  0  0  0  0  0  0  0  0  # atno 17321 bound_to 7965
  139.7804  144.7446  151.0096 LP  0  0  0  0  0  0  0  0  0  0  0  0  # atno 17342 bound_to 10162
  140.7816  143.4548  151.0361 LP  0  0  0  0  0  0  0  0  0  0  0  0  # atno 17343 bound_to 10162
  155.9921  130.4977  150.7325 LP  0  0  0  0  0  0  0  0  0  0  0  0  # atno 17370 bound_to 10713
  157.4791  131.0900  151.0556 LP  0  0  0  0  0  0  0  0  0  0  0  0  # atno 17371 bound_to 10713
  140.0337  134.9888  157.0831 LP  0  0  0  0  0  0  0  0  0  0  0  0  # atno 17394 bound_to 11000
  140.4244  134.1847  155.7165 LP  0  0  0  0  0  0  0  0  0  0  0  0  # atno 17395 bound_to 11000

$$$$
