AV-unprocessed.smi:1978|AV-procd|sdf|8005|dock8
  -GOLD-   2272010193D 1   1.00000     0.00000
 Structure written by MMmdl.
 44 45  0  0  0  0  0  0  0  0  3 V2000
  146.5158  135.9003  162.9261 C   0  0  0  0  0  0  0  0  0  0  0  0
  147.1561  135.8398  161.5815 C   0  0  0  0  0  0  0  0  0  0  0  0
  147.6684  134.8104  160.8438 C   0  0  0  0  0  0  0  0  0  0  0  0
  148.1257  135.4544  159.6617 C   0  0  0  0  0  0  0  0  0  0  0  0
  148.7051  134.8553  158.6100 N   0  5  0  0  0  0  0  0  0  0  0  0
  148.1686  134.9791  157.3748 C   0  0  0  0  0  0  0  0  0  0  0  0
  148.0348  136.0233  156.7328 O   0  0  0  0  0  0  0  0  0  0  0  0
  147.7611  133.8175  156.8484 N   0  0  0  0  0  0  0  0  0  0  0  0
  147.1457  133.6601  155.5373 C   0  0  0  0  0  0  0  0  0  0  0  0
  148.0737  134.1807  154.4156 C   0  0  1  0  0  0  0  0  0  0  0  0
  149.3497  133.3276  154.2577 C   0  0  0  0  0  0  0  0  0  0  0  0
  147.3656  134.3598  153.1066 N   0  3  1  0  0  0  0  0  0  0  0  0
  147.2128  133.0972  152.3249 C   0  0  0  0  0  0  0  0  0  0  0  0
  146.7401  133.3792  150.8913 C   0  0  0  0  0  0  0  0  0  0  0  0
  145.4181  134.1497  150.9015 C   0  0  0  0  0  0  0  0  0  0  0  0
  145.5743  135.4278  151.7317 C   0  0  0  0  0  0  0  0  0  0  0  0
  146.0763  135.1273  153.1611 C   0  0  2  0  0  0  0  0  0  0  0  0
  146.1740  136.4505  153.9473 C   0  0  0  0  0  0  0  0  0  0  0  0
  147.8945  136.7564  159.6731 N   0  0  0  0  0  0  0  0  0  0  0  0
  147.2790  137.0129  160.9041 O   0  0  0  0  0  0  0  0  0  0  0  0
  145.5496  135.3963  162.9152 H   0  0  0  0  0  0  0  0  0  0  0  0
  146.3552  136.9322  163.2398 H   0  0  0  0  0  0  0  0  0  0  0  0
  147.1431  135.4147  163.6737 H   0  0  0  0  0  0  0  0  0  0  0  0
  147.7129  133.7646  161.1081 H   0  0  0  0  0  0  0  0  0  0  0  0
  147.8861  132.9847  157.4053 H   0  0  0  0  0  0  0  0  0  0  0  0
  146.9156  132.6045  155.3887 H   0  0  0  0  0  0  0  0  0  0  0  0
  146.1984  134.1998  155.5375 H   0  0  0  0  0  0  0  0  0  0  0  0
  148.4510  135.1538  154.7238 H   0  0  0  0  0  0  0  0  0  0  0  0
  149.9898  133.4125  155.1362 H   0  0  0  0  0  0  0  0  0  0  0  0
  149.9395  133.6544  153.4008 H   0  0  0  0  0  0  0  0  0  0  0  0
  149.1263  132.2685  154.1320 H   0  0  0  0  0  0  0  0  0  0  0  0
  148.1549  132.5554  152.2661 H   0  0  0  0  0  0  0  0  0  0  0  0
  146.5000  132.4366  152.8199 H   0  0  0  0  0  0  0  0  0  0  0  0
  147.4993  133.9533  150.3581 H   0  0  0  0  0  0  0  0  0  0  0  0
  146.6201  132.4421  150.3466 H   0  0  0  0  0  0  0  0  0  0  0  0
  145.1145  134.3943  149.8830 H   0  0  0  0  0  0  0  0  0  0  0  0
  144.6283  133.5269  151.3237 H   0  0  0  0  0  0  0  0  0  0  0  0
  146.2704  136.1027  151.2313 H   0  0  0  0  0  0  0  0  0  0  0  0
  144.6168  135.9485  151.7712 H   0  0  0  0  0  0  0  0  0  0  0  0
  145.3274  134.5036  153.6512 H   0  0  0  0  0  0  0  0  0  0  0  0
  145.2582  137.0331  153.8431 H   0  0  0  0  0  0  0  0  0  0  0  0
  146.9982  137.0683  153.5889 H   0  0  0  0  0  0  0  0  0  0  0  0
  146.3066  136.2852  155.0163 H   0  0  0  0  0  0  0  0  0  0  0  0
  147.9887  134.9381  152.5618 H   0  0  0  0  0  0  0  0  0  0  0  0
  1  2  1  0  0  0  0
  1 21  1  0  0  0  0
  1 22  1  0  0  0  0
  1 23  1  0  0  0  0
  2 20  1  0  0  0  0
  2  3  2  0  0  0  0
  3  4  1  0  0  0  0
  3 24  1  0  0  0  0
  4  5  1  0  0  0  0
  4 19  2  0  0  0  0
  5  6  1  0  0  0  0
  6  7  2  0  0  0  0
  6  8  1  0  0  0  0
  8  9  1  0  0  0  0
  8 25  1  0  0  0  0
  9 10  1  0  0  0  0
  9 26  1  0  0  0  0
  9 27  1  0  0  0  0
 10 11  1  0  0  0  0
 10 12  1  0  0  0  0
 10 28  1  0  0  0  0
 11 29  1  0  0  0  0
 11 30  1  0  0  0  0
 11 31  1  0  0  0  0
 12 17  1  0  0  0  0
 12 13  1  0  0  0  0
 12 44  1  0  0  0  0
 13 14  1  0  0  0  0
 13 32  1  0  0  0  0
 13 33  1  0  0  0  0
 14 15  1  0  0  0  0
 14 34  1  0  0  0  0
 14 35  1  0  0  0  0
 15 16  1  0  0  0  0
 15 36  1  0  0  0  0
 15 37  1  0  0  0  0
 16 17  1  0  0  0  0
 16 38  1  0  0  0  0
 16 39  1  0  0  0  0
 17 18  1  0  0  0  0
 17 40  1  0  0  0  0
 18 41  1  0  0  0  0
 18 42  1  0  0  0  0
 18 43  1  0  0  0  0
 19 20  1  0  0  0  0
M  CHG  1   5  -1
M  CHG  1  12   1
M  END
> <s_m_source_file>
AV-unprocessed.smi

> <i_m_source_file_index>
1978

> <i_lp_mmshare_version>
43012

> <i_f3d_flags>
0

> <s_epik_input>
W0NIM11jMVtjSF1jKG5vMSlbTkhdQyg9TylbTkhdW0NIMl1bQ0BIXShbQ0gzXSlOMltDSDJdW0NIMl1bQ0gyXVtDSDJdW0NASF0yW0NIM10=

> <s_epik_cmdline>
J2VwaWtfcHl0aG9uJywgJy1waCcsICc3LjAnLCAnLXRuJywgJzgnLCAnLW1hJywgJzIwMCcsICctbWV0YWxfYmluZGluZycsICctaW1hZScsICc8aW5maWxlLm1hZT4nLCAnLW9tYWUnLCAnPG91dGZpbGUubWFlPic=

> <r_epik_Ionization_Penalty>
6.22372

> <r_epik_Ionization_Penalty_Charging>
6.22362

> <r_epik_Ionization_Penalty_Neutral>
9.65074e-05

> <r_epik_State_Penalty>
6.22363

> <r_epik_Charging_Adjusted_Penalty>
12.4472

> <i_epik_Tot_Q>
0

> <i_epik_Tot_abs_Q>
2

> <r_epik_Metal_State_Penalty>
2.16675

> <b_epik_Metal_Only>
1

> <s_lp_Force_Field>
OPLS_2005

> <r_lp_Energy>
11.9993

> <b_lp_Chiralities_Consistent>
1

> <s_lp_Variant>
AV-unprocessed.smi:1978-14

> <Gold.Version>
5.8.1

> <Gold.Id.Protein>
6NUR|6NUR_protein|mol2

> <Gold.PLP.Fitness>
43.3429

> <Gold.PLP.PLP>
-28.6068

> <Gold.PLP.part.hbond>
-4.0000

> <Gold.PLP.part.metal>
0.0000

> <Gold.PLP.part.buried>
-3.9213

> <Gold.PLP.part.nonpolar>
-21.3626

> <Gold.PLP.part.repulsive>
0.0172

> <Gold.PLP.ligand.clash>
0.0000

> <Gold.PLP.ligand.torsion>
1.3634

> <Gold.PLP.Chemscore.Hbond>
5.7760

> <Gold.PLP.Chemscore.CHOScore>
0.0000

> <Gold.PLP.Chemscore.Metal>
0.0000

> <Gold.Chemscore.Hbonds>
donor molecule, donor type, donor heavy atom, donor atom, acceptor molecule, acceptor atom, score
      L1  H    12    44       P1  7948  2.00
      P1  H  6896  6909       L1     5  1.30
      P1  H  6931  6943       L1    20  0.13
      P1  H  6934  6947       L1    20  1.00

> <Gold.PLP.Chemscore.Internal.Correction>
0.1349

> <Gold.Rescore>
     Score         DG    S(hbond)    S(metal)    S(lipo)     H(rot)  DE(clash)    DE(int)     intcor
     14.45     -17.08       2.50        0.00      61.01       1.52       0.05       2.58       ----

> <Gold.Chemscore.Fitness>
14.4473

> <Gold.Chemscore.DG>
-17.0751

> <Gold.Chemscore.ZeroCoef>
-5.4800

> <Gold.Chemscore.Hbond>
2.4988

> <Gold.Chemscore.Metal>
0.0000

> <Gold.Chemscore.Lipo>
61.0061

> <Gold.Chemscore.Internal_Hbond>
0.0000

> <Gold.Chemscore.DEClash>
0.0515

> <Gold.Chemscore.DEInternal>
2.5763

> <Gold.Chemscore.Rot>
1.5190

> <Gold.Chemscore.Internal.Correction>
   9.000000E+99

> <Gold.Chemscore.Hbonds>
donor molecule, donor type, donor heavy atom, donor atom, acceptor molecule, acceptor atom, score
      L1  H    12    44       P1  7948  0.85
      P1  H  6896  6909       L1     5  0.26
      P1  H  6931  6943       L1    20  0.02
      P1  H  6934  6947       L1    20  0.33

> <Gold.Chemscore.Hbond.Weighted>
-8.3461

> <Gold.Chemscore.Metal.Weighted>
-0.0000

> <Gold.Chemscore.Lipo.Weighted>
-7.1377

> <Gold.Chemscore.Internal_Hbond.Weighted>
0.0000

> <Gold.Chemscore.DEClash.Weighted>
0.0515

> <Gold.Chemscore.DEInternal.Weighted>
2.5763

> <Gold.Chemscore.Rot.Weighted>
3.8886

> <Gold.Chemscore.Internal.Correction.Weighted>
   9.000000E+99

> <Gold.Protein.RotatedTorsions>
[ 6907 6896 6895 6894 ] final   28.03 input  -60.11 | X-H torsion
[ 7974 7965 7964 7962 ] final   21.55 input  175.53 | X-H torsion
[ 8008 7997 7996 7995 ] final  -16.33 input   59.86 | X-H torsion
[ 10167 10162 10161 10158 ] final   43.76 input  -65.29 | X-H torsion
[ 10718 10713 10712 10709 ] final -154.23 input   66.30 | X-H torsion
[ 10763 10752 10751 10750 ] final  161.97 input  -60.55 | X-H torsion
[ 11005 11000 10999 10996 ] final   65.09 input  -57.11 | X-H torsion

> <Gold.Protein.ActiveResidues>
 VAL166  LYS551  ARG553  GLY616  TRP617  ASP618  TYR619  PRO620  LYS621  CYS622 
 ASP623  PHE694  ASN695  SER759  ASP760  ASP761  ALA762  ILE779  LEU786  VAL792 
 PHE793  MET794  SER795  GLU796  ALA797  LYS798  CYS799  TRP800  GLU811  SER814 

> <Gold.Protein.RotatedAtoms>
  152.0110  134.9876  160.0567 H   0  0  0  0  0  0  0  0  0  0  0  0  # atno 6907 bound_to 6896
  152.1429  133.4470  159.4784 H   0  0  0  0  0  0  0  0  0  0  0  0  # atno 6908 bound_to 6896
  150.6867  134.2201  159.4436 H   0  0  0  0  0  0  0  0  0  0  0  0  # atno 6909 bound_to 6896
  146.2066  139.8011  142.8721 H   0  0  0  0  0  0  0  0  0  0  0  0  # atno 7974 bound_to 7965
  154.5062  140.2172  155.9247 H   0  0  0  0  0  0  0  0  0  0  0  0  # atno 8008 bound_to 7997
  156.1496  140.3164  155.8593 H   0  0  0  0  0  0  0  0  0  0  0  0  # atno 8009 bound_to 7997
  155.3965  140.0481  157.3029 H   0  0  0  0  0  0  0  0  0  0  0  0  # atno 8010 bound_to 7997
  140.3411  144.2469  150.6155 H   0  0  0  0  0  0  0  0  0  0  0  0  # atno 10167 bound_to 10162
  156.4964  130.8371  151.2591 H   0  0  0  0  0  0  0  0  0  0  0  0  # atno 10718 bound_to 10713
  154.2712  135.2765  155.2737 H   0  0  0  0  0  0  0  0  0  0  0  0  # atno 10763 bound_to 10752
  154.5300  135.5732  153.6754 H   0  0  0  0  0  0  0  0  0  0  0  0  # atno 10764 bound_to 10752
  152.9945  135.6225  154.2867 H   0  0  0  0  0  0  0  0  0  0  0  0  # atno 10765 bound_to 10752
  139.9916  134.6582  156.0080 H   0  0  0  0  0  0  0  0  0  0  0  0  # atno 11005 bound_to 11000
  145.3295  141.0263  143.3454 LP  0  0  0  0  0  0  0  0  0  0  0  0  # atno 17320 bound_to 7965
  144.8809  139.4906  143.6723 LP  0  0  0  0  0  0  0  0  0  0  0  0  # atno 17321 bound_to 7965
  140.5308  143.2244  151.8242 LP  0  0  0  0  0  0  0  0  0  0  0  0  # atno 17342 bound_to 10162
  139.4840  144.4723  151.9410 LP  0  0  0  0  0  0  0  0  0  0  0  0  # atno 17343 bound_to 10162
  157.7468  130.9996  150.2896 LP  0  0  0  0  0  0  0  0  0  0  0  0  # atno 17370 bound_to 10713
  156.3375  130.3810  149.7437 LP  0  0  0  0  0  0  0  0  0  0  0  0  # atno 17371 bound_to 10713
  141.1571  133.6542  156.4196 LP  0  0  0  0  0  0  0  0  0  0  0  0  # atno 17394 bound_to 11000
  140.4897  134.6587  157.5205 LP  0  0  0  0  0  0  0  0  0  0  0  0  # atno 17395 bound_to 11000

$$$$
