AV-unprocessed.smi:3244|AV-procd|sdf|12400|dock10
  -GOLD-   2272018273D 1   1.00000     0.00000
 Structure written by MMmdl.
 40 41  0  0  0  0  0  0  0  0  1 V2000
  154.0244  141.9356  160.1220 C   0  0  0  0  0  0  0  0  0  0  0  0
  152.5057  141.8162  159.9135 C   0  0  0  0  0  0  0  0  0  0  0  0
  152.0012  142.8092  158.9501 N   0  0  0  0  0  0  0  0  0  0  0  0
  151.4966  142.4040  157.7554 C   0  0  0  0  0  0  0  0  0  0  0  0
  151.2208  143.1958  156.8532 O   0  0  0  0  0  0  0  0  0  0  0  0
  151.2419  140.9126  157.4947 C   0  0  0  0  0  0  0  0  0  0  0  0
  150.5933  140.6903  156.1961 N   0  0  0  0  0  0  0  0  0  0  0  0
  150.9418  139.4097  155.5885 C   0  0  2  0  0  0  0  0  0  0  0  0
  152.4672  139.3011  155.4220 C   0  0  0  0  0  0  0  0  0  0  0  0
  150.2250  139.2972  154.2274 C   0  0  0  0  0  0  0  0  0  0  0  0
  149.0863  140.1951  154.1216 N   0  0  0  0  0  0  0  0  0  0  0  0
  147.7528  139.8736  153.9782 C   0  0  0  0  0  0  0  0  0  0  0  0
  147.0550  141.0460  153.9242 C   0  0  0  0  0  0  0  0  0  0  0  0
  148.0626  142.0442  154.0377 C   0  0  0  0  0  0  0  0  0  0  0  0
  149.2773  141.5320  154.1524 N   0  0  0  0  0  0  0  0  0  0  0  0
  152.3036  144.1807  159.2722 C   0  0  0  0  0  0  0  0  0  0  0  0
  151.8487  144.7818  160.5903 C   0  0  0  0  0  0  0  0  0  0  0  0
  151.1942  145.2152  159.3080 C   0  0  0  0  0  0  0  0  0  0  0  0
  154.3694  141.2132  160.8618 H   0  0  0  0  0  0  0  0  0  0  0  0
  154.2941  142.9300  160.4794 H   0  0  0  0  0  0  0  0  0  0  0  0
  154.5769  141.7499  159.2007 H   0  0  0  0  0  0  0  0  0  0  0  0
  152.2552  140.8090  159.5764 H   0  0  0  0  0  0  0  0  0  0  0  0
  152.0189  141.9202  160.8820 H   0  0  0  0  0  0  0  0  0  0  0  0
  152.1963  140.3861  157.5175 H   0  0  0  0  0  0  0  0  0  0  0  0
  150.6443  140.4918  158.3019 H   0  0  0  0  0  0  0  0  0  0  0  0
  150.7733  141.4435  155.5476 H   0  0  0  0  0  0  0  0  0  0  0  0
  150.5937  138.5928  156.2231 H   0  0  0  0  0  0  0  0  0  0  0  0
  152.7373  138.3703  154.9225 H   0  0  0  0  0  0  0  0  0  0  0  0
  152.9828  139.3083  156.3822 H   0  0  0  0  0  0  0  0  0  0  0  0
  152.8622  140.1229  154.8233 H   0  0  0  0  0  0  0  0  0  0  0  0
  150.9182  139.4924  153.4069 H   0  0  0  0  0  0  0  0  0  0  0  0
  149.8561  138.2810  154.0838 H   0  0  0  0  0  0  0  0  0  0  0  0
  147.4155  138.8486  153.9329 H   0  0  0  0  0  0  0  0  0  0  0  0
  145.9877  141.1715  153.8198 H   0  0  0  0  0  0  0  0  0  0  0  0
  147.9479  143.1179  154.0404 H   0  0  0  0  0  0  0  0  0  0  0  0
  153.2698  144.5312  158.9159 H   0  0  0  0  0  0  0  0  0  0  0  0
  151.2410  144.1814  161.2644 H   0  0  0  0  0  0  0  0  0  0  0  0
  152.5193  145.4887  161.0747 H   0  0  0  0  0  0  0  0  0  0  0  0
  151.4252  146.2101  158.9338 H   0  0  0  0  0  0  0  0  0  0  0  0
  150.1710  144.8826  159.1435 H   0  0  0  0  0  0  0  0  0  0  0  0
  1  2  1  0  0  0  0
  1 19  1  0  0  0  0
  1 20  1  0  0  0  0
  1 21  1  0  0  0  0
  2  3  1  0  0  0  0
  2 22  1  0  0  0  0
  2 23  1  0  0  0  0
  3  4  1  0  0  0  0
  3 16  1  0  0  0  0
  4  5  2  0  0  0  0
  4  6  1  0  0  0  0
  6  7  1  0  0  0  0
  6 24  1  0  0  0  0
  6 25  1  0  0  0  0
  7  8  1  0  0  0  0
  7 26  1  0  0  0  0
  8  9  1  0  0  0  0
  8 10  1  0  0  0  0
  8 27  1  0  0  0  0
  9 28  1  0  0  0  0
  9 29  1  0  0  0  0
  9 30  1  0  0  0  0
 10 11  1  0  0  0  0
 10 31  1  0  0  0  0
 10 32  1  0  0  0  0
 11 15  1  0  0  0  0
 11 12  1  0  0  0  0
 12 13  2  0  0  0  0
 12 33  1  0  0  0  0
 13 14  1  0  0  0  0
 13 34  1  0  0  0  0
 14 15  2  0  0  0  0
 14 35  1  0  0  0  0
 16 18  1  0  0  0  0
 16 17  1  0  0  0  0
 16 36  1  0  0  0  0
 17 18  1  0  0  0  0
 17 37  1  0  0  0  0
 17 38  1  0  0  0  0
 18 39  1  0  0  0  0
 18 40  1  0  0  0  0
M  END
> <s_m_source_file>
AV-unprocessed.smi

> <i_m_source_file_index>
3244

> <i_lp_mmshare_version>
43012

> <i_f3d_flags>
0

> <s_epik_input>
W0NIMl0xW0NIMl1bQ0hdMU4oW0NIMl1bQ0gzXSlDKD1PKVtDSDJdW05IXVtDQEhdKFtDSDNdKVtDSDJdbjJbY0hdW2NIXVtjSF1uMg==

> <s_epik_cmdline>
J2VwaWtfcHl0aG9uJywgJy1waCcsICc3LjAnLCAnLXRuJywgJzgnLCAnLW1hJywgJzIwMCcsICctbWV0YWxfYmluZGluZycsICctaW1hZScsICc8aW5maWxlLm1hZT4nLCAnLW9tYWUnLCAnPG91dGZpbGUubWFlPic=

> <r_lp_tautomer_probability>
1

> <r_epik_Ionization_Penalty>
1.02506

> <r_epik_Ionization_Penalty_Charging>
0

> <r_epik_Ionization_Penalty_Neutral>
1.02506

> <r_epik_State_Penalty>
1.07563

> <r_epik_Charging_Adjusted_Penalty>
1.07563

> <i_epik_Tot_Q>
0

> <i_epik_Tot_abs_Q>
0

> <r_epik_Metal_State_Penalty>
1.07558

> <b_epik_Metal_Only>
0

> <s_lp_Force_Field>
OPLS_2005

> <r_lp_Energy>
34.7243

> <b_lp_Chiralities_Consistent>
1

> <s_lp_Variant>
AV-unprocessed.smi:3244-3

> <Gold.Version>
5.8.1

> <Gold.Id.Protein>
6NUR|6NUR_protein|mol2

> <Gold.PLP.Fitness>
45.3498

> <Gold.PLP.PLP>
-43.1172

> <Gold.PLP.part.hbond>
-1.7580

> <Gold.PLP.part.metal>
0.0000

> <Gold.PLP.part.buried>
-2.1190

> <Gold.PLP.part.nonpolar>
-39.8258

> <Gold.PLP.part.repulsive>
1.0375

> <Gold.PLP.ligand.clash>
0.0000

> <Gold.PLP.ligand.torsion>
0.9362

> <Gold.PLP.Chemscore.Hbond>
0.2460

> <Gold.PLP.Chemscore.CHOScore>
0.9884

> <Gold.PLP.Chemscore.Metal>
0.0000

> <Gold.Chemscore.Hbonds>
donor molecule, donor type, donor heavy atom, donor atom, acceptor molecule, acceptor atom, score
      P1  H  8011  8017       L1    15  0.24
      L1  C    14    35       P1  8028  0.98

> <Gold.PLP.Chemscore.Internal.Correction>
0.4020

> <Gold.Rescore>
     Score         DG    S(hbond)    S(metal)    S(lipo)     H(rot)  DE(clash)    DE(int)     intcor
      9.88     -12.89       0.06        0.00     104.53       1.95       0.48       2.53       ----

> <Gold.Chemscore.Fitness>
9.8794

> <Gold.Chemscore.DG>
-12.8933

> <Gold.Chemscore.ZeroCoef>
-5.4800

> <Gold.Chemscore.Hbond>
0.0564

> <Gold.Chemscore.Metal>
0.0000

> <Gold.Chemscore.Lipo>
104.5265

> <Gold.Chemscore.Internal_Hbond>
0.0000

> <Gold.Chemscore.DEClash>
0.4811

> <Gold.Chemscore.DEInternal>
2.5329

> <Gold.Chemscore.Rot>
1.9550

> <Gold.Chemscore.Internal.Correction>
   9.000000E+99

> <Gold.Chemscore.Hbonds>
donor molecule, donor type, donor heavy atom, donor atom, acceptor molecule, acceptor atom, score
      P1  H  8011  8017       L1    15  0.01

> <Gold.Chemscore.Hbond.Weighted>
-0.1884

> <Gold.Chemscore.Metal.Weighted>
-0.0000

> <Gold.Chemscore.Lipo.Weighted>
-12.2296

> <Gold.Chemscore.Internal_Hbond.Weighted>
0.0000

> <Gold.Chemscore.DEClash.Weighted>
0.4811

> <Gold.Chemscore.DEInternal.Weighted>
2.5329

> <Gold.Chemscore.Rot.Weighted>
5.0047

> <Gold.Chemscore.Internal.Correction.Weighted>
   9.000000E+99

> <Gold.Protein.RotatedTorsions>
[ 6907 6896 6895 6894 ] final  163.79 input  -60.11 | X-H torsion
[ 7974 7965 7964 7962 ] final  -26.14 input  175.53 | X-H torsion
[ 8008 7997 7996 7995 ] final   10.48 input   59.86 | X-H torsion
[ 10167 10162 10161 10158 ] final -138.74 input  -65.29 | X-H torsion
[ 10718 10713 10712 10709 ] final -171.71 input   66.30 | X-H torsion
[ 10763 10752 10751 10750 ] final  -25.46 input  -60.55 | X-H torsion
[ 11005 11000 10999 10996 ] final   20.75 input  -57.11 | X-H torsion

> <Gold.Protein.ActiveResidues>
 VAL166  LYS551  ARG553  GLY616  TRP617  ASP618  TYR619  PRO620  LYS621  CYS622 
 ASP623  PHE694  ASN695  SER759  ASP760  ASP761  ALA762  ILE779  LEU786  VAL792 
 PHE793  MET794  SER795  GLU796  ALA797  LYS798  CYS799  TRP800  GLU811  SER814 

> <Gold.Protein.RotatedAtoms>
  151.9198  133.3582  159.3892 H   0  0  0  0  0  0  0  0  0  0  0  0  # atno 6907 bound_to 6896
  150.7039  134.4647  159.5406 H   0  0  0  0  0  0  0  0  0  0  0  0  # atno 6908 bound_to 6896
  152.2268  134.8360  160.0529 H   0  0  0  0  0  0  0  0  0  0  0  0  # atno 6909 bound_to 6896
  146.1445  140.4980  142.8637 H   0  0  0  0  0  0  0  0  0  0  0  0  # atno 7974 bound_to 7965
  154.7939  140.2840  155.5971 H   0  0  0  0  0  0  0  0  0  0  0  0  # atno 8008 bound_to 7997
  156.2968  140.2599  156.2722 H   0  0  0  0  0  0  0  0  0  0  0  0  # atno 8009 bound_to 7997
  154.9637  140.0377  157.2192 H   0  0  0  0  0  0  0  0  0  0  0  0  # atno 8010 bound_to 7997
  139.8448  143.7274  152.2661 H   0  0  0  0  0  0  0  0  0  0  0  0  # atno 10167 bound_to 10162
  156.7448  130.9356  151.3112 H   0  0  0  0  0  0  0  0  0  0  0  0  # atno 10718 bound_to 10713
  153.7002  135.6957  153.5065 H   0  0  0  0  0  0  0  0  0  0  0  0  # atno 10763 bound_to 10752
  153.2348  135.4325  155.0633 H   0  0  0  0  0  0  0  0  0  0  0  0  # atno 10764 bound_to 10752
  154.8346  135.3493  154.6541 H   0  0  0  0  0  0  0  0  0  0  0  0  # atno 10765 bound_to 10752
  140.3992  134.1737  155.7663 H   0  0  0  0  0  0  0  0  0  0  0  0  # atno 11005 bound_to 11000
  144.7830  140.5880  143.6592 LP  0  0  0  0  0  0  0  0  0  0  0  0  # atno 17320 bound_to 7965
  145.4969  139.1485  143.3679 LP  0  0  0  0  0  0  0  0  0  0  0  0  # atno 17321 bound_to 7965
  139.7523  144.7531  151.0488 LP  0  0  0  0  0  0  0  0  0  0  0  0  # atno 17342 bound_to 10162
  140.7794  143.4846  150.9973 LP  0  0  0  0  0  0  0  0  0  0  0  0  # atno 17343 bound_to 10162
  157.6803  130.9133  150.0250 LP  0  0  0  0  0  0  0  0  0  0  0  0  # atno 17370 bound_to 10713
  156.1440  130.3642  149.9538 LP  0  0  0  0  0  0  0  0  0  0  0  0  # atno 17371 bound_to 10713
  141.1863  133.8305  157.1073 LP  0  0  0  0  0  0  0  0  0  0  0  0  # atno 17394 bound_to 11000
  140.0349  134.9883  157.0852 LP  0  0  0  0  0  0  0  0  0  0  0  0  # atno 17395 bound_to 11000

$$$$
