AV-unprocessed.smi:3292|AV-procd|sdf|12624|dock9
  -GOLD-   2272018553D 1   1.00000     0.00000
 Structure written by MMmdl.
 39 40  0  0  0  0  0  0  0  0  2 V2000
  145.9122  133.1836  154.1677 C   0  0  0  0  0  0  0  0  0  0  0  0
  147.1379  132.9870  153.2609 C   0  0  1  0  0  0  0  0  0  0  0  0
  146.7686  132.8138  151.7715 C   0  0  0  0  0  0  0  0  0  0  0  0
  145.6535  133.6707  151.3590 N   0  0  0  0  0  0  0  0  0  0  0  0
  145.6502  135.0393  151.2754 C   0  0  0  0  0  0  0  0  0  0  0  0
  144.3972  135.4020  150.8531 C   0  0  0  0  0  0  0  0  0  0  0  0
  143.6882  134.2406  150.7005 N   0  3  0  0  0  0  0  0  0  0  0  0
  144.4529  133.1888  151.0117 C   0  0  0  0  0  0  0  0  0  0  0  0
  148.0457  134.1187  153.4250 N   0  0  0  0  0  0  0  0  0  0  0  0
  148.7291  134.3999  154.5439 C   0  0  0  0  0  0  0  0  0  0  0  0
  148.6638  133.7310  155.5756 O   0  0  0  0  0  0  0  0  0  0  0  0
  149.5002  135.4864  154.3979 N   0  0  0  0  0  0  0  0  0  0  0  0
  150.3826  136.0383  155.4212 C   0  0  0  0  0  0  0  0  0  0  0  0
  150.3445  137.5783  155.4428 C   0  0  1  0  0  0  0  0  0  0  0  0
  151.4281  138.2041  156.2963 C   0  0  0  0  0  0  0  0  0  0  0  0
  151.4443  139.6413  155.7838 C   0  0  0  0  0  0  0  0  0  0  0  0
  151.0719  139.5692  154.4106 O   0  0  0  0  0  0  0  0  0  0  0  0
  150.6104  138.2587  154.0981 C   0  0  0  0  0  0  0  0  0  0  0  0
  145.2530  132.3157  154.1431 H   0  0  0  0  0  0  0  0  0  0  0  0
  145.3296  134.0540  153.8644 H   0  0  0  0  0  0  0  0  0  0  0  0
  146.2127  133.3299  155.2056 H   0  0  0  0  0  0  0  0  0  0  0  0
  147.6505  132.0844  153.5998 H   0  0  0  0  0  0  0  0  0  0  0  0
  147.6268  133.0317  151.1334 H   0  0  0  0  0  0  0  0  0  0  0  0
  146.4750  131.7839  151.5631 H   0  0  0  0  0  0  0  0  0  0  0  0
  146.5183  135.6364  151.5156 H   0  0  0  0  0  0  0  0  0  0  0  0
  143.9682  136.3738  150.6563 H   0  0  0  0  0  0  0  0  0  0  0  0
  144.1587  132.1546  150.9838 H   0  0  0  0  0  0  0  0  0  0  0  0
  148.1652  134.7278  152.6287 H   0  0  0  0  0  0  0  0  0  0  0  0
  149.4826  135.9657  153.5093 H   0  0  0  0  0  0  0  0  0  0  0  0
  150.0485  135.6542  156.3853 H   0  0  0  0  0  0  0  0  0  0  0  0
  151.4046  135.6788  155.2885 H   0  0  0  0  0  0  0  0  0  0  0  0
  149.3756  137.9116  155.8189 H   0  0  0  0  0  0  0  0  0  0  0  0
  151.2243  138.1379  157.3654 H   0  0  0  0  0  0  0  0  0  0  0  0
  152.3901  137.7276  156.1015 H   0  0  0  0  0  0  0  0  0  0  0  0
  150.7024  140.2415  156.3116 H   0  0  0  0  0  0  0  0  0  0  0  0
  152.4169  140.1174  155.9095 H   0  0  0  0  0  0  0  0  0  0  0  0
  151.3995  137.7400  153.5520 H   0  0  0  0  0  0  0  0  0  0  0  0
  149.7250  138.2915  153.4630 H   0  0  0  0  0  0  0  0  0  0  0  0
  142.7240  134.1832  150.3975 H   0  0  0  0  0  0  0  0  0  0  0  0
  1  2  1  0  0  0  0
  1 19  1  0  0  0  0
  1 20  1  0  0  0  0
  1 21  1  0  0  0  0
  2  3  1  0  0  0  0
  2  9  1  0  0  0  0
  2 22  1  0  0  0  0
  3  4  1  0  0  0  0
  3 23  1  0  0  0  0
  3 24  1  0  0  0  0
  4  8  1  0  0  0  0
  4  5  1  0  0  0  0
  5  6  2  0  0  0  0
  5 25  1  0  0  0  0
  6  7  1  0  0  0  0
  6 26  1  0  0  0  0
  7  8  2  0  0  0  0
  7 39  1  0  0  0  0
  8 27  1  0  0  0  0
  9 10  1  0  0  0  0
  9 28  1  0  0  0  0
 10 11  2  0  0  0  0
 10 12  1  0  0  0  0
 12 13  1  0  0  0  0
 12 29  1  0  0  0  0
 13 14  1  0  0  0  0
 13 30  1  0  0  0  0
 13 31  1  0  0  0  0
 14 18  1  0  0  0  0
 14 15  1  0  0  0  0
 14 32  1  0  0  0  0
 15 16  1  0  0  0  0
 15 33  1  0  0  0  0
 15 34  1  0  0  0  0
 16 17  1  0  0  0  0
 16 35  1  0  0  0  0
 16 36  1  0  0  0  0
 17 18  1  0  0  0  0
 18 37  1  0  0  0  0
 18 38  1  0  0  0  0
M  CHG  1   7   1
M  END
> <s_m_source_file>
AV-unprocessed.smi

> <i_m_source_file_index>
3292

> <i_lp_mmshare_version>
43012

> <i_f3d_flags>
0

> <s_epik_input>
W2NIXTFuW2NIXVtjSF1uMVtDSDJdW0NAQEhdKFtDSDNdKVtOSF1DKD1PKVtOSF1bQ0gyXVtDQEBIXTJbQ0gyXVtDSDJdT1tDSDJdMg==

> <s_epik_cmdline>
J2VwaWtfcHl0aG9uJywgJy1waCcsICc3LjAnLCAnLXRuJywgJzgnLCAnLW1hJywgJzIwMCcsICctbWV0YWxfYmluZGluZycsICctaW1hZScsICc8aW5maWxlLm1hZT4nLCAnLW9tYWUnLCAnPG91dGZpbGUubWFlPic=

> <r_lp_tautomer_probability>
1

> <r_epik_Ionization_Penalty>
0.255703

> <r_epik_Ionization_Penalty_Charging>
0

> <r_epik_Ionization_Penalty_Neutral>
0.255703

> <r_epik_State_Penalty>
0.247169

> <r_epik_Charging_Adjusted_Penalty>
0.247169

> <i_epik_Tot_Q>
1

> <i_epik_Tot_abs_Q>
1

> <r_epik_Metal_State_Penalty>
0.536791

> <b_epik_Metal_Only>
0

> <s_lp_Force_Field>
OPLS_2005

> <r_lp_Energy>
19.2817

> <b_lp_Chiralities_Consistent>
1

> <s_lp_Variant>
AV-unprocessed.smi:3292-4

> <Gold.Version>
5.8.1

> <Gold.Id.Protein>
6NUR|6NUR_protein|mol2

> <Gold.PLP.Fitness>
46.6641

> <Gold.PLP.PLP>
-29.7218

> <Gold.PLP.part.hbond>
-4.0000

> <Gold.PLP.part.metal>
0.0000

> <Gold.PLP.part.buried>
-4.0512

> <Gold.PLP.part.nonpolar>
-21.4280

> <Gold.PLP.part.repulsive>
0.1906

> <Gold.PLP.ligand.clash>
0.0000

> <Gold.PLP.ligand.torsion>
0.5707

> <Gold.PLP.Chemscore.Hbond>
5.0000

> <Gold.PLP.Chemscore.CHOScore>
1.0000

> <Gold.PLP.Chemscore.Metal>
0.0000

> <Gold.Chemscore.Hbonds>
donor molecule, donor type, donor heavy atom, donor atom, acceptor molecule, acceptor atom, score
      L1  H     7    39       P1 10186  2.00
      L1  H     9    28       P1  7948  1.00
      L1  H    12    29       P1  7948  1.00
      P1  H  7989  7998       L1    17  1.00
      L1  C     5    25       P1  7948  1.00

> <Gold.PLP.Chemscore.Internal.Correction>
0.0838

> <Gold.Rescore>
     Score         DG    S(hbond)    S(metal)    S(lipo)     H(rot)  DE(clash)    DE(int)     intcor
     16.51     -17.05       3.48        0.00      48.47       2.24       0.04       0.50       ----

> <Gold.Chemscore.Fitness>
16.5060

> <Gold.Chemscore.DG>
-17.0502

> <Gold.Chemscore.ZeroCoef>
-5.4800

> <Gold.Chemscore.Hbond>
3.4806

> <Gold.Chemscore.Metal>
0.0000

> <Gold.Chemscore.Lipo>
48.4684

> <Gold.Chemscore.Internal_Hbond>
0.0000

> <Gold.Chemscore.DEClash>
0.0440

> <Gold.Chemscore.DEInternal>
0.5002

> <Gold.Chemscore.Rot>
2.2367

> <Gold.Chemscore.Internal.Correction>
   9.000000E+99

> <Gold.Chemscore.Hbonds>
donor molecule, donor type, donor heavy atom, donor atom, acceptor molecule, acceptor atom, score
      L1  H     7    39       P1 10186  0.82
      L1  H     9    28       P1  7948  0.52
      L1  H    12    29       P1  7948  0.39
      P1  H  7989  7998       L1    17  0.88

> <Gold.Chemscore.Hbond.Weighted>
-11.6253

> <Gold.Chemscore.Metal.Weighted>
-0.0000

> <Gold.Chemscore.Lipo.Weighted>
-5.6708

> <Gold.Chemscore.Internal_Hbond.Weighted>
0.0000

> <Gold.Chemscore.DEClash.Weighted>
0.0440

> <Gold.Chemscore.DEInternal.Weighted>
0.5002

> <Gold.Chemscore.Rot.Weighted>
5.7259

> <Gold.Chemscore.Internal.Correction.Weighted>
   9.000000E+99

> <Gold.Protein.RotatedTorsions>
[ 6907 6896 6895 6894 ] final -123.87 input  -60.11 | X-H torsion
[ 7974 7965 7964 7962 ] final  -63.84 input  175.53 | X-H torsion
[ 8008 7997 7996 7995 ] final  130.63 input   59.86 | X-H torsion
[ 10167 10162 10161 10158 ] final   25.84 input  -65.29 | X-H torsion
[ 10718 10713 10712 10709 ] final   28.27 input   66.30 | X-H torsion
[ 10763 10752 10751 10750 ] final  -65.90 input  -60.55 | X-H torsion
[ 11005 11000 10999 10996 ] final -103.50 input  -57.11 | X-H torsion

> <Gold.Protein.ActiveResidues>
 VAL166  LYS551  ARG553  GLY616  TRP617  ASP618  TYR619  PRO620  LYS621  CYS622 
 ASP623  PHE694  ASN695  SER759  ASP760  ASP761  ALA762  ILE779  LEU786  VAL792 
 PHE793  MET794  SER795  GLU796  ALA797  LYS798  CYS799  TRP800  GLU811  SER814 

> <Gold.Protein.RotatedAtoms>
  150.8713  133.7502  159.2960 H   0  0  0  0  0  0  0  0  0  0  0  0  # atno 6907 bound_to 6896
  151.5113  135.1063  159.9864 H   0  0  0  0  0  0  0  0  0  0  0  0  # atno 6908 bound_to 6896
  152.4697  133.7956  159.6981 H   0  0  0  0  0  0  0  0  0  0  0  0  # atno 6909 bound_to 6896
  145.7741  140.8797  143.0364 H   0  0  0  0  0  0  0  0  0  0  0  0  # atno 7974 bound_to 7965
  156.2957  140.2591  156.2793 H   0  0  0  0  0  0  0  0  0  0  0  0  # atno 8008 bound_to 7997
  154.9618  140.0392  157.2212 H   0  0  0  0  0  0  0  0  0  0  0  0  # atno 8009 bound_to 7997
  154.7940  140.2816  155.5975 H   0  0  0  0  0  0  0  0  0  0  0  0  # atno 8010 bound_to 7997
  140.5072  144.0219  150.6357 H   0  0  0  0  0  0  0  0  0  0  0  0  # atno 10167 bound_to 10162
  157.2312  130.7025  149.6314 H   0  0  0  0  0  0  0  0  0  0  0  0  # atno 10718 bound_to 10713
  154.3519  135.6134  153.5647 H   0  0  0  0  0  0  0  0  0  0  0  0  # atno 10763 bound_to 10752
  152.9798  135.5794  154.4733 H   0  0  0  0  0  0  0  0  0  0  0  0  # atno 10764 bound_to 10752
  154.4456  135.2851  155.1795 H   0  0  0  0  0  0  0  0  0  0  0  0  # atno 10765 bound_to 10752
  141.1143  133.8646  157.1494 H   0  0  0  0  0  0  0  0  0  0  0  0  # atno 11005 bound_to 11000
  144.6807  139.9897  143.7484 LP  0  0  0  0  0  0  0  0  0  0  0  0  # atno 17320 bound_to 7965
  146.0140  139.3194  143.0853 LP  0  0  0  0  0  0  0  0  0  0  0  0  # atno 17321 bound_to 7965
  140.3531  143.2951  152.0465 LP  0  0  0  0  0  0  0  0  0  0  0  0  # atno 17342 bound_to 10162
  139.4887  144.6359  151.6977 LP  0  0  0  0  0  0  0  0  0  0  0  0  # atno 17343 bound_to 10162
  155.9675  130.4488  150.5634 LP  0  0  0  0  0  0  0  0  0  0  0  0  # atno 17370 bound_to 10713
  157.3476  131.0728  151.1739 LP  0  0  0  0  0  0  0  0  0  0  0  0  # atno 17371 bound_to 10713
  140.0055  135.0010  157.0283 LP  0  0  0  0  0  0  0  0  0  0  0  0  # atno 17394 bound_to 11000
  140.4690  134.1406  155.7200 LP  0  0  0  0  0  0  0  0  0  0  0  0  # atno 17395 bound_to 11000

$$$$
