AV-unprocessed.smi:837|AV-procd|sdf|3907|dock7
  -GOLD-   22720 1373D 1   1.00000     0.00000
 Structure written by MMmdl.
 49 51  0  0  0  0  0  0  0  0  3 V2000
  152.8614  138.0793  158.7630 C   0  0  0  0  0  0  0  0  0  0  0  0
  152.3370  139.4968  159.0766 C   0  0  1  0  0  0  0  0  0  0  0  0
  153.4545  140.3700  159.6868 C   0  0  0  0  0  0  0  0  0  0  0  0
  152.9311  141.7485  160.1152 C   0  0  0  0  0  0  0  0  0  0  0  0
  152.2713  142.4793  158.9388 C   0  0  0  0  0  0  0  0  0  0  0  0
  151.1472  141.6326  158.3172 C   0  0  0  0  0  0  0  0  0  0  0  0
  151.6280  140.2222  157.8862 C   0  0  1  0  0  0  0  0  0  0  0  0
  152.4881  140.3218  156.7160 N   0  5  0  0  0  0  0  0  0  0  0  0
  151.8824  139.7075  155.6742 C   0  0  0  0  0  0  0  0  0  0  0  0
  152.3173  139.6064  154.5270 O   0  0  0  0  0  0  0  0  0  0  0  0
  150.7003  139.1787  156.0431 N   0  0  0  0  0  0  0  0  0  0  0  0
  149.8311  138.3873  155.1648 C   0  0  0  0  0  0  0  0  0  0  0  0
  149.8721  136.9021  155.5387 C   0  0  0  0  0  0  0  0  0  0  0  0
  150.4361  136.5351  156.5694 O   0  0  0  0  0  0  0  0  0  0  0  0
  149.2719  136.0618  154.6830 N   0  0  0  0  0  0  0  0  0  0  0  0
  149.2434  134.6065  154.7953 C   0  0  0  0  0  0  0  0  0  0  0  0
  147.8196  134.0081  154.7478 C   0  0  0  0  0  0  0  0  0  0  0  0
  147.3401  133.6300  153.3539 C   0  0  0  0  0  0  0  0  0  0  0  0
  146.2226  134.2778  152.7809 C   0  0  0  0  0  0  0  0  0  0  0  0
  145.7881  133.9028  151.4928 C   0  0  0  0  0  0  0  0  0  0  0  0
  146.4762  132.8820  150.8072 C   0  0  0  0  0  0  0  0  0  0  0  0
  147.5416  132.2851  151.3848 N   0  3  0  0  0  0  0  0  0  0  0  0
  147.9934  132.6208  152.6132 C   0  0  0  0  0  0  0  0  0  0  0  0
  150.4561  139.4217  157.3351 C   0  0  0  0  0  0  0  0  0  0  0  0
  149.4790  139.0651  157.9946 O   0  0  0  0  0  0  0  0  0  0  0  0
  153.6546  138.1076  158.0180 H   0  0  0  0  0  0  0  0  0  0  0  0
  152.0756  137.4218  158.3914 H   0  0  0  0  0  0  0  0  0  0  0  0
  153.2729  137.6119  159.6576 H   0  0  0  0  0  0  0  0  0  0  0  0
  151.5871  139.3709  159.8597 H   0  0  0  0  0  0  0  0  0  0  0  0
  153.8892  139.8671  160.5511 H   0  0  0  0  0  0  0  0  0  0  0  0
  154.2643  140.4941  158.9667 H   0  0  0  0  0  0  0  0  0  0  0  0
  152.2093  141.6310  160.9243 H   0  0  0  0  0  0  0  0  0  0  0  0
  153.7492  142.3489  160.5137 H   0  0  0  0  0  0  0  0  0  0  0  0
  151.8712  143.4362  159.2744 H   0  0  0  0  0  0  0  0  0  0  0  0
  153.0229  142.7095  158.1828 H   0  0  0  0  0  0  0  0  0  0  0  0
  150.3443  141.5357  159.0500 H   0  0  0  0  0  0  0  0  0  0  0  0
  150.7141  142.1684  157.4705 H   0  0  0  0  0  0  0  0  0  0  0  0
  148.7987  138.7343  155.2289 H   0  0  0  0  0  0  0  0  0  0  0  0
  150.1272  138.5285  154.1236 H   0  0  0  0  0  0  0  0  0  0  0  0
  148.8305  136.4631  153.8682 H   0  0  0  0  0  0  0  0  0  0  0  0
  149.8743  134.1560  154.0280 H   0  0  0  0  0  0  0  0  0  0  0  0
  149.7020  134.3592  155.7529 H   0  0  0  0  0  0  0  0  0  0  0  0
  147.7831  133.1226  155.3836 H   0  0  0  0  0  0  0  0  0  0  0  0
  147.1107  134.7134  155.1822 H   0  0  0  0  0  0  0  0  0  0  0  0
  145.6955  135.0483  153.3245 H   0  0  0  0  0  0  0  0  0  0  0  0
  144.9282  134.3784  151.0443 H   0  0  0  0  0  0  0  0  0  0  0  0
  146.2040  132.5234  149.8252 H   0  0  0  0  0  0  0  0  0  0  0  0
  148.8505  132.0675  152.9673 H   0  0  0  0  0  0  0  0  0  0  0  0
  148.0221  131.5452  150.8728 H   0  0  0  0  0  0  0  0  0  0  0  0
  1  2  1  0  0  0  0
  1 26  1  0  0  0  0
  1 27  1  0  0  0  0
  1 28  1  0  0  0  0
  2  7  1  0  0  0  0
  2  3  1  0  0  0  0
  2 29  1  0  0  0  0
  3  4  1  0  0  0  0
  3 30  1  0  0  0  0
  3 31  1  0  0  0  0
  4  5  1  0  0  0  0
  4 32  1  0  0  0  0
  4 33  1  0  0  0  0
  5  6  1  0  0  0  0
  5 34  1  0  0  0  0
  5 35  1  0  0  0  0
  6  7  1  0  0  0  0
  6 36  1  0  0  0  0
  6 37  1  0  0  0  0
  7 24  1  0  0  0  0
  7  8  1  0  0  0  0
  8  9  1  0  0  0  0
  9 10  2  0  0  0  0
  9 11  1  0  0  0  0
 11 12  1  0  0  0  0
 11 24  1  0  0  0  0
 12 13  1  0  0  0  0
 12 38  1  0  0  0  0
 12 39  1  0  0  0  0
 13 14  2  0  0  0  0
 13 15  1  0  0  0  0
 15 16  1  0  0  0  0
 15 40  1  0  0  0  0
 16 17  1  0  0  0  0
 16 41  1  0  0  0  0
 16 42  1  0  0  0  0
 17 18  1  0  0  0  0
 17 43  1  0  0  0  0
 17 44  1  0  0  0  0
 18 23  1  0  0  0  0
 18 19  2  0  0  0  0
 19 20  1  0  0  0  0
 19 45  1  0  0  0  0
 20 21  2  0  0  0  0
 20 46  1  0  0  0  0
 21 22  1  0  0  0  0
 21 47  1  0  0  0  0
 22 23  2  0  0  0  0
 22 49  1  0  0  0  0
 23 48  1  0  0  0  0
 24 25  2  0  0  0  0
M  CHG  1   8  -1
M  CHG  1  22   1
M  END
> <s_m_source_file>
AV-unprocessed.smi

> <i_m_source_file_index>
837

> <i_lp_mmshare_version>
43012

> <i_f3d_flags>
0

> <s_epik_input>
W0NIMl0xW0NIMl1bQ0gyXVtDSDJdW0NAQEhdKFtDSDNdKVtDQEBdMTJbTkhdQyg9TylOKEMyPU8pW0NIMl1DKD1PKVtOSF1bQ0gyXVtDSDJdYzNbY0hdW2NIXVtjSF1uW2NIXTM=

> <s_epik_cmdline>
J2VwaWtfcHl0aG9uJywgJy1waCcsICc3LjAnLCAnLXRuJywgJzgnLCAnLW1hJywgJzIwMCcsICctbWV0YWxfYmluZGluZycsICctaW1hZScsICc8aW5maWxlLm1hZT4nLCAnLW9tYWUnLCAnPG91dGZpbGUubWFlPic=

> <r_lp_tautomer_probability>
1

> <r_epik_Ionization_Penalty>
8.27169

> <r_epik_Ionization_Penalty_Charging>
8.27169

> <r_epik_Ionization_Penalty_Neutral>
1.56557e-07

> <r_epik_State_Penalty>
8.42098

> <r_epik_Charging_Adjusted_Penalty>
16.6927

> <i_epik_Tot_Q>
0

> <i_epik_Tot_abs_Q>
2

> <r_epik_Metal_State_Penalty>
4.38565

> <b_epik_Metal_Only>
1

> <s_lp_Force_Field>
OPLS_2005

> <r_lp_Energy>
17.1627

> <b_lp_Chiralities_Consistent>
1

> <s_lp_Variant>
AV-unprocessed.smi:837-16

> <Gold.Version>
5.8.1

> <Gold.Id.Protein>
6NUR|6NUR_protein|mol2

> <Gold.PLP.Fitness>
50.9333

> <Gold.PLP.PLP>
-38.6841

> <Gold.PLP.part.hbond>
-3.8990

> <Gold.PLP.part.metal>
0.0000

> <Gold.PLP.part.buried>
-3.2330

> <Gold.PLP.part.nonpolar>
-31.1966

> <Gold.PLP.part.repulsive>
0.1082

> <Gold.PLP.ligand.clash>
0.0000

> <Gold.PLP.ligand.torsion>
0.4389

> <Gold.PLP.Chemscore.Hbond>
4.3673

> <Gold.PLP.Chemscore.CHOScore>
0.0000

> <Gold.PLP.Chemscore.Metal>
0.0000

> <Gold.Chemscore.Hbonds>
donor molecule, donor type, donor heavy atom, donor atom, acceptor molecule, acceptor atom, score
      L1  H    15    40       P1  7948  0.72
      L1  H    22    49       P1 10747  0.47
      P1  H  7989  7998       L1    10  0.69
      P1  H  7997  8009       L1     8  2.00

> <Gold.PLP.Chemscore.Internal.Correction>
0.0252

> <Gold.Rescore>
     Score         DG    S(hbond)    S(metal)    S(lipo)     H(rot)  DE(clash)    DE(int)     intcor
     18.29     -19.76       2.65        0.00      88.26       1.92       0.08       1.39       ----

> <Gold.Chemscore.Fitness>
18.2940

> <Gold.Chemscore.DG>
-19.7627

> <Gold.Chemscore.ZeroCoef>
-5.4800

> <Gold.Chemscore.Hbond>
2.6543

> <Gold.Chemscore.Metal>
0.0000

> <Gold.Chemscore.Lipo>
88.2575

> <Gold.Chemscore.Internal_Hbond>
0.0000

> <Gold.Chemscore.DEClash>
0.0816

> <Gold.Chemscore.DEInternal>
1.3871

> <Gold.Chemscore.Rot>
1.9175

> <Gold.Chemscore.Internal.Correction>
   9.000000E+99

> <Gold.Chemscore.Hbonds>
donor molecule, donor type, donor heavy atom, donor atom, acceptor molecule, acceptor atom, score
      L1  H    15    40       P1  7948  0.69
      L1  H    22    49       P1 10747  0.48
      P1  H  7989  7998       L1    10  0.57
      P1  H  7997  8009       L1     8  0.58

> <Gold.Chemscore.Hbond.Weighted>
-8.8653

> <Gold.Chemscore.Metal.Weighted>
-0.0000

> <Gold.Chemscore.Lipo.Weighted>
-10.3261

> <Gold.Chemscore.Internal_Hbond.Weighted>
0.0000

> <Gold.Chemscore.DEClash.Weighted>
0.0816

> <Gold.Chemscore.DEInternal.Weighted>
1.3871

> <Gold.Chemscore.Rot.Weighted>
4.9087

> <Gold.Chemscore.Internal.Correction.Weighted>
   9.000000E+99

> <Gold.Protein.RotatedTorsions>
[ 6907 6896 6895 6894 ] final  128.25 input  -60.11 | X-H torsion
[ 7974 7965 7964 7962 ] final -175.88 input  175.53 | X-H torsion
[ 8008 7997 7996 7995 ] final -169.07 input   59.86 | X-H torsion
[ 10167 10162 10161 10158 ] final  -48.45 input  -65.29 | X-H torsion
[ 10718 10713 10712 10709 ] final   -1.34 input   66.30 | X-H torsion
[ 10763 10752 10751 10750 ] final  101.25 input  -60.55 | X-H torsion
[ 11005 11000 10999 10996 ] final  154.02 input  -57.11 | X-H torsion

> <Gold.Protein.ActiveResidues>
 VAL166  LYS551  ARG553  GLY616  TRP617  ASP618  TYR619  PRO620  LYS621  CYS622 
 ASP623  PHE694  ASN695  SER759  ASP760  ASP761  ALA762  ILE779  LEU786  VAL792 
 PHE793  MET794  SER795  GLU796  ALA797  LYS798  CYS799  TRP800  GLU811  SER814 

> <Gold.Protein.RotatedAtoms>
  152.3737  133.6452  159.6106 H   0  0  0  0  0  0  0  0  0  0  0  0  # atno 6907 bound_to 6896
  150.7687  133.9229  159.3412 H   0  0  0  0  0  0  0  0  0  0  0  0  # atno 6908 bound_to 6896
  151.7047  135.0925  160.0308 H   0  0  0  0  0  0  0  0  0  0  0  0  # atno 6909 bound_to 6896
  144.7127  140.1255  143.6402 H   0  0  0  0  0  0  0  0  0  0  0  0  # atno 7974 bound_to 7965
  155.9000  140.1039  157.1356 H   0  0  0  0  0  0  0  0  0  0  0  0  # atno 8008 bound_to 7997
  154.4025  140.1294  156.4488 H   0  0  0  0  0  0  0  0  0  0  0  0  # atno 8009 bound_to 7997
  155.7434  140.3466  155.5117 H   0  0  0  0  0  0  0  0  0  0  0  0  # atno 8010 bound_to 7997
  140.6730  143.2739  151.4073 H   0  0  0  0  0  0  0  0  0  0  0  0  # atno 10167 bound_to 10162
  156.8070  130.5412  149.5714 H   0  0  0  0  0  0  0  0  0  0  0  0  # atno 10718 bound_to 10713
  153.3243  135.4051  155.1443 H   0  0  0  0  0  0  0  0  0  0  0  0  # atno 10763 bound_to 10752
  154.8608  135.3595  154.5554 H   0  0  0  0  0  0  0  0  0  0  0  0  # atno 10764 bound_to 10752
  153.5990  135.7071  153.5451 H   0  0  0  0  0  0  0  0  0  0  0  0  # atno 10765 bound_to 10752
  140.1451  134.8713  157.2381 H   0  0  0  0  0  0  0  0  0  0  0  0  # atno 11005 bound_to 11000
  145.9333  139.2621  143.1312 LP  0  0  0  0  0  0  0  0  0  0  0  0  # atno 17320 bound_to 7965
  145.9500  140.8916  143.0264 LP  0  0  0  0  0  0  0  0  0  0  0  0  # atno 17321 bound_to 7965
  139.6008  144.1300  152.2195 LP  0  0  0  0  0  0  0  0  0  0  0  0  # atno 17342 bound_to 10162
  140.0684  144.5800  150.7210 LP  0  0  0  0  0  0  0  0  0  0  0  0  # atno 17343 bound_to 10162
  156.1067  130.6010  150.9982 LP  0  0  0  0  0  0  0  0  0  0  0  0  # atno 17370 bound_to 10713
  157.6525  131.0894  150.8020 LP  0  0  0  0  0  0  0  0  0  0  0  0  # atno 17371 bound_to 10713
  140.2674  134.3500  155.7385 LP  0  0  0  0  0  0  0  0  0  0  0  0  # atno 17394 bound_to 11000
  141.2191  133.7404  156.9171 LP  0  0  0  0  0  0  0  0  0  0  0  0  # atno 17395 bound_to 11000

$$$$
