#       Name:                AV-unprocessed.smi:2105
#       Creating user name   scv26
#       Creation time:       Fri Mar 27 11:32:37 2020


#       File generated by GOLD software.
#

@<TRIPOS>MOLECULE
AV-unprocessed.smi:2105
    48    49     1
SMALL
NO_CHARGES


@<TRIPOS>ATOM
      1 ****        -4.3627   1.6594   4.0700 C.3            1 S1                 0.0000
      2 ****        -3.4895   0.4248   4.2654 C.2            1 S1                 0.0000
      3 ****        -3.0202   0.1692   5.3738 O.2            1 S1                 0.0000
      4 ****        -3.2799  -0.3323   3.1779 N.am           1 S1                 0.0000
      5 ****        -2.4907  -1.5596   3.1454 C.3            1 S1                 0.0000
      6 ****        -0.9754  -1.2769   3.1304 C.3            1 S1                 0.0000
      7 ****        -0.5223  -0.7712   1.8384 N.am           1 S1                 0.0000
      8 ****        -0.3078  -1.5213   0.7484 C.2            1 S1                 0.0000
      9 ****        -0.4795  -2.7397   0.7155 O.2            1 S1                 0.0000
     10 ****         0.1306  -0.7750  -0.2793 N.am           1 S1                 0.0000
     11 ****         0.4904  -1.2082  -1.5874 C.ar           1 S1                 0.0000
     12 ****        -0.1685  -2.3016  -2.2067 C.ar           1 S1                 0.0000
     13 ****         0.2220  -2.7224  -3.4917 C.ar           1 S1                 0.0000
     14 ****         1.2637  -2.0405  -4.1428 C.ar           1 S1                 0.0000
     15 ****         1.8567  -0.9911  -3.5371 N.pl3          1 S1                 1.0000
     16 ****         1.5161  -0.5287  -2.3079 C.ar           1 S1                 0.0000
     17 ****         2.2189   0.5917  -1.8083 N.3            1 S1                 0.0000
     18 ****         3.3945   1.0974  -2.5077 C.3            1 S1                 0.0000
     19 ****         3.6583   2.4703  -1.8957 C.3            1 S1                 0.0000
     20 ****         2.2479   2.9801  -1.6151 C.3            1 S1                 0.0000
     21 ****         1.4676   1.7121  -1.2513 C.3            1 S1                 0.0000
     22 ****        -3.9800   2.2751   3.2557 H              1 S1                 0.0000
     23 ****        -4.3834   2.2667   4.9755 H              1 S1                 0.0000
     24 ****        -5.3856   1.3665   3.8321 H              1 S1                 0.0000
     25 ****        -3.7093  -0.0441   2.3106 H              1 S1                 0.0000
     26 ****        -2.7401  -2.1650   4.0183 H              1 S1                 0.0000
     27 ****        -2.7869  -2.1495   2.2776 H              1 S1                 0.0000
     28 ****        -0.7037  -0.5612   3.9069 H              1 S1                 0.0000
     29 ****        -0.4309  -2.1931   3.3646 H              1 S1                 0.0000
     30 ****        -0.3527   0.2220   1.7770 H              1 S1                 0.0000
     31 ****         0.3222   0.1943  -0.0728 H              1 S1                 0.0000
     32 ****        -0.9758  -2.8239  -1.7162 H              1 S1                 0.0000
     33 ****        -0.2707  -3.5570  -3.9691 H              1 S1                 0.0000
     34 ****         1.6328  -2.2938  -5.1260 H              1 S1                 0.0000
     35 ****         4.2483   0.4299  -2.3880 H              1 S1                 0.0000
     36 ****         3.1873   1.2061  -3.5730 H              1 S1                 0.0000
     37 ****         4.2091   2.3629  -0.9600 H              1 S1                 0.0000
     38 ****         4.2290   3.1271  -2.5528 H              1 S1                 0.0000
     39 ****         2.2163   3.7373  -0.8309 H              1 S1                 0.0000
     40 ****         1.8316   3.4194  -2.5227 H              1 S1                 0.0000
     41 ****         0.4462   1.7524  -1.6326 H              1 S1                 0.0000
     42 ****         1.4235   1.6010  -0.1674 H              1 S1                 0.0000
     43 ****         2.6028  -0.5105  -4.0399 H              1 S1                 0.0000
     44 ****        -3.2112   0.7717   6.1487 LP             1 S1                 0.0000
     45 ****        -2.4478  -0.6410   5.4996 LP             1 S1                 0.0000
     46 ****        -0.7959  -3.2223   1.5322 LP             1 S1                 0.0000
     47 ****        -0.3026  -3.2470  -0.1280 LP             1 S1                 0.0000
     48 ****         2.5669   0.0473  -1.0451 LP             1 S1                 0.0000
@<TRIPOS>BOND
    1    1    2 1     
    2    1   22 1     
    3    1   23 1     
    4    1   24 1     
    5    2    3 2     
    6    2    4 am    
    7    4    5 1     
    8    4   25 1     
    9    5    6 1     
   10    5   26 1     
   11    5   27 1     
   12    6    7 1     
   13    6   28 1     
   14    6   29 1     
   15    7    8 am    
   16    7   30 1     
   17    8    9 2     
   18    8   10 am    
   19   10   11 1     
   20   10   31 1     
   21   11   16 ar    
   22   11   12 ar    
   23   12   13 ar    
   24   12   32 1     
   25   13   14 ar    
   26   13   33 1     
   27   14   15 ar    
   28   14   34 1     
   29   15   16 ar    
   30   15   43 1     
   31   16   17 1     
   32   17   21 1     
   33   17   18 1     
   34   18   19 1     
   35   18   35 1     
   36   18   36 1     
   37   19   20 1     
   38   19   37 1     
   39   19   38 1     
   40   20   21 1     
   41   20   39 1     
   42   20   40 1     
   43   21   41 1     
   44   21   42 1     
   45    3   44 1     
   46    3   45 1     
   47    9   46 1     
   48    9   47 1     
   49   17   48 1     
@<TRIPOS>SUBSTRUCTURE
      1 S1             1
@<TRIPOS>SET
LONE_PAIRS      STATIC     ATOMS    <user>   **** ""
5 44 45 46 47 48
DONOR_HYDROGENS      STATIC     ATOMS    <user>   **** ""
4 25 30 31 43
ATOM$BLUE        STATIC     ATOMS    COLORGROUP SYSTEM
5 44 45 46 47 48
ATOM$RED        STATIC     ATOMS    COLORGROUP SYSTEM
4 25 30 31 43
