AV-unprocessed.smi:3044|AV-procd|sdf|11607|dock8
  -GOLD-   2272016583D 1   1.00000     0.00000
 Structure written by MMmdl.
 41 42  0  0  0  0  0  0  0  0  1 V2000
  153.0851  143.2178  162.6917 C   0  0  0  0  0  0  0  0  0  0  0  0
  152.6845  143.5111  161.2560 C   0  0  0  0  0  0  0  0  0  0  0  0
  151.8560  144.5661  161.0883 N   0  0  0  0  0  0  0  0  0  0  0  0
  151.4630  144.8764  159.8355 C   0  0  0  0  0  0  0  0  0  0  0  0
  151.8674  144.1517  158.6989 C   0  0  0  0  0  0  0  0  0  0  0  0
  152.7304  143.0538  158.8747 C   0  0  0  0  0  0  0  0  0  0  0  0
  153.1662  142.7243  160.1811 C   0  0  0  0  0  0  0  0  0  0  0  0
  154.0210  141.6230  160.4621 N   0  0  0  0  0  0  0  0  0  0  0  0
  154.1819  140.4837  159.7636 C   0  0  0  0  0  0  0  0  0  0  0  0
  153.5647  140.2006  158.7374 O   0  0  0  0  0  0  0  0  0  0  0  0
  155.2139  139.4957  160.3102 C   0  0  0  0  0  0  0  0  0  0  0  0
  154.5516  138.3250  160.7743 O   0  0  0  0  0  0  0  0  0  0  0  0
  155.0934  137.7734  161.9664 C   0  0  2  0  0  0  0  0  0  0  0  0
  154.0644  136.7707  162.5146 C   0  0  0  0  0  0  0  0  0  0  0  0
  154.5230  136.1775  163.8550 C   0  0  0  0  0  0  0  0  0  0  0  0
  154.8035  137.2846  164.8833 C   0  0  0  0  0  0  0  0  0  0  0  0
  155.8327  138.3016  164.3530 C   0  0  2  0  0  0  0  0  0  0  0  0
  156.1029  139.4112  165.3794 C   0  0  0  0  0  0  0  0  0  0  0  0
  155.3731  138.8832  163.0012 C   0  0  0  0  0  0  0  0  0  0  0  0
  154.1676  143.2833  162.8039 H   0  0  0  0  0  0  0  0  0  0  0  0
  152.7695  142.2140  162.9768 H   0  0  0  0  0  0  0  0  0  0  0  0
  152.6312  143.9237  163.3882 H   0  0  0  0  0  0  0  0  0  0  0  0
  150.8014  145.7243  159.7365 H   0  0  0  0  0  0  0  0  0  0  0  0
  151.5195  144.4285  157.7146 H   0  0  0  0  0  0  0  0  0  0  0  0
  153.0293  142.4793  158.0117 H   0  0  0  0  0  0  0  0  0  0  0  0
  154.6583  141.7532  161.2347 H   0  0  0  0  0  0  0  0  0  0  0  0
  155.9167  139.2444  159.5147 H   0  0  0  0  0  0  0  0  0  0  0  0
  155.7746  139.9727  161.1145 H   0  0  0  0  0  0  0  0  0  0  0  0
  156.0150  137.2321  161.7432 H   0  0  0  0  0  0  0  0  0  0  0  0
  153.1018  137.2666  162.6473 H   0  0  0  0  0  0  0  0  0  0  0  0
  153.9031  135.9707  161.7914 H   0  0  0  0  0  0  0  0  0  0  0  0
  153.7628  135.4973  164.2400 H   0  0  0  0  0  0  0  0  0  0  0  0
  155.4236  135.5810  163.7033 H   0  0  0  0  0  0  0  0  0  0  0  0
  153.8716  137.7960  165.1286 H   0  0  0  0  0  0  0  0  0  0  0  0
  155.1632  136.8382  165.8109 H   0  0  0  0  0  0  0  0  0  0  0  0
  156.7722  137.7723  164.1875 H   0  0  0  0  0  0  0  0  0  0  0  0
  155.2007  139.9873  165.5875 H   0  0  0  0  0  0  0  0  0  0  0  0
  156.8640  140.1037  165.0184 H   0  0  0  0  0  0  0  0  0  0  0  0
  156.4575  138.9958  166.3230 H   0  0  0  0  0  0  0  0  0  0  0  0
  156.1343  139.5668  162.6258 H   0  0  0  0  0  0  0  0  0  0  0  0
  154.4705  139.4785  163.1462 H   0  0  0  0  0  0  0  0  0  0  0  0
  1  2  1  0  0  0  0
  1 20  1  0  0  0  0
  1 21  1  0  0  0  0
  1 22  1  0  0  0  0
  2  7  1  0  0  0  0
  2  3  2  0  0  0  0
  3  4  1  0  0  0  0
  4  5  2  0  0  0  0
  4 23  1  0  0  0  0
  5  6  1  0  0  0  0
  5 24  1  0  0  0  0
  6  7  2  0  0  0  0
  6 25  1  0  0  0  0
  7  8  1  0  0  0  0
  8  9  1  0  0  0  0
  8 26  1  0  0  0  0
  9 10  2  0  0  0  0
  9 11  1  0  0  0  0
 11 12  1  0  0  0  0
 11 27  1  0  0  0  0
 11 28  1  0  0  0  0
 12 13  1  0  0  0  0
 13 19  1  0  0  0  0
 13 14  1  0  0  0  0
 13 29  1  0  0  0  0
 14 15  1  0  0  0  0
 14 30  1  0  0  0  0
 14 31  1  0  0  0  0
 15 16  1  0  0  0  0
 15 32  1  0  0  0  0
 15 33  1  0  0  0  0
 16 17  1  0  0  0  0
 16 34  1  0  0  0  0
 16 35  1  0  0  0  0
 17 18  1  0  0  0  0
 17 19  1  0  0  0  0
 17 36  1  0  0  0  0
 18 37  1  0  0  0  0
 18 38  1  0  0  0  0
 18 39  1  0  0  0  0
 19 40  1  0  0  0  0
 19 41  1  0  0  0  0
M  END
> <s_m_source_file>
AV-unprocessed.smi

> <i_m_source_file_index>
3044

> <i_lp_mmshare_version>
43012

> <i_f3d_flags>
0

> <s_epik_input>
W0NIM11jMW5bY0hdW2NIXVtjSF1jMVtOSF1DKD1PKVtDSDJdT1tDQEBIXTJbQ0gyXVtDSDJdW0NIMl1bQ0BASF0oW0NIM10pW0NIMl0y

> <s_epik_cmdline>
J2VwaWtfcHl0aG9uJywgJy1waCcsICc3LjAnLCAnLXRuJywgJzgnLCAnLW1hJywgJzIwMCcsICctbWV0YWxfYmluZGluZycsICctaW1hZScsICc8aW5maWxlLm1hZT4nLCAnLW9tYWUnLCAnPG91dGZpbGUubWFlPic=

> <r_epik_Ionization_Penalty>
0.0077122

> <r_epik_Ionization_Penalty_Charging>
0

> <r_epik_Ionization_Penalty_Neutral>
0.0077122

> <r_epik_State_Penalty>
0.00577497

> <r_epik_Charging_Adjusted_Penalty>
0.00577497

> <i_epik_Tot_Q>
0

> <i_epik_Tot_abs_Q>
0

> <r_epik_Metal_State_Penalty>
-0

> <b_epik_Metal_Only>
0

> <s_lp_Force_Field>
OPLS_2005

> <r_lp_Energy>
17.0629

> <b_lp_Chiralities_Consistent>
1

> <s_lp_Variant>
AV-unprocessed.smi:3044-3

> <Gold.Version>
5.8.1

> <Gold.Id.Protein>
6NUR|6NUR_protein|mol2

> <Gold.PLP.Fitness>
47.5357

> <Gold.PLP.PLP>
-45.8630

> <Gold.PLP.part.hbond>
-1.0000

> <Gold.PLP.part.metal>
0.0000

> <Gold.PLP.part.buried>
-4.2258

> <Gold.PLP.part.nonpolar>
-40.8825

> <Gold.PLP.part.repulsive>
0.2128

> <Gold.PLP.ligand.clash>
0.0000

> <Gold.PLP.ligand.torsion>
0.5880

> <Gold.PLP.Chemscore.Hbond>
0.9440

> <Gold.PLP.Chemscore.CHOScore>
0.0000

> <Gold.PLP.Chemscore.Metal>
0.0000

> <Gold.Chemscore.Hbonds>
donor molecule, donor type, donor heavy atom, donor atom, acceptor molecule, acceptor atom, score
      P1  H  7997  8008       L1    10  0.94

> <Gold.PLP.Chemscore.Internal.Correction>
0.0167

> <Gold.Rescore>
     Score         DG    S(hbond)    S(metal)    S(lipo)     H(rot)  DE(clash)    DE(int)     intcor
     18.35     -20.12       0.95        0.00     126.72       1.31       0.03       1.74       ----

> <Gold.Chemscore.Fitness>
18.3462

> <Gold.Chemscore.DG>
-20.1247

> <Gold.Chemscore.ZeroCoef>
-5.4800

> <Gold.Chemscore.Hbond>
0.9468

> <Gold.Chemscore.Metal>
0.0000

> <Gold.Chemscore.Lipo>
126.7228

> <Gold.Chemscore.Internal_Hbond>
0.0000

> <Gold.Chemscore.DEClash>
0.0338

> <Gold.Chemscore.DEInternal>
1.7446

> <Gold.Chemscore.Rot>
1.3064

> <Gold.Chemscore.Internal.Correction>
   9.000000E+99

> <Gold.Chemscore.Hbonds>
donor molecule, donor type, donor heavy atom, donor atom, acceptor molecule, acceptor atom, score
      P1  H  7997  8008       L1    10  0.70

> <Gold.Chemscore.Hbond.Weighted>
-3.1624

> <Gold.Chemscore.Metal.Weighted>
-0.0000

> <Gold.Chemscore.Lipo.Weighted>
-14.8266

> <Gold.Chemscore.Internal_Hbond.Weighted>
0.0000

> <Gold.Chemscore.DEClash.Weighted>
0.0338

> <Gold.Chemscore.DEInternal.Weighted>
1.7446

> <Gold.Chemscore.Rot.Weighted>
3.3443

> <Gold.Chemscore.Internal.Correction.Weighted>
   9.000000E+99

> <Gold.Protein.RotatedTorsions>
[ 6907 6896 6895 6894 ] final    7.71 input  -60.11 | X-H torsion
[ 7974 7965 7964 7962 ] final -114.45 input  175.53 | X-H torsion
[ 8008 7997 7996 7995 ] final -100.69 input   59.86 | X-H torsion
[ 10167 10162 10161 10158 ] final   -1.32 input  -65.29 | X-H torsion
[ 10718 10713 10712 10709 ] final  -29.88 input   66.30 | X-H torsion
[ 10763 10752 10751 10750 ] final  -99.30 input  -60.55 | X-H torsion
[ 11005 11000 10999 10996 ] final   -7.23 input  -57.11 | X-H torsion

> <Gold.Protein.ActiveResidues>
 VAL166  LYS551  ARG553  GLY616  TRP617  ASP618  TYR619  PRO620  LYS621  CYS622 
 ASP623  PHE694  ASN695  SER759  ASP760  ASP761  ALA762  ILE779  LEU786  VAL792 
 PHE793  MET794  SER795  GLU796  ALA797  LYS798  CYS799  TRP800  GLU811  SER814 

> <Gold.Protein.RotatedAtoms>
  151.6942  135.0941  160.0239 H   0  0  0  0  0  0  0  0  0  0  0  0  # atno 6907 bound_to 6896
  152.3760  133.6477  159.6132 H   0  0  0  0  0  0  0  0  0  0  0  0  # atno 6908 bound_to 6896
  150.7709  133.9109  159.3410 H   0  0  0  0  0  0  0  0  0  0  0  0  # atno 6909 bound_to 6896
  145.1200  140.8663  143.3819 H   0  0  0  0  0  0  0  0  0  0  0  0  # atno 7974 bound_to 7965
  154.8322  140.0439  157.1484 H   0  0  0  0  0  0  0  0  0  0  0  0  # atno 8008 bound_to 7997
  154.9140  140.3017  155.5231 H   0  0  0  0  0  0  0  0  0  0  0  0  # atno 8009 bound_to 7997
  156.2987  140.2353  156.4182 H   0  0  0  0  0  0  0  0  0  0  0  0  # atno 8010 bound_to 7997
  140.6805  143.6789  150.8122 H   0  0  0  0  0  0  0  0  0  0  0  0  # atno 10167 bound_to 10162
  156.4068  130.4400  149.7281 H   0  0  0  0  0  0  0  0  0  0  0  0  # atno 10718 bound_to 10713
  154.7486  135.4977  153.9248 H   0  0  0  0  0  0  0  0  0  0  0  0  # atno 10763 bound_to 10752
  153.1119  135.6711  153.9494 H   0  0  0  0  0  0  0  0  0  0  0  0  # atno 10764 bound_to 10752
  153.9251  135.3084  155.3426 H   0  0  0  0  0  0  0  0  0  0  0  0  # atno 10765 bound_to 10752
  140.7105  133.8912  155.8747 H   0  0  0  0  0  0  0  0  0  0  0  0  # atno 11005 bound_to 11000
  145.0751  139.3002  143.5812 LP  0  0  0  0  0  0  0  0  0  0  0  0  # atno 17320 bound_to 7965
  146.3521  140.0239  142.8656 LP  0  0  0  0  0  0  0  0  0  0  0  0  # atno 17321 bound_to 7965
  140.0489  143.5270  152.2683 LP  0  0  0  0  0  0  0  0  0  0  0  0  # atno 17342 bound_to 10162
  139.6124  144.7612  151.2921 LP  0  0  0  0  0  0  0  0  0  0  0  0  # atno 17343 bound_to 10162
  156.4276  130.7799  151.2818 LP  0  0  0  0  0  0  0  0  0  0  0  0  # atno 17370 bound_to 10713
  157.7506  131.0164  150.3542 LP  0  0  0  0  0  0  0  0  0  0  0  0  # atno 17371 bound_to 10713
  141.0088  134.1049  157.4243 LP  0  0  0  0  0  0  0  0  0  0  0  0  # atno 17394 bound_to 11000
  139.8873  135.0088  156.6551 LP  0  0  0  0  0  0  0  0  0  0  0  0  # atno 17395 bound_to 11000

$$$$
