AV-unprocessed.smi:1240|AV-procd|sdf|5196|dock4
  -GOLD-   22720 4283D 1   1.00000     0.00000
 Structure written by MMmdl.
 47 49  0  0  0  0  0  0  0  0  1 V2000
  144.6701  136.9271  152.0763 O   0  0  0  0  0  0  0  0  0  0  0  0
  145.8835  136.7216  152.0649 C   0  0  0  0  0  0  0  0  0  0  0  0
  146.7950  137.6519  152.3827 N   0  0  0  0  0  0  0  0  0  0  0  0
  146.5053  139.0265  152.7827 C   0  0  0  0  0  0  0  0  0  0  0  0
  147.2496  139.4103  154.0896 C   0  0  1  0  0  0  0  0  0  0  0  0
  148.7898  139.5533  153.8767 C   0  0  2  0  0  0  0  0  0  0  0  0
  149.6481  138.3266  154.2007 C   0  0  0  0  0  0  0  0  0  0  0  0
  150.7473  138.8757  155.1088 C   0  0  0  0  0  0  0  0  0  0  0  0
  150.8339  140.2458  154.7545 O   0  0  0  0  0  0  0  0  0  0  0  0
  149.5053  140.7143  154.5884 C   0  0  0  0  0  0  0  0  0  0  0  0
  146.6166  140.4933  154.8708 N   0  0  0  0  0  0  0  0  0  0  0  0
  145.2711  140.1617  155.3358 C   0  0  0  0  0  0  0  0  0  0  0  0
  144.7045  141.2471  156.2653 C   0  0  0  0  0  0  0  0  0  0  0  0
  144.7072  142.4970  155.5843 O   0  0  0  0  0  0  0  0  0  0  0  0
  146.0097  142.8866  155.1621 C   0  0  0  0  0  0  0  0  0  0  0  0
  146.6104  141.8114  154.2390 C   0  0  0  0  0  0  0  0  0  0  0  0
  146.4762  135.5655  151.7190 N   0  0  0  0  0  0  0  0  0  0  0  0
  145.8802  134.3365  151.3237 C   0  0  0  0  0  0  0  0  0  0  0  0
  144.4782  134.3101  151.1721 C   0  0  0  0  0  0  0  0  0  0  0  0
  143.8601  133.1107  150.7663 C   0  0  0  0  0  0  0  0  0  0  0  0
  144.5427  131.9764  150.5046 N   0  0  0  0  0  0  0  0  0  0  0  0
  145.8854  132.0059  150.6380 C   0  0  0  0  0  0  0  0  0  0  0  0
  146.6017  133.1520  151.0374 C   0  0  0  0  0  0  0  0  0  0  0  0
  147.7695  137.3920  152.3402 H   0  0  0  0  0  0  0  0  0  0  0  0
  146.7543  139.7298  151.9871 H   0  0  0  0  0  0  0  0  0  0  0  0
  145.4260  139.0867  152.9134 H   0  0  0  0  0  0  0  0  0  0  0  0
  147.1702  138.5273  154.7259 H   0  0  0  0  0  0  0  0  0  0  0  0
  148.9371  139.7370  152.8112 H   0  0  0  0  0  0  0  0  0  0  0  0
  149.1131  137.5065  154.6783 H   0  0  0  0  0  0  0  0  0  0  0  0
  150.0847  137.9310  153.2828 H   0  0  0  0  0  0  0  0  0  0  0  0
  150.4608  138.7913  156.1582 H   0  0  0  0  0  0  0  0  0  0  0  0
  151.7000  138.3636  154.9728 H   0  0  0  0  0  0  0  0  0  0  0  0
  149.4937  141.6322  154.0007 H   0  0  0  0  0  0  0  0  0  0  0  0
  149.0803  140.9473  155.5625 H   0  0  0  0  0  0  0  0  0  0  0  0
  144.5943  140.0479  154.4895 H   0  0  0  0  0  0  0  0  0  0  0  0
  145.2826  139.2069  155.8624 H   0  0  0  0  0  0  0  0  0  0  0  0
  143.6831  141.0017  156.5570 H   0  0  0  0  0  0  0  0  0  0  0  0
  145.2922  141.3199  157.1817 H   0  0  0  0  0  0  0  0  0  0  0  0
  145.9449  143.8408  154.6393 H   0  0  0  0  0  0  0  0  0  0  0  0
  146.6476  143.0427  156.0335 H   0  0  0  0  0  0  0  0  0  0  0  0
  147.6233  142.1202  153.9956 H   0  0  0  0  0  0  0  0  0  0  0  0
  146.0462  141.7803  153.3064 H   0  0  0  0  0  0  0  0  0  0  0  0
  147.4850  135.5797  151.6917 H   0  0  0  0  0  0  0  0  0  0  0  0
  143.8816  135.1897  151.3665 H   0  0  0  0  0  0  0  0  0  0  0  0
  142.7878  133.0624  150.6473 H   0  0  0  0  0  0  0  0  0  0  0  0
  146.4078  131.0878  150.4131 H   0  0  0  0  0  0  0  0  0  0  0  0
  147.6770  133.0988  151.1029 H   0  0  0  0  0  0  0  0  0  0  0  0
  1  2  2  0  0  0  0
  2  3  1  0  0  0  0
  2 17  1  0  0  0  0
  3  4  1  0  0  0  0
  3 24  1  0  0  0  0
  4  5  1  0  0  0  0
  4 25  1  0  0  0  0
  4 26  1  0  0  0  0
  5  6  1  0  0  0  0
  5 11  1  0  0  0  0
  5 27  1  0  0  0  0
  6 10  1  0  0  0  0
  6  7  1  0  0  0  0
  6 28  1  0  0  0  0
  7  8  1  0  0  0  0
  7 29  1  0  0  0  0
  7 30  1  0  0  0  0
  8  9  1  0  0  0  0
  8 31  1  0  0  0  0
  8 32  1  0  0  0  0
  9 10  1  0  0  0  0
 10 33  1  0  0  0  0
 10 34  1  0  0  0  0
 11 16  1  0  0  0  0
 11 12  1  0  0  0  0
 12 13  1  0  0  0  0
 12 35  1  0  0  0  0
 12 36  1  0  0  0  0
 13 14  1  0  0  0  0
 13 37  1  0  0  0  0
 13 38  1  0  0  0  0
 14 15  1  0  0  0  0
 15 16  1  0  0  0  0
 15 39  1  0  0  0  0
 15 40  1  0  0  0  0
 16 41  1  0  0  0  0
 16 42  1  0  0  0  0
 17 18  1  0  0  0  0
 17 43  1  0  0  0  0
 18 23  1  0  0  0  0
 18 19  2  0  0  0  0
 19 20  1  0  0  0  0
 19 44  1  0  0  0  0
 20 21  2  0  0  0  0
 20 45  1  0  0  0  0
 21 22  1  0  0  0  0
 22 23  2  0  0  0  0
 22 46  1  0  0  0  0
 23 47  1  0  0  0  0
M  END
> <s_m_source_file>
AV-unprocessed.smi

> <i_m_source_file_index>
1240

> <i_lp_mmshare_version>
43012

> <i_f3d_flags>
0

> <s_epik_input>
W2NIXTFbY0hdbltjSF1bY0hdYzFbTkhdQyg9TylbTkhdW0NIMl1bQ0BIXShbQ0BASF0yW0NIMl1bQ0gyXU9bQ0gyXTIpTjNbQ0gyXVtDSDJdT1tDSDJdW0NIMl0z

> <s_epik_cmdline>
J2VwaWtfcHl0aG9uJywgJy1waCcsICc3LjAnLCAnLXRuJywgJzgnLCAnLW1hJywgJzIwMCcsICctbWV0YWxfYmluZGluZycsICctaW1hZScsICc8aW5maWxlLm1hZT4nLCAnLW9tYWUnLCAnPG91dGZpbGUubWFlPic=

> <r_epik_Ionization_Penalty>
0.238664

> <r_epik_Ionization_Penalty_Charging>
0

> <r_epik_Ionization_Penalty_Neutral>
0.238664

> <r_epik_State_Penalty>
0.217087

> <r_epik_Charging_Adjusted_Penalty>
0.217087

> <i_epik_Tot_Q>
0

> <i_epik_Tot_abs_Q>
0

> <r_epik_Metal_State_Penalty>
0.199194

> <b_epik_Metal_Only>
0

> <s_lp_Force_Field>
OPLS_2005

> <r_lp_Energy>
59.2824

> <b_lp_Chiralities_Consistent>
1

> <s_lp_Variant>
AV-unprocessed.smi:1240-2

> <Gold.Version>
5.8.1

> <Gold.Id.Protein>
6NUR|6NUR_protein|mol2

> <Gold.PLP.Fitness>
46.0633

> <Gold.PLP.PLP>
-34.1756

> <Gold.PLP.part.hbond>
-2.9575

> <Gold.PLP.part.metal>
0.0000

> <Gold.PLP.part.buried>
-1.5160

> <Gold.PLP.part.nonpolar>
-31.8312

> <Gold.PLP.part.repulsive>
1.9976

> <Gold.PLP.ligand.clash>
0.0000

> <Gold.PLP.ligand.torsion>
1.5330

> <Gold.PLP.Chemscore.Hbond>
2.9600

> <Gold.PLP.Chemscore.CHOScore>
1.9001

> <Gold.PLP.Chemscore.Metal>
0.0000

> <Gold.Chemscore.Hbonds>
donor molecule, donor type, donor heavy atom, donor atom, acceptor molecule, acceptor atom, score
      L1  H     3    24       P1  7948  0.96
      L1  H    17    43       P1  7948  1.00
      P1  H  7989  7998       L1     9  1.00
      L1  C    20    45       P1 10186  1.00
      L1  C    22    46       P1 10747  0.81

> <Gold.PLP.Chemscore.Internal.Correction>
0.3734

> <Gold.Rescore>
     Score         DG    S(hbond)    S(metal)    S(lipo)     H(rot)  DE(clash)    DE(int)     intcor
     16.97     -20.43       2.80        0.00      84.08       1.65       0.55       2.90       ----

> <Gold.Chemscore.Fitness>
16.9741

> <Gold.Chemscore.DG>
-20.4294

> <Gold.Chemscore.ZeroCoef>
-5.4800

> <Gold.Chemscore.Hbond>
2.7960

> <Gold.Chemscore.Metal>
0.0000

> <Gold.Chemscore.Lipo>
84.0779

> <Gold.Chemscore.Internal_Hbond>
0.0000

> <Gold.Chemscore.DEClash>
0.5507

> <Gold.Chemscore.DEInternal>
2.9047

> <Gold.Chemscore.Rot>
1.6508

> <Gold.Chemscore.Internal.Correction>
   9.000000E+99

> <Gold.Chemscore.Hbonds>
donor molecule, donor type, donor heavy atom, donor atom, acceptor molecule, acceptor atom, score
      L1  H     3    24       P1  7948  0.92
      L1  H    17    43       P1  7948  0.95
      P1  H  7989  7998       L1     9  0.44

> <Gold.Chemscore.Hbond.Weighted>
-9.3385

> <Gold.Chemscore.Metal.Weighted>
-0.0000

> <Gold.Chemscore.Lipo.Weighted>
-9.8371

> <Gold.Chemscore.Internal_Hbond.Weighted>
0.0000

> <Gold.Chemscore.DEClash.Weighted>
0.5507

> <Gold.Chemscore.DEInternal.Weighted>
2.9047

> <Gold.Chemscore.Rot.Weighted>
4.2262

> <Gold.Chemscore.Internal.Correction.Weighted>
   9.000000E+99

> <Gold.Protein.RotatedTorsions>
[ 6907 6896 6895 6894 ] final -127.86 input  -60.11 | X-H torsion
[ 7974 7965 7964 7962 ] final  161.88 input  175.53 | X-H torsion
[ 8008 7997 7996 7995 ] final  -83.87 input   59.86 | X-H torsion
[ 10167 10162 10161 10158 ] final   13.06 input  -65.29 | X-H torsion
[ 10718 10713 10712 10709 ] final   94.37 input   66.30 | X-H torsion
[ 10763 10752 10751 10750 ] final  -56.05 input  -60.55 | X-H torsion
[ 11005 11000 10999 10996 ] final  134.63 input  -57.11 | X-H torsion

> <Gold.Protein.ActiveResidues>
 VAL166  LYS551  ARG553  GLY616  TRP617  ASP618  TYR619  PRO620  LYS621  CYS622 
 ASP623  PHE694  ASN695  SER759  ASP760  ASP761  ALA762  ILE779  LEU786  VAL792 
 PHE793  MET794  SER795  GLU796  ALA797  LYS798  CYS799  TRP800  GLU811  SER814 

> <Gold.Protein.RotatedAtoms>
  150.9118  133.6988  159.2852 H   0  0  0  0  0  0  0  0  0  0  0  0  # atno 6907 bound_to 6896
  151.4472  135.1025  159.9697 H   0  0  0  0  0  0  0  0  0  0  0  0  # atno 6908 bound_to 6896
  152.4934  133.8512  159.7258 H   0  0  0  0  0  0  0  0  0  0  0  0  # atno 6909 bound_to 6896
  144.7663  139.7961  143.6314 H   0  0  0  0  0  0  0  0  0  0  0  0  # atno 7974 bound_to 7965
  154.6237  140.0613  156.9647 H   0  0  0  0  0  0  0  0  0  0  0  0  # atno 8008 bound_to 7997
  155.1776  140.3296  155.4362 H   0  0  0  0  0  0  0  0  0  0  0  0  # atno 8009 bound_to 7997
  156.2445  140.1903  156.6875 H   0  0  0  0  0  0  0  0  0  0  0  0  # atno 8010 bound_to 7997
  140.6027  143.8571  150.6982 H   0  0  0  0  0  0  0  0  0  0  0  0  # atno 10167 bound_to 10162
  157.6948  131.0510  150.4176 H   0  0  0  0  0  0  0  0  0  0  0  0  # atno 10718 bound_to 10713
  154.2006  135.6412  153.5086 H   0  0  0  0  0  0  0  0  0  0  0  0  # atno 10763 bound_to 10752
  153.0013  135.5450  154.6320 H   0  0  0  0  0  0  0  0  0  0  0  0  # atno 10764 bound_to 10752
  154.5732  135.2918  155.0780 H   0  0  0  0  0  0  0  0  0  0  0  0  # atno 10765 bound_to 10752
  139.9927  134.9509  156.9894 H   0  0  0  0  0  0  0  0  0  0  0  0  # atno 11005 bound_to 11000
  146.1774  139.4951  142.9888 LP  0  0  0  0  0  0  0  0  0  0  0  0  # atno 17320 bound_to 7965
  145.6458  141.0274  143.1787 LP  0  0  0  0  0  0  0  0  0  0  0  0  # atno 17321 bound_to 7965
  140.2121  143.3875  152.1710 LP  0  0  0  0  0  0  0  0  0  0  0  0  # atno 17342 bound_to 10162
  139.5303  144.7151  151.5081 LP  0  0  0  0  0  0  0  0  0  0  0  0  # atno 17343 bound_to 10162
  156.4554  130.4020  149.6609 LP  0  0  0  0  0  0  0  0  0  0  0  0  # atno 17370 bound_to 10713
  156.3744  130.7547  151.2533 LP  0  0  0  0  0  0  0  0  0  0  0  0  # atno 17371 bound_to 10713
  140.4877  134.1225  155.7227 LP  0  0  0  0  0  0  0  0  0  0  0  0  # atno 17394 bound_to 11000
  141.1579  133.8847  157.1927 LP  0  0  0  0  0  0  0  0  0  0  0  0  # atno 17395 bound_to 11000

$$$$
