#       Name:                AV-unprocessed.smi:1413
#       Creating user name   scv26
#       Creation time:       Fri Mar 27 05:38:53 2020


#       File generated by GOLD software.
#

@<TRIPOS>MOLECULE
AV-unprocessed.smi:1413
    61    63     1
SMALL
NO_CHARGES


@<TRIPOS>ATOM
      1 ****        -6.6307   0.2590   2.1571 C.3            1 S1                 0.0000
      2 ****        -5.9406   0.4301   0.7999 C.3            1 S1                 0.0000
      3 ****        -4.4064   0.4716   0.9339 C.3            1 S1                 0.0000
      4 ****        -3.7884   0.7599  -0.3571 N.3            1 S1                 0.0000
      5 ****        -2.3935   0.5542  -0.4212 C.ar           1 S1                 0.0000
      6 ****        -1.8429  -0.6971  -0.0570 C.ar           1 S1                 0.0000
      7 ****        -0.4491  -0.8848  -0.1295 C.ar           1 S1                 0.0000
      8 ****         0.3629   0.1842  -0.5730 C.ar           1 S1                 0.0000
      9 ****         1.7788   0.1230  -0.6691 N.am           1 S1                 0.0000
     10 ****         2.5529  -0.9604  -0.8496 C.2            1 S1                 0.0000
     11 ****         2.1407  -2.1131  -0.9769 O.2            1 S1                 0.0000
     12 ****         3.8501  -0.6237  -0.8930 N.am           1 S1                 0.0000
     13 ****         4.9712  -1.5358  -1.1212 C.3            1 S1                 0.0000
     14 ****         5.8060  -1.0248  -2.3043 C.3            1 S1                 0.0000
     15 ****         5.8249  -1.6996   0.1538 C.3            1 S1                 0.0000
     16 ****         5.1183  -2.3520   1.3516 C.3            1 S1                 0.0000
     17 ****         5.6637  -1.6066   2.5625 C.3            1 S1                 0.0000
     18 ****         6.7064  -0.6561   1.9787 C.3            1 S1                 0.0000
     19 ****         6.2579  -0.4407   0.6514 O.3            1 S1                 0.0000
     20 ****        -0.2747   1.3969  -0.9009 C.ar           1 S1                 0.0000
     21 ****        -1.6101   1.5793  -0.8373 N.ar           1 S1                 0.0000
     22 ****        -4.3354   1.9492  -1.0063 C.3            1 S1                 0.0000
     23 ****        -5.8705   1.8578  -1.0895 C.3            1 S1                 0.0000
     24 ****        -6.4938   3.1352  -1.6614 C.3            1 S1                 0.0000
     25 ****        -6.3962   1.6490   0.2184 O.3            1 S1                 0.0000
     26 ****        -6.3215  -0.6682   2.6401 H              1 S1                 0.0000
     27 ****        -7.7145   0.2289   2.0425 H              1 S1                 0.0000
     28 ****        -6.3894   1.0835   2.8286 H              1 S1                 0.0000
     29 ****        -6.2301  -0.4029   0.1567 H              1 S1                 0.0000
     30 ****        -4.1119   1.2470   1.6424 H              1 S1                 0.0000
     31 ****        -4.0581  -0.4768   1.3409 H              1 S1                 0.0000
     32 ****        -2.4712  -1.5143   0.2648 H              1 S1                 0.0000
     33 ****        -0.0320  -1.8353   0.1650 H              1 S1                 0.0000
     34 ****         2.2531   1.0142  -0.6726 H              1 S1                 0.0000
     35 ****         4.0869   0.3497  -0.7689 H              1 S1                 0.0000
     36 ****         4.5990  -2.5234  -1.3986 H              1 S1                 0.0000
     37 ****         6.6331  -1.7012  -2.5213 H              1 S1                 0.0000
     38 ****         6.2270  -0.0398  -2.0994 H              1 S1                 0.0000
     39 ****         5.2006  -0.9463  -3.2079 H              1 S1                 0.0000
     40 ****         6.7148  -2.2873  -0.0807 H              1 S1                 0.0000
     41 ****         4.0355  -2.2380   1.3082 H              1 S1                 0.0000
     42 ****         5.3308  -3.4205   1.3970 H              1 S1                 0.0000
     43 ****         4.8627  -1.0381   3.0367 H              1 S1                 0.0000
     44 ****         6.0909  -2.2738   3.3116 H              1 S1                 0.0000
     45 ****         6.7833   0.2785   2.5345 H              1 S1                 0.0000
     46 ****         7.6913  -1.1253   1.9579 H              1 S1                 0.0000
     47 ****         0.3023   2.2477  -1.2328 H              1 S1                 0.0000
     48 ****        -4.0406   2.8354  -0.4424 H              1 S1                 0.0000
     49 ****        -3.9231   2.0493  -2.0113 H              1 S1                 0.0000
     50 ****        -6.1547   1.0188  -1.7274 H              1 S1                 0.0000
     51 ****        -6.1277   3.3323  -2.6693 H              1 S1                 0.0000
     52 ****        -6.2567   4.0016  -1.0434 H              1 S1                 0.0000
     53 ****        -7.5795   3.0495  -1.7130 H              1 S1                 0.0000
     54 ****        -4.0849   0.0279  -0.9705 LP             1 S1                 0.0000
     55 ****         1.1584  -2.2988  -0.9494 LP             1 S1                 0.0000
     56 ****         2.7880  -2.8640  -1.1078 LP             1 S1                 0.0000
     57 ****         5.4993   0.2108   0.6460 LP             1 S1                 0.0000
     58 ****         7.0051  -0.0869   0.0889 LP             1 S1                 0.0000
     59 ****        -2.0156   2.4569  -1.0931 LP             1 S1                 0.0000
     60 ****        -6.1132   2.4091   0.8033 LP             1 S1                 0.0000
     61 ****        -7.3944   1.6248   0.1631 LP             1 S1                 0.0000
@<TRIPOS>BOND
    1    1    2 1     
    2    1   26 1     
    3    1   27 1     
    4    1   28 1     
    5    2   25 1     
    6    2    3 1     
    7    2   29 1     
    8    3    4 1     
    9    3   30 1     
   10    3   31 1     
   11    4    5 1     
   12    4   22 1     
   13    5   21 ar    
   14    5    6 ar    
   15    6    7 ar    
   16    6   32 1     
   17    7    8 ar    
   18    7   33 1     
   19    8    9 1     
   20    8   20 ar    
   21    9   10 am    
   22    9   34 1     
   23   10   11 2     
   24   10   12 am    
   25   12   13 1     
   26   12   35 1     
   27   13   14 1     
   28   13   15 1     
   29   13   36 1     
   30   14   37 1     
   31   14   38 1     
   32   14   39 1     
   33   15   19 1     
   34   15   16 1     
   35   15   40 1     
   36   16   17 1     
   37   16   41 1     
   38   16   42 1     
   39   17   18 1     
   40   17   43 1     
   41   17   44 1     
   42   18   19 1     
   43   18   45 1     
   44   18   46 1     
   45   20   21 ar    
   46   20   47 1     
   47   22   23 1     
   48   22   48 1     
   49   22   49 1     
   50   23   24 1     
   51   23   25 1     
   52   23   50 1     
   53   24   51 1     
   54   24   52 1     
   55   24   53 1     
   56    4   54 1     
   57   11   55 1     
   58   11   56 1     
   59   19   57 1     
   60   19   58 1     
   61   21   59 1     
   62   25   60 1     
   63   25   61 1     
@<TRIPOS>SUBSTRUCTURE
      1 S1             1
@<TRIPOS>SET
LONE_PAIRS      STATIC     ATOMS    <user>   **** ""
8 54 55 56 57 58 59 60 61
DONOR_HYDROGENS      STATIC     ATOMS    <user>   **** ""
2 34 35
ATOM$BLUE        STATIC     ATOMS    COLORGROUP SYSTEM
8 54 55 56 57 58 59 60 61
ATOM$RED        STATIC     ATOMS    COLORGROUP SYSTEM
2 34 35
