AV-unprocessed.smi:1762|AV-procd|sdf|7102|dock6
  -GOLD-   22720 8323D 1   1.00000     0.00000
 Structure written by MMmdl.
 52 53  0  0  0  0  0  0  0  0  1 V2000
  153.6453  141.2069  160.6935 C   0  0  0  0  0  0  0  0  0  0  0  0
  152.9972  141.9003  159.4903 C   0  0  1  0  0  0  0  0  0  0  0  0
  151.8902  141.0432  158.8471 C   0  0  0  0  0  0  0  0  0  0  0  0
  151.2133  141.7286  157.7397 N   0  0  0  0  0  0  0  0  0  0  0  0
  150.1637  140.8923  157.0923 C   0  0  1  0  0  0  0  0  0  0  0  0
  149.1097  140.3619  158.0931 C   0  0  0  0  0  0  0  0  0  0  0  0
  148.4040  141.1454  158.7295 O   0  0  0  0  0  0  0  0  0  0  0  0
  149.0402  139.0297  158.2442 N   0  0  0  0  0  0  0  0  0  0  0  0
  148.1509  138.3389  159.1696 C   0  0  0  0  0  0  0  0  0  0  0  0
  148.4895  136.8415  159.2607 C   0  0  0  0  0  0  0  0  0  0  0  0
  148.0201  136.2256  160.5648 C   0  0  0  0  0  0  0  0  0  0  0  0
  147.2412  135.0486  160.5658 C   0  0  0  0  0  0  0  0  0  0  0  0
  146.8384  134.5116  161.8038 C   0  0  0  0  0  0  0  0  0  0  0  0
  147.2289  135.1682  162.9867 C   0  0  0  0  0  0  0  0  0  0  0  0
  148.0076  136.3377  162.8785 C   0  0  0  0  0  0  0  0  0  0  0  0
  148.3993  136.8610  161.6966 N   0  0  0  0  0  0  0  0  0  0  0  0
  149.4721  141.5413  155.8464 C   0  0  0  0  0  0  0  0  0  0  0  0
  148.4572  142.6470  156.1979 C   0  0  0  0  0  0  0  0  0  0  0  0
  148.8352  140.5115  154.8917 C   0  0  0  0  0  0  0  0  0  0  0  0
  150.7325  143.0346  158.2246 C   0  0  0  0  0  0  0  0  0  0  0  0
  151.8437  143.8763  158.8813 C   0  0  1  0  0  0  0  0  0  0  0  0
  151.3094  145.1873  159.4693 C   0  0  0  0  0  0  0  0  0  0  0  0
  152.4374  143.1290  159.9351 O   0  0  0  0  0  0  0  0  0  0  0  0
  154.1047  140.2622  160.4018 H   0  0  0  0  0  0  0  0  0  0  0  0
  152.9101  140.9966  161.4708 H   0  0  0  0  0  0  0  0  0  0  0  0
  154.4230  141.8333  161.1312 H   0  0  0  0  0  0  0  0  0  0  0  0
  153.7718  142.1101  158.7502 H   0  0  0  0  0  0  0  0  0  0  0  0
  152.3640  140.1267  158.5013 H   0  0  0  0  0  0  0  0  0  0  0  0
  151.1610  140.7549  159.6063 H   0  0  0  0  0  0  0  0  0  0  0  0
  150.6714  140.0040  156.7100 H   0  0  0  0  0  0  0  0  0  0  0  0
  149.6585  138.4558  157.6894 H   0  0  0  0  0  0  0  0  0  0  0  0
  148.2017  138.8032  160.1560 H   0  0  0  0  0  0  0  0  0  0  0  0
  147.1274  138.4702  158.8173 H   0  0  0  0  0  0  0  0  0  0  0  0
  148.0310  136.3035  158.4296 H   0  0  0  0  0  0  0  0  0  0  0  0
  149.5656  136.6913  159.1642 H   0  0  0  0  0  0  0  0  0  0  0  0
  146.9603  134.5662  159.6410 H   0  0  0  0  0  0  0  0  0  0  0  0
  146.2419  133.6122  161.8453 H   0  0  0  0  0  0  0  0  0  0  0  0
  146.9392  134.7847  163.9540 H   0  0  0  0  0  0  0  0  0  0  0  0
  148.3250  136.8666  163.7650 H   0  0  0  0  0  0  0  0  0  0  0  0
  150.2498  142.0074  155.2436 H   0  0  0  0  0  0  0  0  0  0  0  0
  147.5904  142.2522  156.7268 H   0  0  0  0  0  0  0  0  0  0  0  0
  148.0903  143.1361  155.2951 H   0  0  0  0  0  0  0  0  0  0  0  0
  148.9054  143.4199  156.8224 H   0  0  0  0  0  0  0  0  0  0  0  0
  147.9579  140.0335  155.3284 H   0  0  0  0  0  0  0  0  0  0  0  0
  149.5466  139.7291  154.6256 H   0  0  0  0  0  0  0  0  0  0  0  0
  148.5141  140.9880  153.9651 H   0  0  0  0  0  0  0  0  0  0  0  0
  150.3254  143.6350  157.4117 H   0  0  0  0  0  0  0  0  0  0  0  0
  149.9202  142.8837  158.9377 H   0  0  0  0  0  0  0  0  0  0  0  0
  152.6084  144.1128  158.1391 H   0  0  0  0  0  0  0  0  0  0  0  0
  150.8518  145.8069  158.6979 H   0  0  0  0  0  0  0  0  0  0  0  0
  152.1130  145.7653  159.9262 H   0  0  0  0  0  0  0  0  0  0  0  0
  150.5581  144.9979  160.2367 H   0  0  0  0  0  0  0  0  0  0  0  0
  1  2  1  0  0  0  0
  1 24  1  0  0  0  0
  1 25  1  0  0  0  0
  1 26  1  0  0  0  0
  2 23  1  0  0  0  0
  2  3  1  0  0  0  0
  2 27  1  0  0  0  0
  3  4  1  0  0  0  0
  3 28  1  0  0  0  0
  3 29  1  0  0  0  0
  4  5  1  0  0  0  0
  4 20  1  0  0  0  0
  5  6  1  0  0  0  0
  5 17  1  0  0  0  0
  5 30  1  0  0  0  0
  6  7  2  0  0  0  0
  6  8  1  0  0  0  0
  8  9  1  0  0  0  0
  8 31  1  0  0  0  0
  9 10  1  0  0  0  0
  9 32  1  0  0  0  0
  9 33  1  0  0  0  0
 10 11  1  0  0  0  0
 10 34  1  0  0  0  0
 10 35  1  0  0  0  0
 11 16  1  0  0  0  0
 11 12  2  0  0  0  0
 12 13  1  0  0  0  0
 12 36  1  0  0  0  0
 13 14  2  0  0  0  0
 13 37  1  0  0  0  0
 14 15  1  0  0  0  0
 14 38  1  0  0  0  0
 15 16  2  0  0  0  0
 15 39  1  0  0  0  0
 17 18  1  0  0  0  0
 17 19  1  0  0  0  0
 17 40  1  0  0  0  0
 18 41  1  0  0  0  0
 18 42  1  0  0  0  0
 18 43  1  0  0  0  0
 19 44  1  0  0  0  0
 19 45  1  0  0  0  0
 19 46  1  0  0  0  0
 20 21  1  0  0  0  0
 20 47  1  0  0  0  0
 20 48  1  0  0  0  0
 21 22  1  0  0  0  0
 21 23  1  0  0  0  0
 21 49  1  0  0  0  0
 22 50  1  0  0  0  0
 22 51  1  0  0  0  0
 22 52  1  0  0  0  0
M  END
> <s_m_source_file>
AV-unprocessed.smi

> <i_m_source_file_index>
1762

> <i_lp_mmshare_version>
43012

> <i_f3d_flags>
0

> <s_epik_input>
W0NIM11bQ0BASF0xW0NIMl1OKFtDSDJdW0NASF0oTzEpW0NIM10pW0NAQEhdKFtDSF0oW0NIM10pW0NIM10pQyg9TylbTkhdW0NIMl1bQ0gyXWMyW2NIXVtjSF1bY0hdW2NIXW4y

> <s_epik_cmdline>
J2VwaWtfcHl0aG9uJywgJy1waCcsICc3LjAnLCAnLXRuJywgJzgnLCAnLW1hJywgJzIwMCcsICctbWV0YWxfYmluZGluZycsICctaW1hZScsICc8aW5maWxlLm1hZT4nLCAnLW9tYWUnLCAnPG91dGZpbGUubWFlPic=

> <r_epik_Ionization_Penalty>
0.0399736

> <r_epik_Ionization_Penalty_Charging>
0

> <r_epik_Ionization_Penalty_Neutral>
0.0399736

> <r_epik_State_Penalty>
0.0317634

> <r_epik_Charging_Adjusted_Penalty>
0.0317634

> <i_epik_Tot_Q>
0

> <i_epik_Tot_abs_Q>
0

> <r_epik_Metal_State_Penalty>
0.0307795

> <b_epik_Metal_Only>
0

> <s_lp_Force_Field>
OPLS_2005

> <r_lp_Energy>
24.971

> <b_lp_Chiralities_Consistent>
1

> <s_lp_Variant>
AV-unprocessed.smi:1762-4

> <Gold.Version>
5.8.1

> <Gold.Id.Protein>
6NUR|6NUR_protein|mol2

> <Gold.PLP.Fitness>
53.2575

> <Gold.PLP.PLP>
-51.0826

> <Gold.PLP.part.hbond>
-1.2905

> <Gold.PLP.part.metal>
0.0000

> <Gold.PLP.part.buried>
-5.0093

> <Gold.PLP.part.nonpolar>
-45.2472

> <Gold.PLP.part.repulsive>
0.1212

> <Gold.PLP.ligand.clash>
0.0000

> <Gold.PLP.ligand.torsion>
0.5722

> <Gold.PLP.Chemscore.Hbond>
1.0000

> <Gold.PLP.Chemscore.CHOScore>
0.0000

> <Gold.PLP.Chemscore.Metal>
0.0000

> <Gold.Chemscore.Hbonds>
donor molecule, donor type, donor heavy atom, donor atom, acceptor molecule, acceptor atom, score
      P1  H  6931  6943       L1    16  1.00

> <Gold.PLP.Chemscore.Internal.Correction>
0.3193

> <Gold.Rescore>
     Score         DG    S(hbond)    S(metal)    S(lipo)     H(rot)  DE(clash)    DE(int)     intcor
     17.73     -20.43       0.96        0.00     135.43       1.60       0.08       2.62       ----

> <Gold.Chemscore.Fitness>
17.7332

> <Gold.Chemscore.DG>
-20.4272

> <Gold.Chemscore.ZeroCoef>
-5.4800

> <Gold.Chemscore.Hbond>
0.9570

> <Gold.Chemscore.Metal>
0.0000

> <Gold.Chemscore.Lipo>
135.4279

> <Gold.Chemscore.Internal_Hbond>
0.0000

> <Gold.Chemscore.DEClash>
0.0782

> <Gold.Chemscore.DEInternal>
2.6158

> <Gold.Chemscore.Rot>
1.5993

> <Gold.Chemscore.Internal.Correction>
   9.000000E+99

> <Gold.Chemscore.Hbonds>
donor molecule, donor type, donor heavy atom, donor atom, acceptor molecule, acceptor atom, score
      P1  H  6931  6943       L1    16  0.70

> <Gold.Chemscore.Hbond.Weighted>
-3.1963

> <Gold.Chemscore.Metal.Weighted>
-0.0000

> <Gold.Chemscore.Lipo.Weighted>
-15.8451

> <Gold.Chemscore.Internal_Hbond.Weighted>
0.0000

> <Gold.Chemscore.DEClash.Weighted>
0.0782

> <Gold.Chemscore.DEInternal.Weighted>
2.6158

> <Gold.Chemscore.Rot.Weighted>
4.0941

> <Gold.Chemscore.Internal.Correction.Weighted>
   9.000000E+99

> <Gold.Protein.RotatedTorsions>
[ 6907 6896 6895 6894 ] final  171.22 input  -60.11 | X-H torsion
[ 7974 7965 7964 7962 ] final   61.61 input  175.53 | X-H torsion
[ 8008 7997 7996 7995 ] final  -58.42 input   59.86 | X-H torsion
[ 10167 10162 10161 10158 ] final -108.19 input  -65.29 | X-H torsion
[ 10718 10713 10712 10709 ] final    4.24 input   66.30 | X-H torsion
[ 10763 10752 10751 10750 ] final  140.42 input  -60.55 | X-H torsion
[ 11005 11000 10999 10996 ] final  104.39 input  -57.11 | X-H torsion

> <Gold.Protein.ActiveResidues>
 VAL166  LYS551  ARG553  GLY616  TRP617  ASP618  TYR619  PRO620  LYS621  CYS622 
 ASP623  PHE694  ASN695  SER759  ASP760  ASP761  ALA762  ILE779  LEU786  VAL792 
 PHE793  MET794  SER795  GLU796  ALA797  LYS798  CYS799  TRP800  GLU811  SER814 

> <Gold.Protein.RotatedAtoms>
  151.8037  133.3373  159.3534 H   0  0  0  0  0  0  0  0  0  0  0  0  # atno 6907 bound_to 6896
  150.7350  134.5730  159.5909 H   0  0  0  0  0  0  0  0  0  0  0  0  # atno 6908 bound_to 6896
  152.3125  134.7481  160.0384 H   0  0  0  0  0  0  0  0  0  0  0  0  # atno 6909 bound_to 6896
  145.8828  139.3455  143.0696 H   0  0  0  0  0  0  0  0  0  0  0  0  # atno 7974 bound_to 7965
  154.4308  140.1084  156.5953 H   0  0  0  0  0  0  0  0  0  0  0  0  # atno 8008 bound_to 7997
  155.5968  140.3493  155.4563 H   0  0  0  0  0  0  0  0  0  0  0  0  # atno 8009 bound_to 7997
  156.0204  140.1238  157.0353 H   0  0  0  0  0  0  0  0  0  0  0  0  # atno 8010 bound_to 7997
  140.1689  143.4059  152.1370 H   0  0  0  0  0  0  0  0  0  0  0  0  # atno 10167 bound_to 10162
  156.8897  130.5683  149.5650 H   0  0  0  0  0  0  0  0  0  0  0  0  # atno 10718 bound_to 10713
  153.9225  135.2999  155.3447 H   0  0  0  0  0  0  0  0  0  0  0  0  # atno 10763 bound_to 10752
  154.7568  135.4953  153.9393 H   0  0  0  0  0  0  0  0  0  0  0  0  # atno 10764 bound_to 10752
  153.1134  135.6765  153.9563 H   0  0  0  0  0  0  0  0  0  0  0  0  # atno 10765 bound_to 10752
  139.8791  134.9298  156.5355 H   0  0  0  0  0  0  0  0  0  0  0  0  # atno 11005 bound_to 11000
  145.9003  140.9247  143.0506 LP  0  0  0  0  0  0  0  0  0  0  0  0  # atno 17320 bound_to 7965
  144.6727  140.1023  143.7460 LP  0  0  0  0  0  0  0  0  0  0  0  0  # atno 17321 bound_to 7965
  139.5347  144.7197  151.4934 LP  0  0  0  0  0  0  0  0  0  0  0  0  # atno 17342 bound_to 10162
  140.6595  143.8528  150.6872 LP  0  0  0  0  0  0  0  0  0  0  0  0  # atno 17343 bound_to 10162
  156.0635  130.5683  150.9241 LP  0  0  0  0  0  0  0  0  0  0  0  0  # atno 17370 bound_to 10713
  157.6091  131.0937  150.8827 LP  0  0  0  0  0  0  0  0  0  0  0  0  # atno 17371 bound_to 10713
  140.8349  133.8250  155.9019 LP  0  0  0  0  0  0  0  0  0  0  0  0  # atno 17394 bound_to 11000
  140.9293  134.2042  157.4875 LP  0  0  0  0  0  0  0  0  0  0  0  0  # atno 17395 bound_to 11000

$$$$
