AV-unprocessed.smi:1747|AV-procd|sdf|7035|dock4
  -GOLD-   22720 8253D 1   1.00000     0.00000
 Structure written by MMmdl.
 40 41  0  0  0  0  0  0  0  0  1 V2000
  143.3703  145.7227  153.0874 C   0  0  0  0  0  0  0  0  0  0  0  0
  143.7838  145.1175  154.4309 C   0  0  0  0  0  0  0  0  0  0  0  0
  142.9406  145.0719  155.3266 O   0  0  0  0  0  0  0  0  0  0  0  0
  145.0489  144.6597  154.5914 N   0  0  0  0  0  0  0  0  0  0  0  0
  145.5805  144.0297  155.8104 C   0  0  0  0  0  0  0  0  0  0  0  0
  145.9799  142.5756  155.4905 C   0  0  0  0  0  0  0  0  0  0  0  0
  146.9849  142.5832  154.4096 N   0  0  0  0  0  0  0  0  0  0  0  0
  148.2781  142.1811  154.5041 C   0  0  0  0  0  0  0  0  0  0  0  0
  148.9910  141.9556  153.5252 O   0  0  0  0  0  0  0  0  0  0  0  0
  148.7290  142.0314  155.7588 N   0  0  0  0  0  0  0  0  0  0  0  0
  150.0605  141.5620  156.1214 C   0  0  0  0  0  0  0  0  0  0  0  0
  150.1871  141.3159  157.6357 C   0  0  0  0  0  0  0  0  0  0  0  0
  150.8235  142.4564  158.3782 C   0  0  0  0  0  0  0  0  0  0  0  0
  151.2909  143.6289  157.8393 C   0  0  0  0  0  0  0  0  0  0  0  0
  151.9846  144.6711  159.0510 S   0  0  0  0  0  0  0  0  0  0  0  0
  151.6084  143.4568  160.2667 C   0  0  0  0  0  0  0  0  0  0  0  0
  151.9324  143.6210  161.7118 C   0  0  0  0  0  0  0  0  0  0  0  0
  151.0093  142.3755  159.7628 N   0  0  0  0  0  0  0  0  0  0  0  0
  146.4465  143.2063  153.1907 C   0  0  0  0  0  0  0  0  0  0  0  0
  146.0393  144.6602  153.5039 C   0  0  0  0  0  0  0  0  0  0  0  0
  143.9881  146.5884  152.8473 H   0  0  0  0  0  0  0  0  0  0  0  0
  142.3321  146.0550  153.1193 H   0  0  0  0  0  0  0  0  0  0  0  0
  143.4596  144.9877  152.2868 H   0  0  0  0  0  0  0  0  0  0  0  0
  146.4520  144.5918  156.1501 H   0  0  0  0  0  0  0  0  0  0  0  0
  144.8834  144.0356  156.6464 H   0  0  0  0  0  0  0  0  0  0  0  0
  146.3110  142.0849  156.4054 H   0  0  0  0  0  0  0  0  0  0  0  0
  145.1065  142.0114  155.1596 H   0  0  0  0  0  0  0  0  0  0  0  0
  148.0938  142.2299  156.5187 H   0  0  0  0  0  0  0  0  0  0  0  0
  150.2632  140.6345  155.5834 H   0  0  0  0  0  0  0  0  0  0  0  0
  150.8073  142.2881  155.7978 H   0  0  0  0  0  0  0  0  0  0  0  0
  149.1974  141.1128  158.0458 H   0  0  0  0  0  0  0  0  0  0  0  0
  150.7629  140.4042  157.8005 H   0  0  0  0  0  0  0  0  0  0  0  0
  151.2755  143.9389  156.8048 H   0  0  0  0  0  0  0  0  0  0  0  0
  151.5364  142.7867  162.2917 H   0  0  0  0  0  0  0  0  0  0  0  0
  151.4973  144.5465  162.0889 H   0  0  0  0  0  0  0  0  0  0  0  0
  153.0131  143.6594  161.8481 H   0  0  0  0  0  0  0  0  0  0  0  0
  147.1559  143.1989  152.3623 H   0  0  0  0  0  0  0  0  0  0  0  0
  145.5813  142.6369  152.8475 H   0  0  0  0  0  0  0  0  0  0  0  0
  145.6694  145.1359  152.5947 H   0  0  0  0  0  0  0  0  0  0  0  0
  146.9111  145.2391  153.8122 H   0  0  0  0  0  0  0  0  0  0  0  0
  1  2  1  0  0  0  0
  1 21  1  0  0  0  0
  1 22  1  0  0  0  0
  1 23  1  0  0  0  0
  2  3  2  0  0  0  0
  2  4  1  0  0  0  0
  4 20  1  0  0  0  0
  4  5  1  0  0  0  0
  5  6  1  0  0  0  0
  5 24  1  0  0  0  0
  5 25  1  0  0  0  0
  6  7  1  0  0  0  0
  6 26  1  0  0  0  0
  6 27  1  0  0  0  0
  7  8  1  0  0  0  0
  7 19  1  0  0  0  0
  8  9  2  0  0  0  0
  8 10  1  0  0  0  0
 10 11  1  0  0  0  0
 10 28  1  0  0  0  0
 11 12  1  0  0  0  0
 11 29  1  0  0  0  0
 11 30  1  0  0  0  0
 12 13  1  0  0  0  0
 12 31  1  0  0  0  0
 12 32  1  0  0  0  0
 13 18  1  0  0  0  0
 13 14  2  0  0  0  0
 14 15  1  0  0  0  0
 14 33  1  0  0  0  0
 15 16  1  0  0  0  0
 16 17  1  0  0  0  0
 16 18  2  0  0  0  0
 17 34  1  0  0  0  0
 17 35  1  0  0  0  0
 17 36  1  0  0  0  0
 19 20  1  0  0  0  0
 19 37  1  0  0  0  0
 19 38  1  0  0  0  0
 20 39  1  0  0  0  0
 20 40  1  0  0  0  0
M  END
> <s_m_source_file>
AV-unprocessed.smi

> <i_m_source_file_index>
1747

> <i_lp_mmshare_version>
43012

> <i_f3d_flags>
0

> <s_epik_input>
W0NIM11DKD1PKU4xW0NIMl1bQ0gyXU4oW0NIMl1bQ0gyXTEpQyg9TylbTkhdW0NIMl1bQ0gyXWMyW2NIXXNjKG4yKVtDSDNd

> <s_epik_cmdline>
J2VwaWtfcHl0aG9uJywgJy1waCcsICc3LjAnLCAnLXRuJywgJzgnLCAnLW1hJywgJzIwMCcsICctbWV0YWxfYmluZGluZycsICctaW1hZScsICc8aW5maWxlLm1hZT4nLCAnLW9tYWUnLCAnPG91dGZpbGUubWFlPic=

> <r_epik_Ionization_Penalty>
0.00199956

> <r_epik_Ionization_Penalty_Charging>
0

> <r_epik_Ionization_Penalty_Neutral>
0.00199956

> <r_epik_State_Penalty>
0.00133382

> <r_epik_Charging_Adjusted_Penalty>
0.00133382

> <i_epik_Tot_Q>
0

> <i_epik_Tot_abs_Q>
0

> <r_epik_Metal_State_Penalty>
-0

> <b_epik_Metal_Only>
0

> <s_lp_Force_Field>
OPLS_2005

> <r_lp_Energy>
44.3218

> <b_lp_Chiralities_Consistent>
1

> <s_lp_Variant>
AV-unprocessed.smi:1747-1

> <Gold.Version>
5.8.1

> <Gold.Id.Protein>
6NUR|6NUR_protein|mol2

> <Gold.PLP.Fitness>
42.7936

> <Gold.PLP.PLP>
-39.1183

> <Gold.PLP.part.hbond>
-2.3412

> <Gold.PLP.part.metal>
0.0000

> <Gold.PLP.part.buried>
-4.1386

> <Gold.PLP.part.nonpolar>
-32.9497

> <Gold.PLP.part.repulsive>
0.2703

> <Gold.PLP.ligand.clash>
0.0000

> <Gold.PLP.ligand.torsion>
0.4358

> <Gold.PLP.Chemscore.Hbond>
0.5120

> <Gold.PLP.Chemscore.CHOScore>
0.9970

> <Gold.PLP.Chemscore.Metal>
0.0000

> <Gold.Chemscore.Hbonds>
donor molecule, donor type, donor heavy atom, donor atom, acceptor molecule, acceptor atom, score
      P1  H  8011  8017       L1     9  0.50
      L1  C    14    33       P1  8028  0.38

> <Gold.PLP.Chemscore.Internal.Correction>
0.0199

> <Gold.Rescore>
     Score         DG    S(hbond)    S(metal)    S(lipo)     H(rot)  DE(clash)    DE(int)     intcor
     13.53     -14.54       0.46        0.00      94.62       1.38       0.61       0.40       ----

> <Gold.Chemscore.Fitness>
13.5340

> <Gold.Chemscore.DG>
-14.5448

> <Gold.Chemscore.ZeroCoef>
-5.4800

> <Gold.Chemscore.Hbond>
0.4561

> <Gold.Chemscore.Metal>
0.0000

> <Gold.Chemscore.Lipo>
94.6201

> <Gold.Chemscore.Internal_Hbond>
0.0000

> <Gold.Chemscore.DEClash>
0.6123

> <Gold.Chemscore.DEInternal>
0.3984

> <Gold.Chemscore.Rot>
1.3786

> <Gold.Chemscore.Internal.Correction>
   9.000000E+99

> <Gold.Chemscore.Hbonds>
donor molecule, donor type, donor heavy atom, donor atom, acceptor molecule, acceptor atom, score
      P1  H  8011  8017       L1     9  0.48

> <Gold.Chemscore.Hbond.Weighted>
-1.5234

> <Gold.Chemscore.Metal.Weighted>
-0.0000

> <Gold.Chemscore.Lipo.Weighted>
-11.0705

> <Gold.Chemscore.Internal_Hbond.Weighted>
0.0000

> <Gold.Chemscore.DEClash.Weighted>
0.6123

> <Gold.Chemscore.DEInternal.Weighted>
0.3984

> <Gold.Chemscore.Rot.Weighted>
3.5291

> <Gold.Chemscore.Internal.Correction.Weighted>
   9.000000E+99

> <Gold.Protein.RotatedTorsions>
[ 6907 6896 6895 6894 ] final -128.25 input  -60.11 | X-H torsion
[ 7974 7965 7964 7962 ] final -106.37 input  175.53 | X-H torsion
[ 8008 7997 7996 7995 ] final   58.68 input   59.86 | X-H torsion
[ 10167 10162 10161 10158 ] final  178.21 input  -65.29 | X-H torsion
[ 10718 10713 10712 10709 ] final   82.34 input   66.30 | X-H torsion
[ 10763 10752 10751 10750 ] final  -22.14 input  -60.55 | X-H torsion
[ 11005 11000 10999 10996 ] final -153.76 input  -57.11 | X-H torsion

> <Gold.Protein.ActiveResidues>
 VAL166  LYS551  ARG553  GLY616  TRP617  ASP618  TYR619  PRO620  LYS621  CYS622 
 ASP623  PHE694  ASN695  SER759  ASP760  ASP761  ALA762  ILE779  LEU786  VAL792 
 PHE793  MET794  SER795  GLU796  ALA797  LYS798  CYS799  TRP800  GLU811  SER814 

> <Gold.Protein.RotatedAtoms>
  150.9159  133.6940  159.2843 H   0  0  0  0  0  0  0  0  0  0  0  0  # atno 6907 bound_to 6896
  151.4411  135.1019  159.9680 H   0  0  0  0  0  0  0  0  0  0  0  0  # atno 6908 bound_to 6896
  152.4954  133.8567  159.7284 H   0  0  0  0  0  0  0  0  0  0  0  0  # atno 6909 bound_to 6896
  145.2187  140.9126  143.3272 H   0  0  0  0  0  0  0  0  0  0  0  0  # atno 7974 bound_to 7965
  155.5539  140.3487  155.4475 H   0  0  0  0  0  0  0  0  0  0  0  0  # atno 8008 bound_to 7997
  156.0563  140.1329  157.0019 H   0  0  0  0  0  0  0  0  0  0  0  0  # atno 8009 bound_to 7997
  154.4458  140.0994  156.6435 H   0  0  0  0  0  0  0  0  0  0  0  0  # atno 8010 bound_to 7997
  139.5285  144.2707  152.0630 H   0  0  0  0  0  0  0  0  0  0  0  0  # atno 10167 bound_to 10162
  157.6855  131.0043  150.2359 H   0  0  0  0  0  0  0  0  0  0  0  0  # atno 10718 bound_to 10713
  153.6472  135.6982  153.5221 H   0  0  0  0  0  0  0  0  0  0  0  0  # atno 10763 bound_to 10752
  153.2735  135.4207  155.1010 H   0  0  0  0  0  0  0  0  0  0  0  0  # atno 10764 bound_to 10752
  154.8485  135.3584  154.6016 H   0  0  0  0  0  0  0  0  0  0  0  0  # atno 10765 bound_to 10752
  140.7046  134.3899  157.5205 H   0  0  0  0  0  0  0  0  0  0  0  0  # atno 11005 bound_to 11000
  144.9786  139.3806  143.6273 LP  0  0  0  0  0  0  0  0  0  0  0  0  # atno 17320 bound_to 7965
  146.3381  139.8916  142.8808 LP  0  0  0  0  0  0  0  0  0  0  0  0  # atno 17321 bound_to 7965
  140.2166  144.4508  150.6361 LP  0  0  0  0  0  0  0  0  0  0  0  0  # atno 17342 bound_to 10162
  140.6446  143.2210  151.6215 LP  0  0  0  0  0  0  0  0  0  0  0  0  # atno 17343 bound_to 10162
  156.2983  130.3755  149.7775 LP  0  0  0  0  0  0  0  0  0  0  0  0  # atno 17370 bound_to 10713
  156.5413  130.8301  151.3270 LP  0  0  0  0  0  0  0  0  0  0  0  0  # atno 17371 bound_to 10713
  139.8887  134.8848  156.2458 LP  0  0  0  0  0  0  0  0  0  0  0  0  # atno 17394 bound_to 11000
  141.0135  133.7082  156.1150 LP  0  0  0  0  0  0  0  0  0  0  0  0  # atno 17395 bound_to 11000

$$$$
