#       Name:                AV-unprocessed.smi:757
#       Creating user name   scv26
#       Creation time:       Fri Mar 27 01:01:08 2020


#       File generated by GOLD software.
#

@<TRIPOS>MOLECULE
AV-unprocessed.smi:757
    50    51     1
SMALL
NO_CHARGES


@<TRIPOS>ATOM
      1 ****        -7.9190  -3.4746  -1.3008 C.1            1 S1                 0.0000
      2 ****        -6.7408  -3.1545  -1.2853 C.1            1 S1                 0.0000
      3 ****        -5.3195  -2.7732  -1.2515 C.3            1 S1                 0.0000
      4 ****        -4.9327  -1.9994   0.0221 C.3            1 S1                 0.0000
      5 ****        -3.4748  -1.7290   0.1022 N.4            1 S1                 1.0000
      6 ****        -3.0327  -1.4563   1.4946 C.3            1 S1                 0.0000
      7 ****        -1.5038  -1.3137   1.5788 C.3            1 S1                 0.0000
      8 ****        -0.9968  -0.2144   0.6324 C.3            1 S1                 0.0000
      9 ****         0.4614  -0.1498   0.6774 N.am           1 S1                 0.0000
     10 ****         1.1953   0.9191   0.3348 C.2            1 S1                 0.0000
     11 ****         0.7062   1.9691  -0.0812 O.2            1 S1                 0.0000
     12 ****         2.5088   0.6778   0.4878 N.am           1 S1                 0.0000
     13 ****         3.6043   1.5569   0.2677 C.ar           1 S1                 0.0000
     14 ****         3.5012   2.9682   0.2275 C.ar           1 S1                 0.0000
     15 ****         4.6668   3.7304   0.0205 C.ar           1 S1                 0.0000
     16 ****         5.8994   3.0649  -0.1305 C.ar           1 S1                 0.0000
     17 ****         7.0366   3.8202  -0.3310 O.3            1 S1                 0.0000
     18 ****         8.2817   3.1441  -0.4675 C.3            1 S1                 0.0000
     19 ****         6.0080   1.7142  -0.0811 N.ar           1 S1                 0.0000
     20 ****         4.8867   0.9896   0.1166 C.ar           1 S1                 0.0000
     21 ****        -1.4937  -0.5010  -0.7962 C.3            1 S1                 0.0000
     22 ****        -3.0228  -0.6620  -0.8304 C.3            1 S1                 0.0000
     23 ****        -8.9477  -3.7577  -1.3158 H              1 S1                 0.0000
     24 ****        -4.7332  -3.6890  -1.3331 H              1 S1                 0.0000
     25 ****        -5.1275  -2.1857  -2.1487 H              1 S1                 0.0000
     26 ****        -5.4874  -1.0621   0.0947 H              1 S1                 0.0000
     27 ****        -5.2261  -2.5986   0.8860 H              1 S1                 0.0000
     28 ****        -3.5166  -0.5490   1.8604 H              1 S1                 0.0000
     29 ****        -3.3494  -2.2695   2.1490 H              1 S1                 0.0000
     30 ****        -1.2120  -1.0880   2.6053 H              1 S1                 0.0000
     31 ****        -1.0372  -2.2673   1.3266 H              1 S1                 0.0000
     32 ****        -1.4055   0.7412   0.9676 H              1 S1                 0.0000
     33 ****         0.9460  -0.9733   1.0037 H              1 S1                 0.0000
     34 ****         2.7593  -0.2621   0.7582 H              1 S1                 0.0000
     35 ****         2.5624   3.4817   0.3642 H              1 S1                 0.0000
     36 ****         4.6164   4.8085  -0.0160 H              1 S1                 0.0000
     37 ****         9.0744   3.8760  -0.6212 H              1 S1                 0.0000
     38 ****         8.2802   2.4735  -1.3279 H              1 S1                 0.0000
     39 ****         8.5268   2.5754   0.4307 H              1 S1                 0.0000
     40 ****         5.0195  -0.0821   0.1516 H              1 S1                 0.0000
     41 ****        -1.1976   0.3053  -1.4684 H              1 S1                 0.0000
     42 ****        -1.0244  -1.4089  -1.1782 H              1 S1                 0.0000
     43 ****        -3.3259  -0.8944  -1.8505 H              1 S1                 0.0000
     44 ****        -3.5036   0.2812  -0.5659 H              1 S1                 0.0000
     45 ****        -3.0118  -2.5819  -0.1780 H              1 S1                 0.0000
     46 ****        -0.2854   2.0550  -0.1778 LP             1 S1                 0.0000
     47 ****         1.3004   2.7363  -0.3227 LP             1 S1                 0.0000
     48 ****         7.1209   4.4408   0.4486 LP             1 S1                 0.0000
     49 ****         6.8954   4.3516  -1.1663 LP             1 S1                 0.0000
     50 ****         6.8958   1.2666  -0.1884 LP             1 S1                 0.0000
@<TRIPOS>BOND
    1    1    2 3     
    2    1   23 1     
    3    2    3 1     
    4    3    4 1     
    5    3   24 1     
    6    3   25 1     
    7    4    5 1     
    8    4   26 1     
    9    4   27 1     
   10    5   22 1     
   11    5    6 1     
   12    5   45 1     
   13    6    7 1     
   14    6   28 1     
   15    6   29 1     
   16    7    8 1     
   17    7   30 1     
   18    7   31 1     
   19    8    9 1     
   20    8   21 1     
   21    8   32 1     
   22    9   10 am    
   23    9   33 1     
   24   10   11 2     
   25   10   12 am    
   26   12   13 1     
   27   12   34 1     
   28   13   20 ar    
   29   13   14 ar    
   30   14   15 ar    
   31   14   35 1     
   32   15   16 ar    
   33   15   36 1     
   34   16   17 1     
   35   16   19 ar    
   36   17   18 1     
   37   18   37 1     
   38   18   38 1     
   39   18   39 1     
   40   19   20 ar    
   41   20   40 1     
   42   21   22 1     
   43   21   41 1     
   44   21   42 1     
   45   22   43 1     
   46   22   44 1     
   47   11   46 1     
   48   11   47 1     
   49   17   48 1     
   50   17   49 1     
   51   19   50 1     
@<TRIPOS>SUBSTRUCTURE
      1 S1             1
@<TRIPOS>SET
LONE_PAIRS      STATIC     ATOMS    <user>   **** ""
5 46 47 48 49 50
DONOR_HYDROGENS      STATIC     ATOMS    <user>   **** ""
3 45 33 34
ATOM$BLUE        STATIC     ATOMS    COLORGROUP SYSTEM
5 46 47 48 49 50
ATOM$RED        STATIC     ATOMS    COLORGROUP SYSTEM
3 45 33 34
