#       Name:                AV-unprocessed.smi:2901
#       Creating user name   scv26
#       Creation time:       Fri Mar 27 16:02:59 2020


#       File generated by GOLD software.
#

@<TRIPOS>MOLECULE
AV-unprocessed.smi:2901
    47    48     1
SMALL
NO_CHARGES


@<TRIPOS>ATOM
      1 ****        -2.7441   6.1098  -2.0176 C.3            1 S1                 0.0000
      2 ****        -2.2592   4.8888  -1.3152 C.2            1 S1                 0.0000
      3 ****        -1.7077   3.8066  -1.8610 N.2            1 S1                 0.0000
      4 ****        -1.4380   2.9680  -0.7883 C.2            1 S1                 0.0000
      5 ****        -0.7941   1.6270  -0.9641 C.3            1 S1                 0.0000
      6 ****         0.7343   1.7356  -1.0868 C.3            1 S1                 0.0000
      7 ****         1.3583   0.4267  -1.2424 N.am           1 S1                 0.0000
      8 ****         1.6093  -0.4250  -0.2383 C.2            1 S1                 0.0000
      9 ****         1.3318  -0.2010   0.9402 O.2            1 S1                 0.0000
     10 ****         2.1977  -1.5479  -0.6730 N.am           1 S1                 0.0000
     11 ****         2.5793  -2.6731   0.1727 C.3            1 S1                 0.0000
     12 ****         1.4608  -3.7250   0.2498 C.3            1 S1                 0.0000
     13 ****         1.8514  -4.9759   1.0335 C.3            1 S1                 0.0000
     14 ****         0.4975  -5.5288   1.4151 C.3            1 S1                 0.0000
     15 ****        -0.2980  -4.2568   1.6998 C.3            1 S1                 0.0000
     16 ****         0.3221  -3.2202   0.9421 O.3            1 S1                 0.0000
     17 ****        -1.8377   3.6016   0.3607 C.2            1 S1                 0.0000
     18 ****        -1.7957   3.2198   1.8016 C.3            1 S1                 0.0000
     19 ****        -2.3652   4.8232   0.0394 O.3            1 S1                 0.0000
     20 ****        -2.7213   5.9615  -3.0976 H              1 S1                 0.0000
     21 ****        -2.1105   6.9604  -1.7660 H              1 S1                 0.0000
     22 ****        -3.7678   6.3319  -1.7161 H              1 S1                 0.0000
     23 ****        -1.0534   0.9824  -0.1234 H              1 S1                 0.0000
     24 ****        -1.1964   1.1358  -1.8511 H              1 S1                 0.0000
     25 ****         0.9960   2.3427  -1.9540 H              1 S1                 0.0000
     26 ****         1.1508   2.2439  -0.2152 H              1 S1                 0.0000
     27 ****         1.6202   0.1537  -2.1784 H              1 S1                 0.0000
     28 ****         2.3856  -1.6362  -1.6608 H              1 S1                 0.0000
     29 ****         3.4723  -3.1222  -0.2624 H              1 S1                 0.0000
     30 ****         2.8608  -2.3343   1.1713 H              1 S1                 0.0000
     31 ****         1.1458  -4.0171  -0.7535 H              1 S1                 0.0000
     32 ****         2.4504  -5.6752   0.4496 H              1 S1                 0.0000
     33 ****         2.4114  -4.7094   1.9311 H              1 S1                 0.0000
     34 ****         0.0623  -6.0631   0.5695 H              1 S1                 0.0000
     35 ****         0.5349  -6.2088   2.2666 H              1 S1                 0.0000
     36 ****        -1.3505  -4.3643   1.4362 H              1 S1                 0.0000
     37 ****        -0.2393  -3.9946   2.7566 H              1 S1                 0.0000
     38 ****        -1.0274   2.4680   1.9835 H              1 S1                 0.0000
     39 ****        -2.7538   2.8084   2.1191 H              1 S1                 0.0000
     40 ****        -1.5733   4.0849   2.4266 H              1 S1                 0.0000
     41 ****        -1.5276   3.6357  -2.8297 LP             1 S1                 0.0000
     42 ****         0.8918   0.6600   1.1953 LP             1 S1                 0.0000
     43 ****         1.5464  -0.8801   1.6422 LP             1 S1                 0.0000
     44 ****        -0.3336  -2.8593   0.2789 LP             1 S1                 0.0000
     45 ****         0.6095  -2.4877   1.5592 LP             1 S1                 0.0000
     46 ****        -3.3223   4.8815   0.3232 LP             1 S1                 0.0000
     47 ****        -1.8439   5.5590   0.4717 LP             1 S1                 0.0000
@<TRIPOS>BOND
    1    1    2 1     
    2    1   20 1     
    3    1   21 1     
    4    1   22 1     
    5    2   19 1     
    6    2    3 2     
    7    3    4 1     
    8    4    5 1     
    9    4   17 2     
   10    5    6 1     
   11    5   23 1     
   12    5   24 1     
   13    6    7 1     
   14    6   25 1     
   15    6   26 1     
   16    7    8 am    
   17    7   27 1     
   18    8    9 2     
   19    8   10 am    
   20   10   11 1     
   21   10   28 1     
   22   11   12 1     
   23   11   29 1     
   24   11   30 1     
   25   12   16 1     
   26   12   13 1     
   27   12   31 1     
   28   13   14 1     
   29   13   32 1     
   30   13   33 1     
   31   14   15 1     
   32   14   34 1     
   33   14   35 1     
   34   15   16 1     
   35   15   36 1     
   36   15   37 1     
   37   17   18 1     
   38   17   19 1     
   39   18   38 1     
   40   18   39 1     
   41   18   40 1     
   42    3   41 1     
   43    9   42 1     
   44    9   43 1     
   45   16   44 1     
   46   16   45 1     
   47   19   46 1     
   48   19   47 1     
@<TRIPOS>SUBSTRUCTURE
      1 S1             1
@<TRIPOS>SET
LONE_PAIRS      STATIC     ATOMS    <user>   **** ""
7 41 42 43 44 45 46 47
DONOR_HYDROGENS      STATIC     ATOMS    <user>   **** ""
2 27 28
ATOM$BLUE        STATIC     ATOMS    COLORGROUP SYSTEM
7 41 42 43 44 45 46 47
ATOM$RED        STATIC     ATOMS    COLORGROUP SYSTEM
2 27 28
