#       Name:                AV-unprocessed.smi:699
#       Creating user name   scv26
#       Creation time:       Fri Mar 27 00:38:35 2020


#       File generated by GOLD software.
#

@<TRIPOS>MOLECULE
AV-unprocessed.smi:699
    39    40     1
SMALL
NO_CHARGES


@<TRIPOS>ATOM
      1 ****        -1.3101  -0.7989   2.8879 N.am           1 S1                 0.0000
      2 ****        -1.5204  -1.5125   1.7789 C.2            1 S1                 0.0000
      3 ****        -0.9920  -2.6091   1.6025 O.2            1 S1                 0.0000
      4 ****        -2.4519  -0.8919   0.7148 C.3            1 S1                 0.0000
      5 ****        -3.6918  -1.7707   0.4934 C.3            1 S1                 0.0000
      6 ****        -3.3012  -2.7782  -0.5912 C.3            1 S1                 0.0000
      7 ****        -2.2321  -2.0840  -1.4449 C.3            1 S1                 0.0000
      8 ****        -1.8474  -0.7849  -0.7112 C.3            1 S1                 0.0000
      9 ****        -0.4005  -0.5634  -0.7515 N.am           1 S1                 0.0000
     10 ****         0.2034   0.6144  -0.5401 C.2            1 S1                 0.0000
     11 ****        -0.4080   1.6548  -0.2988 O.2            1 S1                 0.0000
     12 ****         1.5395   0.4980  -0.6350 N.am           1 S1                 0.0000
     13 ****         2.5376   1.4978  -0.4715 C.ar           1 S1                 0.0000
     14 ****         3.8251   1.2188  -0.9818 C.ar           1 S1                 0.0000
     15 ****         4.8546   2.1705  -0.8346 C.ar           1 S1                 0.0000
     16 ****         4.6065   3.3364  -0.2006 N.pl3          1 S1                 1.0000
     17 ****         3.3970   3.6434   0.3150 C.ar           1 S1                 0.0000
     18 ****         2.3286   2.7307   0.1988 C.ar           1 S1                 0.0000
     19 ****        -0.7157  -1.1684   3.6158 H              1 S1                 0.0000
     20 ****        -1.7522   0.1021   3.0000 H              1 S1                 0.0000
     21 ****        -2.7549   0.0979   1.0613 H              1 S1                 0.0000
     22 ****        -4.0410  -2.2639   1.4020 H              1 S1                 0.0000
     23 ****        -4.5126  -1.1485   0.1340 H              1 S1                 0.0000
     24 ****        -2.8799  -3.6726  -0.1306 H              1 S1                 0.0000
     25 ****        -4.1614  -3.0932  -1.1828 H              1 S1                 0.0000
     26 ****        -1.3757  -2.7486  -1.5692 H              1 S1                 0.0000
     27 ****        -2.6099  -1.8601  -2.4434 H              1 S1                 0.0000
     28 ****        -2.3408   0.0427  -1.2248 H              1 S1                 0.0000
     29 ****         0.1752  -1.3707  -0.9418 H              1 S1                 0.0000
     30 ****         1.8813  -0.4130  -0.9043 H              1 S1                 0.0000
     31 ****         4.0253   0.2851  -1.4875 H              1 S1                 0.0000
     32 ****         5.8618   2.0341  -1.2005 H              1 S1                 0.0000
     33 ****         3.3211   4.6019   0.8077 H              1 S1                 0.0000
     34 ****         1.3779   2.9929   0.6361 H              1 S1                 0.0000
     35 ****         5.3655   4.0116  -0.1033 H              1 S1                 0.0000
     36 ****        -0.3854  -2.9899   2.3004 LP             1 S1                 0.0000
     37 ****        -1.1690  -3.1199   0.7612 LP             1 S1                 0.0000
     38 ****        -1.4069   1.6485  -0.2525 LP             1 S1                 0.0000
     39 ****         0.0941   2.5065  -0.1490 LP             1 S1                 0.0000
@<TRIPOS>BOND
    1    1    2 am    
    2    1   19 1     
    3    1   20 1     
    4    2    3 2     
    5    2    4 1     
    6    4    8 1     
    7    4    5 1     
    8    4   21 1     
    9    5    6 1     
   10    5   22 1     
   11    5   23 1     
   12    6    7 1     
   13    6   24 1     
   14    6   25 1     
   15    7    8 1     
   16    7   26 1     
   17    7   27 1     
   18    8    9 1     
   19    8   28 1     
   20    9   10 am    
   21    9   29 1     
   22   10   11 2     
   23   10   12 am    
   24   12   13 1     
   25   12   30 1     
   26   13   18 ar    
   27   13   14 ar    
   28   14   15 ar    
   29   14   31 1     
   30   15   16 ar    
   31   15   32 1     
   32   16   17 ar    
   33   16   35 1     
   34   17   18 ar    
   35   17   33 1     
   36   18   34 1     
   37    3   36 1     
   38    3   37 1     
   39   11   38 1     
   40   11   39 1     
@<TRIPOS>SUBSTRUCTURE
      1 S1             1
@<TRIPOS>SET
LONE_PAIRS      STATIC     ATOMS    <user>   **** ""
4 36 37 38 39
DONOR_HYDROGENS      STATIC     ATOMS    <user>   **** ""
5 19 20 29 30 35
ATOM$BLUE        STATIC     ATOMS    COLORGROUP SYSTEM
4 36 37 38 39
ATOM$RED        STATIC     ATOMS    COLORGROUP SYSTEM
5 19 20 29 30 35
