AV-unprocessed.smi:1033|AV-procd|sdf|4510|dock3
  -GOLD-   22720 2513D 1   1.00000     0.00000
 Structure written by MMmdl.
 57 59  0  0  0  0  0  0  0  0  3 V2000
  152.4156  143.4637  161.6906 C   0  0  0  0  0  0  0  0  0  0  0  0
  151.9720  142.9940  160.3164 C   0  0  0  0  0  0  0  0  0  0  0  0
  152.5419  141.8199  159.7742 C   0  0  0  0  0  0  0  0  0  0  0  0
  152.1559  141.3491  158.5001 C   0  0  0  0  0  0  0  0  0  0  0  0
  152.5748  140.2402  157.7847 N   0  0  0  0  0  0  0  0  0  0  0  0
  151.8475  140.3444  156.6761 C   0  0  0  0  0  0  0  0  0  0  0  0
  150.9991  141.3876  156.5923 N   0  0  0  0  0  0  0  0  0  0  0  0
  150.0992  141.7071  155.4992 C   0  0  0  0  0  0  0  0  0  0  0  0
  149.5086  140.4422  154.8480 C   0  0  2  0  0  0  0  0  0  0  0  0
  150.4193  139.9450  153.8864 O   0  0  0  0  0  0  0  0  0  0  0  0
  148.1609  140.7245  154.1555 C   0  0  0  0  0  0  0  0  0  0  0  0
  147.4387  141.8760  154.7565 N   0  3  2  0  0  0  0  0  0  0  0  0
  146.8642  141.5512  156.0860 C   0  0  0  0  0  0  0  0  0  0  0  0
  146.1960  142.7841  156.7293 C   0  0  0  0  0  0  0  0  0  0  0  0
  145.1912  143.4148  155.8329 N   0  3  2  0  0  0  0  0  0  0  0  0
  143.8856  142.7037  155.7602 C   0  0  0  0  0  0  0  0  0  0  0  0
  142.7043  143.6680  155.5351 C   0  0  2  0  0  0  0  0  0  0  0  0
  141.3503  142.9494  155.5977 C   0  0  0  0  0  0  0  0  0  0  0  0
  142.8289  144.2631  154.2594 O   0  0  0  0  0  0  0  0  0  0  0  0
  145.7780  143.7182  154.5036 C   0  0  0  0  0  0  0  0  0  0  0  0
  146.4135  142.4713  153.8604 C   0  0  0  0  0  0  0  0  0  0  0  0
  151.1747  142.0900  157.7792 C   0  0  0  0  0  0  0  0  0  0  0  0
  150.6024  143.2614  158.3061 C   0  0  0  0  0  0  0  0  0  0  0  0
  151.0007  143.7186  159.5794 C   0  0  0  0  0  0  0  0  0  0  0  0
  150.3791  144.9859  160.1395 C   0  0  0  0  0  0  0  0  0  0  0  0
  153.1552  142.7890  162.1225 H   0  0  0  0  0  0  0  0  0  0  0  0
  151.5662  143.5086  162.3727 H   0  0  0  0  0  0  0  0  0  0  0  0
  152.8634  144.4558  161.6290 H   0  0  0  0  0  0  0  0  0  0  0  0
  153.2830  141.2692  160.3345 H   0  0  0  0  0  0  0  0  0  0  0  0
  151.9307  139.6160  155.8823 H   0  0  0  0  0  0  0  0  0  0  0  0
  149.3010  142.3365  155.8948 H   0  0  0  0  0  0  0  0  0  0  0  0
  150.6355  142.3078  154.7627 H   0  0  0  0  0  0  0  0  0  0  0  0
  149.3854  139.6848  155.6210 H   0  0  0  0  0  0  0  0  0  0  0  0
  149.9711  139.8728  153.0564 H   0  0  0  0  0  0  0  0  0  0  0  0
  148.3084  140.9085  153.0903 H   0  0  0  0  0  0  0  0  0  0  0  0
  147.5437  139.8271  154.2265 H   0  0  0  0  0  0  0  0  0  0  0  0
  146.1482  140.7346  155.9835 H   0  0  0  0  0  0  0  0  0  0  0  0
  147.6540  141.1910  156.7465 H   0  0  0  0  0  0  0  0  0  0  0  0
  145.7539  142.5179  157.6886 H   0  0  0  0  0  0  0  0  0  0  0  0
  146.9617  143.5290  156.9505 H   0  0  0  0  0  0  0  0  0  0  0  0
  143.9027  141.9856  154.9386 H   0  0  0  0  0  0  0  0  0  0  0  0
  143.7296  142.1171  156.6658 H   0  0  0  0  0  0  0  0  0  0  0  0
  142.7059  144.4609  156.2824 H   0  0  0  0  0  0  0  0  0  0  0  0
  141.1977  142.4869  156.5734 H   0  0  0  0  0  0  0  0  0  0  0  0
  141.2784  142.1651  154.8432 H   0  0  0  0  0  0  0  0  0  0  0  0
  140.5275  143.6462  155.4335 H   0  0  0  0  0  0  0  0  0  0  0  0
  143.0353  143.5907  153.6275 H   0  0  0  0  0  0  0  0  0  0  0  0
  145.0257  144.1521  153.8437 H   0  0  0  0  0  0  0  0  0  0  0  0
  146.5422  144.4859  154.6340 H   0  0  0  0  0  0  0  0  0  0  0  0
  146.8584  142.7590  152.9089 H   0  0  0  0  0  0  0  0  0  0  0  0
  145.6468  141.7282  153.6351 H   0  0  0  0  0  0  0  0  0  0  0  0
  149.8642  143.8040  157.7345 H   0  0  0  0  0  0  0  0  0  0  0  0
  149.6493  145.4102  159.4493 H   0  0  0  0  0  0  0  0  0  0  0  0
  151.1462  145.7393  160.3199 H   0  0  0  0  0  0  0  0  0  0  0  0
  149.8683  144.7791  161.0800 H   0  0  0  0  0  0  0  0  0  0  0  0
  144.9669  144.3116  156.2420 H   0  0  0  0  0  0  0  0  0  0  0  0
  148.1394  142.5862  154.9179 H   0  0  0  0  0  0  0  0  0  0  0  0
  1  2  1  0  0  0  0
  1 26  1  0  0  0  0
  1 27  1  0  0  0  0
  1 28  1  0  0  0  0
  2 24  1  0  0  0  0
  2  3  2  0  0  0  0
  3  4  1  0  0  0  0
  3 29  1  0  0  0  0
  4 22  2  0  0  0  0
  4  5  1  0  0  0  0
  5  6  2  0  0  0  0
  6  7  1  0  0  0  0
  6 30  1  0  0  0  0
  7  8  1  0  0  0  0
  7 22  1  0  0  0  0
  8  9  1  0  0  0  0
  8 31  1  0  0  0  0
  8 32  1  0  0  0  0
  9 10  1  0  0  0  0
  9 11  1  0  0  0  0
  9 33  1  0  0  0  0
 10 34  1  0  0  0  0
 11 12  1  0  0  0  0
 11 35  1  0  0  0  0
 11 36  1  0  0  0  0
 12 21  1  0  0  0  0
 12 13  1  0  0  0  0
 12 57  1  0  0  0  0
 13 14  1  0  0  0  0
 13 37  1  0  0  0  0
 13 38  1  0  0  0  0
 14 15  1  0  0  0  0
 14 39  1  0  0  0  0
 14 40  1  0  0  0  0
 15 16  1  0  0  0  0
 15 20  1  0  0  0  0
 15 56  1  0  0  0  0
 16 17  1  0  0  0  0
 16 41  1  0  0  0  0
 16 42  1  0  0  0  0
 17 18  1  0  0  0  0
 17 19  1  0  0  0  0
 17 43  1  0  0  0  0
 18 44  1  0  0  0  0
 18 45  1  0  0  0  0
 18 46  1  0  0  0  0
 19 47  1  0  0  0  0
 20 21  1  0  0  0  0
 20 48  1  0  0  0  0
 20 49  1  0  0  0  0
 21 50  1  0  0  0  0
 21 51  1  0  0  0  0
 22 23  1  0  0  0  0
 23 24  2  0  0  0  0
 23 52  1  0  0  0  0
 24 25  1  0  0  0  0
 25 53  1  0  0  0  0
 25 54  1  0  0  0  0
 25 55  1  0  0  0  0
M  CHG  1  12   1
M  CHG  1  15   1
M  END
> <s_m_source_file>
AV-unprocessed.smi

> <i_m_source_file_index>
1033

> <i_lp_mmshare_version>
43012

> <i_f3d_flags>
0

> <s_epik_input>
W0NIM11jKFtjSF0xKWMoW0NIM10pW2NIXWMoYzEyKW4oW2NIXW4yKVtDSDJdW0NASF0oW09IXSlbQ0gyXU4zW0NIMl1bQ0gyXU4oW0NIMl1bQ0gyXTMpW0NIMl1bQ0BIXShbQ0gzXSlbT0hd

> <s_epik_cmdline>
J2VwaWtfcHl0aG9uJywgJy1waCcsICc3LjAnLCAnLXRuJywgJzgnLCAnLW1hJywgJzIwMCcsICctbWV0YWxfYmluZGluZycsICctaW1hZScsICc8aW5maWxlLm1hZT4nLCAnLW9tYWUnLCAnPG91dGZpbGUubWFlPic=

> <r_epik_Ionization_Penalty>
3.16016

> <r_epik_Ionization_Penalty_Charging>
3.07679

> <r_epik_Ionization_Penalty_Neutral>
0.083365

> <r_epik_State_Penalty>
2.09701

> <r_epik_Charging_Adjusted_Penalty>
5.1738

> <i_epik_Tot_Q>
2

> <i_epik_Tot_abs_Q>
2

> <r_epik_Metal_State_Penalty>
2.02534

> <b_epik_Metal_Only>
0

> <s_lp_Force_Field>
OPLS_2005

> <r_lp_Energy>
28.3009

> <b_lp_Chiralities_Consistent>
1

> <s_lp_Variant>
AV-unprocessed.smi:1033-21

> <Gold.Version>
5.8.1

> <Gold.Id.Protein>
6NUR|6NUR_protein|mol2

> <Gold.PLP.Fitness>
57.1963

> <Gold.PLP.PLP>
-46.4519

> <Gold.PLP.part.hbond>
-4.2754

> <Gold.PLP.part.metal>
0.0000

> <Gold.PLP.part.buried>
-5.7135

> <Gold.PLP.part.nonpolar>
-33.5087

> <Gold.PLP.part.repulsive>
0.1131

> <Gold.PLP.ligand.clash>
0.0000

> <Gold.PLP.ligand.torsion>
1.5198

> <Gold.PLP.Chemscore.Hbond>
4.5285

> <Gold.PLP.Chemscore.CHOScore>
0.0000

> <Gold.PLP.Chemscore.Metal>
0.0000

> <Gold.Chemscore.Hbonds>
donor molecule, donor type, donor heavy atom, donor atom, acceptor molecule, acceptor atom, score
      L1  H    10    34       P1  7957  1.00
      L1  H    12    57       P1  8028  0.39
      L1  H    19    47       P1 10174  1.00
      P1  H  7989  7998       L1    10  1.00
      P1  H  7997  8010       L1     5  0.70

> <Gold.PLP.Chemscore.Internal.Correction>
0.1985

> <Gold.Rescore>
     Score         DG    S(hbond)    S(metal)    S(lipo)     H(rot)  DE(clash)    DE(int)     intcor
     18.63     -21.45       2.91        0.00     121.99       3.14       0.35       2.47       ----

> <Gold.Chemscore.Fitness>
18.6276

> <Gold.Chemscore.DG>
-21.4529

> <Gold.Chemscore.ZeroCoef>
-5.4800

> <Gold.Chemscore.Hbond>
2.9140

> <Gold.Chemscore.Metal>
0.0000

> <Gold.Chemscore.Lipo>
121.9949

> <Gold.Chemscore.Internal_Hbond>
0.0000

> <Gold.Chemscore.DEClash>
0.3529

> <Gold.Chemscore.DEInternal>
2.4724

> <Gold.Chemscore.Rot>
3.1380

> <Gold.Chemscore.Internal.Correction>
   9.000000E+99

> <Gold.Chemscore.Hbonds>
donor molecule, donor type, donor heavy atom, donor atom, acceptor molecule, acceptor atom, score
      L1  H    10    34       P1  7957  0.99
      L1  H    12    57       P1  8028  0.19
      L1  H    19    47       P1 10174  0.97
      P1  H  7989  7998       L1    10  0.22
      P1  H  7997  8010       L1     5  0.13

> <Gold.Chemscore.Hbond.Weighted>
-9.7327

> <Gold.Chemscore.Metal.Weighted>
-0.0000

> <Gold.Chemscore.Lipo.Weighted>
-14.2734

> <Gold.Chemscore.Internal_Hbond.Weighted>
0.0000

> <Gold.Chemscore.DEClash.Weighted>
0.3529

> <Gold.Chemscore.DEInternal.Weighted>
2.4724

> <Gold.Chemscore.Rot.Weighted>
8.0332

> <Gold.Chemscore.Internal.Correction.Weighted>
   9.000000E+99

> <Gold.Protein.RotatedTorsions>
[ 6907 6896 6895 6894 ] final -100.05 input  -60.11 | X-H torsion
[ 7974 7965 7964 7962 ] final -164.54 input  175.53 | X-H torsion
[ 8008 7997 7996 7995 ] final   44.81 input   59.86 | X-H torsion
[ 10167 10162 10161 10158 ] final -175.88 input  -65.29 | X-H torsion
[ 10718 10713 10712 10709 ] final  -68.33 input   66.30 | X-H torsion
[ 10763 10752 10751 10750 ] final  176.97 input  -60.55 | X-H torsion
[ 11005 11000 10999 10996 ] final   91.39 input  -57.11 | X-H torsion

> <Gold.Protein.ActiveResidues>
 VAL166  LYS551  ARG553  GLY616  TRP617  ASP618  TYR619  PRO620  LYS621  CYS622 
 ASP623  PHE694  ASN695  SER759  ASP760  ASP761  ALA762  ILE779  LEU786  VAL792 
 PHE793  MET794  SER795  GLU796  ALA797  LYS798  CYS799  TRP800  GLU811  SER814 

> <Gold.Protein.RotatedAtoms>
  150.7102  134.0946  159.3943 H   0  0  0  0  0  0  0  0  0  0  0  0  # atno 6907 bound_to 6896
  151.8932  135.0406  160.0509 H   0  0  0  0  0  0  0  0  0  0  0  0  # atno 6908 bound_to 6896
  152.2475  133.5151  159.5342 H   0  0  0  0  0  0  0  0  0  0  0  0  # atno 6909 bound_to 6896
  144.7294  140.2946  143.6215 H   0  0  0  0  0  0  0  0  0  0  0  0  # atno 7974 bound_to 7965
  155.3255  140.3399  155.4240 H   0  0  0  0  0  0  0  0  0  0  0  0  # atno 8008 bound_to 7997
  156.1888  140.1690  156.8170 H   0  0  0  0  0  0  0  0  0  0  0  0  # atno 8009 bound_to 7997
  154.5417  140.0723  156.8504 H   0  0  0  0  0  0  0  0  0  0  0  0  # atno 8010 bound_to 7997
  139.5558  144.1993  152.1156 H   0  0  0  0  0  0  0  0  0  0  0  0  # atno 10167 bound_to 10162
  156.0511  130.4293  150.1985 H   0  0  0  0  0  0  0  0  0  0  0  0  # atno 10718 bound_to 10713
  154.4883  135.2778  155.1517 H   0  0  0  0  0  0  0  0  0  0  0  0  # atno 10763 bound_to 10752
  154.3199  135.6212  153.5506 H   0  0  0  0  0  0  0  0  0  0  0  0  # atno 10764 bound_to 10752
  152.9884  135.5740  154.5299 H   0  0  0  0  0  0  0  0  0  0  0  0  # atno 10765 bound_to 10752
  139.8839  134.8671  156.3421 H   0  0  0  0  0  0  0  0  0  0  0  0  # atno 11005 bound_to 11000
  145.7821  139.1895  143.2152 LP  0  0  0  0  0  0  0  0  0  0  0  0  # atno 17320 bound_to 7965
  146.0825  140.7747  142.9634 LP  0  0  0  0  0  0  0  0  0  0  0  0  # atno 17321 bound_to 7965
  140.1497  144.5126  150.6695 LP  0  0  0  0  0  0  0  0  0  0  0  0  # atno 17342 bound_to 10162
  140.6830  143.2336  151.5334 LP  0  0  0  0  0  0  0  0  0  0  0  0  # atno 17343 bound_to 10162
  157.0068  130.9939  151.3376 LP  0  0  0  0  0  0  0  0  0  0  0  0  # atno 17370 bound_to 10713
  157.5437  130.8137  149.8060 LP  0  0  0  0  0  0  0  0  0  0  0  0  # atno 17371 bound_to 10713
  140.9652  133.7363  156.0456 LP  0  0  0  0  0  0  0  0  0  0  0  0  # atno 17394 bound_to 11000
  140.7940  134.3584  157.5457 LP  0  0  0  0  0  0  0  0  0  0  0  0  # atno 17395 bound_to 11000

$$$$
