AV-unprocessed.smi:1867|AV-procd|sdf|7580|dock8
  -GOLD-   22720 9293D 1   1.00000     0.00000
 Structure written by MMmdl.
 52 55  0  0  0  0  0  0  0  0  4 V2000
  147.0817  140.2801  154.2606 O   0  0  0  0  0  0  0  0  0  0  0  0
  147.7560  139.2741  154.0482 C   0  0  0  0  0  0  0  0  0  0  0  0
  149.0170  139.2114  154.5436 N   0  0  0  0  0  0  0  0  0  0  0  0
  149.7097  140.1509  155.3530 C   0  0  0  0  0  0  0  0  0  0  0  0
  150.6109  139.6533  156.3167 C   0  0  0  0  0  0  0  0  0  0  0  0
  151.3054  140.5497  157.1544 C   0  0  0  0  0  0  0  0  0  0  0  0
  151.0834  141.9415  157.0282 C   0  0  0  0  0  0  0  0  0  0  0  0
  151.7387  142.8932  157.8323 N   0  0  0  0  0  0  0  0  0  0  0  0
  151.9712  142.6569  159.2486 C   0  0  0  0  0  0  0  0  0  0  0  0
  152.5152  143.9834  159.7761 C   0  0  0  0  0  0  0  0  0  0  0  0
  151.7982  145.0188  158.9090 C   0  0  0  0  0  0  0  0  0  0  0  0
  151.6252  144.3189  157.5557 C   0  0  0  0  0  0  0  0  0  0  0  0
  150.1900  142.3726  156.1060 N   0  3  0  0  0  0  0  0  0  0  0  0
  149.5062  141.5491  155.2822 C   0  0  0  0  0  0  0  0  0  0  0  0
  147.2667  138.2377  153.3019 N   0  5  0  0  0  0  0  0  0  0  0  0
  145.9285  138.0658  152.7155 C   0  0  2  0  0  0  0  0  0  0  0  0
  144.8399  137.8296  153.7730 C   0  0  0  0  0  0  0  0  0  0  0  0
  143.7750  136.9842  153.0523 C   0  0  0  0  0  0  0  0  0  0  0  0
  144.3482  136.6453  151.7295 N   0  3  2  0  0  0  0  0  0  0  0  0
  143.8666  135.3917  151.0941 C   0  0  0  0  0  0  0  0  0  0  0  0
  144.5536  134.1382  151.6590 C   0  0  0  0  0  0  0  0  0  0  0  0
  146.0768  134.2826  151.5889 C   0  0  0  0  0  0  0  0  0  0  0  0
  146.5060  135.5310  152.3673 C   0  0  0  0  0  0  0  0  0  0  0  0
  145.8176  136.8175  151.8176 C   0  0  2  0  0  0  0  0  0  0  0  0
  149.5571  138.4117  154.2488 H   0  0  0  0  0  0  0  0  0  0  0  0
  150.7757  138.5898  156.4123 H   0  0  0  0  0  0  0  0  0  0  0  0
  151.9941  140.1579  157.8880 H   0  0  0  0  0  0  0  0  0  0  0  0
  151.0282  142.4073  159.7373 H   0  0  0  0  0  0  0  0  0  0  0  0
  152.6737  141.8389  159.4116 H   0  0  0  0  0  0  0  0  0  0  0  0
  152.3383  144.1214  160.8431 H   0  0  0  0  0  0  0  0  0  0  0  0
  153.5909  144.0385  159.6016 H   0  0  0  0  0  0  0  0  0  0  0  0
  150.8181  145.2340  159.3371 H   0  0  0  0  0  0  0  0  0  0  0  0
  152.3426  145.9605  158.8317 H   0  0  0  0  0  0  0  0  0  0  0  0
  152.4196  144.6083  156.8669 H   0  0  0  0  0  0  0  0  0  0  0  0
  150.6673  144.5785  157.1039 H   0  0  0  0  0  0  0  0  0  0  0  0
  148.8175  142.0414  154.6118 H   0  0  0  0  0  0  0  0  0  0  0  0
  145.6359  138.9310  152.1173 H   0  0  0  0  0  0  0  0  0  0  0  0
  145.2350  137.2711  154.6232 H   0  0  0  0  0  0  0  0  0  0  0  0
  144.4345  138.7664  154.1566 H   0  0  0  0  0  0  0  0  0  0  0  0
  143.5549  136.0852  153.6298 H   0  0  0  0  0  0  0  0  0  0  0  0
  142.8401  137.5305  152.9197 H   0  0  0  0  0  0  0  0  0  0  0  0
  142.7833  135.3187  151.1963 H   0  0  0  0  0  0  0  0  0  0  0  0
  144.0728  135.4602  150.0253 H   0  0  0  0  0  0  0  0  0  0  0  0
  144.2453  133.9738  152.6919 H   0  0  0  0  0  0  0  0  0  0  0  0
  144.2367  133.2578  151.0992 H   0  0  0  0  0  0  0  0  0  0  0  0
  146.5582  133.3970  152.0048 H   0  0  0  0  0  0  0  0  0  0  0  0
  146.4003  134.3590  150.5501 H   0  0  0  0  0  0  0  0  0  0  0  0
  146.2727  135.3666  153.4218 H   0  0  0  0  0  0  0  0  0  0  0  0
  147.5917  135.6274  152.3100 H   0  0  0  0  0  0  0  0  0  0  0  0
  146.2108  137.0298  150.8223 H   0  0  0  0  0  0  0  0  0  0  0  0
  144.0410  137.3958  151.1276 H   0  0  0  0  0  0  0  0  0  0  0  0
  150.0215  143.3755  156.0272 H   0  0  0  0  0  0  0  0  0  0  0  0
  1  2  2  0  0  0  0
  2  3  1  0  0  0  0
  2 15  1  0  0  0  0
  3  4  1  0  0  0  0
  3 25  1  0  0  0  0
  4 14  1  0  0  0  0
  4  5  2  0  0  0  0
  5  6  1  0  0  0  0
  5 26  1  0  0  0  0
  6  7  2  0  0  0  0
  6 27  1  0  0  0  0
  7  8  1  0  0  0  0
  7 13  1  0  0  0  0
  8 12  1  0  0  0  0
  8  9  1  0  0  0  0
  9 10  1  0  0  0  0
  9 28  1  0  0  0  0
  9 29  1  0  0  0  0
 10 11  1  0  0  0  0
 10 30  1  0  0  0  0
 10 31  1  0  0  0  0
 11 12  1  0  0  0  0
 11 32  1  0  0  0  0
 11 33  1  0  0  0  0
 12 34  1  0  0  0  0
 12 35  1  0  0  0  0
 13 14  2  0  0  0  0
 13 52  1  0  0  0  0
 14 36  1  0  0  0  0
 15 16  1  0  0  0  0
 16 24  1  0  0  0  0
 16 17  1  0  0  0  0
 16 37  1  0  0  0  0
 17 18  1  0  0  0  0
 17 38  1  0  0  0  0
 17 39  1  0  0  0  0
 18 19  1  0  0  0  0
 18 40  1  0  0  0  0
 18 41  1  0  0  0  0
 19 24  1  0  0  0  0
 19 20  1  0  0  0  0
 19 51  1  0  0  0  0
 20 21  1  0  0  0  0
 20 42  1  0  0  0  0
 20 43  1  0  0  0  0
 21 22  1  0  0  0  0
 21 44  1  0  0  0  0
 21 45  1  0  0  0  0
 22 23  1  0  0  0  0
 22 46  1  0  0  0  0
 22 47  1  0  0  0  0
 23 24  1  0  0  0  0
 23 48  1  0  0  0  0
 23 49  1  0  0  0  0
 24 50  1  0  0  0  0
M  CHG  1  13   1
M  CHG  1  15  -1
M  CHG  1  19   1
M  END
> <s_m_source_file>
AV-unprocessed.smi

> <i_m_source_file_index>
1867

> <i_lp_mmshare_version>
43012

> <i_f3d_flags>
0

> <s_epik_input>
W0NIMl0xW0NIMl1bQ0gyXVtDSDJdW0NASF0oTjEyKVtDQEBIXShbQ0gyXVtDSDJdMilbTkhdQyg9TylbTkhdYzNbY0hdW2NIXWMobltjSF0zKU40W0NIMl1bQ0gyXVtDSDJdW0NIMl00

> <s_epik_cmdline>
J2VwaWtfcHl0aG9uJywgJy1waCcsICc3LjAnLCAnLXRuJywgJzgnLCAnLW1hJywgJzIwMCcsICctbWV0YWxfYmluZGluZycsICctaW1hZScsICc8aW5maWxlLm1hZT4nLCAnLW9tYWUnLCAnPG91dGZpbGUubWFlPic=

> <r_lp_tautomer_probability>
0.999994

> <r_epik_Ionization_Penalty>
8.56137

> <r_epik_Ionization_Penalty_Charging>
8.56136

> <r_epik_Ionization_Penalty_Neutral>
3.91889e-06

> <r_epik_State_Penalty>
8.16255

> <r_epik_Charging_Adjusted_Penalty>
16.7239

> <i_epik_Tot_Q>
1

> <i_epik_Tot_abs_Q>
3

> <r_epik_Metal_State_Penalty>
4.14279

> <b_epik_Metal_Only>
1

> <s_lp_Force_Field>
OPLS_2005

> <r_lp_Energy>
70.2226

> <b_lp_Chiralities_Consistent>
1

> <s_lp_Variant>
AV-unprocessed.smi:1867-21

> <Gold.Version>
5.8.1

> <Gold.Id.Protein>
6NUR|6NUR_protein|mol2

> <Gold.PLP.Fitness>
46.7671

> <Gold.PLP.PLP>
-38.7455

> <Gold.PLP.part.hbond>
-2.0000

> <Gold.PLP.part.metal>
0.0000

> <Gold.PLP.part.buried>
-1.0802

> <Gold.PLP.part.nonpolar>
-38.5490

> <Gold.PLP.part.repulsive>
1.3573

> <Gold.PLP.ligand.clash>
0.0000

> <Gold.PLP.ligand.torsion>
0.6163

> <Gold.PLP.Chemscore.Hbond>
3.0000

> <Gold.PLP.Chemscore.CHOScore>
0.0000

> <Gold.PLP.Chemscore.Metal>
0.0000

> <Gold.Chemscore.Hbonds>
donor molecule, donor type, donor heavy atom, donor atom, acceptor molecule, acceptor atom, score
      L1  H    13    52       P1  8028  1.98
      L1  H    19    51       P1 10171  1.00

> <Gold.PLP.Chemscore.Internal.Correction>
0.2542

> <Gold.Rescore>
     Score         DG    S(hbond)    S(metal)    S(lipo)     H(rot)  DE(clash)    DE(int)     intcor
     18.85     -22.37       1.94        0.00     110.77       1.00       1.77       1.74       ----

> <Gold.Chemscore.Fitness>
18.8537

> <Gold.Chemscore.DG>
-22.3670

> <Gold.Chemscore.ZeroCoef>
-5.4800

> <Gold.Chemscore.Hbond>
1.9423

> <Gold.Chemscore.Metal>
0.0000

> <Gold.Chemscore.Lipo>
110.7665

> <Gold.Chemscore.Internal_Hbond>
0.0000

> <Gold.Chemscore.DEClash>
1.7717

> <Gold.Chemscore.DEInternal>
1.7416

> <Gold.Chemscore.Rot>
1.0000

> <Gold.Chemscore.Internal.Correction>
   9.000000E+99

> <Gold.Chemscore.Hbonds>
donor molecule, donor type, donor heavy atom, donor atom, acceptor molecule, acceptor atom, score
      L1  H    13    52       P1  8028  0.93
      L1  H    19    51       P1 10171  1.00

> <Gold.Chemscore.Hbond.Weighted>
-6.4873

> <Gold.Chemscore.Metal.Weighted>
-0.0000

> <Gold.Chemscore.Lipo.Weighted>
-12.9597

> <Gold.Chemscore.Internal_Hbond.Weighted>
0.0000

> <Gold.Chemscore.DEClash.Weighted>
1.7717

> <Gold.Chemscore.DEInternal.Weighted>
1.7416

> <Gold.Chemscore.Rot.Weighted>
2.5600

> <Gold.Chemscore.Internal.Correction.Weighted>
   9.000000E+99

> <Gold.Protein.RotatedTorsions>
[ 6907 6896 6895 6894 ] final   20.21 input  -60.11 | X-H torsion
[ 7974 7965 7964 7962 ] final   22.68 input  175.53 | X-H torsion
[ 8008 7997 7996 7995 ] final  -97.26 input   59.86 | X-H torsion
[ 10167 10162 10161 10158 ] final  -22.63 input  -65.29 | X-H torsion
[ 10718 10713 10712 10709 ] final  155.66 input   66.30 | X-H torsion
[ 10763 10752 10751 10750 ] final  102.29 input  -60.55 | X-H torsion
[ 11005 11000 10999 10996 ] final  -47.79 input  -57.11 | X-H torsion

> <Gold.Protein.ActiveResidues>
 VAL166  LYS551  ARG553  GLY616  TRP617  ASP618  TYR619  PRO620  LYS621  CYS622 
 ASP623  PHE694  ASN695  SER759  ASP760  ASP761  ALA762  ILE779  LEU786  VAL792 
 PHE793  MET794  SER795  GLU796  ALA797  LYS798  CYS799  TRP800  GLU811  SER814 

> <Gold.Protein.RotatedAtoms>
  151.8928  135.0409  160.0499 H   0  0  0  0  0  0  0  0  0  0  0  0  # atno 6907 bound_to 6896
  152.2422  133.5140  159.5285 H   0  0  0  0  0  0  0  0  0  0  0  0  # atno 6908 bound_to 6896
  150.7057  134.0990  159.4001 H   0  0  0  0  0  0  0  0  0  0  0  0  # atno 6909 bound_to 6896
  146.2018  139.7851  142.8756 H   0  0  0  0  0  0  0  0  0  0  0  0  # atno 7974 bound_to 7965
  154.7854  140.0464  157.1160 H   0  0  0  0  0  0  0  0  0  0  0  0  # atno 8008 bound_to 7997
  154.9654  140.3083  155.4992 H   0  0  0  0  0  0  0  0  0  0  0  0  # atno 8009 bound_to 7997
  156.2942  140.2263  156.4743 H   0  0  0  0  0  0  0  0  0  0  0  0  # atno 8010 bound_to 7997
  140.7286  143.4517  151.0507 H   0  0  0  0  0  0  0  0  0  0  0  0  # atno 10167 bound_to 10162
  157.2153  131.0706  151.1945 H   0  0  0  0  0  0  0  0  0  0  0  0  # atno 10718 bound_to 10713
  153.3376  135.4015  155.1546 H   0  0  0  0  0  0  0  0  0  0  0  0  # atno 10763 bound_to 10752
  154.8637  135.3626  154.5388 H   0  0  0  0  0  0  0  0  0  0  0  0  # atno 10764 bound_to 10752
  153.5830  135.7076  153.5514 H   0  0  0  0  0  0  0  0  0  0  0  0  # atno 10765 bound_to 10752
  141.0662  133.6693  156.3348 H   0  0  0  0  0  0  0  0  0  0  0  0  # atno 11005 bound_to 11000
  145.3458  141.0297  143.3366 LP  0  0  0  0  0  0  0  0  0  0  0  0  # atno 17320 bound_to 7965
  144.8700  139.5051  143.6772 LP  0  0  0  0  0  0  0  0  0  0  0  0  # atno 17321 bound_to 7965
  139.8193  143.7842  152.3176 LP  0  0  0  0  0  0  0  0  0  0  0  0  # atno 17342 bound_to 10162
  139.7919  144.7407  150.9944 LP  0  0  0  0  0  0  0  0  0  0  0  0  # atno 17343 bound_to 10162
  157.3631  130.7141  149.6514 LP  0  0  0  0  0  0  0  0  0  0  0  0  # atno 17370 bound_to 10713
  155.9687  130.4220  150.4495 LP  0  0  0  0  0  0  0  0  0  0  0  0  # atno 17371 bound_to 10713
  140.5769  134.5785  157.5470 LP  0  0  0  0  0  0  0  0  0  0  0  0  # atno 17394 bound_to 11000
  139.9478  134.7670  156.0519 LP  0  0  0  0  0  0  0  0  0  0  0  0  # atno 17395 bound_to 11000

$$$$
