AV-unprocessed.smi:2202|AV-procd|sdf|8932|dock7
  -GOLD-   2272012143D 1   1.00000     0.00000
 Structure written by MMmdl.
 43 45  0  0  0  0  0  0  0  0  2 V2000
  150.5125  136.3171  156.2513 O   0  0  0  0  0  0  0  0  0  0  0  0
  150.2485  136.4915  155.0604 C   0  0  0  0  0  0  0  0  0  0  0  0
  150.9456  137.5900  154.2446 C   0  0  0  0  0  0  0  0  0  0  0  0
  150.6107  138.9511  154.6882 N   0  0  0  0  0  0  0  0  0  0  0  0
  151.4763  139.7750  155.2930 C   0  0  0  0  0  0  0  0  0  0  0  0
  152.6482  139.5132  155.5667 O   0  0  0  0  0  0  0  0  0  0  0  0
  150.8375  141.1306  155.6029 C   0  0  2  0  0  0  0  0  0  0  0  0
  150.9483  141.4827  157.1100 C   0  0  0  0  0  0  0  0  0  0  0  0
  149.8629  140.8344  157.9442 C   0  0  0  0  0  0  0  0  0  0  0  0
  148.6192  140.6864  157.4695 C   0  0  0  0  0  0  0  0  0  0  0  0
  148.2493  141.1612  156.0796 C   0  0  0  0  0  0  0  0  0  0  0  0
  149.3939  140.9573  155.0522 C   0  0  2  0  0  0  0  0  0  0  0  0
  149.4149  139.5268  154.5085 C   0  0  0  0  0  0  0  0  0  0  0  0
  148.4390  139.0064  153.9670 O   0  0  0  0  0  0  0  0  0  0  0  0
  149.3507  135.7490  154.3954 N   0  0  0  0  0  0  0  0  0  0  0  0
  148.5780  134.6585  154.9781 C   0  0  0  0  0  0  0  0  0  0  0  0
  147.8293  133.8562  153.9003 C   0  0  0  0  0  0  0  0  0  0  0  0
  146.5601  134.5503  153.4469 C   0  0  0  0  0  0  0  0  0  0  0  0
  145.2792  133.9977  153.6647 C   0  0  0  0  0  0  0  0  0  0  0  0
  144.1408  134.7021  153.2200 C   0  0  0  0  0  0  0  0  0  0  0  0
  144.3069  135.9424  152.5693 C   0  0  0  0  0  0  0  0  0  0  0  0
  145.6093  136.4478  152.3789 C   0  0  0  0  0  0  0  0  0  0  0  0
  146.6749  135.7433  152.8191 N   0  3  0  0  0  0  0  0  0  0  0  0
  152.0239  137.4307  154.2972 H   0  0  0  0  0  0  0  0  0  0  0  0
  150.6822  137.4687  153.1921 H   0  0  0  0  0  0  0  0  0  0  0  0
  151.3718  141.8820  155.0201 H   0  0  0  0  0  0  0  0  0  0  0  0
  151.9209  141.1919  157.5093 H   0  0  0  0  0  0  0  0  0  0  0  0
  150.8776  142.5621  157.2468 H   0  0  0  0  0  0  0  0  0  0  0  0
  150.1075  140.5434  158.9552 H   0  0  0  0  0  0  0  0  0  0  0  0
  147.8361  140.2731  158.0881 H   0  0  0  0  0  0  0  0  0  0  0  0
  147.3416  140.6465  155.7614 H   0  0  0  0  0  0  0  0  0  0  0  0
  147.9895  142.2183  156.1438 H   0  0  0  0  0  0  0  0  0  0  0  0
  149.2360  141.6245  154.2038 H   0  0  0  0  0  0  0  0  0  0  0  0
  149.1954  135.9520  153.4182 H   0  0  0  0  0  0  0  0  0  0  0  0
  149.2633  134.0054  155.5190 H   0  0  0  0  0  0  0  0  0  0  0  0
  147.8798  135.0558  155.7168 H   0  0  0  0  0  0  0  0  0  0  0  0
  148.4675  133.7002  153.0294 H   0  0  0  0  0  0  0  0  0  0  0  0
  147.5807  132.8641  154.2796 H   0  0  0  0  0  0  0  0  0  0  0  0
  145.1679  133.0476  154.1672 H   0  0  0  0  0  0  0  0  0  0  0  0
  143.1520  134.2964  153.3774 H   0  0  0  0  0  0  0  0  0  0  0  0
  143.4480  136.4977  152.2213 H   0  0  0  0  0  0  0  0  0  0  0  0
  145.8297  137.3867  151.8922 H   0  0  0  0  0  0  0  0  0  0  0  0
  147.6084  136.1278  152.6712 H   0  0  0  0  0  0  0  0  0  0  0  0
  1  2  2  0  0  0  0
  2  3  1  0  0  0  0
  2 15  1  0  0  0  0
  3  4  1  0  0  0  0
  3 24  1  0  0  0  0
  3 25  1  0  0  0  0
  4 13  1  0  0  0  0
  4  5  1  0  0  0  0
  5  6  2  0  0  0  0
  5  7  1  0  0  0  0
  7 12  1  0  0  0  0
  7  8  1  0  0  0  0
  7 26  1  0  0  0  0
  8  9  1  0  0  0  0
  8 27  1  0  0  0  0
  8 28  1  0  0  0  0
  9 10  2  0  0  0  0
  9 29  1  0  0  0  0
 10 11  1  0  0  0  0
 10 30  1  0  0  0  0
 11 12  1  0  0  0  0
 11 31  1  0  0  0  0
 11 32  1  0  0  0  0
 12 13  1  0  0  0  0
 12 33  1  0  0  0  0
 13 14  2  0  0  0  0
 15 16  1  0  0  0  0
 15 34  1  0  0  0  0
 16 17  1  0  0  0  0
 16 35  1  0  0  0  0
 16 36  1  0  0  0  0
 17 18  1  0  0  0  0
 17 37  1  0  0  0  0
 17 38  1  0  0  0  0
 18 23  1  0  0  0  0
 18 19  2  0  0  0  0
 19 20  1  0  0  0  0
 19 39  1  0  0  0  0
 20 21  2  0  0  0  0
 20 40  1  0  0  0  0
 21 22  1  0  0  0  0
 21 41  1  0  0  0  0
 22 23  2  0  0  0  0
 22 42  1  0  0  0  0
 23 43  1  0  0  0  0
M  CHG  1  23   1
M  END
> <s_m_source_file>
AV-unprocessed.smi

> <i_m_source_file_index>
2202

> <i_lp_mmshare_version>
43012

> <i_f3d_flags>
0

> <s_epik_input>
W0NIMl0xW0NIXT1bQ0hdW0NIMl1bQ0BIXShbQ0BIXTEyKUMoPU8pTihDMj1PKVtDSDJdQyg9TylbTkhdW0NIMl1bQ0gyXWMzW2NIXVtjSF1bY0hdW2NIXW4z

> <s_epik_cmdline>
J2VwaWtfcHl0aG9uJywgJy1waCcsICc3LjAnLCAnLXRuJywgJzgnLCAnLW1hJywgJzIwMCcsICctbWV0YWxfYmluZGluZycsICctaW1hZScsICc8aW5maWxlLm1hZT4nLCAnLW9tYWUnLCAnPG91dGZpbGUubWFlPic=

> <r_lp_tautomer_probability>
1

> <r_epik_Ionization_Penalty>
1.90039

> <r_epik_Ionization_Penalty_Charging>
1.90039

> <r_epik_Ionization_Penalty_Neutral>
1.50224e-07

> <r_epik_State_Penalty>
2.02162

> <r_epik_Charging_Adjusted_Penalty>
3.922

> <i_epik_Tot_Q>
1

> <i_epik_Tot_abs_Q>
1

> <r_epik_Metal_State_Penalty>
2.04542

> <b_epik_Metal_Only>
0

> <s_lp_Force_Field>
OPLS_2005

> <r_lp_Energy>
20.8283

> <b_lp_Chiralities_Consistent>
1

> <s_lp_Variant>
AV-unprocessed.smi:2202-4

> <Gold.Version>
5.8.1

> <Gold.Id.Protein>
6NUR|6NUR_protein|mol2

> <Gold.PLP.Fitness>
45.8372

> <Gold.PLP.PLP>
-34.3796

> <Gold.PLP.part.hbond>
-2.8372

> <Gold.PLP.part.metal>
0.0000

> <Gold.PLP.part.buried>
-4.7755

> <Gold.PLP.part.nonpolar>
-28.3440

> <Gold.PLP.part.repulsive>
0.6383

> <Gold.PLP.ligand.clash>
0.0000

> <Gold.PLP.ligand.torsion>
0.2856

> <Gold.PLP.Chemscore.Hbond>
4.0000

> <Gold.PLP.Chemscore.CHOScore>
0.0000

> <Gold.PLP.Chemscore.Metal>
0.0000

> <Gold.Chemscore.Hbonds>
donor molecule, donor type, donor heavy atom, donor atom, acceptor molecule, acceptor atom, score
      L1  H    15    34       P1  7948  1.00
      L1  H    23    43       P1  7948  2.00
      P1  H  7997  8009       L1     6  1.00

> <Gold.PLP.Chemscore.Internal.Correction>
0.0288

> <Gold.Rescore>
     Score         DG    S(hbond)    S(metal)    S(lipo)     H(rot)  DE(clash)    DE(int)     intcor
     16.67     -17.12       2.87        0.00      60.57       1.96       0.17       0.28       ----

> <Gold.Chemscore.Fitness>
16.6679

> <Gold.Chemscore.DG>
-17.1222

> <Gold.Chemscore.ZeroCoef>
-5.4800

> <Gold.Chemscore.Hbond>
2.8681

> <Gold.Chemscore.Metal>
0.0000

> <Gold.Chemscore.Lipo>
60.5686

> <Gold.Chemscore.Internal_Hbond>
0.0000

> <Gold.Chemscore.DEClash>
0.1734

> <Gold.Chemscore.DEInternal>
0.2809

> <Gold.Chemscore.Rot>
1.9625

> <Gold.Chemscore.Internal.Correction>
   9.000000E+99

> <Gold.Chemscore.Hbonds>
donor molecule, donor type, donor heavy atom, donor atom, acceptor molecule, acceptor atom, score
      L1  H    15    34       P1  7948  0.76
      L1  H    23    43       P1  7948  0.92
      P1  H  7997  8009       L1     6  1.00

> <Gold.Chemscore.Hbond.Weighted>
-9.5796

> <Gold.Chemscore.Metal.Weighted>
-0.0000

> <Gold.Chemscore.Lipo.Weighted>
-7.0865

> <Gold.Chemscore.Internal_Hbond.Weighted>
0.0000

> <Gold.Chemscore.DEClash.Weighted>
0.1734

> <Gold.Chemscore.DEInternal.Weighted>
0.2809

> <Gold.Chemscore.Rot.Weighted>
5.0240

> <Gold.Chemscore.Internal.Correction.Weighted>
   9.000000E+99

> <Gold.Protein.RotatedTorsions>
[ 6907 6896 6895 6894 ] final  -56.75 input  -60.11 | X-H torsion
[ 7974 7965 7964 7962 ] final   84.59 input  175.53 | X-H torsion
[ 8008 7997 7996 7995 ] final -152.53 input   59.86 | X-H torsion
[ 10167 10162 10161 10158 ] final  -96.41 input  -65.29 | X-H torsion
[ 10718 10713 10712 10709 ] final    5.69 input   66.30 | X-H torsion
[ 10763 10752 10751 10750 ] final   66.34 input  -60.55 | X-H torsion
[ 11005 11000 10999 10996 ] final -113.20 input  -57.11 | X-H torsion

> <Gold.Protein.ActiveResidues>
 VAL166  LYS551  ARG553  GLY616  TRP617  ASP618  TYR619  PRO620  LYS621  CYS622 
 ASP623  PHE694  ASN695  SER759  ASP760  ASP761  ALA762  ILE779  LEU786  VAL792 
 PHE793  MET794  SER795  GLU796  ALA797  LYS798  CYS799  TRP800  GLU811  SER814 

> <Gold.Protein.RotatedAtoms>
  150.8142  134.7314  159.6714 H   0  0  0  0  0  0  0  0  0  0  0  0  # atno 6907 bound_to 6896
  152.4261  134.5862  159.9971 H   0  0  0  0  0  0  0  0  0  0  0  0  # atno 6908 bound_to 6896
  151.6064  133.3314  159.3094 H   0  0  0  0  0  0  0  0  0  0  0  0  # atno 6909 bound_to 6896
  145.5967  139.2346  143.2269 H   0  0  0  0  0  0  0  0  0  0  0  0  # atno 7974 bound_to 7965
  155.6566  140.0718  157.2568 H   0  0  0  0  0  0  0  0  0  0  0  0  # atno 8008 bound_to 7997
  154.4151  140.1724  156.1782 H   0  0  0  0  0  0  0  0  0  0  0  0  # atno 8009 bound_to 7997
  155.9732  140.3360  155.6598 H   0  0  0  0  0  0  0  0  0  0  0  0  # atno 8010 bound_to 7997
  140.2940  143.3203  152.0316 H   0  0  0  0  0  0  0  0  0  0  0  0  # atno 10167 bound_to 10162
  156.9112  130.5757  149.5647 H   0  0  0  0  0  0  0  0  0  0  0  0  # atno 10718 bound_to 10713
  153.0136  135.5324  154.6809 H   0  0  0  0  0  0  0  0  0  0  0  0  # atno 10763 bound_to 10752
  154.5969  135.2864  155.0579 H   0  0  0  0  0  0  0  0  0  0  0  0  # atno 10764 bound_to 10752
  154.1651  135.6541  153.5048 H   0  0  0  0  0  0  0  0  0  0  0  0  # atno 10765 bound_to 10752
  141.0629  133.9506  157.2633 H   0  0  0  0  0  0  0  0  0  0  0  0  # atno 11005 bound_to 11000
  146.1607  140.6793  142.9279 LP  0  0  0  0  0  0  0  0  0  0  0  0  # atno 17320 bound_to 7965
  144.7327  140.4720  143.6926 LP  0  0  0  0  0  0  0  0  0  0  0  0  # atno 17321 bound_to 7965
  139.4931  144.6504  151.6688 LP  0  0  0  0  0  0  0  0  0  0  0  0  # atno 17342 bound_to 10162
  140.5708  144.0113  150.6215 LP  0  0  0  0  0  0  0  0  0  0  0  0  # atno 17343 bound_to 10162
  156.0535  130.5600  150.9041 LP  0  0  0  0  0  0  0  0  0  0  0  0  # atno 17370 bound_to 10713
  157.5966  131.0943  150.9030 LP  0  0  0  0  0  0  0  0  0  0  0  0  # atno 17371 bound_to 10713
  139.9449  135.0185  156.8822 LP  0  0  0  0  0  0  0  0  0  0  0  0  # atno 17394 bound_to 11000
  140.5832  134.0332  155.7472 LP  0  0  0  0  0  0  0  0  0  0  0  0  # atno 17395 bound_to 11000

$$$$
