AV-unprocessed.smi:1196|AV-procd|sdf|5005|dock5
  -GOLD-   22720 4 13D 1   1.00000     0.00000
 Structure written by MMmdl.
 36 37  0  0  0  0  0  0  0  0  2 V2000
  153.0262  139.9444  159.9498 C   0  0  0  0  0  0  0  0  0  0  0  0
  153.7110  141.3060  159.7703 C   0  0  1  0  0  0  0  0  0  0  0  0
  153.1293  142.3587  160.7369 C   0  0  0  0  0  0  0  0  0  0  0  0
  152.5314  143.4862  160.0432 N   0  0  0  0  0  0  0  0  0  0  0  0
  152.4856  143.7301  158.6868 C   0  0  0  0  0  0  0  0  0  0  0  0
  151.8313  144.9153  158.5090 C   0  0  0  0  0  0  0  0  0  0  0  0
  151.5063  145.3235  159.8328 C   0  0  0  0  0  0  0  0  0  0  0  0
  151.9234  144.4645  160.7489 N   0  0  0  0  0  0  0  0  0  0  0  0
  155.1500  141.1444  159.9770 N   0  0  0  0  0  0  0  0  0  0  0  0
  155.8982  140.1223  159.5311 C   0  0  0  0  0  0  0  0  0  0  0  0
  155.4431  139.1838  158.8768 O   0  0  0  0  0  0  0  0  0  0  0  0
  157.3909  140.1785  159.8640 C   0  0  0  0  0  0  0  0  0  0  0  0
  158.1372  141.2565  159.0557 C   0  0  0  0  0  0  0  0  0  0  0  0
  159.5742  141.4963  159.5594 C   0  0  2  0  0  0  0  0  0  0  0  0
  159.5744  142.1710  160.8396 N   0  0  0  0  0  0  0  0  0  0  0  0
  160.2508  143.3167  160.7842 C   0  0  0  0  0  0  0  0  0  0  0  0
  160.3907  144.0335  161.7727 O   0  0  0  0  0  0  0  0  0  0  0  0
  160.7113  143.5241  159.5353 N   0  5  0  0  0  0  0  0  0  0  0  0
  160.3576  142.5062  158.7211 C   0  0  0  0  0  0  0  0  0  0  0  0
  160.5849  142.3280  157.5254 O   0  0  0  0  0  0  0  0  0  0  0  0
  151.9529  140.0196  159.7741 H   0  0  0  0  0  0  0  0  0  0  0  0
  153.1716  139.5550  160.9583 H   0  0  0  0  0  0  0  0  0  0  0  0
  153.4228  139.2098  159.2480 H   0  0  0  0  0  0  0  0  0  0  0  0
  153.5167  141.6287  158.7457 H   0  0  0  0  0  0  0  0  0  0  0  0
  152.3553  141.9065  161.3581 H   0  0  0  0  0  0  0  0  0  0  0  0
  153.9007  142.7215  161.4187 H   0  0  0  0  0  0  0  0  0  0  0  0
  152.9238  143.0511  157.9703 H   0  0  0  0  0  0  0  0  0  0  0  0
  151.6182  145.4145  157.5756 H   0  0  0  0  0  0  0  0  0  0  0  0
  150.9827  146.2119  160.1534 H   0  0  0  0  0  0  0  0  0  0  0  0
  155.6160  141.8717  160.4996 H   0  0  0  0  0  0  0  0  0  0  0  0
  157.4925  140.3711  160.9324 H   0  0  0  0  0  0  0  0  0  0  0  0
  157.8440  139.2035  159.6781 H   0  0  0  0  0  0  0  0  0  0  0  0
  158.1770  140.9458  158.0102 H   0  0  0  0  0  0  0  0  0  0  0  0
  157.5786  142.1944  159.0718 H   0  0  0  0  0  0  0  0  0  0  0  0
  160.1344  140.5627  159.6252 H   0  0  0  0  0  0  0  0  0  0  0  0
  159.1327  141.7991  161.6672 H   0  0  0  0  0  0  0  0  0  0  0  0
  1  2  1  0  0  0  0
  1 21  1  0  0  0  0
  1 22  1  0  0  0  0
  1 23  1  0  0  0  0
  2  3  1  0  0  0  0
  2  9  1  0  0  0  0
  2 24  1  0  0  0  0
  3  4  1  0  0  0  0
  3 25  1  0  0  0  0
  3 26  1  0  0  0  0
  4  8  1  0  0  0  0
  4  5  1  0  0  0  0
  5  6  2  0  0  0  0
  5 27  1  0  0  0  0
  6  7  1  0  0  0  0
  6 28  1  0  0  0  0
  7  8  2  0  0  0  0
  7 29  1  0  0  0  0
  9 10  1  0  0  0  0
  9 30  1  0  0  0  0
 10 11  2  0  0  0  0
 10 12  1  0  0  0  0
 12 13  1  0  0  0  0
 12 31  1  0  0  0  0
 12 32  1  0  0  0  0
 13 14  1  0  0  0  0
 13 33  1  0  0  0  0
 13 34  1  0  0  0  0
 14 19  1  0  0  0  0
 14 15  1  0  0  0  0
 14 35  1  0  0  0  0
 15 16  1  0  0  0  0
 15 36  1  0  0  0  0
 16 17  2  0  0  0  0
 16 18  1  0  0  0  0
 18 19  1  0  0  0  0
 19 20  2  0  0  0  0
M  CHG  1  18  -1
M  END
> <s_m_source_file>
AV-unprocessed.smi

> <i_m_source_file_index>
1196

> <i_lp_mmshare_version>
43012

> <i_f3d_flags>
0

> <s_epik_input>
bjFbY0hdW2NIXVtjSF1uMVtDSDJdW0NAQEhdKFtDSDNdKVtOSF1DKD1PKVtDSDJdW0NIMl1bQ0BASF0yW05IXUMoPU8pW05IXUMyPU8=

> <s_epik_cmdline>
J2VwaWtfcHl0aG9uJywgJy1waCcsICc3LjAnLCAnLXRuJywgJzgnLCAnLW1hJywgJzIwMCcsICctbWV0YWxfYmluZGluZycsICctaW1hZScsICc8aW5maWxlLm1hZT4nLCAnLW9tYWUnLCAnPG91dGZpbGUubWFlPic=

> <r_lp_tautomer_probability>
1

> <r_epik_Ionization_Penalty>
2.57056

> <r_epik_Ionization_Penalty_Charging>
2.57023

> <r_epik_Ionization_Penalty_Neutral>
0.000331301

> <r_epik_State_Penalty>
2.56828

> <r_epik_Charging_Adjusted_Penalty>
5.13851

> <i_epik_Tot_Q>
-1

> <i_epik_Tot_abs_Q>
1

> <r_epik_Metal_State_Penalty>
0.444883

> <b_epik_Metal_Only>
1

> <s_lp_Force_Field>
OPLS_2005

> <r_lp_Energy>
8.81211

> <b_lp_Chiralities_Consistent>
1

> <s_lp_Variant>
AV-unprocessed.smi:1196-10

> <Gold.Version>
5.8.1

> <Gold.Id.Protein>
6NUR|6NUR_protein|mol2

> <Gold.PLP.Fitness>
45.9220

> <Gold.PLP.PLP>
-45.1563

> <Gold.PLP.part.hbond>
-4.1554

> <Gold.PLP.part.metal>
0.0000

> <Gold.PLP.part.buried>
-7.1920

> <Gold.PLP.part.nonpolar>
-35.3571

> <Gold.PLP.part.repulsive>
0.4908

> <Gold.PLP.ligand.clash>
0.0000

> <Gold.PLP.ligand.torsion>
1.1866

> <Gold.PLP.Chemscore.Hbond>
1.0000

> <Gold.PLP.Chemscore.CHOScore>
0.0000

> <Gold.PLP.Chemscore.Metal>
0.0000

> <Gold.Chemscore.Hbonds>
donor molecule, donor type, donor heavy atom, donor atom, acceptor molecule, acceptor atom, score
      P1  H  7997  8010       L1    11  0.75

> <Gold.PLP.Chemscore.Internal.Correction>
0.1389

> <Gold.Rescore>
     Score         DG    S(hbond)    S(metal)    S(lipo)     H(rot)  DE(clash)    DE(int)     intcor
      7.45     -10.09       0.55        0.00      87.00       2.89       0.21       2.43       ----

> <Gold.Chemscore.Fitness>
7.4491

> <Gold.Chemscore.DG>
-10.0933

> <Gold.Chemscore.ZeroCoef>
-5.4800

> <Gold.Chemscore.Hbond>
0.5521

> <Gold.Chemscore.Metal>
0.0000

> <Gold.Chemscore.Lipo>
87.0045

> <Gold.Chemscore.Internal_Hbond>
0.0000

> <Gold.Chemscore.DEClash>
0.2102

> <Gold.Chemscore.DEInternal>
2.4340

> <Gold.Chemscore.Rot>
2.8946

> <Gold.Chemscore.Internal.Correction>
   9.000000E+99

> <Gold.Chemscore.Hbonds>
donor molecule, donor type, donor heavy atom, donor atom, acceptor molecule, acceptor atom, score
      P1  H  7997  8010       L1    11  0.09

> <Gold.Chemscore.Hbond.Weighted>
-1.8439

> <Gold.Chemscore.Metal.Weighted>
-0.0000

> <Gold.Chemscore.Lipo.Weighted>
-10.1795

> <Gold.Chemscore.Internal_Hbond.Weighted>
0.0000

> <Gold.Chemscore.DEClash.Weighted>
0.2102

> <Gold.Chemscore.DEInternal.Weighted>
2.4340

> <Gold.Chemscore.Rot.Weighted>
7.4101

> <Gold.Chemscore.Internal.Correction.Weighted>
   9.000000E+99

> <Gold.Protein.RotatedTorsions>
[ 6907 6896 6895 6894 ] final   30.23 input  -60.11 | X-H torsion
[ 7974 7965 7964 7962 ] final -178.06 input  175.53 | X-H torsion
[ 8008 7997 7996 7995 ] final  -21.19 input   59.86 | X-H torsion
[ 10167 10162 10161 10158 ] final  -27.38 input  -65.29 | X-H torsion
[ 10718 10713 10712 10709 ] final  -16.79 input   66.30 | X-H torsion
[ 10763 10752 10751 10750 ] final  120.69 input  -60.55 | X-H torsion
[ 11005 11000 10999 10996 ] final  -59.29 input  -57.11 | X-H torsion

> <Gold.Protein.ActiveResidues>
 VAL166  LYS551  ARG553  GLY616  TRP617  ASP618  TYR619  PRO620  LYS621  CYS622 
 ASP623  PHE694  ASN695  SER759  ASP760  ASP761  ALA762  ILE779  LEU786  VAL792 
 PHE793  MET794  SER795  GLU796  ALA797  LYS798  CYS799  TRP800  GLU811  SER814 

> <Gold.Protein.RotatedAtoms>
  152.0430  134.9700  160.0573 H   0  0  0  0  0  0  0  0  0  0  0  0  # atno 6907 bound_to 6896
  152.1131  133.4307  159.4648 H   0  0  0  0  0  0  0  0  0  0  0  0  # atno 6908 bound_to 6896
  150.6844  134.2543  159.4567 H   0  0  0  0  0  0  0  0  0  0  0  0  # atno 6909 bound_to 6896
  144.7129  140.0926  143.6420 H   0  0  0  0  0  0  0  0  0  0  0  0  # atno 7974 bound_to 7965
  154.4721  140.2041  155.9969 H   0  0  0  0  0  0  0  0  0  0  0  0  # atno 8008 bound_to 7997
  156.1028  140.3241  155.7936 H   0  0  0  0  0  0  0  0  0  0  0  0  # atno 8009 bound_to 7997
  155.4768  140.0535  157.2963 H   0  0  0  0  0  0  0  0  0  0  0  0  # atno 8010 bound_to 7997
  140.7277  143.4098  151.1125 H   0  0  0  0  0  0  0  0  0  0  0  0  # atno 10167 bound_to 10162
  156.5826  130.4778  149.6313 H   0  0  0  0  0  0  0  0  0  0  0  0  # atno 10718 bound_to 10713
  153.6025  135.3445  155.2950 H   0  0  0  0  0  0  0  0  0  0  0  0  # atno 10763 bound_to 10752
  154.8633  135.4231  154.2398 H   0  0  0  0  0  0  0  0  0  0  0  0  # atno 10764 bound_to 10752
  153.3229  135.7039  153.7086 H   0  0  0  0  0  0  0  0  0  0  0  0  # atno 10765 bound_to 10752
  141.1242  133.6615  156.5050 H   0  0  0  0  0  0  0  0  0  0  0  0  # atno 11005 bound_to 11000
  145.9607  139.2799  143.1157 LP  0  0  0  0  0  0  0  0  0  0  0  0  # atno 17320 bound_to 7965
  145.9223  140.9106  143.0398 LP  0  0  0  0  0  0  0  0  0  0  0  0  # atno 17321 bound_to 7965
  139.7729  143.8467  152.3124 LP  0  0  0  0  0  0  0  0  0  0  0  0  # atno 17342 bound_to 10162
  139.8392  144.7218  150.9353 LP  0  0  0  0  0  0  0  0  0  0  0  0  # atno 17343 bound_to 10162
  156.2618  130.6967  151.1737 LP  0  0  0  0  0  0  0  0  0  0  0  0  # atno 17370 bound_to 10713
  157.7323  131.0601  150.5636 LP  0  0  0  0  0  0  0  0  0  0  0  0  # atno 17371 bound_to 10713
  140.4415  134.7011  157.4994 LP  0  0  0  0  0  0  0  0  0  0  0  0  # atno 17394 bound_to 11000
  140.0226  134.6525  155.9218 LP  0  0  0  0  0  0  0  0  0  0  0  0  # atno 17395 bound_to 11000

$$$$
