#       Name:                AV-unprocessed.smi:3324
#       Creating user name   scv26
#       Creation time:       Fri Mar 27 19:12:52 2020


#       File generated by GOLD software.
#

@<TRIPOS>MOLECULE
AV-unprocessed.smi:3324
    34    34     1
SMALL
NO_CHARGES


@<TRIPOS>ATOM
      1 ****        -2.7035   2.4397   0.5463 O.2            1 S1                 0.0000
      2 ****        -2.0422   1.6923  -0.1736 C.2            1 S1                 0.0000
      3 ****        -1.4449   0.4090   0.4007 C.3            1 S1                 0.0000
      4 ****         0.0204   0.4586   0.4196 N.3            1 S1                 0.0000
      5 ****         0.5705  -0.7961   0.9086 C.3            1 S1                 0.0000
      6 ****         2.1038  -0.7217   0.8862 C.3            1 S1                 0.0000
      7 ****         2.7036  -1.9558   1.3541 N.pl3          1 S1                 0.0000
      8 ****         3.0654  -3.0645   0.6185 C.2            1 S1                 0.0000
      9 ****         3.5852  -3.9779   1.4903 C.2            1 S1                 0.0000
     10 ****         3.4960  -3.3281   2.7533 C.2            1 S1                 0.0000
     11 ****         2.9645  -2.1192   2.6689 N.2            1 S1                 0.0000
     12 ****        -1.8051   1.9327  -1.4721 N.am           1 S1                 0.0000
     13 ****        -2.2873   3.0915  -2.2166 C.3            1 S1                 0.0000
     14 ****        -3.6688   2.8407  -2.8440 C.3            1 S1                 0.0000
     15 ****        -4.0229   3.9074  -3.5594 F              1 S1                 0.0000
     16 ****        -3.6229   1.7809  -3.6518 F              1 S1                 0.0000
     17 ****        -4.5899   2.6357  -1.9023 F              1 S1                 0.0000
     18 ****        -1.8224   0.2535   1.4129 H              1 S1                 0.0000
     19 ****        -1.7827  -0.4340  -0.2043 H              1 S1                 0.0000
     20 ****         0.3530   1.2133   1.0033 H              1 S1                 0.0000
     21 ****         0.2176  -0.9840   1.9241 H              1 S1                 0.0000
     22 ****         0.2278  -1.6215   0.2826 H              1 S1                 0.0000
     23 ****         2.4618  -0.5293  -0.1263 H              1 S1                 0.0000
     24 ****         2.4592   0.1009   1.5092 H              1 S1                 0.0000
     25 ****         2.9237  -3.1102  -0.4512 H              1 S1                 0.0000
     26 ****         3.9705  -4.9603   1.2609 H              1 S1                 0.0000
     27 ****         3.7988  -3.6967   3.7225 H              1 S1                 0.0000
     28 ****        -1.2506   1.2606  -1.9824 H              1 S1                 0.0000
     29 ****        -2.3151   3.9747  -1.5762 H              1 S1                 0.0000
     30 ****        -1.5626   3.3070  -3.0022 H              1 S1                 0.0000
     31 ****        -2.8501   2.2071   1.5078 LP             1 S1                 0.0000
     32 ****        -3.0943   3.2797   0.1699 LP             1 S1                 0.0000
     33 ****         0.3249   0.6145  -0.5200 LP             1 S1                 0.0000
     34 ****         2.7942  -1.4719   3.4120 LP             1 S1                 0.0000
@<TRIPOS>BOND
    1    1    2 2     
    2    2    3 1     
    3    2   12 am    
    4    3    4 1     
    5    3   18 1     
    6    3   19 1     
    7    4    5 1     
    8    4   20 1     
    9    5    6 1     
   10    5   21 1     
   11    5   22 1     
   12    6    7 1     
   13    6   23 1     
   14    6   24 1     
   15    7   11 1     
   16    7    8 1     
   17    8    9 2     
   18    8   25 1     
   19    9   10 1     
   20    9   26 1     
   21   10   11 2     
   22   10   27 1     
   23   12   13 1     
   24   12   28 1     
   25   13   14 1     
   26   13   29 1     
   27   13   30 1     
   28   14   15 1     
   29   14   16 1     
   30   14   17 1     
   31    1   31 1     
   32    1   32 1     
   33    4   33 1     
   34   11   34 1     
@<TRIPOS>SUBSTRUCTURE
      1 S1             1
@<TRIPOS>SET
LONE_PAIRS      STATIC     ATOMS    <user>   **** ""
4 31 32 33 34
DONOR_HYDROGENS      STATIC     ATOMS    <user>   **** ""
2 20 28
ATOM$BLUE        STATIC     ATOMS    COLORGROUP SYSTEM
4 31 32 33 34
ATOM$RED        STATIC     ATOMS    COLORGROUP SYSTEM
2 20 28
