AV-unprocessed.smi:739|AV-procd|sdf|3543|dock2
  -GOLD-   22720 0533D 1   1.00000     0.00000
 Structure written by MMmdl.
 32 34  0  0  0  0  0  0  0  0  1 V2000
  152.6970  139.5118  159.0807 O   0  0  0  0  0  0  0  0  0  0  0  0
  152.1024  140.3753  158.1335 C   0  0  1  0  0  0  0  0  0  0  0  0
  150.6920  139.8428  157.8114 C   0  0  0  0  0  0  0  0  0  0  0  0
  150.2893  140.1427  156.4485 N   0  0  0  0  0  0  0  0  0  0  0  0
  150.9555  139.8269  155.3214 C   0  0  0  0  0  0  0  0  0  0  0  0
  150.4156  140.2081  154.1672 N   0  0  0  0  0  0  0  0  0  0  0  0
  149.2636  140.8458  154.5942 C   0  0  0  0  0  0  0  0  0  0  0  0
  148.2425  141.4854  153.8557 C   0  0  0  0  0  0  0  0  0  0  0  0
  147.1481  142.0810  154.5166 C   0  0  0  0  0  0  0  0  0  0  0  0
  146.1793  142.6912  153.7935 F   0  0  0  0  0  0  0  0  0  0  0  0
  147.0575  142.0448  155.9240 C   0  0  0  0  0  0  0  0  0  0  0  0
  146.0047  142.6213  156.5510 F   0  0  0  0  0  0  0  0  0  0  0  0
  148.0609  141.4102  156.6804 C   0  0  0  0  0  0  0  0  0  0  0  0
  149.1527  140.8196  156.0173 C   0  0  0  0  0  0  0  0  0  0  0  0
  152.0791  141.8220  158.6078 C   0  0  0  0  0  0  0  0  0  0  0  0
  151.5212  142.8241  157.7848 C   0  0  0  0  0  0  0  0  0  0  0  0
  151.4667  144.1593  158.2292 C   0  0  0  0  0  0  0  0  0  0  0  0
  151.9713  144.5010  159.4985 C   0  0  0  0  0  0  0  0  0  0  0  0
  151.9162  145.7842  159.9268 F   0  0  0  0  0  0  0  0  0  0  0  0
  152.5310  143.5066  160.3232 C   0  0  0  0  0  0  0  0  0  0  0  0
  152.5849  142.1709  159.8797 C   0  0  0  0  0  0  0  0  0  0  0  0
  153.6264  139.6827  159.0994 H   0  0  0  0  0  0  0  0  0  0  0  0
  152.7175  140.3127  157.2347 H   0  0  0  0  0  0  0  0  0  0  0  0
  150.6637  138.7591  157.9350 H   0  0  0  0  0  0  0  0  0  0  0  0
  149.9526  140.2535  158.5002 H   0  0  0  0  0  0  0  0  0  0  0  0
  151.8924  139.2898  155.3506 H   0  0  0  0  0  0  0  0  0  0  0  0
  148.3016  141.5201  152.7780 H   0  0  0  0  0  0  0  0  0  0  0  0
  147.9940  141.3832  157.7578 H   0  0  0  0  0  0  0  0  0  0  0  0
  151.1217  142.5700  156.8140 H   0  0  0  0  0  0  0  0  0  0  0  0
  151.0346  144.9210  157.5971 H   0  0  0  0  0  0  0  0  0  0  0  0
  152.9156  143.7672  161.2982 H   0  0  0  0  0  0  0  0  0  0  0  0
  153.0067  141.4135  160.5242 H   0  0  0  0  0  0  0  0  0  0  0  0
  1  2  1  0  0  0  0
  1 22  1  0  0  0  0
  2  3  1  0  0  0  0
  2 15  1  0  0  0  0
  2 23  1  0  0  0  0
  3  4  1  0  0  0  0
  3 24  1  0  0  0  0
  3 25  1  0  0  0  0
  4 14  1  0  0  0  0
  4  5  1  0  0  0  0
  5  6  2  0  0  0  0
  5 26  1  0  0  0  0
  6  7  1  0  0  0  0
  7 14  2  0  0  0  0
  7  8  1  0  0  0  0
  8  9  2  0  0  0  0
  8 27  1  0  0  0  0
  9 10  1  0  0  0  0
  9 11  1  0  0  0  0
 11 12  1  0  0  0  0
 11 13  2  0  0  0  0
 13 14  1  0  0  0  0
 13 28  1  0  0  0  0
 15 21  1  0  0  0  0
 15 16  2  0  0  0  0
 16 17  1  0  0  0  0
 16 29  1  0  0  0  0
 17 18  2  0  0  0  0
 17 30  1  0  0  0  0
 18 19  1  0  0  0  0
 18 20  1  0  0  0  0
 20 21  2  0  0  0  0
 20 31  1  0  0  0  0
 21 32  1  0  0  0  0
M  END
> <s_m_source_file>
AV-unprocessed.smi

> <i_m_source_file_index>
739

> <i_lp_mmshare_version>
43012

> <i_f3d_flags>
0

> <s_epik_input>
W2NIXTFbY0hdYyhGKVtjSF1bY0hdYzFbQ0BIXShbT0hdKVtDSDJdbihbY0hdbjIpYyhjMjMpW2NIXWMoRiljKEYpW2NIXTM=

> <s_epik_cmdline>
J2VwaWtfcHl0aG9uJywgJy1waCcsICc3LjAnLCAnLXRuJywgJzgnLCAnLW1hJywgJzIwMCcsICctbWV0YWxfYmluZGluZycsICctaW1hZScsICc8aW5maWxlLm1hZT4nLCAnLW9tYWUnLCAnPG91dGZpbGUubWFlPic=

> <r_epik_Ionization_Penalty>
0.0156356

> <r_epik_Ionization_Penalty_Charging>
0

> <r_epik_Ionization_Penalty_Neutral>
0.0156356

> <r_epik_State_Penalty>
0.0122974

> <r_epik_Charging_Adjusted_Penalty>
0.0122974

> <i_epik_Tot_Q>
0

> <i_epik_Tot_abs_Q>
0

> <r_epik_Metal_State_Penalty>
1.24258e-05

> <b_epik_Metal_Only>
0

> <s_lp_Force_Field>
OPLS_2005

> <r_lp_Energy>
11.0695

> <b_lp_Chiralities_Consistent>
1

> <s_lp_Variant>
AV-unprocessed.smi:739-2

> <Gold.Version>
5.8.1

> <Gold.Id.Protein>
6NUR|6NUR_protein|mol2

> <Gold.PLP.Fitness>
51.7617

> <Gold.PLP.PLP>
-49.5034

> <Gold.PLP.part.hbond>
-0.8113

> <Gold.PLP.part.metal>
0.0000

> <Gold.PLP.part.buried>
-4.6173

> <Gold.PLP.part.nonpolar>
-43.8656

> <Gold.PLP.part.repulsive>
0.1939

> <Gold.PLP.ligand.clash>
0.0000

> <Gold.PLP.ligand.torsion>
0.3787

> <Gold.PLP.Chemscore.Hbond>
1.0000

> <Gold.PLP.Chemscore.CHOScore>
0.0000

> <Gold.PLP.Chemscore.Metal>
0.0000

> <Gold.Chemscore.Hbonds>
donor molecule, donor type, donor heavy atom, donor atom, acceptor molecule, acceptor atom, score
      P1  H  7989  7998       L1     6  1.00

> <Gold.PLP.Chemscore.Internal.Correction>
0.0156

> <Gold.Rescore>
     Score         DG    S(hbond)    S(metal)    S(lipo)     H(rot)  DE(clash)    DE(int)     intcor
     15.68     -16.29       0.92        0.00     111.26       2.07       0.25       0.35       ----

> <Gold.Chemscore.Fitness>
15.6849

> <Gold.Chemscore.DG>
-16.2862

> <Gold.Chemscore.ZeroCoef>
-5.4800

> <Gold.Chemscore.Hbond>
0.9245

> <Gold.Chemscore.Metal>
0.0000

> <Gold.Chemscore.Lipo>
111.2619

> <Gold.Chemscore.Internal_Hbond>
0.0000

> <Gold.Chemscore.DEClash>
0.2512

> <Gold.Chemscore.DEInternal>
0.3501

> <Gold.Chemscore.Rot>
2.0700

> <Gold.Chemscore.Internal.Correction>
   9.000000E+99

> <Gold.Chemscore.Hbonds>
donor molecule, donor type, donor heavy atom, donor atom, acceptor molecule, acceptor atom, score
      P1  H  7989  7998       L1     6  0.27

> <Gold.Chemscore.Hbond.Weighted>
-3.0878

> <Gold.Chemscore.Metal.Weighted>
-0.0000

> <Gold.Chemscore.Lipo.Weighted>
-13.0176

> <Gold.Chemscore.Internal_Hbond.Weighted>
0.0000

> <Gold.Chemscore.DEClash.Weighted>
0.2512

> <Gold.Chemscore.DEInternal.Weighted>
0.3501

> <Gold.Chemscore.Rot.Weighted>
5.2992

> <Gold.Chemscore.Internal.Correction.Weighted>
   9.000000E+99

> <Gold.Protein.RotatedTorsions>
[ 6907 6896 6895 6894 ] final  153.59 input  -60.11 | X-H torsion
[ 7974 7965 7964 7962 ] final -149.20 input  175.53 | X-H torsion
[ 8008 7997 7996 7995 ] final  -18.80 input   59.86 | X-H torsion
[ 10167 10162 10161 10158 ] final   63.45 input  -65.29 | X-H torsion
[ 10718 10713 10712 10709 ] final  -42.53 input   66.30 | X-H torsion
[ 10763 10752 10751 10750 ] final  136.51 input  -60.55 | X-H torsion
[ 11005 11000 10999 10996 ] final   89.21 input  -57.11 | X-H torsion

> <Gold.Protein.ActiveResidues>
 VAL166  LYS551  ARG553  GLY616  TRP617  ASP618  TYR619  PRO620  LYS621  CYS622 
 ASP623  PHE694  ASN695  SER759  ASP760  ASP761  ALA762  ILE779  LEU786  VAL792 
 PHE793  MET794  SER795  GLU796  ALA797  LYS798  CYS799  TRP800  GLU811  SER814 

> <Gold.Protein.RotatedAtoms>
  152.0705  133.4104  159.4456 H   0  0  0  0  0  0  0  0  0  0  0  0  # atno 6907 bound_to 6896
  150.6863  134.3097  159.4750 H   0  0  0  0  0  0  0  0  0  0  0  0  # atno 6908 bound_to 6896
  152.0928  134.9395  160.0622 H   0  0  0  0  0  0  0  0  0  0  0  0  # atno 6909 bound_to 6896
  144.7982  140.5096  143.5725 H   0  0  0  0  0  0  0  0  0  0  0  0  # atno 7974 bound_to 7965
  154.4881  140.2106  155.9610 H   0  0  0  0  0  0  0  0  0  0  0  0  # atno 8008 bound_to 7997
  156.1265  140.3204  155.8254 H   0  0  0  0  0  0  0  0  0  0  0  0  # atno 8009 bound_to 7997
  155.4373  140.0507  157.3004 H   0  0  0  0  0  0  0  0  0  0  0  0  # atno 8010 bound_to 7997
  140.1329  144.4626  150.6854 H   0  0  0  0  0  0  0  0  0  0  0  0  # atno 10167 bound_to 10162
  156.2586  130.4195  149.8567 H   0  0  0  0  0  0  0  0  0  0  0  0  # atno 10718 bound_to 10713
  153.8578  135.3071  155.3436 H   0  0  0  0  0  0  0  0  0  0  0  0  # atno 10763 bound_to 10752
  154.7863  135.4808  153.9955 H   0  0  0  0  0  0  0  0  0  0  0  0  # atno 10764 bound_to 10752
  153.1480  135.6837  153.9019 H   0  0  0  0  0  0  0  0  0  0  0  0  # atno 10765 bound_to 10752
  139.8880  134.8537  156.3110 H   0  0  0  0  0  0  0  0  0  0  0  0  # atno 11005 bound_to 11000
  145.5620  139.1480  143.3336 LP  0  0  0  0  0  0  0  0  0  0  0  0  # atno 17320 bound_to 7965
  146.2256  140.5756  142.8998 LP  0  0  0  0  0  0  0  0  0  0  0  0  # atno 17321 bound_to 7965
  140.6806  143.2325  151.5393 LP  0  0  0  0  0  0  0  0  0  0  0  0  # atno 17342 bound_to 10162
  139.5510  144.2394  152.1531 LP  0  0  0  0  0  0  0  0  0  0  0  0  # atno 17343 bound_to 10162
  156.6091  130.8579  151.3450 LP  0  0  0  0  0  0  0  0  0  0  0  0  # atno 17370 bound_to 10713
  157.7242  130.9599  150.1564 LP  0  0  0  0  0  0  0  0  0  0  0  0  # atno 17371 bound_to 10713
  140.9850  133.7243  156.0729 LP  0  0  0  0  0  0  0  0  0  0  0  0  # atno 17394 bound_to 11000
  140.7700  134.3844  157.5509 LP  0  0  0  0  0  0  0  0  0  0  0  0  # atno 17395 bound_to 11000

$$$$
