AV-unprocessed.smi:651|AV-procd|sdf|3185|dock4
  -GOLD-   22720 0113D 1   1.00000     0.00000
 Structure written by MMmdl.
 38 39  0  0  0  0  0  0  0  0  1 V2000
  152.9703  143.4315  162.7046 C   0  0  0  0  0  0  0  0  0  0  0  0
  152.5016  143.3654  161.2664 C   0  0  0  0  0  0  0  0  0  0  0  0
  152.0220  144.5172  160.6076 C   0  0  0  0  0  0  0  0  0  0  0  0
  151.6002  144.3978  159.2694 C   0  0  0  0  0  0  0  0  0  0  0  0
  151.6736  143.1362  158.6430 C   0  0  0  0  0  0  0  0  0  0  0  0
  151.2417  142.9556  157.1972 C   0  0  0  0  0  0  0  0  0  0  0  0
  150.1173  141.9234  157.0747 C   0  0  0  0  0  0  0  0  0  0  0  0
  150.3529  140.7327  157.2777 O   0  0  0  0  0  0  0  0  0  0  0  0
  148.9071  142.3852  156.7219 N   0  0  0  0  0  0  0  0  0  0  0  0
  147.7088  141.5663  156.5372 C   0  0  1  0  0  0  0  0  0  0  0  0
  146.5390  142.4108  155.9967 C   0  0  0  0  0  0  0  0  0  0  0  0
  145.8562  141.5796  154.9036 C   0  0  0  0  0  0  0  0  0  0  0  0
  146.4622  140.1775  155.0049 C   0  0  0  0  0  0  0  0  0  0  0  0
  147.8818  140.3744  155.5581 C   0  0  1  0  0  0  0  0  0  0  0  0
  148.8931  140.6066  154.4142 C   0  0  0  0  0  0  0  0  0  0  0  0
  149.0615  139.6076  153.5441 N   0  0  0  0  0  0  0  0  0  0  0  0
  149.5171  141.6622  154.3191 O   0  0  0  0  0  0  0  0  0  0  0  0
  152.1638  142.0461  159.3937 C   0  0  0  0  0  0  0  0  0  0  0  0
  152.5717  142.1520  160.6762 N   0  0  0  0  0  0  0  0  0  0  0  0
  153.1076  144.4641  163.0271 H   0  0  0  0  0  0  0  0  0  0  0  0
  153.9213  142.9111  162.8225 H   0  0  0  0  0  0  0  0  0  0  0  0
  152.2377  142.9620  163.3614 H   0  0  0  0  0  0  0  0  0  0  0  0
  151.9786  145.4710  161.1127 H   0  0  0  0  0  0  0  0  0  0  0  0
  151.2319  145.2602  158.7334 H   0  0  0  0  0  0  0  0  0  0  0  0
  150.8998  143.9065  156.7865 H   0  0  0  0  0  0  0  0  0  0  0  0
  152.0993  142.6428  156.5998 H   0  0  0  0  0  0  0  0  0  0  0  0
  148.8075  143.3783  156.5677 H   0  0  0  0  0  0  0  0  0  0  0  0
  147.4045  141.1654  157.5062 H   0  0  0  0  0  0  0  0  0  0  0  0
  145.8416  142.6482  156.8009 H   0  0  0  0  0  0  0  0  0  0  0  0
  146.8796  143.3595  155.5788 H   0  0  0  0  0  0  0  0  0  0  0  0
  144.7716  141.5641  155.0132 H   0  0  0  0  0  0  0  0  0  0  0  0
  146.0759  142.0083  153.9251 H   0  0  0  0  0  0  0  0  0  0  0  0
  145.8822  139.5799  155.7095 H   0  0  0  0  0  0  0  0  0  0  0  0
  146.4396  139.6534  154.0480 H   0  0  0  0  0  0  0  0  0  0  0  0
  148.1908  139.4859  156.1115 H   0  0  0  0  0  0  0  0  0  0  0  0
  149.7085  139.7112  152.7758 H   0  0  0  0  0  0  0  0  0  0  0  0
  148.5368  138.7523  153.6562 H   0  0  0  0  0  0  0  0  0  0  0  0
  152.2390  141.0634  158.9518 H   0  0  0  0  0  0  0  0  0  0  0  0
  1  2  1  0  0  0  0
  1 20  1  0  0  0  0
  1 21  1  0  0  0  0
  1 22  1  0  0  0  0
  2 19  1  0  0  0  0
  2  3  2  0  0  0  0
  3  4  1  0  0  0  0
  3 23  1  0  0  0  0
  4  5  2  0  0  0  0
  4 24  1  0  0  0  0
  5  6  1  0  0  0  0
  5 18  1  0  0  0  0
  6  7  1  0  0  0  0
  6 25  1  0  0  0  0
  6 26  1  0  0  0  0
  7  8  2  0  0  0  0
  7  9  1  0  0  0  0
  9 10  1  0  0  0  0
  9 27  1  0  0  0  0
 10 14  1  0  0  0  0
 10 11  1  0  0  0  0
 10 28  1  0  0  0  0
 11 12  1  0  0  0  0
 11 29  1  0  0  0  0
 11 30  1  0  0  0  0
 12 13  1  0  0  0  0
 12 31  1  0  0  0  0
 12 32  1  0  0  0  0
 13 14  1  0  0  0  0
 13 33  1  0  0  0  0
 13 34  1  0  0  0  0
 14 15  1  0  0  0  0
 14 35  1  0  0  0  0
 15 16  1  0  0  0  0
 15 17  2  0  0  0  0
 16 36  1  0  0  0  0
 16 37  1  0  0  0  0
 18 19  2  0  0  0  0
 18 38  1  0  0  0  0
M  END
> <s_m_source_file>
AV-unprocessed.smi

> <i_m_source_file_index>
651

> <i_lp_mmshare_version>
43012

> <i_f3d_flags>
0

> <s_epik_input>
W0NIM11jMVtjSF1bY0hdYyhbY0hdbjEpW0NIMl1DKD1PKVtOSF1bQ0BASF0yW0NIMl1bQ0gyXVtDSDJdW0NASF0yQyg9TylbTkgyXQ==

> <s_epik_cmdline>
J2VwaWtfcHl0aG9uJywgJy1waCcsICc3LjAnLCAnLXRuJywgJzgnLCAnLW1hJywgJzIwMCcsICctbWV0YWxfYmluZGluZycsICctaW1hZScsICc8aW5maWxlLm1hZT4nLCAnLW9tYWUnLCAnPG91dGZpbGUubWFlPic=

> <r_epik_Ionization_Penalty>
0.0159502

> <r_epik_Ionization_Penalty_Charging>
0

> <r_epik_Ionization_Penalty_Neutral>
0.0159502

> <r_epik_State_Penalty>
0.012563

> <r_epik_Charging_Adjusted_Penalty>
0.012563

> <i_epik_Tot_Q>
0

> <i_epik_Tot_abs_Q>
0

> <r_epik_Metal_State_Penalty>
0.0122326

> <b_epik_Metal_Only>
0

> <s_lp_Force_Field>
OPLS_2005

> <r_lp_Energy>
12.2285

> <b_lp_Chiralities_Consistent>
1

> <s_lp_Variant>
AV-unprocessed.smi:651-2

> <Gold.Version>
5.8.1

> <Gold.Id.Protein>
6NUR|6NUR_protein|mol2

> <Gold.PLP.Fitness>
44.0481

> <Gold.PLP.PLP>
-37.5578

> <Gold.PLP.part.hbond>
-3.6865

> <Gold.PLP.part.metal>
0.0000

> <Gold.PLP.part.buried>
-5.4512

> <Gold.PLP.part.nonpolar>
-27.5725

> <Gold.PLP.part.repulsive>
0.3637

> <Gold.PLP.ligand.clash>
0.0000

> <Gold.PLP.ligand.torsion>
0.1297

> <Gold.PLP.Chemscore.Hbond>
2.2389

> <Gold.PLP.Chemscore.CHOScore>
0.0000

> <Gold.PLP.Chemscore.Metal>
0.0000

> <Gold.Chemscore.Hbonds>
donor molecule, donor type, donor heavy atom, donor atom, acceptor molecule, acceptor atom, score
      L1  H     9    27       P1  8028  1.00
      L1  H    16    36       P1  7957  0.74
      P1  H  7989  7998       L1    17  0.04
      P1  H  8011  8017       L1    17  0.37

> <Gold.PLP.Chemscore.Internal.Correction>
0.0330

> <Gold.Rescore>
     Score         DG    S(hbond)    S(metal)    S(lipo)     H(rot)  DE(clash)    DE(int)     intcor
     15.26     -19.25       2.37        0.00      93.26       1.97       0.11       3.88       ----

> <Gold.Chemscore.Fitness>
15.2576

> <Gold.Chemscore.DG>
-19.2496

> <Gold.Chemscore.ZeroCoef>
-5.4800

> <Gold.Chemscore.Hbond>
2.3660

> <Gold.Chemscore.Metal>
0.0000

> <Gold.Chemscore.Lipo>
93.2600

> <Gold.Chemscore.Internal_Hbond>
0.0000

> <Gold.Chemscore.DEClash>
0.1075

> <Gold.Chemscore.DEInternal>
3.8845

> <Gold.Chemscore.Rot>
1.9704

> <Gold.Chemscore.Internal.Correction>
   9.000000E+99

> <Gold.Chemscore.Hbonds>
donor molecule, donor type, donor heavy atom, donor atom, acceptor molecule, acceptor atom, score
      L1  H     9    27       P1  8028  0.82
      L1  H    16    36       P1  7957  0.74
      P1  H  7989  7998       L1    17  0.01
      P1  H  8011  8017       L1    17  0.36

> <Gold.Chemscore.Hbond.Weighted>
-7.9025

> <Gold.Chemscore.Metal.Weighted>
-0.0000

> <Gold.Chemscore.Lipo.Weighted>
-10.9114

> <Gold.Chemscore.Internal_Hbond.Weighted>
0.0000

> <Gold.Chemscore.DEClash.Weighted>
0.1075

> <Gold.Chemscore.DEInternal.Weighted>
3.8845

> <Gold.Chemscore.Rot.Weighted>
5.0443

> <Gold.Chemscore.Internal.Correction.Weighted>
   9.000000E+99

> <Gold.Protein.RotatedTorsions>
[ 6907 6896 6895 6894 ] final  128.83 input  -60.11 | X-H torsion
[ 7974 7965 7964 7962 ] final  -30.04 input  175.53 | X-H torsion
[ 8008 7997 7996 7995 ] final   16.99 input   59.86 | X-H torsion
[ 10167 10162 10161 10158 ] final  -19.74 input  -65.29 | X-H torsion
[ 10718 10713 10712 10709 ] final  -54.90 input   66.30 | X-H torsion
[ 10763 10752 10751 10750 ] final  146.44 input  -60.55 | X-H torsion
[ 11005 11000 10999 10996 ] final  145.42 input  -57.11 | X-H torsion

> <Gold.Protein.ActiveResidues>
 VAL166  LYS551  ARG553  GLY616  TRP617  ASP618  TYR619  PRO620  LYS621  CYS622 
 ASP623  PHE694  ASN695  SER759  ASP760  ASP761  ALA762  ILE779  LEU786  VAL792 
 PHE793  MET794  SER795  GLU796  ALA797  LYS798  CYS799  TRP800  GLU811  SER814 

> <Gold.Protein.RotatedAtoms>
  152.3682  133.6384  159.6066 H   0  0  0  0  0  0  0  0  0  0  0  0  # atno 6907 bound_to 6896
  150.7649  133.9313  159.3436 H   0  0  0  0  0  0  0  0  0  0  0  0  # atno 6908 bound_to 6896
  151.7140  135.0908  160.0324 H   0  0  0  0  0  0  0  0  0  0  0  0  # atno 6909 bound_to 6896
  146.1172  140.5490  142.8751 H   0  0  0  0  0  0  0  0  0  0  0  0  # atno 7974 bound_to 7965
  154.8849  140.2978  155.5404 H   0  0  0  0  0  0  0  0  0  0  0  0  # atno 8008 bound_to 7997
  156.3021  140.2435  156.3790 H   0  0  0  0  0  0  0  0  0  0  0  0  # atno 8009 bound_to 7997
  154.8679  140.0402  157.1695 H   0  0  0  0  0  0  0  0  0  0  0  0  # atno 8010 bound_to 7997
  140.7271  143.4790  151.0143 H   0  0  0  0  0  0  0  0  0  0  0  0  # atno 10167 bound_to 10162
  156.1413  130.4154  150.0099 H   0  0  0  0  0  0  0  0  0  0  0  0  # atno 10718 bound_to 10713
  154.0220  135.2905  155.3380 H   0  0  0  0  0  0  0  0  0  0  0  0  # atno 10763 bound_to 10752
  154.7040  135.5177  153.8572 H   0  0  0  0  0  0  0  0  0  0  0  0  # atno 10764 bound_to 10752
  153.0677  135.6637  154.0441 H   0  0  0  0  0  0  0  0  0  0  0  0  # atno 10765 bound_to 10752
  140.0710  134.9151  157.1346 H   0  0  0  0  0  0  0  0  0  0  0  0  # atno 11005 bound_to 11000
  144.7564  140.5317  143.6766 LP  0  0  0  0  0  0  0  0  0  0  0  0  # atno 17320 bound_to 7965
  145.5542  139.1477  143.3377 LP  0  0  0  0  0  0  0  0  0  0  0  0  # atno 17321 bound_to 7965
  139.8487  143.7467  152.3178 LP  0  0  0  0  0  0  0  0  0  0  0  0  # atno 17342 bound_to 10162
  139.7641  144.7497  151.0320 LP  0  0  0  0  0  0  0  0  0  0  0  0  # atno 17343 bound_to 10162
  156.7983  130.9281  151.3646 LP  0  0  0  0  0  0  0  0  0  0  0  0  # atno 17370 bound_to 10713
  157.6578  130.8939  149.9765 LP  0  0  0  0  0  0  0  0  0  0  0  0  # atno 17371 bound_to 10713
  140.3626  134.2477  155.7185 LP  0  0  0  0  0  0  0  0  0  0  0  0  # atno 17394 bound_to 11000
  141.2012  133.7969  157.0453 LP  0  0  0  0  0  0  0  0  0  0  0  0  # atno 17395 bound_to 11000

$$$$
