#       Name:                AV-unprocessed.smi:1473
#       Creating user name   scv26
#       Creation time:       Fri Mar 27 06:05:55 2020


#       File generated by GOLD software.
#

@<TRIPOS>MOLECULE
AV-unprocessed.smi:1473
    38    39     1
SMALL
NO_CHARGES


@<TRIPOS>ATOM
      1 ****        -4.2286   3.7938  -1.3191 N.pl3          1 S1                -1.0000
      2 ****        -2.7241   4.3735  -1.3077 S.o2           1 S1                 0.0000
      3 ****        -2.2532   4.8282  -2.6253 O.2            1 S1                 0.0000
      4 ****        -2.4232   5.2093  -0.1354 O.2            1 S1                 0.0000
      5 ****        -1.9454   2.8677  -1.0206 N.pl3          1 S1                 0.0000
      6 ****        -0.4903   2.7594  -1.0190 C.3            1 S1                 0.0000
      7 ****        -0.0282   1.3217  -1.1273 C.ar           1 S1                 0.0000
      8 ****         0.1164   0.7069  -2.3871 C.ar           1 S1                 0.0000
      9 ****         0.5343  -0.6372  -2.4322 C.ar           1 S1                 0.0000
     10 ****         0.8012  -1.3678  -1.3286 N.ar           1 S1                 0.0000
     11 ****         0.6554  -0.7773  -0.1175 C.ar           1 S1                 0.0000
     12 ****         0.9208  -1.5363   1.0312 N.3            1 S1                 0.0000
     13 ****         0.0283  -2.6774   1.1934 C.3            1 S1                 0.0000
     14 ****         0.3072  -3.3766   2.5349 C.3            1 S1                 0.0000
     15 ****         1.6807  -3.7503   2.6012 O.3            1 S1                 0.0000
     16 ****         2.5466  -2.6217   2.5159 C.3            1 S1                 0.0000
     17 ****         2.3248  -1.9006   1.1747 C.3            1 S1                 0.0000
     18 ****         0.2446   0.5642   0.0298 C.ar           1 S1                 0.0000
     19 ****        -4.5344   3.7144  -2.2965 H              1 S1                 0.0000
     20 ****        -2.4724   2.0356  -1.2838 H              1 S1                 0.0000
     21 ****        -0.0870   3.3271  -1.8583 H              1 S1                 0.0000
     22 ****        -0.0989   3.2166  -0.1097 H              1 S1                 0.0000
     23 ****        -0.0909   1.2501  -3.2975 H              1 S1                 0.0000
     24 ****         0.6553  -1.1402  -3.3802 H              1 S1                 0.0000
     25 ****        -1.0092  -2.3433   1.1526 H              1 S1                 0.0000
     26 ****         0.1742  -3.3817   0.3730 H              1 S1                 0.0000
     27 ****         0.0558  -2.7251   3.3735 H              1 S1                 0.0000
     28 ****        -0.3101  -4.2699   2.6287 H              1 S1                 0.0000
     29 ****         2.3653  -1.9479   3.3548 H              1 S1                 0.0000
     30 ****         3.5800  -2.9592   2.5955 H              1 S1                 0.0000
     31 ****         2.6237  -2.5510   0.3514 H              1 S1                 0.0000
     32 ****         2.9463  -1.0058   1.1227 H              1 S1                 0.0000
     33 ****         0.1345   1.0023   1.0115 H              1 S1                 0.0000
     34 ****        -4.7704   3.5531  -0.5137 LP             1 S1                 0.0000
     35 ****         1.0987  -2.3197  -1.4029 LP             1 S1                 0.0000
     36 ****         0.7185  -0.9217   1.7936 LP             1 S1                 0.0000
     37 ****         1.8833  -4.3706   1.8434 LP             1 S1                 0.0000
     38 ****         1.8461  -4.2191   3.4689 LP             1 S1                 0.0000
@<TRIPOS>BOND
    1    1    2 1     
    2    1   19 1     
    3    2    3 2     
    4    2    4 2     
    5    2    5 1     
    6    5    6 1     
    7    5   20 1     
    8    6    7 1     
    9    6   21 1     
   10    6   22 1     
   11    7   18 ar    
   12    7    8 ar    
   13    8    9 ar    
   14    8   23 1     
   15    9   10 ar    
   16    9   24 1     
   17   10   11 ar    
   18   11   12 1     
   19   11   18 ar    
   20   12   17 1     
   21   12   13 1     
   22   13   14 1     
   23   13   25 1     
   24   13   26 1     
   25   14   15 1     
   26   14   27 1     
   27   14   28 1     
   28   15   16 1     
   29   16   17 1     
   30   16   29 1     
   31   16   30 1     
   32   17   31 1     
   33   17   32 1     
   34   18   33 1     
   35    1   34 1     
   36   10   35 1     
   37   12   36 1     
   38   15   37 1     
   39   15   38 1     
@<TRIPOS>SUBSTRUCTURE
      1 S1             1
@<TRIPOS>SET
LONE_PAIRS      STATIC     ATOMS    <user>   **** ""
7 34 3 4 35 36 37 38
DONOR_HYDROGENS      STATIC     ATOMS    <user>   **** ""
2 19 20
ATOM$BLUE        STATIC     ATOMS    COLORGROUP SYSTEM
7 34 3 4 35 36 37 38
ATOM$RED        STATIC     ATOMS    COLORGROUP SYSTEM
2 19 20
