AV-unprocessed.smi:2670|AV-procd|sdf|10345|dock1
  -GOLD-   2272014373D 1   1.00000     0.00000
 Structure written by MMmdl.
 40 41  0  0  0  0  0  0  0  0  2 V2000
  152.1545  145.3533  159.2396 C   0  0  0  0  0  0  0  0  0  0  0  0
  152.3071  143.8713  159.4149 C   0  0  0  0  0  0  0  0  0  0  0  0
  153.2812  143.1696  160.1784 C   0  0  0  0  0  0  0  0  0  0  0  0
  152.9703  141.8517  159.9943 C   0  0  0  0  0  0  0  0  0  0  0  0
  153.6301  140.6274  160.5415 C   0  0  0  0  0  0  0  0  0  0  0  0
  151.8617  141.8127  159.1641 N   0  0  0  0  0  0  0  0  0  0  0  0
  151.1341  140.6624  158.6468 C   0  0  0  0  0  0  0  0  0  0  0  0
  151.0198  140.7073  157.1215 C   0  0  0  0  0  0  0  0  0  0  0  0
  151.1086  141.7879  156.5411 O   0  0  0  0  0  0  0  0  0  0  0  0
  150.7998  139.5200  156.5270 N   0  0  0  0  0  0  0  0  0  0  0  0
  150.6217  139.1270  155.1187 C   0  0  0  0  0  0  0  0  0  0  0  0
  152.0140  138.6172  154.6690 C   0  0  0  0  0  0  0  0  0  0  0  0
  152.9869  139.3985  154.7650 O   0  0  0  0  0  0  0  0  0  0  0  0
  152.0849  137.4645  154.1851 O   0  5  0  0  0  0  0  0  0  0  0  0
  149.5363  138.0368  154.8334 C   0  0  0  0  0  0  0  0  0  0  0  0
  148.0845  138.5346  154.9850 C   0  0  0  0  0  0  0  0  0  0  0  0
  147.8288  139.7900  154.1450 C   0  0  0  0  0  0  0  0  0  0  0  0
  148.8315  140.8904  154.5071 C   0  0  0  0  0  0  0  0  0  0  0  0
  150.2786  140.4099  154.3066 C   0  0  0  0  0  0  0  0  0  0  0  0
  151.4642  143.0538  158.8065 N   0  0  0  0  0  0  0  0  0  0  0  0
  152.8589  145.8990  159.8676 H   0  0  0  0  0  0  0  0  0  0  0  0
  151.1495  145.6800  159.5080 H   0  0  0  0  0  0  0  0  0  0  0  0
  152.3368  145.6462  158.2055 H   0  0  0  0  0  0  0  0  0  0  0  0
  154.0878  143.5732  160.7722 H   0  0  0  0  0  0  0  0  0  0  0  0
  154.6222  140.8604  160.9288 H   0  0  0  0  0  0  0  0  0  0  0  0
  153.7432  139.8612  159.7745 H   0  0  0  0  0  0  0  0  0  0  0  0
  153.0442  140.2063  161.3587 H   0  0  0  0  0  0  0  0  0  0  0  0
  151.6453  139.7433  158.9379 H   0  0  0  0  0  0  0  0  0  0  0  0
  150.1481  140.6357  159.1128 H   0  0  0  0  0  0  0  0  0  0  0  0
  150.7279  138.7406  157.1643 H   0  0  0  0  0  0  0  0  0  0  0  0
  149.6496  137.6926  153.8039 H   0  0  0  0  0  0  0  0  0  0  0  0
  149.6906  137.1458  155.4421 H   0  0  0  0  0  0  0  0  0  0  0  0
  147.3941  137.7452  154.6875 H   0  0  0  0  0  0  0  0  0  0  0  0
  147.8608  138.7530  156.0282 H   0  0  0  0  0  0  0  0  0  0  0  0
  147.9120  139.5485  153.0847 H   0  0  0  0  0  0  0  0  0  0  0  0
  146.8102  140.1446  154.3053 H   0  0  0  0  0  0  0  0  0  0  0  0
  148.6480  141.7731  153.8940 H   0  0  0  0  0  0  0  0  0  0  0  0
  148.6833  141.1983  155.5429 H   0  0  0  0  0  0  0  0  0  0  0  0
  150.9566  141.2249  154.5665 H   0  0  0  0  0  0  0  0  0  0  0  0
  150.4310  140.2231  153.2419 H   0  0  0  0  0  0  0  0  0  0  0  0
  1  2  1  0  0  0  0
  1 21  1  0  0  0  0
  1 22  1  0  0  0  0
  1 23  1  0  0  0  0
  2 20  2  0  0  0  0
  2  3  1  0  0  0  0
  3  4  2  0  0  0  0
  3 24  1  0  0  0  0
  4  5  1  0  0  0  0
  4  6  1  0  0  0  0
  5 25  1  0  0  0  0
  5 26  1  0  0  0  0
  5 27  1  0  0  0  0
  6  7  1  0  0  0  0
  6 20  1  0  0  0  0
  7  8  1  0  0  0  0
  7 28  1  0  0  0  0
  7 29  1  0  0  0  0
  8  9  2  0  0  0  0
  8 10  1  0  0  0  0
 10 11  1  0  0  0  0
 10 30  1  0  0  0  0
 11 19  1  0  0  0  0
 11 12  1  0  0  0  0
 11 15  1  0  0  0  0
 12 13  2  0  0  0  0
 12 14  1  0  0  0  0
 15 16  1  0  0  0  0
 15 31  1  0  0  0  0
 15 32  1  0  0  0  0
 16 17  1  0  0  0  0
 16 33  1  0  0  0  0
 16 34  1  0  0  0  0
 17 18  1  0  0  0  0
 17 35  1  0  0  0  0
 17 36  1  0  0  0  0
 18 19  1  0  0  0  0
 18 37  1  0  0  0  0
 18 38  1  0  0  0  0
 19 39  1  0  0  0  0
 19 40  1  0  0  0  0
M  CHG  1  14  -1
M  END
> <s_m_source_file>
AV-unprocessed.smi

> <i_m_source_file_index>
2670

> <i_lp_mmshare_version>
43012

> <i_f3d_flags>
0

> <s_epik_input>
W0NIM11jMVtjSF1jKFtDSDNdKW4objEpW0NIMl1DKD1PKVtOSF1DMihDKD1PKVtPSF0pW0NIMl1bQ0gyXVtDSDJdW0NIMl1bQ0gyXTI=

> <s_epik_cmdline>
J2VwaWtfcHl0aG9uJywgJy1waCcsICc3LjAnLCAnLXRuJywgJzgnLCAnLW1hJywgJzIwMCcsICctbWV0YWxfYmluZGluZycsICctaW1hZScsICc8aW5maWxlLm1hZT4nLCAnLW9tYWUnLCAnPG91dGZpbGUubWFlPic=

> <r_lp_tautomer_probability>
1

> <r_epik_Ionization_Penalty>
0.000789686

> <r_epik_Ionization_Penalty_Charging>
0.000323848

> <r_epik_Ionization_Penalty_Neutral>
0.000465838

> <r_epik_State_Penalty>
-0

> <r_epik_Charging_Adjusted_Penalty>
0.000323848

> <i_epik_Tot_Q>
-1

> <i_epik_Tot_abs_Q>
1

> <r_epik_Metal_State_Penalty>
-0

> <b_epik_Metal_Only>
0

> <s_lp_Force_Field>
OPLS_2005

> <r_lp_Energy>
8.13654

> <b_lp_Chiralities_Consistent>
1

> <s_lp_Variant>
AV-unprocessed.smi:2670-1

> <Gold.Version>
5.8.1

> <Gold.Id.Protein>
6NUR|6NUR_protein|mol2

> <Gold.PLP.Fitness>
50.1645

> <Gold.PLP.PLP>
-40.2143

> <Gold.PLP.part.hbond>
-3.0000

> <Gold.PLP.part.metal>
0.0000

> <Gold.PLP.part.buried>
-3.5438

> <Gold.PLP.part.nonpolar>
-34.9958

> <Gold.PLP.part.repulsive>
0.3473

> <Gold.PLP.ligand.clash>
0.0000

> <Gold.PLP.ligand.torsion>
0.8143

> <Gold.PLP.Chemscore.Hbond>
3.8235

> <Gold.PLP.Chemscore.CHOScore>
0.0000

> <Gold.PLP.Chemscore.Metal>
0.0000

> <Gold.Chemscore.Hbonds>
donor molecule, donor type, donor heavy atom, donor atom, acceptor molecule, acceptor atom, score
      P1  H  7989  7998       L1    13  0.03
      P1  H  7997  8008       L1    13  2.00
      P1  H 10752 10765       L1    14  1.79

> <Gold.PLP.Chemscore.Internal.Correction>
0.1083

> <Gold.Rescore>
     Score         DG    S(hbond)    S(metal)    S(lipo)     H(rot)  DE(clash)    DE(int)     intcor
     12.66     -17.90       1.82        0.00      96.02       1.91       1.37       3.87       ----

> <Gold.Chemscore.Fitness>
12.6607

> <Gold.Chemscore.DG>
-17.9034

> <Gold.Chemscore.ZeroCoef>
-5.4800

> <Gold.Chemscore.Hbond>
1.8238

> <Gold.Chemscore.Metal>
0.0000

> <Gold.Chemscore.Lipo>
96.0187

> <Gold.Chemscore.Internal_Hbond>
0.0000

> <Gold.Chemscore.DEClash>
1.3683

> <Gold.Chemscore.DEInternal>
3.8743

> <Gold.Chemscore.Rot>
1.9149

> <Gold.Chemscore.Internal.Correction>
   9.000000E+99

> <Gold.Chemscore.Hbonds>
donor molecule, donor type, donor heavy atom, donor atom, acceptor molecule, acceptor atom, score
      P1  H  7997  8008       L1    13  0.95
      P1  H 10752 10765       L1    14  0.86

> <Gold.Chemscore.Hbond.Weighted>
-6.0915

> <Gold.Chemscore.Metal.Weighted>
-0.0000

> <Gold.Chemscore.Lipo.Weighted>
-11.2342

> <Gold.Chemscore.Internal_Hbond.Weighted>
0.0000

> <Gold.Chemscore.DEClash.Weighted>
1.3683

> <Gold.Chemscore.DEInternal.Weighted>
3.8743

> <Gold.Chemscore.Rot.Weighted>
4.9023

> <Gold.Chemscore.Internal.Correction.Weighted>
   9.000000E+99

> <Gold.Protein.RotatedTorsions>
[ 6907 6896 6895 6894 ] final   91.24 input  -60.11 | X-H torsion
[ 7974 7965 7964 7962 ] final   58.30 input  175.53 | X-H torsion
[ 8008 7997 7996 7995 ] final  -17.41 input   59.86 | X-H torsion
[ 10167 10162 10161 10158 ] final  -10.28 input  -65.29 | X-H torsion
[ 10718 10713 10712 10709 ] final   85.20 input   66.30 | X-H torsion
[ 10763 10752 10751 10750 ] final  151.92 input  -60.55 | X-H torsion
[ 11005 11000 10999 10996 ] final  -38.29 input  -57.11 | X-H torsion

> <Gold.Protein.ActiveResidues>
 VAL166  LYS551  ARG553  GLY616  TRP617  ASP618  TYR619  PRO620  LYS621  CYS622 
 ASP623  PHE694  ASN695  SER759  ASP760  ASP761  ALA762  ILE779  LEU786  VAL792 
 PHE793  MET794  SER795  GLU796  ALA797  LYS798  CYS799  TRP800  GLU811  SER814 

> <Gold.Protein.RotatedAtoms>
  152.5449  134.1687  159.8587 H   0  0  0  0  0  0  0  0  0  0  0  0  # atno 6907 bound_to 6896
  151.1699  133.4784  159.2601 H   0  0  0  0  0  0  0  0  0  0  0  0  # atno 6908 bound_to 6896
  151.1286  135.0129  159.8627 H   0  0  0  0  0  0  0  0  0  0  0  0  # atno 6909 bound_to 6896
  145.9197  139.3719  143.0486 H   0  0  0  0  0  0  0  0  0  0  0  0  # atno 7974 bound_to 7965
  154.4980  140.2143  155.9406 H   0  0  0  0  0  0  0  0  0  0  0  0  # atno 8008 bound_to 7997
  156.1396  140.3182  155.8443 H   0  0  0  0  0  0  0  0  0  0  0  0  # atno 8009 bound_to 7997
  155.4145  140.0492  157.3020 H   0  0  0  0  0  0  0  0  0  0  0  0  # atno 8010 bound_to 7997
  140.7110  143.5765  150.9037 H   0  0  0  0  0  0  0  0  0  0  0  0  # atno 10167 bound_to 10162
  157.6911  131.0165  150.2786 H   0  0  0  0  0  0  0  0  0  0  0  0  # atno 10718 bound_to 10713
  154.1116  135.2838  155.3229 H   0  0  0  0  0  0  0  0  0  0  0  0  # atno 10763 bound_to 10752
  154.6485  135.5377  153.7877 H   0  0  0  0  0  0  0  0  0  0  0  0  # atno 10764 bound_to 10752
  153.0343  135.6504  154.1275 H   0  0  0  0  0  0  0  0  0  0  0  0  # atno 10765 bound_to 10752
  141.0016  133.6952  156.2033 H   0  0  0  0  0  0  0  0  0  0  0  0  # atno 11005 bound_to 11000
  145.8566  140.9499  143.0722 LP  0  0  0  0  0  0  0  0  0  0  0  0  # atno 17320 bound_to 7965
  144.6751  140.0476  143.7479 LP  0  0  0  0  0  0  0  0  0  0  0  0  # atno 17321 bound_to 7965
  139.9491  143.6293  152.3034 LP  0  0  0  0  0  0  0  0  0  0  0  0  # atno 17342 bound_to 10162
  139.6805  144.7656  151.1617 LP  0  0  0  0  0  0  0  0  0  0  0  0  # atno 17343 bound_to 10162
  156.3337  130.3804  149.7469 LP  0  0  0  0  0  0  0  0  0  0  0  0  # atno 17370 bound_to 10713
  156.5000  130.8124  151.3129 LP  0  0  0  0  0  0  0  0  0  0  0  0  # atno 17371 bound_to 10713
  140.6879  134.4697  157.5589 LP  0  0  0  0  0  0  0  0  0  0  0  0  # atno 17394 bound_to 11000
  139.9042  134.8487  156.1773 LP  0  0  0  0  0  0  0  0  0  0  0  0  # atno 17395 bound_to 11000

$$$$
