AV-unprocessed.smi:402|AV-procd|sdf|2495|dock1
  -GOLD-   2262022443D 1   1.00000     0.00000
 Structure written by MMmdl.
 38 39  0  0  0  0  0  0  0  0  1 V2000
  151.5430  140.4457  154.9117 O   0  0  0  0  0  0  0  0  0  0  0  0
  150.5353  140.1738  155.5633 C   0  0  0  0  0  0  0  0  0  0  0  0
  149.2299  139.8411  154.8188 C   0  0  0  0  0  0  0  0  0  0  0  0
  148.1665  140.8556  154.9406 N   0  0  0  0  0  0  0  0  0  0  0  0
  147.7522  141.4917  153.7534 C   0  0  0  0  0  0  0  0  0  0  0  0
  146.7888  142.4264  153.7473 C   0  0  0  0  0  0  0  0  0  0  0  0
  146.1708  142.7777  155.0039 C   0  0  0  0  0  0  0  0  0  0  0  0
  146.5568  142.1731  156.1449 C   0  0  0  0  0  0  0  0  0  0  0  0
  147.6069  141.1482  156.1557 C   0  0  0  0  0  0  0  0  0  0  0  0
  147.9559  140.5811  157.1911 O   0  0  0  0  0  0  0  0  0  0  0  0
  150.5220  140.1580  156.9055 N   0  0  0  0  0  0  0  0  0  0  0  0
  151.6520  140.4935  157.7607 C   0  0  0  0  0  0  0  0  0  0  0  0
  151.4128  141.8225  158.5024 C   0  0  0  0  0  0  0  0  0  0  0  0
  151.2285  143.0131  157.5335 C   0  0  0  0  0  0  0  0  0  0  0  0
  151.0120  144.3342  158.2890 C   0  0  0  0  0  0  0  0  0  0  0  0
  152.1577  144.6079  159.2748 C   0  0  0  0  0  0  0  0  0  0  0  0
  152.3402  143.4337  160.2479 C   0  0  0  0  0  0  0  0  0  0  0  0
  152.5598  142.1135  159.4914 C   0  0  0  0  0  0  0  0  0  0  0  0
  149.4677  139.6709  153.7672 H   0  0  0  0  0  0  0  0  0  0  0  0
  148.8720  138.8771  155.1830 H   0  0  0  0  0  0  0  0  0  0  0  0
  148.2603  141.1679  152.8566 H   0  0  0  0  0  0  0  0  0  0  0  0
  146.4826  142.9012  152.8268 H   0  0  0  0  0  0  0  0  0  0  0  0
  145.3949  143.5289  155.0290 H   0  0  0  0  0  0  0  0  0  0  0  0
  146.0824  142.4484  157.0755 H   0  0  0  0  0  0  0  0  0  0  0  0
  149.6561  139.9217  157.3680 H   0  0  0  0  0  0  0  0  0  0  0  0
  151.7982  139.6828  158.4759 H   0  0  0  0  0  0  0  0  0  0  0  0
  152.5637  140.5613  157.1643 H   0  0  0  0  0  0  0  0  0  0  0  0
  150.4946  141.7179  159.0831 H   0  0  0  0  0  0  0  0  0  0  0  0
  152.1056  143.1020  156.8908 H   0  0  0  0  0  0  0  0  0  0  0  0
  150.3794  142.8413  156.8710 H   0  0  0  0  0  0  0  0  0  0  0  0
  150.9280  145.1580  157.5796 H   0  0  0  0  0  0  0  0  0  0  0  0
  150.0657  144.2945  158.8298 H   0  0  0  0  0  0  0  0  0  0  0  0
  153.0839  144.7730  158.7228 H   0  0  0  0  0  0  0  0  0  0  0  0
  151.9602  145.5251  159.8302 H   0  0  0  0  0  0  0  0  0  0  0  0
  153.1849  143.6279  160.9095 H   0  0  0  0  0  0  0  0  0  0  0  0
  151.4605  143.3478  160.8869 H   0  0  0  0  0  0  0  0  0  0  0  0
  152.6511  141.2960  160.2075 H   0  0  0  0  0  0  0  0  0  0  0  0
  153.5078  142.1579  158.9534 H   0  0  0  0  0  0  0  0  0  0  0  0
  1  2  2  0  0  0  0
  2  3  1  0  0  0  0
  2 11  1  0  0  0  0
  3  4  1  0  0  0  0
  3 19  1  0  0  0  0
  3 20  1  0  0  0  0
  4  9  1  0  0  0  0
  4  5  1  0  0  0  0
  5  6  2  0  0  0  0
  5 21  1  0  0  0  0
  6  7  1  0  0  0  0
  6 22  1  0  0  0  0
  7  8  2  0  0  0  0
  7 23  1  0  0  0  0
  8  9  1  0  0  0  0
  8 24  1  0  0  0  0
  9 10  2  0  0  0  0
 11 12  1  0  0  0  0
 11 25  1  0  0  0  0
 12 13  1  0  0  0  0
 12 26  1  0  0  0  0
 12 27  1  0  0  0  0
 13 18  1  0  0  0  0
 13 14  1  0  0  0  0
 13 28  1  0  0  0  0
 14 15  1  0  0  0  0
 14 29  1  0  0  0  0
 14 30  1  0  0  0  0
 15 16  1  0  0  0  0
 15 31  1  0  0  0  0
 15 32  1  0  0  0  0
 16 17  1  0  0  0  0
 16 33  1  0  0  0  0
 16 34  1  0  0  0  0
 17 18  1  0  0  0  0
 17 35  1  0  0  0  0
 17 36  1  0  0  0  0
 18 37  1  0  0  0  0
 18 38  1  0  0  0  0
M  END
> <s_m_source_file>
AV-unprocessed.smi

> <i_m_source_file_index>
402

> <i_lp_mmshare_version>
43012

> <i_f3d_flags>
0

> <s_epik_input>
W0NIMl0xW0NIMl1bQ0gyXVtDSDJdW0NIMl1bQ0hdMVtDSDJdW05IXUMoPU8pW0NIMl1uMltjSF1bY0hdW2NIXVtjSF1jMj1P

> <s_epik_cmdline>
J2VwaWtfcHl0aG9uJywgJy1waCcsICc3LjAnLCAnLXRuJywgJzgnLCAnLW1hJywgJzIwMCcsICctbWV0YWxfYmluZGluZycsICctaW1hZScsICc8aW5maWxlLm1hZT4nLCAnLW9tYWUnLCAnPG91dGZpbGUubWFlPic=

> <r_lp_tautomer_probability>
1

> <r_epik_Ionization_Penalty>
3.79717e-07

> <r_epik_Ionization_Penalty_Charging>
3.5992e-07

> <r_epik_Ionization_Penalty_Neutral>
1.97978e-08

> <r_epik_State_Penalty>
-0

> <r_epik_Charging_Adjusted_Penalty>
3.5992e-07

> <i_epik_Tot_Q>
0

> <i_epik_Tot_abs_Q>
0

> <r_epik_Metal_State_Penalty>
-0

> <b_epik_Metal_Only>
0

> <s_lp_Force_Field>
OPLS_2005

> <r_lp_Energy>
19.8269

> <b_lp_Chiralities_Consistent>
1

> <s_lp_Variant>
AV-unprocessed.smi:402-1

> <Gold.Version>
5.8.1

> <Gold.Id.Protein>
6NUR|6NUR_protein|mol2

> <Gold.PLP.Fitness>
44.8343

> <Gold.PLP.PLP>
-39.0960

> <Gold.PLP.part.hbond>
-0.8358

> <Gold.PLP.part.metal>
0.0000

> <Gold.PLP.part.buried>
-5.1081

> <Gold.PLP.part.nonpolar>
-33.0874

> <Gold.PLP.part.repulsive>
0.1169

> <Gold.PLP.ligand.clash>
0.0000

> <Gold.PLP.ligand.torsion>
0.1455

> <Gold.PLP.Chemscore.Hbond>
1.0000

> <Gold.PLP.Chemscore.CHOScore>
1.0000

> <Gold.PLP.Chemscore.Metal>
0.0000

> <Gold.Chemscore.Hbonds>
donor molecule, donor type, donor heavy atom, donor atom, acceptor molecule, acceptor atom, score
      P1  H  7989  7998       L1     1  0.78
      L1  C     5    21       P1  7957  1.00

> <Gold.PLP.Chemscore.Internal.Correction>
0.0292

> <Gold.Rescore>
     Score         DG    S(hbond)    S(metal)    S(lipo)     H(rot)  DE(clash)    DE(int)     intcor
     16.52     -16.82       0.99        0.00     102.98       1.57       0.07       0.23       ----

> <Gold.Chemscore.Fitness>
16.5234

> <Gold.Chemscore.DG>
-16.8172

> <Gold.Chemscore.ZeroCoef>
-5.4800

> <Gold.Chemscore.Hbond>
0.9914

> <Gold.Chemscore.Metal>
0.0000

> <Gold.Chemscore.Lipo>
102.9832

> <Gold.Chemscore.Internal_Hbond>
0.0000

> <Gold.Chemscore.DEClash>
0.0681

> <Gold.Chemscore.DEInternal>
0.2258

> <Gold.Chemscore.Rot>
1.5715

> <Gold.Chemscore.Internal.Correction>
   9.000000E+99

> <Gold.Chemscore.Hbonds>
donor molecule, donor type, donor heavy atom, donor atom, acceptor molecule, acceptor atom, score
      P1  H  7989  7998       L1     1  0.74

> <Gold.Chemscore.Hbond.Weighted>
-3.3113

> <Gold.Chemscore.Metal.Weighted>
-0.0000

> <Gold.Chemscore.Lipo.Weighted>
-12.0490

> <Gold.Chemscore.Internal_Hbond.Weighted>
0.0000

> <Gold.Chemscore.DEClash.Weighted>
0.0681

> <Gold.Chemscore.DEInternal.Weighted>
0.2258

> <Gold.Chemscore.Rot.Weighted>
4.0231

> <Gold.Chemscore.Internal.Correction.Weighted>
   9.000000E+99

> <Gold.Protein.RotatedTorsions>
[ 6907 6896 6895 6894 ] final   92.63 input  -60.11 | X-H torsion
[ 7974 7965 7964 7962 ] final -103.26 input  175.53 | X-H torsion
[ 8008 7997 7996 7995 ] final   88.38 input   59.86 | X-H torsion
[ 10167 10162 10161 10158 ] final -109.89 input  -65.29 | X-H torsion
[ 10718 10713 10712 10709 ] final -105.02 input   66.30 | X-H torsion
[ 10763 10752 10751 10750 ] final  -29.08 input  -60.55 | X-H torsion
[ 11005 11000 10999 10996 ] final -161.92 input  -57.11 | X-H torsion

> <Gold.Protein.ActiveResidues>
 VAL166  LYS551  ARG553  GLY616  TRP617  ASP618  TYR619  PRO620  LYS621  CYS622 
 ASP623  PHE694  ASN695  SER759  ASP760  ASP761  ALA762  ILE779  LEU786  VAL792 
 PHE793  MET794  SER795  GLU796  ALA797  LYS798  CYS799  TRP800  GLU811  SER814 

> <Gold.Protein.RotatedAtoms>
  152.5453  134.1473  159.8503 H   0  0  0  0  0  0  0  0  0  0  0  0  # atno 6907 bound_to 6896
  151.1503  133.4905  159.2603 H   0  0  0  0  0  0  0  0  0  0  0  0  # atno 6908 bound_to 6896
  151.1479  135.0223  159.8710 H   0  0  0  0  0  0  0  0  0  0  0  0  # atno 6909 bound_to 6896
  145.2581  140.9260  143.3056 H   0  0  0  0  0  0  0  0  0  0  0  0  # atno 7974 bound_to 7965
  155.9870  140.3372  155.6717 H   0  0  0  0  0  0  0  0  0  0  0  0  # atno 8008 bound_to 7997
  155.6472  140.0701  157.2617 H   0  0  0  0  0  0  0  0  0  0  0  0  # atno 8009 bound_to 7997
  154.4208  140.1732  156.1623 H   0  0  0  0  0  0  0  0  0  0  0  0  # atno 8010 bound_to 7997
  140.1504  143.4204  152.1499 H   0  0  0  0  0  0  0  0  0  0  0  0  # atno 10167 bound_to 10162
  156.0328  130.5543  150.7479 H   0  0  0  0  0  0  0  0  0  0  0  0  # atno 10718 bound_to 10713
  153.7588  135.6921  153.4930 H   0  0  0  0  0  0  0  0  0  0  0  0  # atno 10763 bound_to 10752
  153.1952  135.4456  155.0198 H   0  0  0  0  0  0  0  0  0  0  0  0  # atno 10764 bound_to 10752
  154.8160  135.3399  154.7105 H   0  0  0  0  0  0  0  0  0  0  0  0  # atno 10765 bound_to 10752
  140.6150  134.4809  157.5219 H   0  0  0  0  0  0  0  0  0  0  0  0  # atno 11005 bound_to 11000
  144.9442  139.4154  143.6434 LP  0  0  0  0  0  0  0  0  0  0  0  0  # atno 17320 bound_to 7965
  146.3283  139.8418  142.8889 LP  0  0  0  0  0  0  0  0  0  0  0  0  # atno 17321 bound_to 7965
  139.5429  144.7272  151.4677 LP  0  0  0  0  0  0  0  0  0  0  0  0  # atno 17342 bound_to 10162
  140.6706  143.8302  150.6995 LP  0  0  0  0  0  0  0  0  0  0  0  0  # atno 17343 bound_to 10162
  157.5031  131.0920  151.0290 LP  0  0  0  0  0  0  0  0  0  0  0  0  # atno 17370 bound_to 10713
  157.0666  130.5847  149.5395 LP  0  0  0  0  0  0  0  0  0  0  0  0  # atno 17371 bound_to 10713
  139.9176  134.8214  156.1314 LP  0  0  0  0  0  0  0  0  0  0  0  0  # atno 17394 bound_to 11000
  141.0781  133.6766  156.2279 LP  0  0  0  0  0  0  0  0  0  0  0  0  # atno 17395 bound_to 11000

$$$$
