#       Name:                AV-unprocessed.smi:35
#       Creating user name   scv26
#       Creation time:       Thu Mar 26 16:04:00 2020


#       File generated by GOLD software.
#

@<TRIPOS>MOLECULE
AV-unprocessed.smi:35
    41    42     1
SMALL
NO_CHARGES


@<TRIPOS>ATOM
      1 ****        -4.1973   2.8042  -1.7718 O.2            1 S1                 0.0000
      2 ****        -3.2958   2.2674  -1.1305 C.2            1 S1                 0.0000
      3 ****        -3.4117   1.9583   0.1934 N.pl3          1 S1                -1.0000
      4 ****        -2.4094   1.3578   0.8999 C.2            1 S1                 0.0000
      5 ****        -2.5087   1.0618   2.0909 O.2            1 S1                 0.0000
      6 ****        -1.1917   1.0407   0.2367 N.am           1 S1                 0.0000
      7 ****        -0.0800   0.3764   1.0302 C.3            1 S1                 0.0000
      8 ****         1.1337   0.5126   0.3490 O.3            1 S1                 0.0000
      9 ****         1.5082  -0.7299  -0.2373 C.3            1 S1                 0.0000
     10 ****         3.0184  -0.7770  -0.5266 C.3            1 S1                 0.0000
     11 ****         3.2971  -0.1440  -1.7575 O.3            1 S1                 0.0000
     12 ****         0.9996  -1.7534   0.7847 C.3            1 S1                 0.0000
     13 ****         1.9036  -1.8903   1.8664 O.3            1 S1                 0.0000
     14 ****        -0.3112  -1.1391   1.2591 C.3            1 S1                 0.0000
     15 ****        -1.3836  -1.6801   0.5070 O.3            1 S1                 0.0000
     16 ****        -1.0440   1.3476  -1.1063 C.2            1 S1                 0.0000
     17 ****        -2.0392   1.9386  -1.7979 C.2            1 S1                 0.0000
     18 ****        -1.6903   2.3168  -3.7116 Br             1 S1                 0.0000
     19 ****        -0.0040   0.9477   1.9568 H              1 S1                 0.0000
     20 ****         0.9467  -0.8736  -1.1621 H              1 S1                 0.0000
     21 ****         3.5922  -0.3125   0.2761 H              1 S1                 0.0000
     22 ****         3.3521  -1.8117  -0.6095 H              1 S1                 0.0000
     23 ****         4.2290  -0.1808  -1.9093 H              1 S1                 0.0000
     24 ****         0.8645  -2.7387   0.3360 H              1 S1                 0.0000
     25 ****         1.5226  -2.4789   2.4999 H              1 S1                 0.0000
     26 ****        -0.5031  -1.3259   2.3165 H              1 S1                 0.0000
     27 ****        -2.1719  -1.2127   0.7405 H              1 S1                 0.0000
     28 ****        -0.1253   1.1189  -1.6236 H              1 S1                 0.0000
     29 ****        -4.0662   3.0116  -2.7412 LP             1 S1                 0.0000
     30 ****        -5.0615   3.0333  -1.3239 LP             1 S1                 0.0000
     31 ****        -4.2650   2.1805   0.6652 LP             1 S1                 0.0000
     32 ****        -3.3541   1.2605   2.5867 LP             1 S1                 0.0000
     33 ****        -1.7440   0.6227   2.5624 LP             1 S1                 0.0000
     34 ****         1.8430   0.8021   0.9918 LP             1 S1                 0.0000
     35 ****         1.0341   1.2007  -0.3697 LP             1 S1                 0.0000
     36 ****         2.9986   0.8097  -1.7215 LP             1 S1                 0.0000
     37 ****         2.8161  -0.6162  -2.4961 LP             1 S1                 0.0000
     38 ****         2.0638  -0.9978   2.2880 LP             1 S1                 0.0000
     39 ****         2.7707  -2.2637   1.5369 LP             1 S1                 0.0000
     40 ****        -1.4902  -2.6515   0.7192 LP             1 S1                 0.0000
     41 ****        -1.2015  -1.5704  -0.4701 LP             1 S1                 0.0000
@<TRIPOS>BOND
    1    1    2 2     
    2    2   17 1     
    3    2    3 1     
    4    3    4 1     
    5    4    5 2     
    6    4    6 am    
    7    6    7 1     
    8    6   16 1     
    9    7   14 1     
   10    7    8 1     
   11    7   19 1     
   12    8    9 1     
   13    9   10 1     
   14    9   12 1     
   15    9   20 1     
   16   10   11 1     
   17   10   21 1     
   18   10   22 1     
   19   11   23 1     
   20   12   13 1     
   21   12   14 1     
   22   12   24 1     
   23   13   25 1     
   24   14   15 1     
   25   14   26 1     
   26   15   27 1     
   27   16   17 2     
   28   16   28 1     
   29   17   18 1     
   30    1   29 1     
   31    1   30 1     
   32    3   31 1     
   33    5   32 1     
   34    5   33 1     
   35    8   34 1     
   36    8   35 1     
   37   11   36 1     
   38   11   37 1     
   39   13   38 1     
   40   13   39 1     
   41   15   40 1     
   42   15   41 1     
@<TRIPOS>SUBSTRUCTURE
      1 S1             1
@<TRIPOS>SET
LONE_PAIRS      STATIC     ATOMS    <user>   **** ""
13 29 30 31 32 33 34 35 36 37 38 39 40 41
DONOR_HYDROGENS      STATIC     ATOMS    <user>   **** ""
3 23 25 27
ATOM$BLUE        STATIC     ATOMS    COLORGROUP SYSTEM
13 29 30 31 32 33 34 35 36 37 38 39 40 41
ATOM$RED        STATIC     ATOMS    COLORGROUP SYSTEM
3 23 25 27
