#       Name:                AV-unprocessed.smi:1809
#       Creating user name   scv26
#       Creation time:       Fri Mar 27 08:57:46 2020


#       File generated by GOLD software.
#

@<TRIPOS>MOLECULE
AV-unprocessed.smi:1809
    46    48     1
SMALL
NO_CHARGES


@<TRIPOS>ATOM
      1 ****        -6.9985   2.8489   1.1140 C.3            1 S1                 0.0000
      2 ****        -5.6393   2.6696   1.6983 C.2            1 S1                 0.0000
      3 ****        -5.4290   2.5415   3.0105 N.2            1 S1                 0.0000
      4 ****        -4.0839   2.3833   3.3113 N.2            1 S1                 0.0000
      5 ****        -3.2984   2.3831   2.2252 C.2            1 S1                 0.0000
      6 ****        -1.9642   2.2455   2.3032 N.pl3          1 S1                -1.0000
      7 ****        -1.3939   1.0411   2.0763 C.2            1 S1                 0.0000
      8 ****        -1.9792   0.0009   1.7660 O.2            1 S1                 0.0000
      9 ****        -0.0604   1.0423   2.2117 N.am           1 S1                 0.0000
     10 ****         0.8156  -0.1071   2.0129 C.3            1 S1                 0.0000
     11 ****         1.0490  -0.3914   0.5195 C.3            1 S1                 0.0000
     12 ****         1.8649  -1.6863   0.2992 C.3            1 S1                 0.0000
     13 ****         2.1282  -1.8216  -1.1449 N.4            1 S1                 1.0000
     14 ****         2.8747  -3.0012  -1.6137 C.3            1 S1                 0.0000
     15 ****         3.4822  -2.5703  -2.9639 C.3            1 S1                 0.0000
     16 ****         3.1828  -1.0654  -3.0966 C.3            1 S1                 0.0000
     17 ****         2.8410  -0.6541  -1.6679 C.3            1 S1                 0.0000
     18 ****         1.9762   0.5955  -1.4574 C.3            1 S1                 0.0000
     19 ****         1.7428   0.7235  -0.0541 O.3            1 S1                 0.0000
     20 ****        -4.1852   2.6037   0.7167 S.3            1 S1                 0.0000
     21 ****        -7.5081   1.8871   1.0565 H              1 S1                 0.0000
     22 ****        -6.9268   3.2690   0.1107 H              1 S1                 0.0000
     23 ****        -7.5902   3.5241   1.7326 H              1 S1                 0.0000
     24 ****         0.3787   1.9143   2.4692 H              1 S1                 0.0000
     25 ****         1.7648   0.0928   2.5107 H              1 S1                 0.0000
     26 ****         0.3867  -0.9817   2.5051 H              1 S1                 0.0000
     27 ****         0.0855  -0.4975   0.0176 H              1 S1                 0.0000
     28 ****         2.8059  -1.6503   0.8503 H              1 S1                 0.0000
     29 ****         1.3099  -2.5552   0.6543 H              1 S1                 0.0000
     30 ****         3.6684  -3.2455  -0.9059 H              1 S1                 0.0000
     31 ****         2.2201  -3.8683  -1.7049 H              1 S1                 0.0000
     32 ****         4.5571  -2.7553  -2.9685 H              1 S1                 0.0000
     33 ****         3.0500  -3.1269  -3.7963 H              1 S1                 0.0000
     34 ****         4.0202  -0.5014  -3.5087 H              1 S1                 0.0000
     35 ****         2.3212  -0.9143  -3.7488 H              1 S1                 0.0000
     36 ****         3.7743  -0.5373  -1.1120 H              1 S1                 0.0000
     37 ****         2.4925   1.4849  -1.8187 H              1 S1                 0.0000
     38 ****         1.0297   0.5244  -1.9957 H              1 S1                 0.0000
     39 ****         1.2328  -1.8431  -1.6124 H              1 S1                 0.0000
     40 ****        -6.1563   2.5577   3.6966 LP             1 S1                 0.0000
     41 ****        -3.7359   2.2800   4.2431 LP             1 S1                 0.0000
     42 ****        -1.3927   3.0344   2.5292 LP             1 S1                 0.0000
     43 ****        -2.9735  -0.0008   1.6601 LP             1 S1                 0.0000
     44 ****        -1.4594  -0.8409   1.6202 LP             1 S1                 0.0000
     45 ****         2.6261   0.8158   0.4055 LP             1 S1                 0.0000
     46 ****         1.1984   1.5478   0.1013 LP             1 S1                 0.0000
@<TRIPOS>BOND
    1    1    2 1     
    2    1   21 1     
    3    1   22 1     
    4    1   23 1     
    5    2   20 1     
    6    2    3 2     
    7    3    4 1     
    8    4    5 2     
    9    5    6 1     
   10    5   20 1     
   11    6    7 1     
   12    7    8 2     
   13    7    9 am    
   14    9   10 1     
   15    9   24 1     
   16   10   11 1     
   17   10   25 1     
   18   10   26 1     
   19   11   19 1     
   20   11   12 1     
   21   11   27 1     
   22   12   13 1     
   23   12   28 1     
   24   12   29 1     
   25   13   17 1     
   26   13   14 1     
   27   13   39 1     
   28   14   15 1     
   29   14   30 1     
   30   14   31 1     
   31   15   16 1     
   32   15   32 1     
   33   15   33 1     
   34   16   17 1     
   35   16   34 1     
   36   16   35 1     
   37   17   18 1     
   38   17   36 1     
   39   18   19 1     
   40   18   37 1     
   41   18   38 1     
   42    3   40 1     
   43    4   41 1     
   44    6   42 1     
   45    8   43 1     
   46    8   44 1     
   47   19   45 1     
   48   19   46 1     
@<TRIPOS>SUBSTRUCTURE
      1 S1             1
@<TRIPOS>SET
LONE_PAIRS      STATIC     ATOMS    <user>   **** ""
7 40 41 42 43 44 45 46
DONOR_HYDROGENS      STATIC     ATOMS    <user>   **** ""
2 24 39
ATOM$BLUE        STATIC     ATOMS    COLORGROUP SYSTEM
7 40 41 42 43 44 45 46
ATOM$RED        STATIC     ATOMS    COLORGROUP SYSTEM
2 24 39
