AV-unprocessed.smi:2032|AV-procd|sdf|8236|dock7
  -GOLD-   2272010503D 1   1.00000     0.00000
 Structure written by MMmdl.
 42 43  0  0  0  0  0  0  0  0  1 V2000
  148.7146  140.0618  154.9310 C   0  0  0  0  0  0  0  0  0  0  0  0
  149.8129  139.2003  155.5630 C   0  0  1  0  0  0  0  0  0  0  0  0
  149.7154  137.7286  155.1247 C   0  0  0  0  0  0  0  0  0  0  0  0
  150.8052  136.9100  155.6596 N   0  0  0  0  0  0  0  0  0  0  0  0
  150.6914  135.4870  155.2706 C   0  0  1  0  0  0  0  0  0  0  0  0
  151.6088  134.5492  156.0876 C   0  0  0  0  0  0  0  0  0  0  0  0
  149.2438  134.9311  155.3297 C   0  0  0  0  0  0  0  0  0  0  0  0
  148.5771  134.9740  154.0296 N   0  0  0  0  0  0  0  0  0  0  0  0
  147.4400  134.3394  153.7115 C   0  0  0  0  0  0  0  0  0  0  0  0
  146.8272  133.6082  154.4902 O   0  0  0  0  0  0  0  0  0  0  0  0
  147.0691  134.6153  152.4490 N   0  0  0  0  0  0  0  0  0  0  0  0
  145.9217  134.1561  151.7507 C   0  0  0  0  0  0  0  0  0  0  0  0
  145.9506  133.6028  150.5327 N   0  0  0  0  0  0  0  0  0  0  0  0
  144.6751  133.2440  150.0894 C   0  0  0  0  0  0  0  0  0  0  0  0
  143.6796  133.5327  150.9893 C   0  0  0  0  0  0  0  0  0  0  0  0
  144.3081  134.2717  152.4382 S   0  0  0  0  0  0  0  0  0  0  0  0
  152.0739  137.5097  155.2369 C   0  0  0  0  0  0  0  0  0  0  0  0
  152.2065  138.9963  155.6238 C   0  0  2  0  0  0  0  0  0  0  0  0
  152.4636  139.2143  157.1247 C   0  0  0  0  0  0  0  0  0  0  0  0
  151.0732  139.7323  155.1669 O   0  0  0  0  0  0  0  0  0  0  0  0
  147.7239  139.6991  155.2058 H   0  0  0  0  0  0  0  0  0  0  0  0
  148.7845  140.0541  153.8429 H   0  0  0  0  0  0  0  0  0  0  0  0
  148.7929  141.0973  155.2629 H   0  0  0  0  0  0  0  0  0  0  0  0
  149.7156  139.2636  156.6472 H   0  0  0  0  0  0  0  0  0  0  0  0
  148.7520  137.3530  155.4650 H   0  0  0  0  0  0  0  0  0  0  0  0
  149.7097  137.6688  154.0351 H   0  0  0  0  0  0  0  0  0  0  0  0
  151.0103  135.3972  154.2310 H   0  0  0  0  0  0  0  0  0  0  0  0
  151.4050  133.5019  155.8626 H   0  0  0  0  0  0  0  0  0  0  0  0
  151.4709  134.6876  157.1604 H   0  0  0  0  0  0  0  0  0  0  0  0
  152.6627  134.7069  155.8612 H   0  0  0  0  0  0  0  0  0  0  0  0
  149.2403  133.8987  155.6775 H   0  0  0  0  0  0  0  0  0  0  0  0
  148.6633  135.4695  156.0808 H   0  0  0  0  0  0  0  0  0  0  0  0
  149.0046  135.5585  153.3262 H   0  0  0  0  0  0  0  0  0  0  0  0
  147.6740  135.2334  151.9288 H   0  0  0  0  0  0  0  0  0  0  0  0
  144.5671  132.7870  149.1167 H   0  0  0  0  0  0  0  0  0  0  0  0
  142.6191  133.3562  150.8877 H   0  0  0  0  0  0  0  0  0  0  0  0
  152.9179  136.9770  155.6726 H   0  0  0  0  0  0  0  0  0  0  0  0
  152.1737  137.4162  154.1545 H   0  0  0  0  0  0  0  0  0  0  0  0
  153.0673  139.4037  155.0929 H   0  0  0  0  0  0  0  0  0  0  0  0
  153.3987  138.7437  157.4294 H   0  0  0  0  0  0  0  0  0  0  0  0
  151.6716  138.7922  157.7430 H   0  0  0  0  0  0  0  0  0  0  0  0
  152.5387  140.2769  157.3558 H   0  0  0  0  0  0  0  0  0  0  0  0
  1  2  1  0  0  0  0
  1 21  1  0  0  0  0
  1 22  1  0  0  0  0
  1 23  1  0  0  0  0
  2 20  1  0  0  0  0
  2  3  1  0  0  0  0
  2 24  1  0  0  0  0
  3  4  1  0  0  0  0
  3 25  1  0  0  0  0
  3 26  1  0  0  0  0
  4  5  1  0  0  0  0
  4 17  1  0  0  0  0
  5  6  1  0  0  0  0
  5  7  1  0  0  0  0
  5 27  1  0  0  0  0
  6 28  1  0  0  0  0
  6 29  1  0  0  0  0
  6 30  1  0  0  0  0
  7  8  1  0  0  0  0
  7 31  1  0  0  0  0
  7 32  1  0  0  0  0
  8  9  1  0  0  0  0
  8 33  1  0  0  0  0
  9 10  2  0  0  0  0
  9 11  1  0  0  0  0
 11 12  1  0  0  0  0
 11 34  1  0  0  0  0
 12 16  1  0  0  0  0
 12 13  2  0  0  0  0
 13 14  1  0  0  0  0
 14 15  2  0  0  0  0
 14 35  1  0  0  0  0
 15 16  1  0  0  0  0
 15 36  1  0  0  0  0
 17 18  1  0  0  0  0
 17 37  1  0  0  0  0
 17 38  1  0  0  0  0
 18 19  1  0  0  0  0
 18 20  1  0  0  0  0
 18 39  1  0  0  0  0
 19 40  1  0  0  0  0
 19 41  1  0  0  0  0
 19 42  1  0  0  0  0
M  END
> <s_m_source_file>
AV-unprocessed.smi

> <i_m_source_file_index>
2032

> <i_lp_mmshare_version>
43012

> <i_f3d_flags>
0

> <s_epik_input>
W0NIM11bQ0BASF0xW0NIMl1OKFtDSDJdW0NASF0oTzEpW0NIM10pW0NASF0oW0NIM10pW0NIMl1bTkhdQyg9TylbTkhdYzJuW2NIXVtjSF1zMg==

> <s_epik_cmdline>
J2VwaWtfcHl0aG9uJywgJy1waCcsICc3LjAnLCAnLXRuJywgJzgnLCAnLW1hJywgJzIwMCcsICctbWV0YWxfYmluZGluZycsICctaW1hZScsICc8aW5maWxlLm1hZT4nLCAnLW9tYWUnLCAnPG91dGZpbGUubWFlPic=

> <r_lp_tautomer_probability>
0.999

> <r_epik_Ionization_Penalty>
0.219202

> <r_epik_Ionization_Penalty_Charging>
0

> <r_epik_Ionization_Penalty_Neutral>
0.219202

> <r_epik_State_Penalty>
0.209349

> <r_epik_Charging_Adjusted_Penalty>
0.209349

> <i_epik_Tot_Q>
0

> <i_epik_Tot_abs_Q>
0

> <r_epik_Metal_State_Penalty>
0.247737

> <b_epik_Metal_Only>
0

> <s_lp_Force_Field>
OPLS_2005

> <r_lp_Energy>
32.3781

> <b_lp_Chiralities_Consistent>
1

> <s_lp_Variant>
AV-unprocessed.smi:2032-6

> <Gold.Version>
5.8.1

> <Gold.Id.Protein>
6NUR|6NUR_protein|mol2

> <Gold.PLP.Fitness>
39.2997

> <Gold.PLP.PLP>
-29.9196

> <Gold.PLP.part.hbond>
-3.0000

> <Gold.PLP.part.metal>
0.0000

> <Gold.PLP.part.buried>
-2.5836

> <Gold.PLP.part.nonpolar>
-24.0817

> <Gold.PLP.part.repulsive>
0.4186

> <Gold.PLP.ligand.clash>
0.0000

> <Gold.PLP.ligand.torsion>
1.3068

> <Gold.PLP.Chemscore.Hbond>
2.9920

> <Gold.PLP.Chemscore.CHOScore>
0.9915

> <Gold.PLP.Chemscore.Metal>
0.0000

> <Gold.Chemscore.Hbonds>
donor molecule, donor type, donor heavy atom, donor atom, acceptor molecule, acceptor atom, score
      L1  H     8    33       P1  7948  1.00
      L1  H    11    34       P1  7948  1.00
      P1  H  7989  7998       L1    20  0.84
      L1  C    15    36       P1 10186  1.00

> <Gold.PLP.Chemscore.Internal.Correction>
0.0430

> <Gold.Rescore>
     Score         DG    S(hbond)    S(metal)    S(lipo)     H(rot)  DE(clash)    DE(int)     intcor
     17.94     -18.99       2.83        0.00      69.21       1.57       0.04       1.00       ----

> <Gold.Chemscore.Fitness>
17.9426

> <Gold.Chemscore.DG>
-18.9857

> <Gold.Chemscore.ZeroCoef>
-5.4800

> <Gold.Chemscore.Hbond>
2.8264

> <Gold.Chemscore.Metal>
0.0000

> <Gold.Chemscore.Lipo>
69.2104

> <Gold.Chemscore.Internal_Hbond>
0.0000

> <Gold.Chemscore.DEClash>
0.0383

> <Gold.Chemscore.DEInternal>
1.0049

> <Gold.Chemscore.Rot>
1.5750

> <Gold.Chemscore.Internal.Correction>
   9.000000E+99

> <Gold.Chemscore.Hbonds>
donor molecule, donor type, donor heavy atom, donor atom, acceptor molecule, acceptor atom, score
      L1  H     8    33       P1  7948  0.65
      L1  H    11    34       P1  7948  0.87
      P1  H  7989  7998       L1    20  0.54

> <Gold.Chemscore.Hbond.Weighted>
-9.4400

> <Gold.Chemscore.Metal.Weighted>
-0.0000

> <Gold.Chemscore.Lipo.Weighted>
-8.0976

> <Gold.Chemscore.Internal_Hbond.Weighted>
0.0000

> <Gold.Chemscore.DEClash.Weighted>
0.0383

> <Gold.Chemscore.DEInternal.Weighted>
1.0049

> <Gold.Chemscore.Rot.Weighted>
4.0319

> <Gold.Chemscore.Internal.Correction.Weighted>
   9.000000E+99

> <Gold.Protein.RotatedTorsions>
[ 6907 6896 6895 6894 ] final  -57.85 input  -60.11 | X-H torsion
[ 7974 7965 7964 7962 ] final -104.23 input  175.53 | X-H torsion
[ 8008 7997 7996 7995 ] final   57.34 input   59.86 | X-H torsion
[ 10167 10162 10161 10158 ] final -144.64 input  -65.29 | X-H torsion
[ 10718 10713 10712 10709 ] final  115.35 input   66.30 | X-H torsion
[ 10763 10752 10751 10750 ] final   15.29 input  -60.55 | X-H torsion
[ 11005 11000 10999 10996 ] final -140.47 input  -57.11 | X-H torsion

> <Gold.Protein.ActiveResidues>
 VAL166  LYS551  ARG553  GLY616  TRP617  ASP618  TYR619  PRO620  LYS621  CYS622 
 ASP623  PHE694  ASN695  SER759  ASP760  ASP761  ALA762  ILE779  LEU786  VAL792 
 PHE793  MET794  SER795  GLU796  ALA797  LYS798  CYS799  TRP800  GLU811  SER814 

> <Gold.Protein.RotatedAtoms>
  150.8053  134.7174  159.6637 H   0  0  0  0  0  0  0  0  0  0  0  0  # atno 6907 bound_to 6896
  152.4172  134.6017  160.0011 H   0  0  0  0  0  0  0  0  0  0  0  0  # atno 6908 bound_to 6896
  151.6243  133.3299  159.3131 H   0  0  0  0  0  0  0  0  0  0  0  0  # atno 6909 bound_to 6896
  145.2457  140.9221  143.3124 H   0  0  0  0  0  0  0  0  0  0  0  0  # atno 7974 bound_to 7965
  155.5322  140.3482  155.4429 H   0  0  0  0  0  0  0  0  0  0  0  0  # atno 8008 bound_to 7997
  156.0710  140.1363  156.9855 H   0  0  0  0  0  0  0  0  0  0  0  0  # atno 8009 bound_to 7997
  154.4528  140.0965  156.6644 H   0  0  0  0  0  0  0  0  0  0  0  0  # atno 8010 bound_to 7997
  139.7880  143.8007  152.2647 H   0  0  0  0  0  0  0  0  0  0  0  0  # atno 10167 bound_to 10162
  157.6227  131.1011  150.7317 H   0  0  0  0  0  0  0  0  0  0  0  0  # atno 10718 bound_to 10713
  153.1539  135.6783  153.8841 H   0  0  0  0  0  0  0  0  0  0  0  0  # atno 10763 bound_to 10752
  153.8258  135.3124  155.3415 H   0  0  0  0  0  0  0  0  0  0  0  0  # atno 10764 bound_to 10752
  154.7883  135.4849  154.0082 H   0  0  0  0  0  0  0  0  0  0  0  0  # atno 10765 bound_to 10752
  140.8419  134.2391  157.4805 H   0  0  0  0  0  0  0  0  0  0  0  0  # atno 11005 bound_to 11000
  144.9548  139.4043  143.6385 LP  0  0  0  0  0  0  0  0  0  0  0  0  # atno 17320 bound_to 7965
  146.3316  139.8573  142.8862 LP  0  0  0  0  0  0  0  0  0  0  0  0  # atno 17321 bound_to 7965
  139.8089  144.7344  150.9724 LP  0  0  0  0  0  0  0  0  0  0  0  0  # atno 17342 bound_to 10162
  140.7820  143.4270  151.0753 LP  0  0  0  0  0  0  0  0  0  0  0  0  # atno 17343 bound_to 10162
  156.7671  130.4817  149.5425 LP  0  0  0  0  0  0  0  0  0  0  0  0  # atno 17370 bound_to 10713
  156.1381  130.6225  151.0429 LP  0  0  0  0  0  0  0  0  0  0  0  0  # atno 17371 bound_to 10713
  139.8703  134.9640  156.4479 LP  0  0  0  0  0  0  0  0  0  0  0  0  # atno 17394 bound_to 11000
  140.8886  133.7865  155.9546 LP  0  0  0  0  0  0  0  0  0  0  0  0  # atno 17395 bound_to 11000

$$$$
