AV-unprocessed.smi:910|AV-procd|sdf|4118|dock4
  -GOLD-   22720 2 13D 1   1.00000     0.00000
 Structure written by MMmdl.
 46 47  0  0  0  0  0  0  0  0  1 V2000
  146.9452  133.8311  161.8599 C   0  0  0  0  0  0  0  0  0  0  0  0
  147.0583  135.1806  161.2233 C   0  0  0  0  0  0  0  0  0  0  0  0
  148.0462  135.4740  160.2945 N   0  0  0  0  0  0  0  0  0  0  0  0
  147.8267  136.7473  159.9620 C   0  0  0  0  0  0  0  0  0  0  0  0
  148.5598  137.5108  159.0193 N   0  0  0  0  0  0  0  0  0  0  0  0
  149.8941  137.5596  158.8762 C   0  0  0  0  0  0  0  0  0  0  0  0
  150.7068  137.0509  159.6492 O   0  0  0  0  0  0  0  0  0  0  0  0
  150.2425  138.2294  157.7675 N   0  0  0  0  0  0  0  0  0  0  0  0
  151.6051  138.3540  157.2591 C   0  0  0  0  0  0  0  0  0  0  0  0
  152.5160  139.0559  158.2783 C   0  0  0  0  0  0  0  0  0  0  0  0
  152.2451  140.4488  158.2477 O   0  0  0  0  0  0  0  0  0  0  0  0
  151.3910  140.9306  159.2771 C   0  0  2  0  0  0  0  0  0  0  0  0
  150.2733  141.8165  158.6830 C   0  0  0  0  0  0  0  0  0  0  0  0
  150.8390  143.0851  158.0221 C   0  0  0  0  0  0  0  0  0  0  0  0
  151.7130  143.8831  159.0010 C   0  0  0  0  0  0  0  0  0  0  0  0
  152.8258  143.0083  159.6001 C   0  0  0  0  0  0  0  0  0  0  0  0
  152.2532  141.7420  160.2701 C   0  0  2  0  0  0  0  0  0  0  0  0
  153.3575  140.8859  160.9096 C   0  0  0  0  0  0  0  0  0  0  0  0
  146.7661  137.3078  160.6015 O   0  0  0  0  0  0  0  0  0  0  0  0
  146.2905  136.3038  161.4025 C   0  0  0  0  0  0  0  0  0  0  0  0
  145.1052  136.6007  162.2570 C   0  0  0  0  0  0  0  0  0  0  0  0
  145.9247  133.6313  162.1878 H   0  0  0  0  0  0  0  0  0  0  0  0
  147.5947  133.7543  162.7320 H   0  0  0  0  0  0  0  0  0  0  0  0
  147.2278  133.0399  161.1648 H   0  0  0  0  0  0  0  0  0  0  0  0
  148.0086  138.0194  158.3443 H   0  0  0  0  0  0  0  0  0  0  0  0
  149.5083  138.6259  157.1995 H   0  0  0  0  0  0  0  0  0  0  0  0
  151.9807  137.3487  157.0678 H   0  0  0  0  0  0  0  0  0  0  0  0
  151.6195  138.8777  156.3018 H   0  0  0  0  0  0  0  0  0  0  0  0
  152.3536  138.6347  159.2704 H   0  0  0  0  0  0  0  0  0  0  0  0
  153.5629  138.8890  158.0222 H   0  0  0  0  0  0  0  0  0  0  0  0
  150.9472  140.0863  159.8076 H   0  0  0  0  0  0  0  0  0  0  0  0
  149.6727  141.2612  157.9637 H   0  0  0  0  0  0  0  0  0  0  0  0
  149.5876  142.1061  159.4802 H   0  0  0  0  0  0  0  0  0  0  0  0
  151.4282  142.8126  157.1465 H   0  0  0  0  0  0  0  0  0  0  0  0
  150.0233  143.7109  157.6596 H   0  0  0  0  0  0  0  0  0  0  0  0
  152.1498  144.7429  158.4920 H   0  0  0  0  0  0  0  0  0  0  0  0
  151.0908  144.2813  159.8033 H   0  0  0  0  0  0  0  0  0  0  0  0
  153.5301  142.7281  158.8155 H   0  0  0  0  0  0  0  0  0  0  0  0
  153.3934  143.5908  160.3267 H   0  0  0  0  0  0  0  0  0  0  0  0
  151.5985  142.0684  161.0796 H   0  0  0  0  0  0  0  0  0  0  0  0
  154.0710  140.5323  160.1646 H   0  0  0  0  0  0  0  0  0  0  0  0
  152.9374  140.0126  161.4092 H   0  0  0  0  0  0  0  0  0  0  0  0
  153.9128  141.4562  161.6547 H   0  0  0  0  0  0  0  0  0  0  0  0
  145.1562  136.0506  163.1968 H   0  0  0  0  0  0  0  0  0  0  0  0
  144.1836  136.3174  161.7486 H   0  0  0  0  0  0  0  0  0  0  0  0
  145.0499  137.6639  162.4920 H   0  0  0  0  0  0  0  0  0  0  0  0
  1  2  1  0  0  0  0
  1 22  1  0  0  0  0
  1 23  1  0  0  0  0
  1 24  1  0  0  0  0
  2 20  2  0  0  0  0
  2  3  1  0  0  0  0
  3  4  2  0  0  0  0
  4  5  1  0  0  0  0
  4 19  1  0  0  0  0
  5  6  1  0  0  0  0
  5 25  1  0  0  0  0
  6  7  2  0  0  0  0
  6  8  1  0  0  0  0
  8  9  1  0  0  0  0
  8 26  1  0  0  0  0
  9 10  1  0  0  0  0
  9 27  1  0  0  0  0
  9 28  1  0  0  0  0
 10 11  1  0  0  0  0
 10 29  1  0  0  0  0
 10 30  1  0  0  0  0
 11 12  1  0  0  0  0
 12 17  1  0  0  0  0
 12 13  1  0  0  0  0
 12 31  1  0  0  0  0
 13 14  1  0  0  0  0
 13 32  1  0  0  0  0
 13 33  1  0  0  0  0
 14 15  1  0  0  0  0
 14 34  1  0  0  0  0
 14 35  1  0  0  0  0
 15 16  1  0  0  0  0
 15 36  1  0  0  0  0
 15 37  1  0  0  0  0
 16 17  1  0  0  0  0
 16 38  1  0  0  0  0
 16 39  1  0  0  0  0
 17 18  1  0  0  0  0
 17 40  1  0  0  0  0
 18 41  1  0  0  0  0
 18 42  1  0  0  0  0
 18 43  1  0  0  0  0
 19 20  1  0  0  0  0
 20 21  1  0  0  0  0
 21 44  1  0  0  0  0
 21 45  1  0  0  0  0
 21 46  1  0  0  0  0
M  END
> <s_m_source_file>
AV-unprocessed.smi

> <i_m_source_file_index>
910

> <i_lp_mmshare_version>
43012

> <i_f3d_flags>
0

> <s_epik_input>
W0NIM11jMW5jKG9jMVtDSDNdKVtOSF1DKD1PKVtOSF1bQ0gyXVtDSDJdT1tDQEBIXTJbQ0gyXVtDSDJdW0NIMl1bQ0gyXVtDQEhdMltDSDNd

> <s_epik_cmdline>
J2VwaWtfcHl0aG9uJywgJy1waCcsICc3LjAnLCAnLXRuJywgJzgnLCAnLW1hJywgJzIwMCcsICctbWV0YWxfYmluZGluZycsICctaW1hZScsICc8aW5maWxlLm1hZT4nLCAnLW9tYWUnLCAnPG91dGZpbGUubWFlPic=

> <r_lp_tautomer_probability>
0.785861

> <r_epik_Ionization_Penalty>
4.15957e-05

> <r_epik_Ionization_Penalty_Charging>
0

> <r_epik_Ionization_Penalty_Neutral>
4.15957e-05

> <r_epik_State_Penalty>
0.0240523

> <r_epik_Charging_Adjusted_Penalty>
0.0240523

> <i_epik_Tot_Q>
0

> <i_epik_Tot_abs_Q>
0

> <r_epik_Metal_State_Penalty>
0.057053

> <b_epik_Metal_Only>
0

> <s_lp_Force_Field>
OPLS_2005

> <r_lp_Energy>
8.47643

> <b_lp_Chiralities_Consistent>
1

> <s_lp_Variant>
AV-unprocessed.smi:910-3

> <Gold.Version>
5.8.1

> <Gold.Id.Protein>
6NUR|6NUR_protein|mol2

> <Gold.PLP.Fitness>
43.3376

> <Gold.PLP.PLP>
-40.0490

> <Gold.PLP.part.hbond>
-3.5227

> <Gold.PLP.part.metal>
0.0000

> <Gold.PLP.part.buried>
-4.2424

> <Gold.PLP.part.nonpolar>
-33.2828

> <Gold.PLP.part.repulsive>
0.2528

> <Gold.PLP.ligand.clash>
0.0000

> <Gold.PLP.ligand.torsion>
1.3744

> <Gold.PLP.Chemscore.Hbond>
2.0000

> <Gold.PLP.Chemscore.CHOScore>
0.0000

> <Gold.PLP.Chemscore.Metal>
0.0000

> <Gold.Chemscore.Hbonds>
donor molecule, donor type, donor heavy atom, donor atom, acceptor molecule, acceptor atom, score
      P1  H  6896  6909       L1     7  1.00
      P1  H  6934  6947       L1    19  1.00

> <Gold.PLP.Chemscore.Internal.Correction>
0.0375

> <Gold.Rescore>
     Score         DG    S(hbond)    S(metal)    S(lipo)     H(rot)  DE(clash)    DE(int)     intcor
     19.22     -20.42       1.98        0.00     107.60       1.66       0.04       1.17       ----

> <Gold.Chemscore.Fitness>
19.2201

> <Gold.Chemscore.DG>
-20.4235

> <Gold.Chemscore.ZeroCoef>
-5.4800

> <Gold.Chemscore.Hbond>
1.9755

> <Gold.Chemscore.Metal>
0.0000

> <Gold.Chemscore.Lipo>
107.5963

> <Gold.Chemscore.Internal_Hbond>
0.0000

> <Gold.Chemscore.DEClash>
0.0358

> <Gold.Chemscore.DEInternal>
1.1676

> <Gold.Chemscore.Rot>
1.6576

> <Gold.Chemscore.Internal.Correction>
   9.000000E+99

> <Gold.Chemscore.Hbonds>
donor molecule, donor type, donor heavy atom, donor atom, acceptor molecule, acceptor atom, score
      P1  H  6896  6909       L1     7  0.94
      P1  H  6934  6947       L1    19  0.65

> <Gold.Chemscore.Hbond.Weighted>
-6.5983

> <Gold.Chemscore.Metal.Weighted>
-0.0000

> <Gold.Chemscore.Lipo.Weighted>
-12.5888

> <Gold.Chemscore.Internal_Hbond.Weighted>
0.0000

> <Gold.Chemscore.DEClash.Weighted>
0.0358

> <Gold.Chemscore.DEInternal.Weighted>
1.1676

> <Gold.Chemscore.Rot.Weighted>
4.2436

> <Gold.Chemscore.Internal.Correction.Weighted>
   9.000000E+99

> <Gold.Protein.RotatedTorsions>
[ 6907 6896 6895 6894 ] final  107.31 input  -60.11 | X-H torsion
[ 7974 7965 7964 7962 ] final   52.93 input  175.53 | X-H torsion
[ 8008 7997 7996 7995 ] final -129.70 input   59.86 | X-H torsion
[ 10167 10162 10161 10158 ] final -149.55 input  -65.29 | X-H torsion
[ 10718 10713 10712 10709 ] final    0.62 input   66.30 | X-H torsion
[ 10763 10752 10751 10750 ] final  155.92 input  -60.55 | X-H torsion
[ 11005 11000 10999 10996 ] final  -42.62 input  -57.11 | X-H torsion

> <Gold.Protein.ActiveResidues>
 VAL166  LYS551  ARG553  GLY616  TRP617  ASP618  TYR619  PRO620  LYS621  CYS622 
 ASP623  PHE694  ASN695  SER759  ASP760  ASP761  ALA762  ILE779  LEU786  VAL792 
 PHE793  MET794  SER795  GLU796  ALA797  LYS798  CYS799  TRP800  GLU811  SER814 

> <Gold.Protein.RotatedAtoms>
  152.5159  133.9253  159.7553 H   0  0  0  0  0  0  0  0  0  0  0  0  # atno 6907 bound_to 6896
  150.9615  133.6431  159.2760 H   0  0  0  0  0  0  0  0  0  0  0  0  # atno 6908 bound_to 6896
  151.3674  135.0921  159.9507 H   0  0  0  0  0  0  0  0  0  0  0  0  # atno 6909 bound_to 6896
  145.9764  139.4199  143.0159 H   0  0  0  0  0  0  0  0  0  0  0  0  # atno 7974 bound_to 7965
  155.2836  140.0445  157.3017 H   0  0  0  0  0  0  0  0  0  0  0  0  # atno 8008 bound_to 7997
  154.5582  140.2338  155.8344 H   0  0  0  0  0  0  0  0  0  0  0  0  # atno 8009 bound_to 7997
  156.2025  140.3021  155.9565 H   0  0  0  0  0  0  0  0  0  0  0  0  # atno 8010 bound_to 7997
  139.7433  143.8629  152.2568 H   0  0  0  0  0  0  0  0  0  0  0  0  # atno 10167 bound_to 10162
  156.8360  130.5505  149.5682 H   0  0  0  0  0  0  0  0  0  0  0  0  # atno 10718 bound_to 10713
  154.1760  135.2802  155.3066 H   0  0  0  0  0  0  0  0  0  0  0  0  # atno 10763 bound_to 10752
  154.6039  135.5521  153.7406 H   0  0  0  0  0  0  0  0  0  0  0  0  # atno 10764 bound_to 10752
  153.0151  135.6398  154.1900 H   0  0  0  0  0  0  0  0  0  0  0  0  # atno 10765 bound_to 10752
  141.0328  133.6812  156.2620 H   0  0  0  0  0  0  0  0  0  0  0  0  # atno 11005 bound_to 11000
  145.7833  140.9847  143.1087 LP  0  0  0  0  0  0  0  0  0  0  0  0  # atno 17320 bound_to 7965
  144.6850  139.9591  143.7480 LP  0  0  0  0  0  0  0  0  0  0  0  0  # atno 17321 bound_to 7965
  139.8586  144.7128  150.9127 LP  0  0  0  0  0  0  0  0  0  0  0  0  # atno 17342 bound_to 10162
  140.7789  143.3837  151.1431 LP  0  0  0  0  0  0  0  0  0  0  0  0  # atno 17343 bound_to 10162
  156.0907  130.5893  150.9727 LP  0  0  0  0  0  0  0  0  0  0  0  0  # atno 17370 bound_to 10713
  157.6381  131.0913  150.8307 LP  0  0  0  0  0  0  0  0  0  0  0  0  # atno 17371 bound_to 10713
  140.6376  134.5199  157.5566 LP  0  0  0  0  0  0  0  0  0  0  0  0  # atno 17394 bound_to 11000
  139.9220  134.8131  156.1183 LP  0  0  0  0  0  0  0  0  0  0  0  0  # atno 17395 bound_to 11000

$$$$
