AV-unprocessed.smi:1111|AV-procd|sdf|4795|dock10
  -GOLD-   22720 3343D 1   1.00000     0.00000
 Structure written by MMmdl.
 33 34  0  0  0  0  0  0  0  0  2 V2000
  148.2546  130.8612  155.2079 C   0  0  0  0  0  0  0  0  0  0  0  0
  147.7146  130.1893  153.9274 C   0  0  2  0  0  0  0  0  0  0  0  0
  147.5921  131.1709  152.8405 N   0  0  0  0  0  0  0  0  0  0  0  0
  146.9263  132.3393  152.8436 C   0  0  0  0  0  0  0  0  0  0  0  0
  146.2731  132.7585  153.7980 O   0  0  0  0  0  0  0  0  0  0  0  0
  147.0098  133.1688  151.5623 C   0  0  0  0  0  0  0  0  0  0  0  0
  145.8666  132.9080  150.6829 N   0  0  0  0  0  0  0  0  0  0  0  0
  145.6937  131.8421  149.8370 C   0  0  0  0  0  0  0  0  0  0  0  0
  144.4812  132.0235  149.2225 C   0  0  0  0  0  0  0  0  0  0  0  0
  143.9648  133.1901  149.7200 N   0  3  0  0  0  0  0  0  0  0  0  0
  144.8090  133.7272  150.6068 C   0  0  0  0  0  0  0  0  0  0  0  0
  146.3007  129.6169  154.1888 C   0  0  0  0  0  0  0  0  0  0  0  0
  145.9254  128.6303  153.0754 C   0  0  0  0  0  0  0  0  0  0  0  0
  147.4987  127.8639  152.5403 S   0  0  0  0  0  0  0  0  0  0  0  0
  147.6027  126.5062  153.0955 O   0  0  0  0  0  0  0  0  0  0  0  0
  147.6813  128.1120  151.1021 O   0  0  0  0  0  0  0  0  0  0  0  0
  148.5876  128.9888  153.4946 C   0  0  0  0  0  0  0  0  0  0  0  0
  148.2526  130.1673  156.0489 H   0  0  0  0  0  0  0  0  0  0  0  0
  147.6447  131.7194  155.4918 H   0  0  0  0  0  0  0  0  0  0  0  0
  149.2806  131.2082  155.0874 H   0  0  0  0  0  0  0  0  0  0  0  0
  148.0914  130.9392  151.9940 H   0  0  0  0  0  0  0  0  0  0  0  0
  147.0280  134.2337  151.8001 H   0  0  0  0  0  0  0  0  0  0  0  0
  147.9269  132.9410  151.0165 H   0  0  0  0  0  0  0  0  0  0  0  0
  146.4266  131.0548  149.7365 H   0  0  0  0  0  0  0  0  0  0  0  0
  143.9612  131.4254  148.4883 H   0  0  0  0  0  0  0  0  0  0  0  0
  144.6643  134.6410  151.1558 H   0  0  0  0  0  0  0  0  0  0  0  0
  146.3085  129.0693  155.1323 H   0  0  0  0  0  0  0  0  0  0  0  0
  145.5502  130.4014  154.2955 H   0  0  0  0  0  0  0  0  0  0  0  0
  145.2256  127.8629  153.4063 H   0  0  0  0  0  0  0  0  0  0  0  0
  145.4939  129.1498  152.2195 H   0  0  0  0  0  0  0  0  0  0  0  0
  149.4652  129.2501  152.9039 H   0  0  0  0  0  0  0  0  0  0  0  0
  148.9332  128.4340  154.3676 H   0  0  0  0  0  0  0  0  0  0  0  0
  143.0731  133.5911  149.4566 H   0  0  0  0  0  0  0  0  0  0  0  0
  1  2  1  0  0  0  0
  1 18  1  0  0  0  0
  1 19  1  0  0  0  0
  1 20  1  0  0  0  0
  2 17  1  0  0  0  0
  2  3  1  0  0  0  0
  2 12  1  0  0  0  0
  3  4  1  0  0  0  0
  3 21  1  0  0  0  0
  4  5  2  0  0  0  0
  4  6  1  0  0  0  0
  6  7  1  0  0  0  0
  6 22  1  0  0  0  0
  6 23  1  0  0  0  0
  7 11  1  0  0  0  0
  7  8  1  0  0  0  0
  8  9  2  0  0  0  0
  8 24  1  0  0  0  0
  9 10  1  0  0  0  0
  9 25  1  0  0  0  0
 10 11  2  0  0  0  0
 10 33  1  0  0  0  0
 11 26  1  0  0  0  0
 12 13  1  0  0  0  0
 12 27  1  0  0  0  0
 12 28  1  0  0  0  0
 13 14  1  0  0  0  0
 13 29  1  0  0  0  0
 13 30  1  0  0  0  0
 14 15  2  0  0  0  0
 14 16  2  0  0  0  0
 14 17  1  0  0  0  0
 17 31  1  0  0  0  0
 17 32  1  0  0  0  0
M  CHG  1  10   1
M  END
> <s_m_source_file>
AV-unprocessed.smi

> <i_m_source_file_index>
1111

> <i_lp_mmshare_version>
43012

> <i_f3d_flags>
0

> <s_epik_input>
Tz1TKD1PKShbQ0gyXTEpW0NIMl1bQ0gyXVtDQEBdMShbQ0gzXSlbTkhdQyg9TylbQ0gyXW4yW2NIXVtjSF1uW2NIXTI=

> <s_epik_cmdline>
J2VwaWtfcHl0aG9uJywgJy1waCcsICc3LjAnLCAnLXRuJywgJzgnLCAnLW1hJywgJzIwMCcsICctbWV0YWxfYmluZGluZycsICctaW1hZScsICc8aW5maWxlLm1hZT4nLCAnLW9tYWUnLCAnPG91dGZpbGUubWFlPic=

> <r_lp_tautomer_probability>
1

> <r_epik_Ionization_Penalty>
0.638881

> <r_epik_Ionization_Penalty_Charging>
0

> <r_epik_Ionization_Penalty_Neutral>
0.638881

> <r_epik_State_Penalty>
0.656385

> <r_epik_Charging_Adjusted_Penalty>
0.656385

> <i_epik_Tot_Q>
1

> <i_epik_Tot_abs_Q>
1

> <r_epik_Metal_State_Penalty>
0.832701

> <b_epik_Metal_Only>
0

> <s_lp_Force_Field>
OPLS_2005

> <r_lp_Energy>
7.98032

> <b_lp_Chiralities_Consistent>
1

> <s_lp_Variant>
AV-unprocessed.smi:1111-4

> <Gold.Version>
5.8.1

> <Gold.Id.Protein>
6NUR|6NUR_protein|mol2

> <Gold.PLP.Fitness>
39.1059

> <Gold.PLP.PLP>
-30.2786

> <Gold.PLP.part.hbond>
-2.7805

> <Gold.PLP.part.metal>
0.0000

> <Gold.PLP.part.buried>
-5.0542

> <Gold.PLP.part.nonpolar>
-25.0854

> <Gold.PLP.part.repulsive>
2.0774

> <Gold.PLP.ligand.clash>
0.0000

> <Gold.PLP.ligand.torsion>
0.6590

> <Gold.PLP.Chemscore.Hbond>
2.9825

> <Gold.PLP.Chemscore.CHOScore>
0.3940

> <Gold.PLP.Chemscore.Metal>
0.0000

> <Gold.Chemscore.Hbonds>
donor molecule, donor type, donor heavy atom, donor atom, acceptor molecule, acceptor atom, score
      L1  H     3    21       P1 10747  1.00
      L1  H    10    33       P1 10186  1.01
      L1  C     8    24       P1 10747  0.84

> <Gold.PLP.Chemscore.Internal.Correction>
0.0158

> <Gold.Rescore>
     Score         DG    S(hbond)    S(metal)    S(lipo)     H(rot)  DE(clash)    DE(int)     intcor
     13.29     -13.79       1.99        0.00      53.20       1.78       0.13       0.36       ----

> <Gold.Chemscore.Fitness>
13.2934

> <Gold.Chemscore.DG>
-13.7889

> <Gold.Chemscore.ZeroCoef>
-5.4800

> <Gold.Chemscore.Hbond>
1.9873

> <Gold.Chemscore.Metal>
0.0000

> <Gold.Chemscore.Lipo>
53.2036

> <Gold.Chemscore.Internal_Hbond>
0.0000

> <Gold.Chemscore.DEClash>
0.1328

> <Gold.Chemscore.DEInternal>
0.3627

> <Gold.Chemscore.Rot>
1.7787

> <Gold.Chemscore.Internal.Correction>
   9.000000E+99

> <Gold.Chemscore.Hbonds>
donor molecule, donor type, donor heavy atom, donor atom, acceptor molecule, acceptor atom, score
      L1  H     3    21       P1 10747  1.00
      L1  H    10    33       P1 10186  0.52

> <Gold.Chemscore.Hbond.Weighted>
-6.6376

> <Gold.Chemscore.Metal.Weighted>
-0.0000

> <Gold.Chemscore.Lipo.Weighted>
-6.2248

> <Gold.Chemscore.Internal_Hbond.Weighted>
0.0000

> <Gold.Chemscore.DEClash.Weighted>
0.1328

> <Gold.Chemscore.DEInternal.Weighted>
0.3627

> <Gold.Chemscore.Rot.Weighted>
4.5536

> <Gold.Chemscore.Internal.Correction.Weighted>
   9.000000E+99

> <Gold.Protein.RotatedTorsions>
[ 6907 6896 6895 6894 ] final  -64.69 input  -60.11 | X-H torsion
[ 7974 7965 7964 7962 ] final  -26.86 input  175.53 | X-H torsion
[ 8008 7997 7996 7995 ] final  -61.81 input   59.86 | X-H torsion
[ 10167 10162 10161 10158 ] final -179.62 input  -65.29 | X-H torsion
[ 10718 10713 10712 10709 ] final -117.26 input   66.30 | X-H torsion
[ 10763 10752 10751 10750 ] final   95.42 input  -60.55 | X-H torsion
[ 11005 11000 10999 10996 ] final  161.41 input  -57.11 | X-H torsion

> <Gold.Protein.ActiveResidues>
 VAL166  LYS551  ARG553  GLY616  TRP617  ASP618  TYR619  PRO620  LYS621  CYS622 
 ASP623  PHE694  ASN695  SER759  ASP760  ASP761  ALA762  ILE779  LEU786  VAL792 
 PHE793  MET794  SER795  GLU796  ALA797  LYS798  CYS799  TRP800  GLU811  SER814 

> <Gold.Protein.RotatedAtoms>
  150.7570  134.6264  159.6162 H   0  0  0  0  0  0  0  0  0  0  0  0  # atno 6907 bound_to 6896
  152.3555  134.6943  160.0232 H   0  0  0  0  0  0  0  0  0  0  0  0  # atno 6908 bound_to 6896
  151.7350  133.3283  159.3387 H   0  0  0  0  0  0  0  0  0  0  0  0  # atno 6909 bound_to 6896
  146.1397  140.5075  142.8657 H   0  0  0  0  0  0  0  0  0  0  0  0  # atno 7974 bound_to 7965
  154.4467  140.1010  156.6488 H   0  0  0  0  0  0  0  0  0  0  0  0  # atno 8008 bound_to 7997
  155.5420  140.3484  155.4430 H   0  0  0  0  0  0  0  0  0  0  0  0  # atno 8009 bound_to 7997
  156.0590  140.1322  156.9952 H   0  0  0  0  0  0  0  0  0  0  0  0  # atno 8010 bound_to 7997
  139.5378  144.2448  152.0831 H   0  0  0  0  0  0  0  0  0  0  0  0  # atno 10167 bound_to 10162
  156.1021  130.6180  150.9141 H   0  0  0  0  0  0  0  0  0  0  0  0  # atno 10718 bound_to 10713
  153.2530  135.4254  155.0817 H   0  0  0  0  0  0  0  0  0  0  0  0  # atno 10763 bound_to 10752
  154.8389  135.3430  154.6485 H   0  0  0  0  0  0  0  0  0  0  0  0  # atno 10764 bound_to 10752
  153.6906  135.7034  153.5148 H   0  0  0  0  0  0  0  0  0  0  0  0  # atno 10765 bound_to 10752
  140.2155  134.8235  157.3166 H   0  0  0  0  0  0  0  0  0  0  0  0  # atno 11005 bound_to 11000
  144.7779  140.5778  143.6626 LP  0  0  0  0  0  0  0  0  0  0  0  0  # atno 17320 bound_to 7965
  145.5075  139.1480  143.3623 LP  0  0  0  0  0  0  0  0  0  0  0  0  # atno 17321 bound_to 7965
  140.1922  144.4741  150.6473 LP  0  0  0  0  0  0  0  0  0  0  0  0  # atno 17342 bound_to 10162
  140.6593  143.2247  151.5894 LP  0  0  0  0  0  0  0  0  0  0  0  0  # atno 17343 bound_to 10162
  157.6193  131.0931  150.8652 LP  0  0  0  0  0  0  0  0  0  0  0  0  # atno 17370 bound_to 10713
  156.8778  130.5169  149.5292 LP  0  0  0  0  0  0  0  0  0  0  0  0  # atno 17371 bound_to 10713
  140.1905  134.4378  155.7719 LP  0  0  0  0  0  0  0  0  0  0  0  0  # atno 17394 bound_to 11000
  141.2225  133.7025  156.8019 LP  0  0  0  0  0  0  0  0  0  0  0  0  # atno 17395 bound_to 11000

$$$$
