AV-unprocessed.smi:1834|AV-procd|sdf|7470|dock6
  -GOLD-   22720 9163D 1   1.00000     0.00000
 Structure written by MMmdl.
 46 47  0  0  0  0  0  0  0  0  2 V2000
  144.8008  131.5220  150.9606 C   0  0  0  0  0  0  0  0  0  0  0  0
  145.0148  132.9793  150.5260 C   0  0  0  0  0  0  0  0  0  0  0  0
  144.6562  133.9555  151.5863 N   0  3  2  0  0  0  0  0  0  0  0  0
  143.2034  133.9248  151.8990 C   0  0  0  0  0  0  0  0  0  0  0  0
  142.8592  134.8536  153.0746 C   0  0  0  0  0  0  0  0  0  0  0  0
  143.3477  136.2859  152.8121 C   0  0  0  0  0  0  0  0  0  0  0  0
  144.8466  136.3080  152.4589 C   0  0  1  0  0  0  0  0  0  0  0  0
  145.7376  136.0702  153.7020 C   0  0  0  0  0  0  0  0  0  0  0  0
  147.0508  136.6966  153.5785 N   0  0  0  0  0  0  0  0  0  0  0  0
  147.4688  137.7598  154.2808 C   0  0  0  0  0  0  0  0  0  0  0  0
  146.7662  138.3410  155.1079 O   0  0  0  0  0  0  0  0  0  0  0  0
  148.7370  138.0793  153.9720 N   0  0  0  0  0  0  0  0  0  0  0  0
  149.5308  139.0338  154.5264 C   0  0  0  0  0  0  0  0  0  0  0  0
  149.1716  140.2237  155.0988 C   0  0  0  0  0  0  0  0  0  0  0  0
  150.4264  140.7759  155.4889 C   0  0  0  0  0  0  0  0  0  0  0  0
  150.6877  142.0846  156.1745 C   0  0  0  0  0  0  0  0  0  0  0  0
  151.4505  139.9893  155.1789 N   0  0  0  0  0  0  0  0  0  0  0  0
  150.9019  138.9083  154.5844 N   0  0  0  0  0  0  0  0  0  0  0  0
  151.7596  137.8382  154.1130 C   0  0  0  0  0  0  0  0  0  0  0  0
  145.1159  135.3382  151.2837 C   0  0  0  0  0  0  0  0  0  0  0  0
  145.0341  130.8419  150.1413 H   0  0  0  0  0  0  0  0  0  0  0  0
  143.7637  131.3450  151.2457 H   0  0  0  0  0  0  0  0  0  0  0  0
  145.4344  131.2423  151.8019 H   0  0  0  0  0  0  0  0  0  0  0  0
  146.0459  133.1378  150.2064 H   0  0  0  0  0  0  0  0  0  0  0  0
  144.3912  133.1546  149.6483 H   0  0  0  0  0  0  0  0  0  0  0  0
  142.6356  134.2159  151.0137 H   0  0  0  0  0  0  0  0  0  0  0  0
  142.8997  132.9076  152.1492 H   0  0  0  0  0  0  0  0  0  0  0  0
  141.7812  134.8561  153.2391 H   0  0  0  0  0  0  0  0  0  0  0  0
  143.3039  134.4667  153.9918 H   0  0  0  0  0  0  0  0  0  0  0  0
  142.7772  136.7105  151.9848 H   0  0  0  0  0  0  0  0  0  0  0  0
  143.1464  136.9198  153.6764 H   0  0  0  0  0  0  0  0  0  0  0  0
  145.0763  137.3136  152.1035 H   0  0  0  0  0  0  0  0  0  0  0  0
  145.2564  136.5015  154.5803 H   0  0  0  0  0  0  0  0  0  0  0  0
  145.8383  135.0049  153.9130 H   0  0  0  0  0  0  0  0  0  0  0  0
  147.6901  136.2838  152.9143 H   0  0  0  0  0  0  0  0  0  0  0  0
  149.1790  137.5134  153.2627 H   0  0  0  0  0  0  0  0  0  0  0  0
  148.1874  140.6485  155.2259 H   0  0  0  0  0  0  0  0  0  0  0  0
  149.7562  142.5728  156.4611 H   0  0  0  0  0  0  0  0  0  0  0  0
  151.2327  142.7669  155.5218 H   0  0  0  0  0  0  0  0  0  0  0  0
  151.2797  141.9438  157.0792 H   0  0  0  0  0  0  0  0  0  0  0  0
  151.2083  136.8985  154.0759 H   0  0  0  0  0  0  0  0  0  0  0  0
  152.6100  137.7159  154.7847 H   0  0  0  0  0  0  0  0  0  0  0  0
  152.1253  138.0770  153.1141 H   0  0  0  0  0  0  0  0  0  0  0  0
  146.1727  135.3473  151.0231 H   0  0  0  0  0  0  0  0  0  0  0  0
  144.5910  135.6934  150.3952 H   0  0  0  0  0  0  0  0  0  0  0  0
  145.1362  133.6592  152.4247 H   0  0  0  0  0  0  0  0  0  0  0  0
  1  2  1  0  0  0  0
  1 21  1  0  0  0  0
  1 22  1  0  0  0  0
  1 23  1  0  0  0  0
  2  3  1  0  0  0  0
  2 24  1  0  0  0  0
  2 25  1  0  0  0  0
  3 20  1  0  0  0  0
  3  4  1  0  0  0  0
  3 46  1  0  0  0  0
  4  5  1  0  0  0  0
  4 26  1  0  0  0  0
  4 27  1  0  0  0  0
  5  6  1  0  0  0  0
  5 28  1  0  0  0  0
  5 29  1  0  0  0  0
  6  7  1  0  0  0  0
  6 30  1  0  0  0  0
  6 31  1  0  0  0  0
  7  8  1  0  0  0  0
  7 20  1  0  0  0  0
  7 32  1  0  0  0  0
  8  9  1  0  0  0  0
  8 33  1  0  0  0  0
  8 34  1  0  0  0  0
  9 10  1  0  0  0  0
  9 35  1  0  0  0  0
 10 11  2  0  0  0  0
 10 12  1  0  0  0  0
 12 13  1  0  0  0  0
 12 36  1  0  0  0  0
 13 18  1  0  0  0  0
 13 14  2  0  0  0  0
 14 15  1  0  0  0  0
 14 37  1  0  0  0  0
 15 16  1  0  0  0  0
 15 17  2  0  0  0  0
 16 38  1  0  0  0  0
 16 39  1  0  0  0  0
 16 40  1  0  0  0  0
 17 18  1  0  0  0  0
 18 19  1  0  0  0  0
 19 41  1  0  0  0  0
 19 42  1  0  0  0  0
 19 43  1  0  0  0  0
 20 44  1  0  0  0  0
 20 45  1  0  0  0  0
M  CHG  1   3   1
M  END
> <s_m_source_file>
AV-unprocessed.smi

> <i_m_source_file_index>
1834

> <i_lp_mmshare_version>
43012

> <i_f3d_flags>
0

> <s_epik_input>
W0NIM11bQ0gyXU4xW0NIMl1bQ0gyXVtDSDJdW0NASF0oW0NIMl0xKVtDSDJdW05IXUMoPU8pW05IXWMyW2NIXWMoW0NIM10pbm4yW0NIM10=

> <s_epik_cmdline>
J2VwaWtfcHl0aG9uJywgJy1waCcsICc3LjAnLCAnLXRuJywgJzgnLCAnLW1hJywgJzIwMCcsICctbWV0YWxfYmluZGluZycsICctaW1hZScsICc8aW5maWxlLm1hZT4nLCAnLW9tYWUnLCAnPG91dGZpbGUubWFlPic=

> <r_lp_tautomer_probability>
1

> <r_epik_Ionization_Penalty>
0.000466842

> <r_epik_Ionization_Penalty_Charging>
0.000378984

> <r_epik_Ionization_Penalty_Neutral>
8.78572e-05

> <r_epik_State_Penalty>
0.000231434

> <r_epik_Charging_Adjusted_Penalty>
0.000610418

> <i_epik_Tot_Q>
1

> <i_epik_Tot_abs_Q>
1

> <r_epik_Metal_State_Penalty>
-0

> <b_epik_Metal_Only>
0

> <s_lp_Force_Field>
OPLS_2005

> <r_lp_Energy>
21.1664

> <b_lp_Chiralities_Consistent>
1

> <s_lp_Variant>
AV-unprocessed.smi:1834-2

> <Gold.Version>
5.8.1

> <Gold.Id.Protein>
6NUR|6NUR_protein|mol2

> <Gold.PLP.Fitness>
41.3654

> <Gold.PLP.PLP>
-35.5246

> <Gold.PLP.part.hbond>
-3.0000

> <Gold.PLP.part.metal>
0.0000

> <Gold.PLP.part.buried>
-5.1268

> <Gold.PLP.part.nonpolar>
-28.0126

> <Gold.PLP.part.repulsive>
0.0793

> <Gold.PLP.ligand.clash>
0.0000

> <Gold.PLP.ligand.torsion>
0.5548

> <Gold.PLP.Chemscore.Hbond>
2.3060

> <Gold.PLP.Chemscore.CHOScore>
0.0000

> <Gold.PLP.Chemscore.Metal>
0.0000

> <Gold.Chemscore.Hbonds>
donor molecule, donor type, donor heavy atom, donor atom, acceptor molecule, acceptor atom, score
      L1  H     9    35       P1  7948  1.00
      L1  H    12    36       P1  7948  0.98
      P1  H  7989  7998       L1    17  0.33

> <Gold.PLP.Chemscore.Internal.Correction>
0.0325

> <Gold.Rescore>
     Score         DG    S(hbond)    S(metal)    S(lipo)     H(rot)  DE(clash)    DE(int)     intcor
     16.12     -16.87       1.96        0.00      72.61       1.43       0.04       0.71       ----

> <Gold.Chemscore.Fitness>
16.1175

> <Gold.Chemscore.DG>
-16.8672

> <Gold.Chemscore.ZeroCoef>
-5.4800

> <Gold.Chemscore.Hbond>
1.9613

> <Gold.Chemscore.Metal>
0.0000

> <Gold.Chemscore.Lipo>
72.6062

> <Gold.Chemscore.Internal_Hbond>
0.0000

> <Gold.Chemscore.DEClash>
0.0398

> <Gold.Chemscore.DEInternal>
0.7098

> <Gold.Chemscore.Rot>
1.4291

> <Gold.Chemscore.Internal.Correction>
   9.000000E+99

> <Gold.Chemscore.Hbonds>
donor molecule, donor type, donor heavy atom, donor atom, acceptor molecule, acceptor atom, score
      L1  H     9    35       P1  7948  0.99
      L1  H    12    36       P1  7948  0.93

> <Gold.Chemscore.Hbond.Weighted>
-6.5507

> <Gold.Chemscore.Metal.Weighted>
-0.0000

> <Gold.Chemscore.Lipo.Weighted>
-8.4949

> <Gold.Chemscore.Internal_Hbond.Weighted>
0.0000

> <Gold.Chemscore.DEClash.Weighted>
0.0398

> <Gold.Chemscore.DEInternal.Weighted>
0.7098

> <Gold.Chemscore.Rot.Weighted>
3.6584

> <Gold.Chemscore.Internal.Correction.Weighted>
   9.000000E+99

> <Gold.Protein.RotatedTorsions>
[ 6907 6896 6895 6894 ] final  115.38 input  -60.11 | X-H torsion
[ 7974 7965 7964 7962 ] final -145.02 input  175.53 | X-H torsion
[ 8008 7997 7996 7995 ] final  -80.88 input   59.86 | X-H torsion
[ 10167 10162 10161 10158 ] final   38.08 input  -65.29 | X-H torsion
[ 10718 10713 10712 10709 ] final  178.13 input   66.30 | X-H torsion
[ 10763 10752 10751 10750 ] final   16.57 input  -60.55 | X-H torsion
[ 11005 11000 10999 10996 ] final -118.57 input  -57.11 | X-H torsion

> <Gold.Protein.ActiveResidues>
 VAL166  LYS551  ARG553  GLY616  TRP617  ASP618  TYR619  PRO620  LYS621  CYS622 
 ASP623  PHE694  ASN695  SER759  ASP760  ASP761  ALA762  ILE779  LEU786  VAL792 
 PHE793  MET794  SER795  GLU796  ALA797  LYS798  CYS799  TRP800  GLU811  SER814 

> <Gold.Protein.RotatedAtoms>
  152.4745  133.8105  159.7000 H   0  0  0  0  0  0  0  0  0  0  0  0  # atno 6907 bound_to 6896
  150.8753  133.7438  159.2955 H   0  0  0  0  0  0  0  0  0  0  0  0  # atno 6908 bound_to 6896
  151.4960  135.1063  159.9868 H   0  0  0  0  0  0  0  0  0  0  0  0  # atno 6909 bound_to 6896
  144.8256  140.5636  143.5549 H   0  0  0  0  0  0  0  0  0  0  0  0  # atno 7974 bound_to 7965
  154.5927  140.0656  156.9261 H   0  0  0  0  0  0  0  0  0  0  0  0  # atno 8008 bound_to 7997
  155.2267  140.3334  155.4290 H   0  0  0  0  0  0  0  0  0  0  0  0  # atno 8009 bound_to 7997
  156.2267  140.1822  156.7330 H   0  0  0  0  0  0  0  0  0  0  0  0  # atno 8010 bound_to 7997
  140.3971  144.1774  150.6132 H   0  0  0  0  0  0  0  0  0  0  0  0  # atno 10167 bound_to 10162
  156.8951  130.9860  151.3044 H   0  0  0  0  0  0  0  0  0  0  0  0  # atno 10718 bound_to 10713
  153.1418  135.6761  153.9015 H   0  0  0  0  0  0  0  0  0  0  0  0  # atno 10763 bound_to 10752
  153.8469  135.3098  155.3431 H   0  0  0  0  0  0  0  0  0  0  0  0  # atno 10764 bound_to 10752
  154.7794  135.4897  153.9896 H   0  0  0  0  0  0  0  0  0  0  0  0  # atno 10765 bound_to 10752
  141.0277  134.0029  157.3190 H   0  0  0  0  0  0  0  0  0  0  0  0  # atno 11005 bound_to 11000
  145.5007  139.1483  143.3659 LP  0  0  0  0  0  0  0  0  0  0  0  0  # atno 17320 bound_to 7965
  146.2561  140.5147  142.8873 LP  0  0  0  0  0  0  0  0  0  0  0  0  # atno 17321 bound_to 7965
  140.4779  143.2389  151.8997 LP  0  0  0  0  0  0  0  0  0  0  0  0  # atno 17342 bound_to 10162
  139.4786  144.5301  151.8679 LP  0  0  0  0  0  0  0  0  0  0  0  0  # atno 17343 bound_to 10162
  157.6060  130.8548  149.8876 LP  0  0  0  0  0  0  0  0  0  0  0  0  # atno 17370 bound_to 10713
  156.0610  130.3700  150.0983 LP  0  0  0  0  0  0  0  0  0  0  0  0  # atno 17371 bound_to 10713
  139.9187  135.0199  156.7980 LP  0  0  0  0  0  0  0  0  0  0  0  0  # atno 17394 bound_to 11000
  140.6463  133.9772  155.7732 LP  0  0  0  0  0  0  0  0  0  0  0  0  # atno 17395 bound_to 11000

$$$$
