AV-unprocessed.smi:109|AV-procd|sdf|1036|dock1
  -GOLD-   2262018 53D 1   1.00000     0.00000
 Structure written by MMmdl.
 58 61  0  0  0  0  0  0  0  0  1 V2000
  149.7089  141.0481  153.4790 O   0  0  0  0  0  0  0  0  0  0  0  0
  149.7121  140.4811  154.7714 C   0  0  0  0  0  0  0  0  0  0  0  0
  150.2192  141.5115  155.7929 C   0  0  0  0  0  0  0  0  0  0  0  0
  150.4065  140.9171  157.2069 C   0  0  1  0  0  0  0  0  0  0  0  0
  151.2651  139.7348  157.1378 N   0  0  0  0  0  0  0  0  0  0  0  0
  150.8293  138.5170  157.5309 C   0  0  0  0  0  0  0  0  0  0  0  0
  150.4023  138.2947  158.8011 N   0  0  0  0  0  0  0  0  0  0  0  0
  149.9765  137.0804  159.1595 C   0  0  0  0  0  0  0  0  0  0  0  0
  149.8967  135.9731  158.4191 N   0  0  0  0  0  0  0  0  0  0  0  0
  150.3209  136.1882  157.1403 C   0  0  0  0  0  0  0  0  0  0  0  0
  150.7981  137.4261  156.6243 C   0  0  0  0  0  0  0  0  0  0  0  0
  151.1412  137.2788  155.2877 N   0  0  0  0  0  0  0  0  0  0  0  0
  150.8769  136.0262  155.0316 C   0  0  0  0  0  0  0  0  0  0  0  0
  150.3886  135.2917  156.0902 N   0  0  0  0  0  0  0  0  0  0  0  0
  149.9894  133.8475  156.0723 C   0  0  2  0  0  0  0  0  0  0  0  0
  150.7053  133.1837  157.0721 O   0  0  0  0  0  0  0  0  0  0  0  0
  151.5704  132.1993  156.5077 C   0  0  1  0  0  0  0  0  0  0  0  0
  151.7997  131.0352  157.4881 C   0  0  0  0  0  0  0  0  0  0  0  0
  152.3982  131.5108  158.6751 O   0  0  0  0  0  0  0  0  0  0  0  0
  150.8801  131.8298  155.1883 C   0  0  1  0  0  0  0  0  0  0  0  0
  149.8616  130.8664  155.4114 O   0  0  0  0  0  0  0  0  0  0  0  0
  150.3219  133.1743  154.7319 C   0  0  1  0  0  0  0  0  0  0  0  0
  149.1984  133.0167  153.8856 O   0  0  0  0  0  0  0  0  0  0  0  0
  150.9456  141.9309  158.2543 C   0  0  0  0  0  0  0  0  0  0  0  0
  150.4953  143.3810  157.9729 C   0  0  0  0  0  0  0  0  0  0  0  0
  150.9507  144.3354  159.0889 C   0  0  0  0  0  0  0  0  0  0  0  0
  152.4730  144.2698  159.2891 C   0  0  0  0  0  0  0  0  0  0  0  0
  152.9354  142.8300  159.5630 C   0  0  0  0  0  0  0  0  0  0  0  0
  152.4780  141.8752  158.4479 C   0  0  0  0  0  0  0  0  0  0  0  0
  148.9266  133.8370  156.3174 H   0  0  0  0  0  0  0  0  0  0  0  0
  152.5267  132.6628  156.2656 H   0  0  0  0  0  0  0  0  0  0  0  0
  151.5846  131.4197  154.4639 H   0  0  0  0  0  0  0  0  0  0  0  0
  151.0971  133.7353  154.2099 H   0  0  0  0  0  0  0  0  0  0  0  0
  149.7176  140.3479  152.8442 H   0  0  0  0  0  0  0  0  0  0  0  0
  148.7000  140.1599  155.0196 H   0  0  0  0  0  0  0  0  0  0  0  0
  150.3441  139.5927  154.7632 H   0  0  0  0  0  0  0  0  0  0  0  0
  151.1563  141.9433  155.4393 H   0  0  0  0  0  0  0  0  0  0  0  0
  149.5010  142.3296  155.8256 H   0  0  0  0  0  0  0  0  0  0  0  0
  149.4175  140.5995  157.5396 H   0  0  0  0  0  0  0  0  0  0  0  0
  152.2227  139.9079  156.8674 H   0  0  0  0  0  0  0  0  0  0  0  0
  149.6539  136.9819  160.1854 H   0  0  0  0  0  0  0  0  0  0  0  0
  151.0343  135.5994  154.0516 H   0  0  0  0  0  0  0  0  0  0  0  0
  150.8685  130.5160  157.7162 H   0  0  0  0  0  0  0  0  0  0  0  0
  152.4819  130.3054  157.0506 H   0  0  0  0  0  0  0  0  0  0  0  0
  153.2447  131.1017  158.7695 H   0  0  0  0  0  0  0  0  0  0  0  0
  149.2564  130.9024  154.6859 H   0  0  0  0  0  0  0  0  0  0  0  0
  148.8265  132.1617  154.0399 H   0  0  0  0  0  0  0  0  0  0  0  0
  150.4991  141.6641  159.2131 H   0  0  0  0  0  0  0  0  0  0  0  0
  150.9029  143.7322  157.0254 H   0  0  0  0  0  0  0  0  0  0  0  0
  149.4098  143.4236  157.8779 H   0  0  0  0  0  0  0  0  0  0  0  0
  150.6515  145.3562  158.8497 H   0  0  0  0  0  0  0  0  0  0  0  0
  150.4466  144.0762  160.0209 H   0  0  0  0  0  0  0  0  0  0  0  0
  152.9752  144.6516  158.3993 H   0  0  0  0  0  0  0  0  0  0  0  0
  152.7681  144.9191  160.1138 H   0  0  0  0  0  0  0  0  0  0  0  0
  154.0213  142.8000  159.6558 H   0  0  0  0  0  0  0  0  0  0  0  0
  152.5346  142.4926  160.5196 H   0  0  0  0  0  0  0  0  0  0  0  0
  152.7933  140.8605  158.6921 H   0  0  0  0  0  0  0  0  0  0  0  0
  152.9855  142.1428  157.5208 H   0  0  0  0  0  0  0  0  0  0  0  0
  1  2  1  0  0  0  0
  1 34  1  0  0  0  0
  2  3  1  0  0  0  0
  2 35  1  0  0  0  0
  2 36  1  0  0  0  0
  3  4  1  0  0  0  0
  3 37  1  0  0  0  0
  3 38  1  0  0  0  0
  4  5  1  0  0  0  0
  4 24  1  0  0  0  0
  4 39  1  0  0  0  0
  5  6  1  0  0  0  0
  5 40  1  0  0  0  0
  6 11  1  0  0  0  0
  6  7  2  0  0  0  0
  7  8  1  0  0  0  0
  8  9  2  0  0  0  0
  8 41  1  0  0  0  0
  9 10  1  0  0  0  0
 10 14  1  0  0  0  0
 10 11  2  0  0  0  0
 11 12  1  0  0  0  0
 12 13  2  0  0  0  0
 13 14  1  0  0  0  0
 13 42  1  0  0  0  0
 14 15  1  0  0  0  0
 15 30  1  0  0  0  0
 15 22  1  0  0  0  0
 15 16  1  0  0  0  0
 16 17  1  0  0  0  0
 17 31  1  0  0  0  0
 17 18  1  0  0  0  0
 17 20  1  0  0  0  0
 18 19  1  0  0  0  0
 18 43  1  0  0  0  0
 18 44  1  0  0  0  0
 19 45  1  0  0  0  0
 20 32  1  0  0  0  0
 20 21  1  0  0  0  0
 20 22  1  0  0  0  0
 21 46  1  0  0  0  0
 22 33  1  0  0  0  0
 22 23  1  0  0  0  0
 23 47  1  0  0  0  0
 24 29  1  0  0  0  0
 24 25  1  0  0  0  0
 24 48  1  0  0  0  0
 25 26  1  0  0  0  0
 25 49  1  0  0  0  0
 25 50  1  0  0  0  0
 26 27  1  0  0  0  0
 26 51  1  0  0  0  0
 26 52  1  0  0  0  0
 27 28  1  0  0  0  0
 27 53  1  0  0  0  0
 27 54  1  0  0  0  0
 28 29  1  0  0  0  0
 28 55  1  0  0  0  0
 28 56  1  0  0  0  0
 29 57  1  0  0  0  0
 29 58  1  0  0  0  0
M  END
> <s_m_source_file>
AV-unprocessed.smi

> <i_m_source_file_index>
109

> <i_lp_mmshare_version>
43012

> <i_f3d_flags>
0

> <s_epik_input>
W0NIMl0xW0NIMl1bQ0gyXVtDSDJdW0NIMl1bQ0hdMVtDQEhdKFtDSDJdW0NIMl1bT0hdKVtOSF1jKG5bY0hdbjIpYyhjMjMpbltjSF1uM1tDQEBIXTRPW0NASF0oW0NIMl1bT0hdKVtDQEBIXShbT0hdKVtDQEhdNFtPSF0=

> <s_epik_cmdline>
J2VwaWtfcHl0aG9uJywgJy1waCcsICc3LjAnLCAnLXRuJywgJzgnLCAnLW1hJywgJzIwMCcsICctbWV0YWxfYmluZGluZycsICctaW1hZScsICc8aW5maWxlLm1hZT4nLCAnLW9tYWUnLCAnPG91dGZpbGUubWFlPic=

> <r_lp_tautomer_probability>
1

> <r_epik_Ionization_Penalty>
0.000793976

> <r_epik_Ionization_Penalty_Charging>
0

> <r_epik_Ionization_Penalty_Neutral>
0.000793976

> <r_epik_State_Penalty>
-0

> <r_epik_Charging_Adjusted_Penalty>
0

> <i_epik_Tot_Q>
0

> <i_epik_Tot_abs_Q>
0

> <r_epik_Metal_State_Penalty>
-0

> <b_epik_Metal_Only>
0

> <s_epik_Chemistry_Notes>
This compound contains an acetal/aminal-like group ( X-CH(R)-Y where X, Y are N, S, or O) that may be acid/base labile, releasing an aldehyde.

> <s_lp_Force_Field>
OPLS_2005

> <r_lp_Energy>
57.9321

> <b_lp_Chiralities_Consistent>
1

> <s_lp_Variant>
AV-unprocessed.smi:109-6

> <Gold.Version>
5.8.1

> <Gold.Id.Protein>
6NUR|6NUR_protein|mol2

> <Gold.PLP.Fitness>
55.0579

> <Gold.PLP.PLP>
-44.4125

> <Gold.PLP.part.hbond>
-5.6418

> <Gold.PLP.part.metal>
0.0000

> <Gold.PLP.part.buried>
-6.4592

> <Gold.PLP.part.nonpolar>
-30.0837

> <Gold.PLP.part.repulsive>
0.1523

> <Gold.PLP.ligand.clash>
0.0000

> <Gold.PLP.ligand.torsion>
1.3971

> <Gold.PLP.Chemscore.Hbond>
3.6960

> <Gold.PLP.Chemscore.CHOScore>
0.6147

> <Gold.PLP.Chemscore.Metal>
0.0000

> <Gold.Chemscore.Hbonds>
donor molecule, donor type, donor heavy atom, donor atom, acceptor molecule, acceptor atom, score
      L1  H     1    34       P1  7957  0.83
      P1  H  6896  6907       L1     9  0.96
      P1  H  6896  6909       L1    19  1.00
      P1  H  7989  7998       L1     1  0.03
      P1  H  8011  8017       L1     1  0.90
      L1  C    13    42       P1  7949  0.80

> <Gold.PLP.Chemscore.Internal.Correction>
0.5075

> <Gold.Rescore>
     Score         DG    S(hbond)    S(metal)    S(lipo)     H(rot)  DE(clash)    DE(int)     intcor
     10.83     -12.46       2.66        0.00     103.31       5.47       0.19       1.45       ----

> <Gold.Chemscore.Fitness>
10.8331

> <Gold.Chemscore.DG>
-12.4646

> <Gold.Chemscore.ZeroCoef>
-5.4800

> <Gold.Chemscore.Hbond>
2.6619

> <Gold.Chemscore.Metal>
0.0000

> <Gold.Chemscore.Lipo>
103.3111

> <Gold.Chemscore.Internal_Hbond>
0.0000

> <Gold.Chemscore.DEClash>
0.1851

> <Gold.Chemscore.DEInternal>
1.4464

> <Gold.Chemscore.Rot>
5.4662

> <Gold.Chemscore.Internal.Correction>
   9.000000E+99

> <Gold.Chemscore.Hbonds>
donor molecule, donor type, donor heavy atom, donor atom, acceptor molecule, acceptor atom, score
      L1  H     1    34       P1  7957  0.83
      P1  H  6896  6907       L1     9  0.49
      P1  H  6896  6909       L1    19  0.95
      P1  H  8011  8017       L1     1  0.17

> <Gold.Chemscore.Hbond.Weighted>
-8.8907

> <Gold.Chemscore.Metal.Weighted>
-0.0000

> <Gold.Chemscore.Lipo.Weighted>
-12.0874

> <Gold.Chemscore.Internal_Hbond.Weighted>
0.0000

> <Gold.Chemscore.DEClash.Weighted>
0.1851

> <Gold.Chemscore.DEInternal.Weighted>
1.4464

> <Gold.Chemscore.Rot.Weighted>
13.9935

> <Gold.Chemscore.Internal.Correction.Weighted>
   9.000000E+99

> <Gold.Protein.RotatedTorsions>
[ 6907 6896 6895 6894 ] final  -73.61 input  -60.11 | X-H torsion
[ 7974 7965 7964 7962 ] final  118.40 input  175.53 | X-H torsion
[ 8008 7997 7996 7995 ] final -172.80 input   59.86 | X-H torsion
[ 10167 10162 10161 10158 ] final  159.22 input  -65.29 | X-H torsion
[ 10718 10713 10712 10709 ] final   15.42 input   66.30 | X-H torsion
[ 10763 10752 10751 10750 ] final   -4.62 input  -60.55 | X-H torsion
[ 11005 11000 10999 10996 ] final -128.55 input  -57.11 | X-H torsion

> <Gold.Protein.ActiveResidues>
 VAL166  LYS551  ARG553  GLY616  TRP617  ASP618  TYR619  PRO620  LYS621  CYS622 
 ASP623  PHE694  ASN695  SER759  ASP760  ASP761  ALA762  ILE779  LEU786  VAL792 
 PHE793  MET794  SER795  GLU796  ALA797  LYS798  CYS799  TRP800  GLU811  SER814 

> <Gold.Protein.RotatedAtoms>
  150.7123  134.4990  159.5552 H   0  0  0  0  0  0  0  0  0  0  0  0  # atno 6907 bound_to 6896
  152.2592  134.8049  160.0442 H   0  0  0  0  0  0  0  0  0  0  0  0  # atno 6908 bound_to 6896
  151.8769  133.3452  159.3790 H   0  0  0  0  0  0  0  0  0  0  0  0  # atno 6909 bound_to 6896
  145.1556  139.3185  143.4544 H   0  0  0  0  0  0  0  0  0  0  0  0  # atno 7974 bound_to 7965
  155.9493  140.1123  157.0990 H   0  0  0  0  0  0  0  0  0  0  0  0  # atno 8008 bound_to 7997
  154.4106  140.1203  156.5097 H   0  0  0  0  0  0  0  0  0  0  0  0  # atno 8009 bound_to 7997
  155.6863  140.3473  155.4877 H   0  0  0  0  0  0  0  0  0  0  0  0  # atno 8010 bound_to 7997
  139.4831  144.4750  151.8523 H   0  0  0  0  0  0  0  0  0  0  0  0  # atno 10167 bound_to 10162
  157.0532  130.6278  149.5772 H   0  0  0  0  0  0  0  0  0  0  0  0  # atno 10718 bound_to 10713
  153.3873  135.7000  153.6520 H   0  0  0  0  0  0  0  0  0  0  0  0  # atno 10763 bound_to 10752
  153.5107  135.3632  155.2586 H   0  0  0  0  0  0  0  0  0  0  0  0  # atno 10764 bound_to 10752
  154.8699  135.4134  154.3183 H   0  0  0  0  0  0  0  0  0  0  0  0  # atno 10765 bound_to 10752
  140.9507  134.1070  157.4065 H   0  0  0  0  0  0  0  0  0  0  0  0  # atno 11005 bound_to 11000
  146.3489  140.1647  142.8590 LP  0  0  0  0  0  0  0  0  0  0  0  0  # atno 17320 bound_to 7965
  145.0385  140.8926  143.5067 LP  0  0  0  0  0  0  0  0  0  0  0  0  # atno 17321 bound_to 7965
  140.4222  144.2228  150.5887 LP  0  0  0  0  0  0  0  0  0  0  0  0  # atno 17342 bound_to 10162
  140.4862  143.2362  151.8884 LP  0  0  0  0  0  0  0  0  0  0  0  0  # atno 17343 bound_to 10162
  156.0001  130.5078  150.7631 LP  0  0  0  0  0  0  0  0  0  0  0  0  # atno 17370 bound_to 10713
  157.5013  131.0919  151.0310 LP  0  0  0  0  0  0  0  0  0  0  0  0  # atno 17371 bound_to 10713
  139.8846  135.0065  156.6383 LP  0  0  0  0  0  0  0  0  0  0  0  0  # atno 17394 bound_to 11000
  140.7607  133.8820  155.8416 LP  0  0  0  0  0  0  0  0  0  0  0  0  # atno 17395 bound_to 11000

$$$$
