AV-unprocessed.smi:630|AV-procd|sdf|3119|dock2
  -GOLD-   22720 0 43D 1   1.00000     0.00000
 Structure written by MMmdl.
 37 38  0  0  0  0  0  0  0  0  1 V2000
  144.9518  133.6651  155.3500 N   0  0  0  0  0  0  0  0  0  0  0  0
  145.7948  134.1805  154.4510 C   0  0  0  0  0  0  0  0  0  0  0  0
  146.8098  134.7895  154.7868 O   0  0  0  0  0  0  0  0  0  0  0  0
  145.4554  133.9674  152.9609 C   0  0  2  0  0  0  0  0  0  0  0  0
  146.4103  132.9396  152.3049 C   0  0  0  0  0  0  0  0  0  0  0  0
  145.6846  132.0081  151.3159 C   0  0  0  0  0  0  0  0  0  0  0  0
  145.2665  132.6696  149.9928 C   0  0  0  0  0  0  0  0  0  0  0  0
  144.4032  133.9360  150.1385 C   0  0  0  0  0  0  0  0  0  0  0  0
  145.2107  135.1483  150.6327 C   0  0  0  0  0  0  0  0  0  0  0  0
  145.3296  135.3031  152.1677 C   0  0  2  0  0  0  0  0  0  0  0  0
  146.4228  136.2343  152.4617 N   0  0  0  0  0  0  0  0  0  0  0  0
  146.2815  137.4811  152.9343 C   0  0  0  0  0  0  0  0  0  0  0  0
  145.1897  138.0009  153.1650 O   0  0  0  0  0  0  0  0  0  0  0  0
  147.4751  138.0683  153.1161 N   0  0  0  0  0  0  0  0  0  0  0  0
  147.7340  139.3785  153.5886 C   0  0  0  0  0  0  0  0  0  0  0  0
  146.7942  140.3144  153.4431 N   0  0  0  0  0  0  0  0  0  0  0  0
  147.1984  141.5488  153.9596 C   0  0  0  0  0  0  0  0  0  0  0  0
  148.4609  141.5350  154.4988 C   0  0  0  0  0  0  0  0  0  0  0  0
  149.2001  139.9609  154.3812 S   0  0  0  0  0  0  0  0  0  0  0  0
  145.1358  133.7863  156.3355 H   0  0  0  0  0  0  0  0  0  0  0  0
  144.1326  133.1607  155.0435 H   0  0  0  0  0  0  0  0  0  0  0  0
  144.4629  133.5135  152.9637 H   0  0  0  0  0  0  0  0  0  0  0  0
  147.2469  133.4405  151.8165 H   0  0  0  0  0  0  0  0  0  0  0  0
  146.8584  132.3029  153.0696 H   0  0  0  0  0  0  0  0  0  0  0  0
  146.3415  131.1698  151.0818 H   0  0  0  0  0  0  0  0  0  0  0  0
  144.8113  131.5668  151.7976 H   0  0  0  0  0  0  0  0  0  0  0  0
  146.1557  132.9001  149.4049 H   0  0  0  0  0  0  0  0  0  0  0  0
  144.7121  131.9357  149.4069 H   0  0  0  0  0  0  0  0  0  0  0  0
  144.0087  134.1781  149.1511 H   0  0  0  0  0  0  0  0  0  0  0  0
  143.5316  133.7554  150.7683 H   0  0  0  0  0  0  0  0  0  0  0  0
  146.2030  135.1199  150.1794 H   0  0  0  0  0  0  0  0  0  0  0  0
  144.7475  136.0545  150.2399 H   0  0  0  0  0  0  0  0  0  0  0  0
  144.4005  135.7598  152.5155 H   0  0  0  0  0  0  0  0  0  0  0  0
  147.3596  135.8906  152.3075 H   0  0  0  0  0  0  0  0  0  0  0  0
  148.2904  137.5189  152.8869 H   0  0  0  0  0  0  0  0  0  0  0  0
  146.5217  142.3884  153.9012 H   0  0  0  0  0  0  0  0  0  0  0  0
  148.9990  142.3518  154.9562 H   0  0  0  0  0  0  0  0  0  0  0  0
  1  2  1  0  0  0  0
  1 20  1  0  0  0  0
  1 21  1  0  0  0  0
  2  3  2  0  0  0  0
  2  4  1  0  0  0  0
  4 10  1  0  0  0  0
  4  5  1  0  0  0  0
  4 22  1  0  0  0  0
  5  6  1  0  0  0  0
  5 23  1  0  0  0  0
  5 24  1  0  0  0  0
  6  7  1  0  0  0  0
  6 25  1  0  0  0  0
  6 26  1  0  0  0  0
  7  8  1  0  0  0  0
  7 27  1  0  0  0  0
  7 28  1  0  0  0  0
  8  9  1  0  0  0  0
  8 29  1  0  0  0  0
  8 30  1  0  0  0  0
  9 10  1  0  0  0  0
  9 31  1  0  0  0  0
  9 32  1  0  0  0  0
 10 11  1  0  0  0  0
 10 33  1  0  0  0  0
 11 12  1  0  0  0  0
 11 34  1  0  0  0  0
 12 13  2  0  0  0  0
 12 14  1  0  0  0  0
 14 15  1  0  0  0  0
 14 35  1  0  0  0  0
 15 19  1  0  0  0  0
 15 16  2  0  0  0  0
 16 17  1  0  0  0  0
 17 18  2  0  0  0  0
 17 36  1  0  0  0  0
 18 19  1  0  0  0  0
 18 37  1  0  0  0  0
M  END
> <s_m_source_file>
AV-unprocessed.smi

> <i_m_source_file_index>
630

> <i_lp_mmshare_version>
43012

> <i_f3d_flags>
0

> <s_epik_input>
W05IMl1DKD1PKVtDQEBIXTFbQ0gyXVtDSDJdW0NIMl1bQ0gyXVtDSDJdW0NASF0xW05IXUMoPU8pW05IXWMybltjSF1bY0hdczI=

> <s_epik_cmdline>
J2VwaWtfcHl0aG9uJywgJy1waCcsICc3LjAnLCAnLXRuJywgJzgnLCAnLW1hJywgJzIwMCcsICctbWV0YWxfYmluZGluZycsICctaW1hZScsICc8aW5maWxlLm1hZT4nLCAnLW9tYWUnLCAnPG91dGZpbGUubWFlPic=

> <r_lp_tautomer_probability>
0.999

> <r_epik_Ionization_Penalty>
0.000342689

> <r_epik_Ionization_Penalty_Charging>
0

> <r_epik_Ionization_Penalty_Neutral>
0.000342689

> <r_epik_State_Penalty>
0.000177984

> <r_epik_Charging_Adjusted_Penalty>
0.000177984

> <i_epik_Tot_Q>
0

> <i_epik_Tot_abs_Q>
0

> <r_epik_Metal_State_Penalty>
0.00743087

> <b_epik_Metal_Only>
0

> <s_lp_Force_Field>
OPLS_2005

> <r_lp_Energy>
11.6017

> <b_lp_Chiralities_Consistent>
1

> <s_lp_Variant>
AV-unprocessed.smi:630-3

> <Gold.Version>
5.8.1

> <Gold.Id.Protein>
6NUR|6NUR_protein|mol2

> <Gold.PLP.Fitness>
39.6102

> <Gold.PLP.PLP>
-28.4199

> <Gold.PLP.part.hbond>
-3.0000

> <Gold.PLP.part.metal>
0.0000

> <Gold.PLP.part.buried>
-2.2793

> <Gold.PLP.part.nonpolar>
-23.9733

> <Gold.PLP.part.repulsive>
1.4167

> <Gold.PLP.ligand.clash>
0.0000

> <Gold.PLP.ligand.torsion>
0.3268

> <Gold.PLP.Chemscore.Hbond>
2.9040

> <Gold.PLP.Chemscore.CHOScore>
1.0000

> <Gold.PLP.Chemscore.Metal>
0.0000

> <Gold.Chemscore.Hbonds>
donor molecule, donor type, donor heavy atom, donor atom, acceptor molecule, acceptor atom, score
      L1  H     1    21       P1 10957  0.99
      L1  H    11    34       P1  7948  0.98
      L1  H    14    35       P1  7948  0.93
      L1  C    18    37       P1  8028  1.00

> <Gold.PLP.Chemscore.Internal.Correction>
0.1320

> <Gold.Rescore>
     Score         DG    S(hbond)    S(metal)    S(lipo)     H(rot)  DE(clash)    DE(int)     intcor
     16.59     -18.50       2.87        0.00      62.65       1.52       0.22       1.69       ----

> <Gold.Chemscore.Fitness>
16.5911

> <Gold.Chemscore.DG>
-18.5026

> <Gold.Chemscore.ZeroCoef>
-5.4800

> <Gold.Chemscore.Hbond>
2.8682

> <Gold.Chemscore.Metal>
0.0000

> <Gold.Chemscore.Lipo>
62.6506

> <Gold.Chemscore.Internal_Hbond>
0.0000

> <Gold.Chemscore.DEClash>
0.2228

> <Gold.Chemscore.DEInternal>
1.6887

> <Gold.Chemscore.Rot>
1.5184

> <Gold.Chemscore.Internal.Correction>
   9.000000E+99

> <Gold.Chemscore.Hbonds>
donor molecule, donor type, donor heavy atom, donor atom, acceptor molecule, acceptor atom, score
      L1  H     1    21       P1 10957  0.92
      L1  H    11    34       P1  7948  0.92
      L1  H    14    35       P1  7948  0.90

> <Gold.Chemscore.Hbond.Weighted>
-9.5797

> <Gold.Chemscore.Metal.Weighted>
-0.0000

> <Gold.Chemscore.Lipo.Weighted>
-7.3301

> <Gold.Chemscore.Internal_Hbond.Weighted>
0.0000

> <Gold.Chemscore.DEClash.Weighted>
0.2228

> <Gold.Chemscore.DEInternal.Weighted>
1.6887

> <Gold.Chemscore.Rot.Weighted>
3.8872

> <Gold.Chemscore.Internal.Correction.Weighted>
   9.000000E+99

> <Gold.Protein.RotatedTorsions>
[ 6907 6896 6895 6894 ] final   16.82 input  -60.11 | X-H torsion
[ 7974 7965 7964 7962 ] final  -29.57 input  175.53 | X-H torsion
[ 8008 7997 7996 7995 ] final    4.26 input   59.86 | X-H torsion
[ 10167 10162 10161 10158 ] final   -4.93 input  -65.29 | X-H torsion
[ 10718 10713 10712 10709 ] final   38.30 input   66.30 | X-H torsion
[ 10763 10752 10751 10750 ] final -177.37 input  -60.55 | X-H torsion
[ 11005 11000 10999 10996 ] final    9.19 input  -57.11 | X-H torsion

> <Gold.Protein.ActiveResidues>
 VAL166  LYS551  ARG553  GLY616  TRP617  ASP618  TYR619  PRO620  LYS621  CYS622 
 ASP623  PHE694  ASN695  SER759  ASP760  ASP761  ALA762  ILE779  LEU786  VAL792 
 PHE793  MET794  SER795  GLU796  ALA797  LYS798  CYS799  TRP800  GLU811  SER814 

> <Gold.Protein.RotatedAtoms>
  151.8399  135.0593  160.0446 H   0  0  0  0  0  0  0  0  0  0  0  0  # atno 6907 bound_to 6896
  152.2817  133.5472  159.5510 H   0  0  0  0  0  0  0  0  0  0  0  0  # atno 6908 bound_to 6896
  150.7192  134.0471  159.3828 H   0  0  0  0  0  0  0  0  0  0  0  0  # atno 6909 bound_to 6896
  146.1207  140.5429  142.8737 H   0  0  0  0  0  0  0  0  0  0  0  0  # atno 7974 bound_to 7965
  154.7138  140.2698  155.6605 H   0  0  0  0  0  0  0  0  0  0  0  0  # atno 8008 bound_to 7997
  156.2803  140.2748  156.1712 H   0  0  0  0  0  0  0  0  0  0  0  0  # atno 8009 bound_to 7997
  155.0599  140.0371  157.2563 H   0  0  0  0  0  0  0  0  0  0  0  0  # atno 8010 bound_to 7997
  140.6945  143.6366  150.8474 H   0  0  0  0  0  0  0  0  0  0  0  0  # atno 10167 bound_to 10162
  157.3572  130.7630  149.7021 H   0  0  0  0  0  0  0  0  0  0  0  0  # atno 10718 bound_to 10713
  154.5610  135.2820  155.0919 H   0  0  0  0  0  0  0  0  0  0  0  0  # atno 10763 bound_to 10752
  154.2329  135.6371  153.5185 H   0  0  0  0  0  0  0  0  0  0  0  0  # atno 10764 bound_to 10752
  153.0029  135.5541  154.6204 H   0  0  0  0  0  0  0  0  0  0  0  0  # atno 10765 bound_to 10752
  140.5285  134.0489  155.7866 H   0  0  0  0  0  0  0  0  0  0  0  0  # atno 11005 bound_to 11000
  144.7594  140.5387  143.6746 LP  0  0  0  0  0  0  0  0  0  0  0  0  # atno 17320 bound_to 7965
  145.5472  139.1476  143.3414 LP  0  0  0  0  0  0  0  0  0  0  0  0  # atno 17321 bound_to 7965
  140.0083  143.5670  152.2849 LP  0  0  0  0  0  0  0  0  0  0  0  0  # atno 17342 bound_to 10162
  139.6385  144.7652  151.2389 LP  0  0  0  0  0  0  0  0  0  0  0  0  # atno 17343 bound_to 10162
  155.9731  130.4124  150.4029 LP  0  0  0  0  0  0  0  0  0  0  0  0  # atno 17370 bound_to 10713
  157.2101  131.0458  151.2604 LP  0  0  0  0  0  0  0  0  0  0  0  0  # atno 17371 bound_to 10713
  141.1294  133.9327  157.2567 LP  0  0  0  0  0  0  0  0  0  0  0  0  # atno 17394 bound_to 11000
  139.9567  135.0164  156.9147 LP  0  0  0  0  0  0  0  0  0  0  0  0  # atno 17395 bound_to 11000

$$$$
