AV-unprocessed.smi:2830|AV-procd|sdf|10907|dock10
  -GOLD-   2272015353D 1   1.00000     0.00000
 Structure written by MMmdl.
 28 28  0  0  0  0  0  0  0  0  1 V2000
  151.9529  138.3103  154.9997 C   0  0  0  0  0  0  0  0  0  0  0  0
  150.9083  139.2469  155.1961 O   0  0  0  0  0  0  0  0  0  0  0  0
  151.3332  140.3967  155.9107 C   0  0  0  0  0  0  0  0  0  0  0  0
  150.1203  141.3110  156.1613 C   0  0  1  0  0  0  0  0  0  0  0  0
  150.5665  142.5675  156.7603 N   0  0  0  0  0  0  0  0  0  0  0  0
  151.1221  142.6323  158.0474 C   0  0  0  0  0  0  0  0  0  0  0  0
  151.3708  141.4235  158.7314 C   0  0  0  0  0  0  0  0  0  0  0  0
  151.9284  141.4744  160.0239 C   0  0  0  0  0  0  0  0  0  0  0  0
  152.2169  142.7324  160.5885 C   0  0  0  0  0  0  0  0  0  0  0  0
  152.7936  142.8381  161.9177 C   0  0  0  0  0  0  0  0  0  0  0  0
  153.2529  142.9221  162.9764 N   0  0  0  0  0  0  0  0  0  0  0  0
  151.9317  143.8860  159.8304 C   0  0  0  0  0  0  0  0  0  0  0  0
  151.3961  143.8424  158.5915 N   0  0  0  0  0  0  0  0  0  0  0  0
  149.3411  141.5057  154.8506 C   0  0  0  0  0  0  0  0  0  0  0  0
  148.2619  142.2911  154.8965 N   0  0  0  0  0  0  0  0  0  0  0  0
  149.6973  140.9451  153.8153 O   0  0  0  0  0  0  0  0  0  0  0  0
  151.5741  137.4510  154.4463 H   0  0  0  0  0  0  0  0  0  0  0  0
  152.3450  137.9513  155.9521 H   0  0  0  0  0  0  0  0  0  0  0  0
  152.7714  138.7463  154.4253 H   0  0  0  0  0  0  0  0  0  0  0  0
  151.8028  140.1106  156.8540 H   0  0  0  0  0  0  0  0  0  0  0  0
  152.0883  140.9167  155.3174 H   0  0  0  0  0  0  0  0  0  0  0  0
  149.4666  140.7989  156.8700 H   0  0  0  0  0  0  0  0  0  0  0  0
  150.3419  143.4261  156.2792 H   0  0  0  0  0  0  0  0  0  0  0  0
  151.1413  140.4712  158.2760 H   0  0  0  0  0  0  0  0  0  0  0  0
  152.1290  140.5616  160.5661 H   0  0  0  0  0  0  0  0  0  0  0  0
  152.1359  144.8719  160.2227 H   0  0  0  0  0  0  0  0  0  0  0  0
  147.7126  142.4424  154.0629 H   0  0  0  0  0  0  0  0  0  0  0  0
  147.9945  142.7240  155.7686 H   0  0  0  0  0  0  0  0  0  0  0  0
  1  2  1  0  0  0  0
  1 17  1  0  0  0  0
  1 18  1  0  0  0  0
  1 19  1  0  0  0  0
  2  3  1  0  0  0  0
  3  4  1  0  0  0  0
  3 20  1  0  0  0  0
  3 21  1  0  0  0  0
  4  5  1  0  0  0  0
  4 14  1  0  0  0  0
  4 22  1  0  0  0  0
  5  6  1  0  0  0  0
  5 23  1  0  0  0  0
  6 13  1  0  0  0  0
  6  7  2  0  0  0  0
  7  8  1  0  0  0  0
  7 24  1  0  0  0  0
  8  9  2  0  0  0  0
  8 25  1  0  0  0  0
  9 10  1  0  0  0  0
  9 12  1  0  0  0  0
 10 11  3  0  0  0  0
 12 13  2  0  0  0  0
 12 26  1  0  0  0  0
 14 15  1  0  0  0  0
 14 16  2  0  0  0  0
 15 27  1  0  0  0  0
 15 28  1  0  0  0  0
M  END
> <s_m_source_file>
AV-unprocessed.smi

> <i_m_source_file_index>
2830

> <i_lp_mmshare_version>
43012

> <i_f3d_flags>
0

> <s_epik_input>
W0NIM11PW0NIMl1bQ0BASF0oQyg9TylbTkgyXSlbTkhdYzFbY0hdW2NIXWMoQyNOKVtjSF1uMQ==

> <s_epik_cmdline>
J2VwaWtfcHl0aG9uJywgJy1waCcsICc3LjAnLCAnLXRuJywgJzgnLCAnLW1hJywgJzIwMCcsICctbWV0YWxfYmluZGluZycsICctaW1hZScsICc8aW5maWxlLm1hZT4nLCAnLW9tYWUnLCAnPG91dGZpbGUubWFlPic=

> <r_lp_tautomer_probability>
1

> <r_epik_Ionization_Penalty>
4.37908e-06

> <r_epik_Ionization_Penalty_Charging>
0

> <r_epik_Ionization_Penalty_Neutral>
4.37908e-06

> <r_epik_State_Penalty>
-0

> <r_epik_Charging_Adjusted_Penalty>
0

> <i_epik_Tot_Q>
0

> <i_epik_Tot_abs_Q>
0

> <r_epik_Metal_State_Penalty>
-0

> <b_epik_Metal_Only>
0

> <s_lp_Force_Field>
OPLS_2005

> <r_lp_Energy>
3.76959

> <b_lp_Chiralities_Consistent>
1

> <s_lp_Variant>
AV-unprocessed.smi:2830-2

> <Gold.Version>
5.8.1

> <Gold.Id.Protein>
6NUR|6NUR_protein|mol2

> <Gold.PLP.Fitness>
41.1595

> <Gold.PLP.PLP>
-34.6568

> <Gold.PLP.part.hbond>
-4.6995

> <Gold.PLP.part.metal>
0.0000

> <Gold.PLP.part.buried>
-4.4633

> <Gold.PLP.part.nonpolar>
-27.8461

> <Gold.PLP.part.repulsive>
2.6020

> <Gold.PLP.ligand.clash>
0.0000

> <Gold.PLP.ligand.torsion>
0.1366

> <Gold.PLP.Chemscore.Hbond>
2.2480

> <Gold.PLP.Chemscore.CHOScore>
0.0000

> <Gold.PLP.Chemscore.Metal>
0.0000

> <Gold.Chemscore.Hbonds>
donor molecule, donor type, donor heavy atom, donor atom, acceptor molecule, acceptor atom, score
      L1  H     5    23       P1  8028  0.95
      L1  H    15    28       P1  8028  0.05
      P1  H  7989  7998       L1    16  0.40
      P1  H  8011  8017       L1    16  0.81

> <Gold.PLP.Chemscore.Internal.Correction>
0.0319

> <Gold.Rescore>
     Score         DG    S(hbond)    S(metal)    S(lipo)     H(rot)  DE(clash)    DE(int)     intcor
      9.62     -12.43       1.87        0.00      56.77       2.32       1.41       1.39       ----

> <Gold.Chemscore.Fitness>
9.6240

> <Gold.Chemscore.DG>
-12.4270

> <Gold.Chemscore.ZeroCoef>
-5.4800

> <Gold.Chemscore.Hbond>
1.8694

> <Gold.Chemscore.Metal>
0.0000

> <Gold.Chemscore.Lipo>
56.7651

> <Gold.Chemscore.Internal_Hbond>
0.0000

> <Gold.Chemscore.DEClash>
1.4124

> <Gold.Chemscore.DEInternal>
1.3907

> <Gold.Chemscore.Rot>
2.3197

> <Gold.Chemscore.Internal.Correction>
   9.000000E+99

> <Gold.Chemscore.Hbonds>
donor molecule, donor type, donor heavy atom, donor atom, acceptor molecule, acceptor atom, score
      L1  H     5    23       P1  8028  0.85
      L1  H    15    28       P1  8028  0.06
      P1  H  7989  7998       L1    16  0.38
      P1  H  8011  8017       L1    16  0.46

> <Gold.Chemscore.Hbond.Weighted>
-6.2439

> <Gold.Chemscore.Metal.Weighted>
-0.0000

> <Gold.Chemscore.Lipo.Weighted>
-6.6415

> <Gold.Chemscore.Internal_Hbond.Weighted>
0.0000

> <Gold.Chemscore.DEClash.Weighted>
1.4124

> <Gold.Chemscore.DEInternal.Weighted>
1.3907

> <Gold.Chemscore.Rot.Weighted>
5.9384

> <Gold.Chemscore.Internal.Correction.Weighted>
   9.000000E+99

> <Gold.Protein.RotatedTorsions>
[ 6907 6896 6895 6894 ] final   81.20 input  -60.11 | X-H torsion
[ 7974 7965 7964 7962 ] final   88.40 input  175.53 | X-H torsion
[ 8008 7997 7996 7995 ] final   13.70 input   59.86 | X-H torsion
[ 10167 10162 10161 10158 ] final  131.72 input  -65.29 | X-H torsion
[ 10718 10713 10712 10709 ] final  -53.78 input   66.30 | X-H torsion
[ 10763 10752 10751 10750 ] final -177.79 input  -60.55 | X-H torsion
[ 11005 11000 10999 10996 ] final   39.81 input  -57.11 | X-H torsion

> <Gold.Protein.ActiveResidues>
 VAL166  LYS551  ARG553  GLY616  TRP617  ASP618  TYR619  PRO620  LYS621  CYS622 
 ASP623  PHE694  ASN695  SER759  ASP760  ASP761  ALA762  ILE779  LEU786  VAL792 
 PHE793  MET794  SER795  GLU796  ALA797  LYS798  CYS799  TRP800  GLU811  SER814 

> <Gold.Protein.RotatedAtoms>
  152.5261  134.3240  159.9158 H   0  0  0  0  0  0  0  0  0  0  0  0  # atno 6907 bound_to 6896
  151.3189  133.4042  159.2660 H   0  0  0  0  0  0  0  0  0  0  0  0  # atno 6908 bound_to 6896
  150.9976  134.9313  159.7993 H   0  0  0  0  0  0  0  0  0  0  0  0  # atno 6909 bound_to 6896
  145.5461  139.2292  143.2538 H   0  0  0  0  0  0  0  0  0  0  0  0  # atno 7974 bound_to 7965
  154.8381  140.2910  155.5677 H   0  0  0  0  0  0  0  0  0  0  0  0  # atno 8008 bound_to 7997
  156.3010  140.2519  156.3250 H   0  0  0  0  0  0  0  0  0  0  0  0  # atno 8009 bound_to 7997
  154.9156  140.0387  157.1959 H   0  0  0  0  0  0  0  0  0  0  0  0  # atno 8010 bound_to 7997
  139.5371  144.6694  151.4748 H   0  0  0  0  0  0  0  0  0  0  0  0  # atno 10167 bound_to 10162
  156.1506  130.4151  149.9951 H   0  0  0  0  0  0  0  0  0  0  0  0  # atno 10718 bound_to 10713
  154.5558  135.2816  155.0966 H   0  0  0  0  0  0  0  0  0  0  0  0  # atno 10763 bound_to 10752
  154.2394  135.6359  153.5206 H   0  0  0  0  0  0  0  0  0  0  0  0  # atno 10764 bound_to 10752
  153.0015  135.5556  154.6137 H   0  0  0  0  0  0  0  0  0  0  0  0  # atno 10765 bound_to 10752
  140.1992  134.3892  155.8105 H   0  0  0  0  0  0  0  0  0  0  0  0  # atno 11005 bound_to 11000
  146.1948  140.6283  142.9129 LP  0  0  0  0  0  0  0  0  0  0  0  0  # atno 17320 bound_to 7965
  144.7552  140.5290  143.6774 LP  0  0  0  0  0  0  0  0  0  0  0  0  # atno 17321 bound_to 7965
  140.6584  143.8551  150.6860 LP  0  0  0  0  0  0  0  0  0  0  0  0  # atno 17342 bound_to 10162
  140.1938  143.4015  152.1843 LP  0  0  0  0  0  0  0  0  0  0  0  0  # atno 17343 bound_to 10162
  156.7810  130.9221  151.3646 LP  0  0  0  0  0  0  0  0  0  0  0  0  # atno 17370 bound_to 10713
  157.6654  130.9003  149.9920 LP  0  0  0  0  0  0  0  0  0  0  0  0  # atno 17371 bound_to 10713
  141.2227  133.7085  156.8228 LP  0  0  0  0  0  0  0  0  0  0  0  0  # atno 17394 bound_to 11000
  140.2073  134.8853  157.3236 LP  0  0  0  0  0  0  0  0  0  0  0  0  # atno 17395 bound_to 11000

$$$$
