#       Name:                AV-unprocessed.smi:230
#       Creating user name   scv26
#       Creation time:       Thu Mar 26 20:29:42 2020


#       File generated by GOLD software.
#

@<TRIPOS>MOLECULE
AV-unprocessed.smi:230
    66    69     1
SMALL
NO_CHARGES


@<TRIPOS>ATOM
      1 ****        -2.3006  -2.2429   3.5388 C.3            1 S1                 0.0000
      2 ****        -1.9347  -1.4105   2.3023 C.3            1 S1                 0.0000
      3 ****        -2.4900   0.0380   2.3241 C.3            1 S1                 0.0000
      4 ****        -4.0356   0.0327   2.3370 C.3            1 S1                 0.0000
      5 ****        -4.5621   1.3551   2.2616 O.3            1 S1                 0.0000
      6 ****        -4.1484   2.1104   1.1218 C.3            1 S1                 0.0000
      7 ****        -4.7222   1.5227  -0.1855 C.3            1 S1                 0.0000
      8 ****        -4.7163   3.5222   1.3348 C.3            1 S1                 0.0000
      9 ****        -2.6082   2.1630   1.1073 C.3            1 S1                 0.0000
     10 ****        -2.0268   0.8267   1.1758 N.3            1 S1                 0.0000
     11 ****        -0.6914   0.8931   0.9688 C.ar           1 S1                 0.0000
     12 ****         0.1510   1.1638   2.0013 N.ar           1 S1                 0.0000
     13 ****         1.4679   1.2380   1.7849 C.ar           1 S1                 0.0000
     14 ****         2.1366   1.0820   0.6398 N.ar           1 S1                 0.0000
     15 ****         1.2899   0.8176  -0.3969 C.ar           1 S1                 0.0000
     16 ****        -0.1263   0.7120  -0.3202 C.ar           1 S1                 0.0000
     17 ****        -0.6551   0.4390  -1.5749 N.2            1 S1                 0.0000
     18 ****         0.3928   0.3796  -2.3513 C.2            1 S1                 0.0000
     19 ****         1.6019   0.5877  -1.7254 N.pl3          1 S1                 0.0000
     20 ****         2.9181   0.5730  -2.3451 C.3            1 S1                 0.0000
     21 ****         3.5413  -0.8404  -2.4603 C.3            1 S1                 0.0000
     22 ****         2.7218  -1.6015  -3.3313 O.3            1 S1                 0.0000
     23 ****         4.9548  -0.7572  -3.0709 C.3            1 S1                 0.0000
     24 ****         5.6785  -2.1158  -3.0485 C.3            1 S1                 0.0000
     25 ****         5.7177  -2.6245  -1.7208 O.3            1 S1                 0.0000
     26 ****         4.4225  -2.8796  -1.1914 C.3            1 S1                 0.0000
     27 ****         3.6191  -1.5699  -1.1012 C.3            1 S1                 0.0000
     28 ****        -1.8015  -3.2116   3.5102 H              1 S1                 0.0000
     29 ****        -3.3719  -2.4338   3.5969 H              1 S1                 0.0000
     30 ****        -1.9944  -1.7398   4.4564 H              1 S1                 0.0000
     31 ****        -0.8468  -1.3994   2.2385 H              1 S1                 0.0000
     32 ****        -2.2805  -1.9242   1.4045 H              1 S1                 0.0000
     33 ****        -2.1446   0.5342   3.2326 H              1 S1                 0.0000
     34 ****        -4.4335  -0.5814   1.5291 H              1 S1                 0.0000
     35 ****        -4.4057  -0.4069   3.2626 H              1 S1                 0.0000
     36 ****        -4.4951   2.1681  -1.0345 H              1 S1                 0.0000
     37 ****        -5.8066   1.4233  -0.1284 H              1 S1                 0.0000
     38 ****        -4.3117   0.5405  -0.4183 H              1 S1                 0.0000
     39 ****        -4.4302   4.1922   0.5234 H              1 S1                 0.0000
     40 ****        -4.3536   3.9581   2.2665 H              1 S1                 0.0000
     41 ****        -5.8056   3.5059   1.3830 H              1 S1                 0.0000
     42 ****        -2.2642   2.6799   0.2096 H              1 S1                 0.0000
     43 ****        -2.2504   2.7419   1.9607 H              1 S1                 0.0000
     44 ****         2.0723   1.4532   2.6538 H              1 S1                 0.0000
     45 ****         0.3138   0.1746  -3.4091 H              1 S1                 0.0000
     46 ****         2.8360   1.0333  -3.3308 H              1 S1                 0.0000
     47 ****         3.5722   1.2229  -1.7626 H              1 S1                 0.0000
     48 ****         3.0938  -2.4662  -3.4143 H              1 S1                 0.0000
     49 ****         4.9099  -0.3735  -4.0910 H              1 S1                 0.0000
     50 ****         5.5509  -0.0419  -2.5025 H              1 S1                 0.0000
     51 ****         5.1918  -2.8331  -3.7110 H              1 S1                 0.0000
     52 ****         6.7006  -1.9988  -3.4091 H              1 S1                 0.0000
     53 ****         3.9044  -3.6175  -1.8059 H              1 S1                 0.0000
     54 ****         4.5303  -3.3181  -0.1993 H              1 S1                 0.0000
     55 ****         4.1010  -0.9181  -0.3714 H              1 S1                 0.0000
     56 ****         2.6218  -1.7796  -0.7129 H              1 S1                 0.0000
     57 ****        -4.2744   1.8499   3.0816 LP             1 S1                 0.0000
     58 ****        -5.5598   1.2903   2.2443 LP             1 S1                 0.0000
     59 ****        -2.3802   0.2728   0.4219 LP             1 S1                 0.0000
     60 ****        -0.2142   1.3072   2.9211 LP             1 S1                 0.0000
     61 ****         3.1305   1.1502   0.5531 LP             1 S1                 0.0000
     62 ****        -1.6154   0.3164  -1.8255 LP             1 S1                 0.0000
     63 ****         2.6851  -1.1626  -4.2291 LP             1 S1                 0.0000
     64 ****         1.7980  -1.6666  -2.9541 LP             1 S1                 0.0000
     65 ****         6.1764  -1.9558  -1.1356 LP             1 S1                 0.0000
     66 ****         6.2371  -3.4790  -1.7210 LP             1 S1                 0.0000
@<TRIPOS>BOND
    1    1    2 1     
    2    1   28 1     
    3    1   29 1     
    4    1   30 1     
    5    2    3 1     
    6    2   31 1     
    7    2   32 1     
    8    3   10 1     
    9    3    4 1     
   10    3   33 1     
   11    4    5 1     
   12    4   34 1     
   13    4   35 1     
   14    5    6 1     
   15    6    7 1     
   16    6    8 1     
   17    6    9 1     
   18    7   36 1     
   19    7   37 1     
   20    7   38 1     
   21    8   39 1     
   22    8   40 1     
   23    8   41 1     
   24    9   10 1     
   25    9   42 1     
   26    9   43 1     
   27   10   11 1     
   28   11   16 ar    
   29   11   12 ar    
   30   12   13 ar    
   31   13   14 ar    
   32   13   44 1     
   33   14   15 ar    
   34   15   19 1     
   35   15   16 ar    
   36   16   17 1     
   37   17   18 2     
   38   18   19 1     
   39   18   45 1     
   40   19   20 1     
   41   20   21 1     
   42   20   46 1     
   43   20   47 1     
   44   21   27 1     
   45   21   22 1     
   46   21   23 1     
   47   22   48 1     
   48   23   24 1     
   49   23   49 1     
   50   23   50 1     
   51   24   25 1     
   52   24   51 1     
   53   24   52 1     
   54   25   26 1     
   55   26   27 1     
   56   26   53 1     
   57   26   54 1     
   58   27   55 1     
   59   27   56 1     
   60    5   57 1     
   61    5   58 1     
   62   10   59 1     
   63   12   60 1     
   64   14   61 1     
   65   17   62 1     
   66   22   63 1     
   67   22   64 1     
   68   25   65 1     
   69   25   66 1     
@<TRIPOS>SUBSTRUCTURE
      1 S1             1
@<TRIPOS>SET
LONE_PAIRS      STATIC     ATOMS    <user>   **** ""
10 57 58 59 60 61 62 63 64 65 66
DONOR_HYDROGENS      STATIC     ATOMS    <user>   **** ""
1 48
ATOM$BLUE        STATIC     ATOMS    COLORGROUP SYSTEM
10 57 58 59 60 61 62 63 64 65 66
ATOM$RED        STATIC     ATOMS    COLORGROUP SYSTEM
1 48
