#       Name:                AV-unprocessed.smi:2340
#       Creating user name   scv26
#       Creation time:       Fri Mar 27 12:57:17 2020


#       File generated by GOLD software.
#

@<TRIPOS>MOLECULE
AV-unprocessed.smi:2340
    45    46     1
SMALL
NO_CHARGES


@<TRIPOS>ATOM
      1 ****        -2.6649  -1.4329   1.9665 C.3            1 S1                 0.0000
      2 ****        -2.1310  -0.0406   2.0875 C.2            1 S1                 0.0000
      3 ****        -1.7946   0.6205   3.2422 C.2            1 S1                 0.0000
      4 ****        -1.1914   2.2233   2.9206 S.3            1 S1                 0.0000
      5 ****        -1.4325   1.9369   1.1993 C.2            1 S1                 0.0000
      6 ****        -1.0619   2.9214   0.1293 C.3            1 S1                 0.0000
      7 ****        -1.7989   4.2584   0.2924 C.3            1 S1                 0.0000
      8 ****         0.4673   3.1075  -0.0153 C.3            1 S1                 0.0000
      9 ****         1.2009   1.8444  -0.0074 N.am           1 S1                 0.0000
     10 ****         1.1646   0.9260  -0.9817 C.2            1 S1                 0.0000
     11 ****         0.5842   1.0815  -2.0562 O.2            1 S1                 0.0000
     12 ****         1.7965  -0.1987  -0.6219 N.am           1 S1                 0.0000
     13 ****         1.8050  -1.4359  -1.3952 C.3            1 S1                 0.0000
     14 ****         3.0424  -2.2649  -1.1152 C.3            1 S1                 0.0000
     15 ****         2.5800  -3.6830  -1.4467 C.3            1 S1                 0.0000
     16 ****         1.1594  -3.6852  -1.3331 O.3            1 S1                 0.0000
     17 ****         0.6953  -2.3957  -0.9514 C.3            1 S1                 0.0000
     18 ****        -0.6787  -2.1196  -1.5746 C.3            1 S1                 0.0000
     19 ****        -1.9242   0.7225   0.9361 N.2            1 S1                 0.0000
     20 ****        -2.7242  -1.9237   2.9382 H              1 S1                 0.0000
     21 ****        -2.0267  -2.0441   1.3277 H              1 S1                 0.0000
     22 ****        -3.6656  -1.4344   1.5340 H              1 S1                 0.0000
     23 ****        -1.8581   0.2612   4.2586 H              1 S1                 0.0000
     24 ****        -1.4170   2.4980  -0.8117 H              1 S1                 0.0000
     25 ****        -2.8792   4.1111   0.3055 H              1 S1                 0.0000
     26 ****        -1.5681   4.9355  -0.5305 H              1 S1                 0.0000
     27 ****        -1.5188   4.7579   1.2202 H              1 S1                 0.0000
     28 ****         0.7036   3.6740  -0.9173 H              1 S1                 0.0000
     29 ****         0.8415   3.6940   0.8241 H              1 S1                 0.0000
     30 ****         1.7071   1.6199   0.8367 H              1 S1                 0.0000
     31 ****         2.2428  -0.2250   0.2832 H              1 S1                 0.0000
     32 ****         1.7387  -1.2436  -2.4681 H              1 S1                 0.0000
     33 ****         3.9085  -1.9528  -1.6998 H              1 S1                 0.0000
     34 ****         3.3089  -2.2077  -0.0585 H              1 S1                 0.0000
     35 ****         2.8441  -3.9437  -2.4721 H              1 S1                 0.0000
     36 ****         3.0289  -4.4235  -0.7842 H              1 S1                 0.0000
     37 ****         0.6132  -2.3883   0.1372 H              1 S1                 0.0000
     38 ****        -1.0612  -1.1451  -1.2714 H              1 S1                 0.0000
     39 ****        -1.4052  -2.8697  -1.2617 H              1 S1                 0.0000
     40 ****        -0.6291  -2.1363  -2.6636 H              1 S1                 0.0000
     41 ****         0.1001   1.9362  -2.2439 LP             1 S1                 0.0000
     42 ****         0.5968   0.3532  -2.7413 LP             1 S1                 0.0000
     43 ****         0.8843  -4.3533  -0.6418 LP             1 S1                 0.0000
     44 ****         0.7578  -3.9332  -2.2148 LP             1 S1                 0.0000
     45 ****        -2.1231   0.3948   0.0124 LP             1 S1                 0.0000
@<TRIPOS>BOND
    1    1    2 1     
    2    1   20 1     
    3    1   21 1     
    4    1   22 1     
    5    2   19 1     
    6    2    3 2     
    7    3    4 1     
    8    3   23 1     
    9    4    5 1     
   10    5    6 1     
   11    5   19 2     
   12    6    7 1     
   13    6    8 1     
   14    6   24 1     
   15    7   25 1     
   16    7   26 1     
   17    7   27 1     
   18    8    9 1     
   19    8   28 1     
   20    8   29 1     
   21    9   10 am    
   22    9   30 1     
   23   10   11 2     
   24   10   12 am    
   25   12   13 1     
   26   12   31 1     
   27   13   17 1     
   28   13   14 1     
   29   13   32 1     
   30   14   15 1     
   31   14   33 1     
   32   14   34 1     
   33   15   16 1     
   34   15   35 1     
   35   15   36 1     
   36   16   17 1     
   37   17   18 1     
   38   17   37 1     
   39   18   38 1     
   40   18   39 1     
   41   18   40 1     
   42   11   41 1     
   43   11   42 1     
   44   16   43 1     
   45   16   44 1     
   46   19   45 1     
@<TRIPOS>SUBSTRUCTURE
      1 S1             1
@<TRIPOS>SET
LONE_PAIRS      STATIC     ATOMS    <user>   **** ""
5 41 42 43 44 45
DONOR_HYDROGENS      STATIC     ATOMS    <user>   **** ""
2 30 31
ATOM$BLUE        STATIC     ATOMS    COLORGROUP SYSTEM
5 41 42 43 44 45
ATOM$RED        STATIC     ATOMS    COLORGROUP SYSTEM
2 30 31
