AV-unprocessed.smi:104|AV-procd|sdf|1008|dock4
  -GOLD-   2262018 03D 1   1.00000     0.00000
 Structure written by MMmdl.
 47 49  0  0  0  0  0  0  0  0  1 V2000
  145.3803  136.3494  161.9347 C   0  0  0  0  0  0  0  0  0  0  0  0
  146.7543  136.1209  161.3190 C   0  0  0  0  0  0  0  0  0  0  0  0
  147.7665  136.6388  161.7914 O   0  0  0  0  0  0  0  0  0  0  0  0
  146.7058  135.3211  160.2441 O   0  0  0  0  0  0  0  0  0  0  0  0
  147.9085  134.9661  159.5792 C   0  0  0  0  0  0  0  0  0  0  0  0
  148.1347  135.8751  158.3643 C   0  0  1  0  0  0  0  0  0  0  0  0
  147.7224  137.2008  158.6627 O   0  0  0  0  0  0  0  0  0  0  0  0
  148.5124  138.1260  157.9878 C   0  0  2  0  0  0  0  0  0  0  0  0
  147.7277  138.6682  156.8168 N   0  0  0  0  0  0  0  0  0  0  0  0
  146.4606  138.3057  156.4095 C   0  0  0  0  0  0  0  0  0  0  0  0
  145.4120  137.0069  157.3284 Br  0  0  0  0  0  0  0  0  0  0  0  0
  145.9755  138.8957  155.3545 N   0  0  0  0  0  0  0  0  0  0  0  0
  147.0032  139.7484  154.9816 C   0  0  0  0  0  0  0  0  0  0  0  0
  147.1647  140.6862  153.9308 C   0  0  0  0  0  0  0  0  0  0  0  0
  146.2205  140.9211  153.0094 N   0  0  0  0  0  0  0  0  0  0  0  0
  148.3240  141.3786  153.8519 N   0  0  0  0  0  0  0  0  0  0  0  0
  149.2809  141.1612  154.7581 C   0  0  0  0  0  0  0  0  0  0  0  0
  149.2734  140.3166  155.7914 N   0  0  0  0  0  0  0  0  0  0  0  0
  148.1056  139.6150  155.8770 C   0  0  0  0  0  0  0  0  0  0  0  0
  149.8456  137.4400  157.6126 C   0  0  2  0  0  0  0  0  0  0  0  0
  150.2660  137.7152  156.2772 O   0  0  0  0  0  0  0  0  0  0  0  0
  151.5149  137.4186  155.8810 C   0  0  0  0  0  0  0  0  0  0  0  0
  151.8602  138.0513  154.5403 C   0  0  0  0  0  0  0  0  0  0  0  0
  152.3290  136.7346  156.5013 O   0  0  0  0  0  0  0  0  0  0  0  0
  149.5923  135.9517  157.8840 C   0  0  2  0  0  0  0  0  0  0  0  0
  149.7563  135.1309  156.7309 O   0  0  0  0  0  0  0  0  0  0  0  0
  149.8350  133.7944  156.8487 C   0  0  0  0  0  0  0  0  0  0  0  0
  150.0613  133.1087  155.5082 C   0  0  0  0  0  0  0  0  0  0  0  0
  149.7517  133.1519  157.8953 O   0  0  0  0  0  0  0  0  0  0  0  0
  144.8697  135.3986  162.0894 H   0  0  0  0  0  0  0  0  0  0  0  0
  144.7702  136.9672  161.2759 H   0  0  0  0  0  0  0  0  0  0  0  0
  145.4706  136.8543  162.8967 H   0  0  0  0  0  0  0  0  0  0  0  0
  148.7469  135.0622  160.2707 H   0  0  0  0  0  0  0  0  0  0  0  0
  147.8644  133.9230  159.2624 H   0  0  0  0  0  0  0  0  0  0  0  0
  147.4936  135.5167  157.5607 H   0  0  0  0  0  0  0  0  0  0  0  0
  148.6784  138.9894  158.6285 H   0  0  0  0  0  0  0  0  0  0  0  0
  145.3454  140.4183  153.0457 H   0  0  0  0  0  0  0  0  0  0  0  0
  146.3873  141.5970  152.2781 H   0  0  0  0  0  0  0  0  0  0  0  0
  150.1806  141.7467  154.6394 H   0  0  0  0  0  0  0  0  0  0  0  0
  150.6032  137.7787  158.3210 H   0  0  0  0  0  0  0  0  0  0  0  0
  151.1980  137.6719  153.7622 H   0  0  0  0  0  0  0  0  0  0  0  0
  152.8890  137.8231  154.2613 H   0  0  0  0  0  0  0  0  0  0  0  0
  151.7478  139.1344  154.5943 H   0  0  0  0  0  0  0  0  0  0  0  0
  150.2587  135.6226  158.6824 H   0  0  0  0  0  0  0  0  0  0  0  0
  149.2133  133.2835  154.8460 H   0  0  0  0  0  0  0  0  0  0  0  0
  150.1796  132.0335  155.6428 H   0  0  0  0  0  0  0  0  0  0  0  0
  150.9607  133.4988  155.0313 H   0  0  0  0  0  0  0  0  0  0  0  0
  1  2  1  0  0  0  0
  1 30  1  0  0  0  0
  1 31  1  0  0  0  0
  1 32  1  0  0  0  0
  2  3  2  0  0  0  0
  2  4  1  0  0  0  0
  4  5  1  0  0  0  0
  5  6  1  0  0  0  0
  5 33  1  0  0  0  0
  5 34  1  0  0  0  0
  6 25  1  0  0  0  0
  6  7  1  0  0  0  0
  6 35  1  0  0  0  0
  7  8  1  0  0  0  0
  8  9  1  0  0  0  0
  8 20  1  0  0  0  0
  8 36  1  0  0  0  0
  9 19  1  0  0  0  0
  9 10  1  0  0  0  0
 10 11  1  0  0  0  0
 10 12  2  0  0  0  0
 12 13  1  0  0  0  0
 13 19  2  0  0  0  0
 13 14  1  0  0  0  0
 14 15  1  0  0  0  0
 14 16  2  0  0  0  0
 15 37  1  0  0  0  0
 15 38  1  0  0  0  0
 16 17  1  0  0  0  0
 17 18  2  0  0  0  0
 17 39  1  0  0  0  0
 18 19  1  0  0  0  0
 20 21  1  0  0  0  0
 20 25  1  0  0  0  0
 20 40  1  0  0  0  0
 21 22  1  0  0  0  0
 22 23  1  0  0  0  0
 22 24  2  0  0  0  0
 23 41  1  0  0  0  0
 23 42  1  0  0  0  0
 23 43  1  0  0  0  0
 25 26  1  0  0  0  0
 25 44  1  0  0  0  0
 26 27  1  0  0  0  0
 27 28  1  0  0  0  0
 27 29  2  0  0  0  0
 28 45  1  0  0  0  0
 28 46  1  0  0  0  0
 28 47  1  0  0  0  0
M  END
> <s_m_source_file>
AV-unprocessed.smi

> <i_m_source_file_index>
104

> <i_lp_mmshare_version>
43012

> <i_f3d_flags>
0

> <s_epik_input>
W0NIM11DKD1PKU9bQ0gyXVtDQEBIXTFPW0NASF0oW0NAQEhdKE9DKD1PKVtDSDNdKVtDQEhdMU9DKD1PKVtDSDNdKW4oYyhCciluMiljKGMyMyluW2NIXW5jM1tOSDJd

> <s_epik_cmdline>
J2VwaWtfcHl0aG9uJywgJy1waCcsICc3LjAnLCAnLXRuJywgJzgnLCAnLW1hJywgJzIwMCcsICctbWV0YWxfYmluZGluZycsICctaW1hZScsICc8aW5maWxlLm1hZT4nLCAnLW9tYWUnLCAnPG91dGZpbGUubWFlPic=

> <r_lp_tautomer_probability>
1

> <r_epik_Ionization_Penalty>
7.36622e-05

> <r_epik_Ionization_Penalty_Charging>
0

> <r_epik_Ionization_Penalty_Neutral>
7.36622e-05

> <r_epik_State_Penalty>
-0

> <r_epik_Charging_Adjusted_Penalty>
0

> <i_epik_Tot_Q>
0

> <i_epik_Tot_abs_Q>
0

> <r_epik_Metal_State_Penalty>
-0

> <b_epik_Metal_Only>
0

> <s_epik_Chemistry_Notes>
This compound has an ester and may undergo hydrolysis at high or low pH. This compound contains an acetal/aminal-like group ( X-CH(R)-Y where X, Y are N, S, or O) that may be acid/base labile, releasing an aldehyde.

> <s_lp_Force_Field>
OPLS_2005

> <r_lp_Energy>
19.0996

> <b_lp_Chiralities_Consistent>
1

> <s_lp_Variant>
AV-unprocessed.smi:104-16

> <Gold.Version>
5.8.1

> <Gold.Id.Protein>
6NUR|6NUR_protein|mol2

> <Gold.PLP.Fitness>
40.9626

> <Gold.PLP.PLP>
-29.1328

> <Gold.PLP.part.hbond>
-5.4445

> <Gold.PLP.part.metal>
0.0000

> <Gold.PLP.part.buried>
-5.3010

> <Gold.PLP.part.nonpolar>
-18.6359

> <Gold.PLP.part.repulsive>
0.3425

> <Gold.PLP.ligand.clash>
0.0000

> <Gold.PLP.ligand.torsion>
0.8207

> <Gold.PLP.Chemscore.Hbond>
4.4100

> <Gold.PLP.Chemscore.CHOScore>
0.0000

> <Gold.PLP.Chemscore.Metal>
0.0000

> <Gold.Chemscore.Hbonds>
donor molecule, donor type, donor heavy atom, donor atom, acceptor molecule, acceptor atom, score
      L1  H    15    37       P1 10175  0.83
      P1  H  6896  6909       L1    29  1.00
      P1  H  6931  6943       L1     3  0.96
      P1  H  8011  8017       L1    16  0.10
      P1  H 10752 10765       L1    24  0.89

> <Gold.PLP.Chemscore.Internal.Correction>
0.2413

> <Gold.Rescore>
     Score         DG    S(hbond)    S(metal)    S(lipo)     H(rot)  DE(clash)    DE(int)     intcor
      5.73     -10.53       3.54        0.00      36.32       4.31       0.14       4.66       ----

> <Gold.Chemscore.Fitness>
5.7299

> <Gold.Chemscore.DG>
-10.5327

> <Gold.Chemscore.ZeroCoef>
-5.4800

> <Gold.Chemscore.Hbond>
3.5416

> <Gold.Chemscore.Metal>
0.0000

> <Gold.Chemscore.Lipo>
36.3228

> <Gold.Chemscore.Internal_Hbond>
0.0000

> <Gold.Chemscore.DEClash>
0.1441

> <Gold.Chemscore.DEInternal>
4.6587

> <Gold.Chemscore.Rot>
4.3070

> <Gold.Chemscore.Internal.Correction>
   9.000000E+99

> <Gold.Chemscore.Hbonds>
donor molecule, donor type, donor heavy atom, donor atom, acceptor molecule, acceptor atom, score
      L1  H    15    37       P1 10175  0.77
      P1  H  6896  6909       L1    29  0.91
      P1  H  6931  6943       L1     3  0.90
      P1  H  8011  8017       L1    16  0.01
      P1  H 10752 10765       L1    24  0.47

> <Gold.Chemscore.Hbond.Weighted>
-11.8288

> <Gold.Chemscore.Metal.Weighted>
-0.0000

> <Gold.Chemscore.Lipo.Weighted>
-4.2498

> <Gold.Chemscore.Internal_Hbond.Weighted>
0.0000

> <Gold.Chemscore.DEClash.Weighted>
0.1441

> <Gold.Chemscore.DEInternal.Weighted>
4.6587

> <Gold.Chemscore.Rot.Weighted>
11.0259

> <Gold.Chemscore.Internal.Correction.Weighted>
   9.000000E+99

> <Gold.Protein.RotatedTorsions>
[ 6907 6896 6895 6894 ] final   -0.63 input  -60.11 | X-H torsion
[ 7974 7965 7964 7962 ] final -126.68 input  175.53 | X-H torsion
[ 8008 7997 7996 7995 ] final -113.55 input   59.86 | X-H torsion
[ 10167 10162 10161 10158 ] final  174.00 input  -65.29 | X-H torsion
[ 10718 10713 10712 10709 ] final  -54.62 input   66.30 | X-H torsion
[ 10763 10752 10751 10750 ] final -147.56 input  -60.55 | X-H torsion
[ 11005 11000 10999 10996 ] final  -59.95 input  -57.11 | X-H torsion

> <Gold.Protein.ActiveResidues>
 VAL166  LYS551  ARG553  GLY616  TRP617  ASP618  TYR619  PRO620  LYS621  CYS622 
 ASP623  PHE694  ASN695  SER759  ASP760  ASP761  ALA762  ILE779  LEU786  VAL792 
 PHE793  MET794  SER795  GLU796  ALA797  LYS798  CYS799  TRP800  GLU811  SER814 

> <Gold.Protein.RotatedAtoms>
  151.5591  135.1066  159.9967 H   0  0  0  0  0  0  0  0  0  0  0  0  # atno 6907 bound_to 6896
  152.4455  133.7524  159.6712 H   0  0  0  0  0  0  0  0  0  0  0  0  # atno 6908 bound_to 6896
  150.8370  133.7930  159.3099 H   0  0  0  0  0  0  0  0  0  0  0  0  # atno 6909 bound_to 6896
  144.9847  140.7675  143.4590 H   0  0  0  0  0  0  0  0  0  0  0  0  # atno 7974 bound_to 7965
  155.0225  140.0393  157.2443 H   0  0  0  0  0  0  0  0  0  0  0  0  # atno 8008 bound_to 7997
  154.7365  140.2741  155.6386 H   0  0  0  0  0  0  0  0  0  0  0  0  # atno 8009 bound_to 7997
  156.2854  140.2674  156.2081 H   0  0  0  0  0  0  0  0  0  0  0  0  # atno 8010 bound_to 7997
  139.5127  144.3196  152.0215 H   0  0  0  0  0  0  0  0  0  0  0  0  # atno 10167 bound_to 10162
  156.1436  130.4153  150.0062 H   0  0  0  0  0  0  0  0  0  0  0  0  # atno 10718 bound_to 10713
  154.8279  135.3357  154.6837 H   0  0  0  0  0  0  0  0  0  0  0  0  # atno 10763 bound_to 10752
  153.7461  135.6942  153.4960 H   0  0  0  0  0  0  0  0  0  0  0  0  # atno 10764 bound_to 10752
  153.2209  135.4449  155.0439 H   0  0  0  0  0  0  0  0  0  0  0  0  # atno 10765 bound_to 10752
  141.1268  133.6619  156.5150 H   0  0  0  0  0  0  0  0  0  0  0  0  # atno 11005 bound_to 11000
  145.2370  139.2089  143.5013 LP  0  0  0  0  0  0  0  0  0  0  0  0  # atno 17320 bound_to 7965
  146.3417  140.2258  142.8592 LP  0  0  0  0  0  0  0  0  0  0  0  0  # atno 17321 bound_to 7965
  140.2639  144.4038  150.6175 LP  0  0  0  0  0  0  0  0  0  0  0  0  # atno 17342 bound_to 10162
  140.6138  143.2171  151.6834 LP  0  0  0  0  0  0  0  0  0  0  0  0  # atno 17343 bound_to 10162
  156.7940  130.9266  151.3646 LP  0  0  0  0  0  0  0  0  0  0  0  0  # atno 17370 bound_to 10713
  157.6597  130.8955  149.9803 LP  0  0  0  0  0  0  0  0  0  0  0  0  # atno 17371 bound_to 10713
  140.4338  134.7077  157.4956 LP  0  0  0  0  0  0  0  0  0  0  0  0  # atno 17394 bound_to 11000
  140.0275  134.6455  155.9152 LP  0  0  0  0  0  0  0  0  0  0  0  0  # atno 17395 bound_to 11000

$$$$
