AV-unprocessed.smi:1617|AV-procd|sdf|6484|dock10
  -GOLD-   22720 7143D 1   1.00000     0.00000
 Structure written by MMmdl.
 47 49  0  0  0  0  0  0  0  0  1 V2000
  149.3281  135.4201  156.3778 O   0  0  0  0  0  0  0  0  0  0  0  0
  149.2843  135.7258  155.1864 C   0  0  0  0  0  0  0  0  0  0  0  0
  149.7082  136.8899  154.6651 N   0  0  0  0  0  0  0  0  0  0  0  0
  150.2466  138.0190  155.3396 C   0  0  0  0  0  0  0  0  0  0  0  0
  150.6941  139.1957  154.6970 C   0  0  0  0  0  0  0  0  0  0  0  0
  151.2261  140.2409  155.4766 C   0  0  0  0  0  0  0  0  0  0  0  0
  151.3063  140.0887  156.8843 C   0  0  0  0  0  0  0  0  0  0  0  0
  151.8362  141.0970  157.7230 N   0  0  0  0  0  0  0  0  0  0  0  0
  151.3346  142.4620  157.5826 C   0  0  0  0  0  0  0  0  0  0  0  0
  152.2449  143.4555  158.3246 C   0  0  0  0  0  0  0  0  0  0  0  0
  152.3935  143.0534  159.6811 O   0  0  0  0  0  0  0  0  0  0  0  0
  153.0149  141.7775  159.7836 C   0  0  0  0  0  0  0  0  0  0  0  0
  152.1370  140.7135  159.1029 C   0  0  0  0  0  0  0  0  0  0  0  0
  150.8879  138.9513  157.4902 N   0  0  0  0  0  0  0  0  0  0  0  0
  150.3804  137.9518  156.7397 C   0  0  0  0  0  0  0  0  0  0  0  0
  148.8131  134.9106  154.2308 N   0  0  0  0  0  0  0  0  0  0  0  0
  148.2577  133.5733  154.4538 C   0  0  2  0  0  0  0  0  0  0  0  0
  149.2696  132.5472  153.8941 C   0  0  0  0  0  0  0  0  0  0  0  0
  149.1260  131.1400  154.4997 C   0  0  0  0  0  0  0  0  0  0  0  0
  147.8035  130.4267  154.1791 C   0  0  0  0  0  0  0  0  0  0  0  0
  146.5619  131.1480  154.7311 C   0  0  0  0  0  0  0  0  0  0  0  0
  146.1881  132.2968  153.9165 N   0  0  0  0  0  0  0  0  0  0  0  0
  146.9078  133.4109  153.7160 C   0  0  0  0  0  0  0  0  0  0  0  0
  146.4995  134.2852  152.9515 O   0  0  0  0  0  0  0  0  0  0  0  0
  149.6830  136.9602  153.6583 H   0  0  0  0  0  0  0  0  0  0  0  0
  150.6537  139.3157  153.6257 H   0  0  0  0  0  0  0  0  0  0  0  0
  151.5549  141.1371  154.9737 H   0  0  0  0  0  0  0  0  0  0  0  0
  151.2962  142.7474  156.5311 H   0  0  0  0  0  0  0  0  0  0  0  0
  150.3194  142.5144  157.9781 H   0  0  0  0  0  0  0  0  0  0  0  0
  153.2223  143.5209  157.8436 H   0  0  0  0  0  0  0  0  0  0  0  0
  151.8102  144.4546  158.2957 H   0  0  0  0  0  0  0  0  0  0  0  0
  154.0087  141.8068  159.3337 H   0  0  0  0  0  0  0  0  0  0  0  0
  153.1506  141.5325  160.8370 H   0  0  0  0  0  0  0  0  0  0  0  0
  151.1988  140.5986  159.6472 H   0  0  0  0  0  0  0  0  0  0  0  0
  152.6542  139.7555  159.1529 H   0  0  0  0  0  0  0  0  0  0  0  0
  150.0654  137.0705  157.2793 H   0  0  0  0  0  0  0  0  0  0  0  0
  148.8146  135.2456  153.2788 H   0  0  0  0  0  0  0  0  0  0  0  0
  148.1204  133.4198  155.5257 H   0  0  0  0  0  0  0  0  0  0  0  0
  149.2148  132.4971  152.8051 H   0  0  0  0  0  0  0  0  0  0  0  0
  150.2818  132.8876  154.1183 H   0  0  0  0  0  0  0  0  0  0  0  0
  149.9479  130.5216  154.1376 H   0  0  0  0  0  0  0  0  0  0  0  0
  149.2538  131.1972  155.5813 H   0  0  0  0  0  0  0  0  0  0  0  0
  147.7057  130.2790  153.1026 H   0  0  0  0  0  0  0  0  0  0  0  0
  147.8441  129.4278  154.6146 H   0  0  0  0  0  0  0  0  0  0  0  0
  145.7155  130.4608  154.7235 H   0  0  0  0  0  0  0  0  0  0  0  0
  146.7060  131.4450  155.7708 H   0  0  0  0  0  0  0  0  0  0  0  0
  145.3064  132.2280  153.4288 H   0  0  0  0  0  0  0  0  0  0  0  0
  1  2  2  0  0  0  0
  2  3  1  0  0  0  0
  2 16  1  0  0  0  0
  3  4  1  0  0  0  0
  3 25  1  0  0  0  0
  4 15  1  0  0  0  0
  4  5  2  0  0  0  0
  5  6  1  0  0  0  0
  5 26  1  0  0  0  0
  6  7  2  0  0  0  0
  6 27  1  0  0  0  0
  7  8  1  0  0  0  0
  7 14  1  0  0  0  0
  8 13  1  0  0  0  0
  8  9  1  0  0  0  0
  9 10  1  0  0  0  0
  9 28  1  0  0  0  0
  9 29  1  0  0  0  0
 10 11  1  0  0  0  0
 10 30  1  0  0  0  0
 10 31  1  0  0  0  0
 11 12  1  0  0  0  0
 12 13  1  0  0  0  0
 12 32  1  0  0  0  0
 12 33  1  0  0  0  0
 13 34  1  0  0  0  0
 13 35  1  0  0  0  0
 14 15  2  0  0  0  0
 15 36  1  0  0  0  0
 16 17  1  0  0  0  0
 16 37  1  0  0  0  0
 17 23  1  0  0  0  0
 17 18  1  0  0  0  0
 17 38  1  0  0  0  0
 18 19  1  0  0  0  0
 18 39  1  0  0  0  0
 18 40  1  0  0  0  0
 19 20  1  0  0  0  0
 19 41  1  0  0  0  0
 19 42  1  0  0  0  0
 20 21  1  0  0  0  0
 20 43  1  0  0  0  0
 20 44  1  0  0  0  0
 21 22  1  0  0  0  0
 21 45  1  0  0  0  0
 21 46  1  0  0  0  0
 22 23  1  0  0  0  0
 22 47  1  0  0  0  0
 23 24  2  0  0  0  0
M  END
> <s_m_source_file>
AV-unprocessed.smi

> <i_m_source_file_index>
1617

> <i_lp_mmshare_version>
43012

> <i_f3d_flags>
0

> <s_epik_input>
Tz1DMVtOSF1bQ0gyXVtDSDJdW0NIMl1bQ0gyXVtDQEhdMVtOSF1DKD1PKVtOSF1jMltjSF1bY0hdYyhuW2NIXTIpTjNbQ0gyXVtDSDJdT1tDSDJdW0NIMl0z

> <s_epik_cmdline>
J2VwaWtfcHl0aG9uJywgJy1waCcsICc3LjAnLCAnLXRuJywgJzgnLCAnLW1hJywgJzIwMCcsICctbWV0YWxfYmluZGluZycsICctaW1hZScsICc8aW5maWxlLm1hZT4nLCAnLW9tYWUnLCAnPG91dGZpbGUubWFlPic=

> <r_lp_tautomer_probability>
1

> <r_epik_Ionization_Penalty>
0.00171733

> <r_epik_Ionization_Penalty_Charging>
0

> <r_epik_Ionization_Penalty_Neutral>
0.00171733

> <r_epik_State_Penalty>
0.00113787

> <r_epik_Charging_Adjusted_Penalty>
0.00113787

> <i_epik_Tot_Q>
0

> <i_epik_Tot_abs_Q>
0

> <r_epik_Metal_State_Penalty>
-0

> <b_epik_Metal_Only>
0

> <s_lp_Force_Field>
OPLS_2005

> <r_lp_Energy>
27.2722

> <b_lp_Chiralities_Consistent>
1

> <s_lp_Variant>
AV-unprocessed.smi:1617-1

> <Gold.Version>
5.8.1

> <Gold.Id.Protein>
6NUR|6NUR_protein|mol2

> <Gold.PLP.Fitness>
40.4388

> <Gold.PLP.PLP>
-34.7181

> <Gold.PLP.part.hbond>
-2.0000

> <Gold.PLP.part.metal>
0.0000

> <Gold.PLP.part.buried>
-4.7077

> <Gold.PLP.part.nonpolar>
-27.7838

> <Gold.PLP.part.repulsive>
0.1463

> <Gold.PLP.ligand.clash>
0.0000

> <Gold.PLP.ligand.torsion>
0.3471

> <Gold.PLP.Chemscore.Hbond>
1.9833

> <Gold.PLP.Chemscore.CHOScore>
0.0000

> <Gold.PLP.Chemscore.Metal>
0.0000

> <Gold.Chemscore.Hbonds>
donor molecule, donor type, donor heavy atom, donor atom, acceptor molecule, acceptor atom, score
      L1  H     3    25       P1  7948  0.95
      L1  H    16    37       P1  7948  1.00

> <Gold.PLP.Chemscore.Internal.Correction>
0.4650

> <Gold.Rescore>
     Score         DG    S(hbond)    S(metal)    S(lipo)     H(rot)  DE(clash)    DE(int)     intcor
     16.17     -17.97       1.77        0.00      84.04       1.27       0.03       1.77       ----

> <Gold.Chemscore.Fitness>
16.1691

> <Gold.Chemscore.DG>
-17.9715

> <Gold.Chemscore.ZeroCoef>
-5.4800

> <Gold.Chemscore.Hbond>
1.7682

> <Gold.Chemscore.Metal>
0.0000

> <Gold.Chemscore.Lipo>
84.0393

> <Gold.Chemscore.Internal_Hbond>
0.0000

> <Gold.Chemscore.DEClash>
0.0318

> <Gold.Chemscore.DEInternal>
1.7706

> <Gold.Chemscore.Rot>
1.2684

> <Gold.Chemscore.Internal.Correction>
   9.000000E+99

> <Gold.Chemscore.Hbonds>
donor molecule, donor type, donor heavy atom, donor atom, acceptor molecule, acceptor atom, score
      L1  H     3    25       P1  7948  0.60
      L1  H    16    37       P1  7948  0.65

> <Gold.Chemscore.Hbond.Weighted>
-5.9059

> <Gold.Chemscore.Metal.Weighted>
-0.0000

> <Gold.Chemscore.Lipo.Weighted>
-9.8326

> <Gold.Chemscore.Internal_Hbond.Weighted>
0.0000

> <Gold.Chemscore.DEClash.Weighted>
0.0318

> <Gold.Chemscore.DEInternal.Weighted>
1.7706

> <Gold.Chemscore.Rot.Weighted>
3.2471

> <Gold.Chemscore.Internal.Correction.Weighted>
   9.000000E+99

> <Gold.Protein.RotatedTorsions>
[ 6907 6896 6895 6894 ] final  100.93 input  -60.11 | X-H torsion
[ 7974 7965 7964 7962 ] final -112.46 input  175.53 | X-H torsion
[ 8008 7997 7996 7995 ] final  175.08 input   59.86 | X-H torsion
[ 10167 10162 10161 10158 ] final   21.74 input  -65.29 | X-H torsion
[ 10718 10713 10712 10709 ] final -176.15 input   66.30 | X-H torsion
[ 10763 10752 10751 10750 ] final  175.18 input  -60.55 | X-H torsion
[ 11005 11000 10999 10996 ] final -104.98 input  -57.11 | X-H torsion

> <Gold.Protein.ActiveResidues>
 VAL166  LYS551  ARG553  GLY616  TRP617  ASP618  TYR619  PRO620  LYS621  CYS622 
 ASP623  PHE694  ASN695  SER759  ASP760  ASP761  ALA762  ILE779  LEU786  VAL792 
 PHE793  MET794  SER795  GLU796  ALA797  LYS798  CYS799  TRP800  GLU811  SER814 

> <Gold.Protein.RotatedAtoms>
  152.5361  134.0202  159.7978 H   0  0  0  0  0  0  0  0  0  0  0  0  # atno 6907 bound_to 6896
  151.0390  133.5715  159.2660 H   0  0  0  0  0  0  0  0  0  0  0  0  # atno 6908 bound_to 6896
  151.2692  135.0686  159.9181 H   0  0  0  0  0  0  0  0  0  0  0  0  # atno 6909 bound_to 6896
  145.1437  140.8791  143.3687 H   0  0  0  0  0  0  0  0  0  0  0  0  # atno 7974 bound_to 7965
  156.0908  140.1418  156.9594 H   0  0  0  0  0  0  0  0  0  0  0  0  # atno 8008 bound_to 7997
  154.4641  140.0932  156.7019 H   0  0  0  0  0  0  0  0  0  0  0  0  # atno 8009 bound_to 7997
  155.4922  140.3448  155.4359 H   0  0  0  0  0  0  0  0  0  0  0  0  # atno 8010 bound_to 7997
  140.5403  143.9689  150.6515 H   0  0  0  0  0  0  0  0  0  0  0  0  # atno 10167 bound_to 10162
  156.8104  130.9584  151.3116 H   0  0  0  0  0  0  0  0  0  0  0  0  # atno 10718 bound_to 10713
  154.4641  135.2769  155.1691 H   0  0  0  0  0  0  0  0  0  0  0  0  # atno 10763 bound_to 10752
  154.3467  135.6158  153.5626 H   0  0  0  0  0  0  0  0  0  0  0  0  # atno 10764 bound_to 10752
  152.9857  135.5801  154.5009 H   0  0  0  0  0  0  0  0  0  0  0  0  # atno 10765 bound_to 10752
  141.1075  133.8769  157.1677 H   0  0  0  0  0  0  0  0  0  0  0  0  # atno 11005 bound_to 11000
  145.0505  139.3185  143.5931 LP  0  0  0  0  0  0  0  0  0  0  0  0  # atno 17320 bound_to 7965
  146.3502  139.9911  142.8685 LP  0  0  0  0  0  0  0  0  0  0  0  0  # atno 17321 bound_to 7965
  140.3088  143.3212  152.0900 LP  0  0  0  0  0  0  0  0  0  0  0  0  # atno 17342 bound_to 10162
  139.4986  144.6650  151.6378 LP  0  0  0  0  0  0  0  0  0  0  0  0  # atno 17343 bound_to 10162
  157.6509  130.8883  149.9630 LP  0  0  0  0  0  0  0  0  0  0  0  0  # atno 17370 bound_to 10713
  156.1048  130.3653  150.0154 LP  0  0  0  0  0  0  0  0  0  0  0  0  # atno 17371 bound_to 10713
  139.9952  135.0049  157.0067 LP  0  0  0  0  0  0  0  0  0  0  0  0  # atno 17394 bound_to 11000
  140.4863  134.1238  155.7225 LP  0  0  0  0  0  0  0  0  0  0  0  0  # atno 17395 bound_to 11000

$$$$
