AV-unprocessed.smi:886|AV-procd|sdf|4050|dock9
  -GOLD-   22720 1533D 1   1.00000     0.00000
 Structure written by MMmdl.
 35 37  0  0  0  0  0  0  0  0  1 V2000
  146.7973  140.6869  153.0373 C   0  0  0  0  0  0  0  0  0  0  0  0
  148.1091  140.2901  153.5251 N   0  0  0  0  0  0  0  0  0  0  0  0
  148.5337  140.4776  154.7841 C   0  0  0  0  0  0  0  0  0  0  0  0
  147.8521  141.0235  155.6524 O   0  0  0  0  0  0  0  0  0  0  0  0
  149.9354  140.0011  155.0676 C   0  0  0  0  0  0  0  0  0  0  0  0
  150.4792  138.9428  154.3019 C   0  0  0  0  0  0  0  0  0  0  0  0
  151.7743  138.4738  154.5843 C   0  0  0  0  0  0  0  0  0  0  0  0
  152.4855  139.0786  155.6346 C   0  0  0  0  0  0  0  0  0  0  0  0
  151.9848  140.0849  156.3788 N   0  0  0  0  0  0  0  0  0  0  0  0
  150.7367  140.5436  156.1141 C   0  0  0  0  0  0  0  0  0  0  0  0
  150.2675  141.6097  156.9030 N   0  0  0  0  0  0  0  0  0  0  0  0
  151.1939  142.5667  157.4987 C   0  0  2  0  0  0  0  0  0  0  0  0
  152.1416  141.9260  158.5213 C   0  0  0  0  0  0  0  0  0  0  0  0
  151.8611  142.7569  159.7795 C   0  0  1  0  0  0  0  0  0  0  0  0
  152.3752  144.1973  159.6519 C   0  0  0  0  0  0  0  0  0  0  0  0
  151.3664  144.8032  158.6766 C   0  0  0  0  0  0  0  0  0  0  0  0
  150.4619  143.6017  158.3698 C   0  0  2  0  0  0  0  0  0  0  0  0
  150.4671  142.9620  159.6362 O   0  0  0  0  0  0  0  0  0  0  0  0
  146.7025  140.4378  151.9805 H   0  0  0  0  0  0  0  0  0  0  0  0
  146.6504  141.7619  153.1485 H   0  0  0  0  0  0  0  0  0  0  0  0
  146.0074  140.1686  153.5827 H   0  0  0  0  0  0  0  0  0  0  0  0
  148.7342  139.8486  152.8662 H   0  0  0  0  0  0  0  0  0  0  0  0
  149.9112  138.4824  153.5065 H   0  0  0  0  0  0  0  0  0  0  0  0
  152.2093  137.6671  154.0132 H   0  0  0  0  0  0  0  0  0  0  0  0
  153.4818  138.7460  155.8848 H   0  0  0  0  0  0  0  0  0  0  0  0
  149.3740  141.4928  157.3599 H   0  0  0  0  0  0  0  0  0  0  0  0
  151.7440  143.0781  156.7075 H   0  0  0  0  0  0  0  0  0  0  0  0
  151.8930  140.8789  158.7011 H   0  0  0  0  0  0  0  0  0  0  0  0
  153.1861  141.9762  158.2126 H   0  0  0  0  0  0  0  0  0  0  0  0
  152.1491  142.2637  160.7082 H   0  0  0  0  0  0  0  0  0  0  0  0
  152.3342  144.7116  160.6127 H   0  0  0  0  0  0  0  0  0  0  0  0
  153.4004  144.2393  159.2831 H   0  0  0  0  0  0  0  0  0  0  0  0
  150.7994  145.5995  159.1604 H   0  0  0  0  0  0  0  0  0  0  0  0
  151.8347  145.2133  157.7812 H   0  0  0  0  0  0  0  0  0  0  0  0
  149.4734  143.8832  158.0048 H   0  0  0  0  0  0  0  0  0  0  0  0
  1  2  1  0  0  0  0
  1 19  1  0  0  0  0
  1 20  1  0  0  0  0
  1 21  1  0  0  0  0
  2  3  1  0  0  0  0
  2 22  1  0  0  0  0
  3  4  2  0  0  0  0
  3  5  1  0  0  0  0
  5 10  1  0  0  0  0
  5  6  2  0  0  0  0
  6  7  1  0  0  0  0
  6 23  1  0  0  0  0
  7  8  2  0  0  0  0
  7 24  1  0  0  0  0
  8  9  1  0  0  0  0
  8 25  1  0  0  0  0
  9 10  2  0  0  0  0
 10 11  1  0  0  0  0
 11 12  1  0  0  0  0
 11 26  1  0  0  0  0
 12 17  1  0  0  0  0
 12 13  1  0  0  0  0
 12 27  1  0  0  0  0
 13 14  1  0  0  0  0
 13 28  1  0  0  0  0
 13 29  1  0  0  0  0
 14 18  1  0  0  0  0
 14 15  1  0  0  0  0
 14 30  1  0  0  0  0
 15 16  1  0  0  0  0
 15 31  1  0  0  0  0
 15 32  1  0  0  0  0
 16 17  1  0  0  0  0
 16 33  1  0  0  0  0
 16 34  1  0  0  0  0
 17 18  1  0  0  0  0
 17 35  1  0  0  0  0
M  END
> <s_m_source_file>
AV-unprocessed.smi

> <i_m_source_file_index>
886

> <i_lp_mmshare_version>
43012

> <i_f3d_flags>
0

> <s_epik_input>
W0NIM11bTkhdQyg9TyljMVtjSF1bY0hdW2NIXW5jMVtOSF1bQ0BIXShbQ0gyXVtDQEhdMjMpW0NASF0oTzMpW0NIMl1bQ0gyXTI=

> <s_epik_cmdline>
J2VwaWtfcHl0aG9uJywgJy1waCcsICc3LjAnLCAnLXRuJywgJzgnLCAnLW1hJywgJzIwMCcsICctbWV0YWxfYmluZGluZycsICctaW1hZScsICc8aW5maWxlLm1hZT4nLCAnLW9tYWUnLCAnPG91dGZpbGUubWFlPic=

> <r_lp_tautomer_probability>
1

> <r_epik_Ionization_Penalty>
0.0065447

> <r_epik_Ionization_Penalty_Charging>
0

> <r_epik_Ionization_Penalty_Neutral>
0.0065447

> <r_epik_State_Penalty>
0.00484214

> <r_epik_Charging_Adjusted_Penalty>
0.00484214

> <i_epik_Tot_Q>
0

> <i_epik_Tot_abs_Q>
0

> <r_epik_Metal_State_Penalty>
-0

> <b_epik_Metal_Only>
0

> <s_lp_Force_Field>
OPLS_2005

> <r_lp_Energy>
46.3803

> <b_lp_Chiralities_Consistent>
1

> <s_lp_Variant>
AV-unprocessed.smi:886-3

> <Gold.Version>
5.8.1

> <Gold.Id.Protein>
6NUR|6NUR_protein|mol2

> <Gold.PLP.Fitness>
40.5151

> <Gold.PLP.PLP>
-38.5714

> <Gold.PLP.part.hbond>
-2.1826

> <Gold.PLP.part.metal>
0.0000

> <Gold.PLP.part.buried>
-4.6086

> <Gold.PLP.part.nonpolar>
-31.9833

> <Gold.PLP.part.repulsive>
0.2879

> <Gold.PLP.ligand.clash>
0.0000

> <Gold.PLP.ligand.torsion>
0.4559

> <Gold.PLP.Chemscore.Hbond>
0.9440

> <Gold.PLP.Chemscore.CHOScore>
0.0000

> <Gold.PLP.Chemscore.Metal>
0.0000

> <Gold.Chemscore.Hbonds>
donor molecule, donor type, donor heavy atom, donor atom, acceptor molecule, acceptor atom, score
      L1  H     2    22       P1  7957  0.90

> <Gold.PLP.Chemscore.Internal.Correction>
0.0234

> <Gold.Rescore>
     Score         DG    S(hbond)    S(metal)    S(lipo)     H(rot)  DE(clash)    DE(int)     intcor
     16.76     -18.71       0.99        0.00     106.60       1.00       0.20       1.75       ----

> <Gold.Chemscore.Fitness>
16.7561

> <Gold.Chemscore.DG>
-18.7081

> <Gold.Chemscore.ZeroCoef>
-5.4800

> <Gold.Chemscore.Hbond>
0.9930

> <Gold.Chemscore.Metal>
0.0000

> <Gold.Chemscore.Lipo>
106.5951

> <Gold.Chemscore.Internal_Hbond>
0.0000

> <Gold.Chemscore.DEClash>
0.2028

> <Gold.Chemscore.DEInternal>
1.7493

> <Gold.Chemscore.Rot>
1.0000

> <Gold.Chemscore.Internal.Correction>
   9.000000E+99

> <Gold.Chemscore.Hbonds>
donor molecule, donor type, donor heavy atom, donor atom, acceptor molecule, acceptor atom, score
      L1  H     2    22       P1  7957  0.88

> <Gold.Chemscore.Hbond.Weighted>
-3.3165

> <Gold.Chemscore.Metal.Weighted>
-0.0000

> <Gold.Chemscore.Lipo.Weighted>
-12.4716

> <Gold.Chemscore.Internal_Hbond.Weighted>
0.0000

> <Gold.Chemscore.DEClash.Weighted>
0.2028

> <Gold.Chemscore.DEInternal.Weighted>
1.7493

> <Gold.Chemscore.Rot.Weighted>
2.5600

> <Gold.Chemscore.Internal.Correction.Weighted>
   9.000000E+99

> <Gold.Protein.RotatedTorsions>
[ 6907 6896 6895 6894 ] final   79.51 input  -60.11 | X-H torsion
[ 7974 7965 7964 7962 ] final  -43.31 input  175.53 | X-H torsion
[ 8008 7997 7996 7995 ] final -146.22 input   59.86 | X-H torsion
[ 10167 10162 10161 10158 ] final -127.27 input  -65.29 | X-H torsion
[ 10718 10713 10712 10709 ] final  129.48 input   66.30 | X-H torsion
[ 10763 10752 10751 10750 ] final -121.85 input  -60.55 | X-H torsion
[ 11005 11000 10999 10996 ] final   38.58 input  -57.11 | X-H torsion

> <Gold.Protein.ActiveResidues>
 VAL166  LYS551  ARG553  GLY616  TRP617  ASP618  TYR619  PRO620  LYS621  CYS622 
 ASP623  PHE694  ASN695  SER759  ASP760  ASP761  ALA762  ILE779  LEU786  VAL792 
 PHE793  MET794  SER795  GLU796  ALA797  LYS798  CYS799  TRP800  GLU811  SER814 

> <Gold.Protein.RotatedAtoms>
  152.5201  134.3500  159.9247 H   0  0  0  0  0  0  0  0  0  0  0  0  # atno 6907 bound_to 6896
  151.3451  133.3941  159.2682 H   0  0  0  0  0  0  0  0  0  0  0  0  # atno 6908 bound_to 6896
  150.9772  134.9153  159.7881 H   0  0  0  0  0  0  0  0  0  0  0  0  # atno 6909 bound_to 6896
  146.0031  140.7051  142.9261 H   0  0  0  0  0  0  0  0  0  0  0  0  # atno 7974 bound_to 7965
  155.5558  140.0621  157.2840 H   0  0  0  0  0  0  0  0  0  0  0  0  # atno 8008 bound_to 7997
  154.4406  140.1894  156.0777 H   0  0  0  0  0  0  0  0  0  0  0  0  # atno 8009 bound_to 7997
  156.0483  140.3287  155.7325 H   0  0  0  0  0  0  0  0  0  0  0  0  # atno 8010 bound_to 7997
  139.9626  143.5933  152.2440 H   0  0  0  0  0  0  0  0  0  0  0  0  # atno 10167 bound_to 10162
  157.5150  131.1097  150.9237 H   0  0  0  0  0  0  0  0  0  0  0  0  # atno 10718 bound_to 10713
  154.8677  135.4153  154.2687 H   0  0  0  0  0  0  0  0  0  0  0  0  # atno 10763 bound_to 10752
  153.3601  135.7003  153.6724 H   0  0  0  0  0  0  0  0  0  0  0  0  # atno 10764 bound_to 10752
  153.5629  135.3606  155.2779 H   0  0  0  0  0  0  0  0  0  0  0  0  # atno 10765 bound_to 10752
  140.2112  134.3753  155.8048 H   0  0  0  0  0  0  0  0  0  0  0  0  # atno 11005 bound_to 11000
  144.6926  140.3268  143.7223 LP  0  0  0  0  0  0  0  0  0  0  0  0  # atno 17320 bound_to 7965
  145.7457  139.1778  143.2350 LP  0  0  0  0  0  0  0  0  0  0  0  0  # atno 17321 bound_to 7965
  139.6542  144.7661  151.2088 LP  0  0  0  0  0  0  0  0  0  0  0  0  # atno 17342 bound_to 10162
  140.7548  143.6112  150.8603 LP  0  0  0  0  0  0  0  0  0  0  0  0  # atno 17343 bound_to 10162
  156.9866  130.5547  149.5300 LP  0  0  0  0  0  0  0  0  0  0  0  0  # atno 17370 bound_to 10713
  156.0314  130.5405  150.8544 LP  0  0  0  0  0  0  0  0  0  0  0  0  # atno 17371 bound_to 10713
  141.2226  133.7144  156.8421 LP  0  0  0  0  0  0  0  0  0  0  0  0  # atno 17394 bound_to 11000
  140.1949  134.8939  157.3103 LP  0  0  0  0  0  0  0  0  0  0  0  0  # atno 17395 bound_to 11000

$$$$
