AV-unprocessed.smi:50|AV-procd|sdf|492|dock6
  -GOLD-   2262016353D 1   1.00000     0.00000
 Structure written by MMmdl.
 44 45  0  0  0  0  0  0  0  0  2 V2000
  152.0205  145.3921  160.3213 C   0  0  0  0  0  0  0  0  0  0  0  0
  151.9088  143.9496  159.7896 C   0  0  0  0  0  0  0  0  0  0  0  0
  153.2421  143.5443  159.1332 C   0  0  0  0  0  0  0  0  0  0  0  0
  150.7072  143.7686  158.8219 C   0  0  1  0  0  0  0  0  0  0  0  0
  150.8513  144.5975  157.6104 N   0  3  0  0  0  0  0  0  0  0  0  0
  150.5179  142.3283  158.3193 C   0  0  0  0  0  0  0  0  0  0  0  0
  149.7937  141.4899  158.8581 O   0  0  0  0  0  0  0  0  0  0  0  0
  151.2843  142.1083  157.2373 O   0  0  0  0  0  0  0  0  0  0  0  0
  151.7340  140.7933  156.9507 C   0  0  0  0  0  0  0  0  0  0  0  0
  150.6201  140.0115  156.2489 C   0  0  0  0  0  0  0  0  0  0  0  0
  150.9055  139.9605  154.8603 O   0  0  0  0  0  0  0  0  0  0  0  0
  151.0143  138.6649  154.3683 C   0  0  0  0  0  0  0  0  0  0  0  0
  149.8132  137.9354  154.7358 N   0  0  0  0  0  0  0  0  0  0  0  0
  149.6938  136.6919  155.3083 C   0  0  0  0  0  0  0  0  0  0  0  0
  148.4614  136.3157  155.5076 N   0  0  0  0  0  0  0  0  0  0  0  0
  147.6991  137.3751  155.0246 C   0  0  0  0  0  0  0  0  0  0  0  0
  146.2740  137.5392  154.9677 C   0  0  0  0  0  0  0  0  0  0  0  0
  145.4015  136.7618  155.3490 O   0  0  0  0  0  0  0  0  0  0  0  0
  145.9062  138.7623  154.3924 N   0  0  0  0  0  0  0  0  0  0  0  0
  146.8128  139.7126  153.9287 C   0  0  0  0  0  0  0  0  0  0  0  0
  146.2970  140.8304  153.4009 N   0  0  0  0  0  0  0  0  0  0  0  0
  148.1246  139.5620  153.9853 N   0  0  0  0  0  0  0  0  0  0  0  0
  148.5209  138.3759  154.5433 C   0  0  0  0  0  0  0  0  0  0  0  0
  149.7978  144.0885  159.3321 H   0  0  0  0  0  0  0  0  0  0  0  0
  144.9176  138.9509  154.3153 H   0  0  0  0  0  0  0  0  0  0  0  0
  152.1394  146.1054  159.5051 H   0  0  0  0  0  0  0  0  0  0  0  0
  152.8812  145.5005  160.9820 H   0  0  0  0  0  0  0  0  0  0  0  0
  151.1430  145.6887  160.8952 H   0  0  0  0  0  0  0  0  0  0  0  0
  151.7636  143.2937  160.6499 H   0  0  0  0  0  0  0  0  0  0  0  0
  153.4383  144.1358  158.2382 H   0  0  0  0  0  0  0  0  0  0  0  0
  153.2530  142.4923  158.8483 H   0  0  0  0  0  0  0  0  0  0  0  0
  154.0775  143.6956  159.8178 H   0  0  0  0  0  0  0  0  0  0  0  0
  151.6528  144.2820  157.0831 H   0  0  0  0  0  0  0  0  0  0  0  0
  150.9836  145.5622  157.8790 H   0  0  0  0  0  0  0  0  0  0  0  0
  152.6086  140.8528  156.3016 H   0  0  0  0  0  0  0  0  0  0  0  0
  152.0376  140.2800  157.8644 H   0  0  0  0  0  0  0  0  0  0  0  0
  150.5266  139.0088  156.6691 H   0  0  0  0  0  0  0  0  0  0  0  0
  149.6696  140.5236  156.4051 H   0  0  0  0  0  0  0  0  0  0  0  0
  151.1028  138.6808  153.2802 H   0  0  0  0  0  0  0  0  0  0  0  0
  151.8742  138.1529  154.8029 H   0  0  0  0  0  0  0  0  0  0  0  0
  150.5406  136.0759  155.5742 H   0  0  0  0  0  0  0  0  0  0  0  0
  145.2947  140.9466  153.3566 H   0  0  0  0  0  0  0  0  0  0  0  0
  146.9046  141.5564  153.0499 H   0  0  0  0  0  0  0  0  0  0  0  0
  150.0193  144.5156  157.0437 H   0  0  0  0  0  0  0  0  0  0  0  0
  1  2  1  0  0  0  0
  1 26  1  0  0  0  0
  1 27  1  0  0  0  0
  1 28  1  0  0  0  0
  2  3  1  0  0  0  0
  2  4  1  0  0  0  0
  2 29  1  0  0  0  0
  3 30  1  0  0  0  0
  3 31  1  0  0  0  0
  3 32  1  0  0  0  0
  4 24  1  0  0  0  0
  4  5  1  0  0  0  0
  4  6  1  0  0  0  0
  5 33  1  0  0  0  0
  5 34  1  0  0  0  0
  5 44  1  0  0  0  0
  6  7  2  0  0  0  0
  6  8  1  0  0  0  0
  8  9  1  0  0  0  0
  9 10  1  0  0  0  0
  9 35  1  0  0  0  0
  9 36  1  0  0  0  0
 10 11  1  0  0  0  0
 10 37  1  0  0  0  0
 10 38  1  0  0  0  0
 11 12  1  0  0  0  0
 12 13  1  0  0  0  0
 12 39  1  0  0  0  0
 12 40  1  0  0  0  0
 13 23  1  0  0  0  0
 13 14  1  0  0  0  0
 14 15  2  0  0  0  0
 14 41  1  0  0  0  0
 15 16  1  0  0  0  0
 16 23  2  0  0  0  0
 16 17  1  0  0  0  0
 17 18  2  0  0  0  0
 17 19  1  0  0  0  0
 19 25  1  0  0  0  0
 19 20  1  0  0  0  0
 20 21  1  0  0  0  0
 20 22  2  0  0  0  0
 21 42  1  0  0  0  0
 21 43  1  0  0  0  0
 22 23  1  0  0  0  0
M  CHG  1   5   1
M  END
> <s_m_source_file>
AV-unprocessed.smi

> <i_m_source_file_index>
50

> <i_lp_mmshare_version>
43012

> <i_f3d_flags>
0

> <s_epik_input>
W0NIM11bQ0hdKFtDSDNdKVtDQEhdKFtOSDJdKUMoPU8pT1tDSDJdW0NIMl1PW0NIMl1uKFtjSF1uMSljKGMxMiluYyhbTkgyXSlbbkhdYzI9Tw==

> <s_epik_cmdline>
J2VwaWtfcHl0aG9uJywgJy1waCcsICc3LjAnLCAnLXRuJywgJzgnLCAnLW1hJywgJzIwMCcsICctbWV0YWxfYmluZGluZycsICctaW1hZScsICc8aW5maWxlLm1hZT4nLCAnLW9tYWUnLCAnPG91dGZpbGUubWFlPic=

> <r_lp_tautomer_probability>
0.99994

> <r_epik_Ionization_Penalty>
0.217551

> <r_epik_Ionization_Penalty_Charging>
0.217477

> <r_epik_Ionization_Penalty_Neutral>
7.42487e-05

> <r_epik_State_Penalty>
0.206211

> <r_epik_Charging_Adjusted_Penalty>
0.423688

> <i_epik_Tot_Q>
1

> <i_epik_Tot_abs_Q>
1

> <r_epik_Metal_State_Penalty>
0.526339

> <b_epik_Metal_Only>
0

> <s_epik_Chemistry_Notes>
This compound has an ester and may undergo hydrolysis at high or low pH. This compound contains an acetal/aminal-like group ( X-CH(R)-Y where X, Y are N, S, or O) that may be acid/base labile, releasing an aldehyde.

> <s_lp_Force_Field>
OPLS_2005

> <r_lp_Energy>
7.49642

> <b_lp_Chiralities_Consistent>
1

> <s_lp_Variant>
AV-unprocessed.smi:50-2

> <Gold.Version>
5.8.1

> <Gold.Id.Protein>
6NUR|6NUR_protein|mol2

> <Gold.PLP.Fitness>
42.0000

> <Gold.PLP.PLP>
-32.9334

> <Gold.PLP.part.hbond>
-4.9155

> <Gold.PLP.part.metal>
0.0000

> <Gold.PLP.part.buried>
-4.8746

> <Gold.PLP.part.nonpolar>
-24.8684

> <Gold.PLP.part.repulsive>
1.8016

> <Gold.PLP.ligand.clash>
0.0000

> <Gold.PLP.ligand.torsion>
1.9654

> <Gold.PLP.Chemscore.Hbond>
4.2597

> <Gold.PLP.Chemscore.CHOScore>
0.0000

> <Gold.PLP.Chemscore.Metal>
0.0000

> <Gold.Chemscore.Hbonds>
donor molecule, donor type, donor heavy atom, donor atom, acceptor molecule, acceptor atom, score
      L1  H     5    44       P1  8028  2.00
      L1  H    21    42       P1 10175  0.94
      P1  H  7989  7998       L1    11  1.00

> <Gold.PLP.Chemscore.Internal.Correction>
0.2183

> <Gold.Rescore>
     Score         DG    S(hbond)    S(metal)    S(lipo)     H(rot)  DE(clash)    DE(int)     intcor
      5.61      -9.19       2.74        0.00      59.74       4.86       0.35       3.23       ----

> <Gold.Chemscore.Fitness>
5.6067

> <Gold.Chemscore.DG>
-9.1879

> <Gold.Chemscore.ZeroCoef>
-5.4800

> <Gold.Chemscore.Hbond>
2.7402

> <Gold.Chemscore.Metal>
0.0000

> <Gold.Chemscore.Lipo>
59.7441

> <Gold.Chemscore.Internal_Hbond>
0.0000

> <Gold.Chemscore.DEClash>
0.3520

> <Gold.Chemscore.DEInternal>
3.2293

> <Gold.Chemscore.Rot>
4.8571

> <Gold.Chemscore.Internal.Correction>
   9.000000E+99

> <Gold.Chemscore.Hbonds>
donor molecule, donor type, donor heavy atom, donor atom, acceptor molecule, acceptor atom, score
      L1  H     5    44       P1  8028  0.55
      L1  H    21    42       P1 10175  0.55
      P1  H  7989  7998       L1    11  0.26

> <Gold.Chemscore.Hbond.Weighted>
-9.1522

> <Gold.Chemscore.Metal.Weighted>
-0.0000

> <Gold.Chemscore.Lipo.Weighted>
-6.9901

> <Gold.Chemscore.Internal_Hbond.Weighted>
0.0000

> <Gold.Chemscore.DEClash.Weighted>
0.3520

> <Gold.Chemscore.DEInternal.Weighted>
3.2293

> <Gold.Chemscore.Rot.Weighted>
12.4343

> <Gold.Chemscore.Internal.Correction.Weighted>
   9.000000E+99

> <Gold.Protein.RotatedTorsions>
[ 6907 6896 6895 6894 ] final   -2.21 input  -60.11 | X-H torsion
[ 7974 7965 7964 7962 ] final   -5.66 input  175.53 | X-H torsion
[ 8008 7997 7996 7995 ] final  -96.72 input   59.86 | X-H torsion
[ 10167 10162 10161 10158 ] final -177.80 input  -65.29 | X-H torsion
[ 10718 10713 10712 10709 ] final    2.29 input   66.30 | X-H torsion
[ 10763 10752 10751 10750 ] final -100.45 input  -60.55 | X-H torsion
[ 11005 11000 10999 10996 ] final  -70.98 input  -57.11 | X-H torsion

> <Gold.Protein.ActiveResidues>
 VAL166  LYS551  ARG553  GLY616  TRP617  ASP618  TYR619  PRO620  LYS621  CYS622 
 ASP623  PHE694  ASN695  SER759  ASP760  ASP761  ALA762  ILE779  LEU786  VAL792 
 PHE793  MET794  SER795  GLU796  ALA797  LYS798  CYS799  TRP800  GLU811  SER814 

> <Gold.Protein.RotatedAtoms>
  151.5335  135.1068  159.9908 H   0  0  0  0  0  0  0  0  0  0  0  0  # atno 6907 bound_to 6896
  152.4568  133.7734  159.6822 H   0  0  0  0  0  0  0  0  0  0  0  0  # atno 6908 bound_to 6896
  150.8514  133.7716  159.3049 H   0  0  0  0  0  0  0  0  0  0  0  0  # atno 6909 bound_to 6896
  146.2348  140.2054  142.8334 H   0  0  0  0  0  0  0  0  0  0  0  0  # atno 7974 bound_to 7965
  154.7782  140.0469  157.1106 H   0  0  0  0  0  0  0  0  0  0  0  0  # atno 8008 bound_to 7997
  154.9737  140.3093  155.4957 H   0  0  0  0  0  0  0  0  0  0  0  0  # atno 8009 bound_to 7997
  156.2932  140.2248  156.4831 H   0  0  0  0  0  0  0  0  0  0  0  0  # atno 8010 bound_to 7997
  139.5462  144.2228  152.0993 H   0  0  0  0  0  0  0  0  0  0  0  0  # atno 10167 bound_to 10162
  156.8608  130.5586  149.5663 H   0  0  0  0  0  0  0  0  0  0  0  0  # atno 10718 bound_to 10713
  154.7579  135.4935  153.9410 H   0  0  0  0  0  0  0  0  0  0  0  0  # atno 10763 bound_to 10752
  153.1218  135.6733  153.9331 H   0  0  0  0  0  0  0  0  0  0  0  0  # atno 10764 bound_to 10752
  153.9061  135.3104  155.3427 H   0  0  0  0  0  0  0  0  0  0  0  0  # atno 10765 bound_to 10752
  141.1584  133.6805  156.6836 H   0  0  0  0  0  0  0  0  0  0  0  0  # atno 11005 bound_to 11000
  144.9749  140.8404  143.5433 LP  0  0  0  0  0  0  0  0  0  0  0  0  # atno 17320 bound_to 7965
  145.2040  139.2238  143.5178 LP  0  0  0  0  0  0  0  0  0  0  0  0  # atno 17321 bound_to 7965
  140.1715  144.4931  150.6577 LP  0  0  0  0  0  0  0  0  0  0  0  0  # atno 17342 bound_to 10162
  140.6711  143.2286  151.5622 LP  0  0  0  0  0  0  0  0  0  0  0  0  # atno 17343 bound_to 10162
  156.0778  130.5795  150.9506 LP  0  0  0  0  0  0  0  0  0  0  0  0  # atno 17370 bound_to 10713
  157.6251  131.0926  150.8549 LP  0  0  0  0  0  0  0  0  0  0  0  0  # atno 17371 bound_to 10713
  140.3083  134.8107  157.4155 LP  0  0  0  0  0  0  0  0  0  0  0  0  # atno 17394 bound_to 11000
  140.1201  134.5231  155.8191 LP  0  0  0  0  0  0  0  0  0  0  0  0  # atno 17395 bound_to 11000

$$$$
