AV-unprocessed.smi:3222|AV-procd|sdf|12304|dock2
  -GOLD-   2272018143D 1   1.00000     0.00000
 Structure written by MMmdl.
 41 42  0  0  0  0  0  0  0  0  2 V2000
  149.3109  140.5945  157.8048 C   0  0  0  0  0  0  0  0  0  0  0  0
  149.1492  141.5016  156.5659 C   0  0  1  0  0  0  0  0  0  0  0  0
  150.3119  142.4109  156.4359 N   0  3  0  0  0  0  0  0  0  0  0  0
  150.8345  142.9626  157.7031 C   0  0  0  0  0  0  0  0  0  0  0  0
  151.9107  142.0408  158.2975 C   0  0  0  0  0  0  0  0  0  0  0  0
  152.5077  142.6180  159.4987 N   0  0  0  0  0  0  0  0  0  0  0  0
  152.3340  144.0259  159.8143 C   0  0  0  0  0  0  0  0  0  0  0  0
  152.9512  144.2028  161.2097 C   0  0  0  0  0  0  0  0  0  0  0  0
  153.7359  142.9158  161.4888 C   0  0  0  0  0  0  0  0  0  0  0  0
  153.2825  141.9785  160.3827 C   0  0  0  0  0  0  0  0  0  0  0  0
  153.6051  140.7923  160.3367 O   0  0  0  0  0  0  0  0  0  0  0  0
  148.9664  140.6964  155.2504 C   0  0  2  0  0  0  0  0  0  0  0  0
  147.4903  140.3587  154.9635 C   0  0  0  0  0  0  0  0  0  0  0  0
  149.7668  139.4779  155.2294 N   0  0  0  0  0  0  0  0  0  0  0  0
  149.3515  138.1870  154.9731 C   0  0  0  0  0  0  0  0  0  0  0  0
  150.4474  137.3783  155.0698 C   0  0  0  0  0  0  0  0  0  0  0  0
  151.5017  138.2750  155.3983 C   0  0  0  0  0  0  0  0  0  0  0  0
  151.0918  139.5292  155.4962 N   0  0  0  0  0  0  0  0  0  0  0  0
  148.4398  139.9572  157.9568 H   0  0  0  0  0  0  0  0  0  0  0  0
  149.4285  141.1734  158.7202 H   0  0  0  0  0  0  0  0  0  0  0  0
  150.1818  139.9455  157.7080 H   0  0  0  0  0  0  0  0  0  0  0  0
  148.2575  142.1144  156.7080 H   0  0  0  0  0  0  0  0  0  0  0  0
  151.0543  141.9295  155.9491 H   0  0  0  0  0  0  0  0  0  0  0  0
  151.2582  143.9510  157.5207 H   0  0  0  0  0  0  0  0  0  0  0  0
  150.0170  143.0876  158.4126 H   0  0  0  0  0  0  0  0  0  0  0  0
  151.4815  141.0679  158.5430 H   0  0  0  0  0  0  0  0  0  0  0  0
  152.6923  141.8548  157.5594 H   0  0  0  0  0  0  0  0  0  0  0  0
  152.8596  144.6310  159.0744 H   0  0  0  0  0  0  0  0  0  0  0  0
  151.2801  144.3068  159.8009 H   0  0  0  0  0  0  0  0  0  0  0  0
  153.5900  145.0854  161.2573 H   0  0  0  0  0  0  0  0  0  0  0  0
  152.1650  144.3280  161.9554 H   0  0  0  0  0  0  0  0  0  0  0  0
  154.8113  143.0791  161.4107 H   0  0  0  0  0  0  0  0  0  0  0  0
  153.5138  142.5043  162.4740 H   0  0  0  0  0  0  0  0  0  0  0  0
  149.3264  141.3164  154.4275 H   0  0  0  0  0  0  0  0  0  0  0  0
  146.8861  141.2585  154.8486 H   0  0  0  0  0  0  0  0  0  0  0  0
  147.0516  139.7660  155.7669 H   0  0  0  0  0  0  0  0  0  0  0  0
  147.3938  139.7863  154.0403 H   0  0  0  0  0  0  0  0  0  0  0  0
  148.3224  137.9524  154.7443 H   0  0  0  0  0  0  0  0  0  0  0  0
  150.4893  136.3085  154.9291 H   0  0  0  0  0  0  0  0  0  0  0  0
  152.5450  138.0530  155.5684 H   0  0  0  0  0  0  0  0  0  0  0  0
  150.0167  143.1951  155.8718 H   0  0  0  0  0  0  0  0  0  0  0  0
  1  2  1  0  0  0  0
  1 19  1  0  0  0  0
  1 20  1  0  0  0  0
  1 21  1  0  0  0  0
  2  3  1  0  0  0  0
  2 12  1  0  0  0  0
  2 22  1  0  0  0  0
  3  4  1  0  0  0  0
  3 23  1  0  0  0  0
  3 41  1  0  0  0  0
  4  5  1  0  0  0  0
  4 24  1  0  0  0  0
  4 25  1  0  0  0  0
  5  6  1  0  0  0  0
  5 26  1  0  0  0  0
  5 27  1  0  0  0  0
  6 10  1  0  0  0  0
  6  7  1  0  0  0  0
  7  8  1  0  0  0  0
  7 28  1  0  0  0  0
  7 29  1  0  0  0  0
  8  9  1  0  0  0  0
  8 30  1  0  0  0  0
  8 31  1  0  0  0  0
  9 10  1  0  0  0  0
  9 32  1  0  0  0  0
  9 33  1  0  0  0  0
 10 11  2  0  0  0  0
 12 13  1  0  0  0  0
 12 14  1  0  0  0  0
 12 34  1  0  0  0  0
 13 35  1  0  0  0  0
 13 36  1  0  0  0  0
 13 37  1  0  0  0  0
 14 18  1  0  0  0  0
 14 15  1  0  0  0  0
 15 16  2  0  0  0  0
 15 38  1  0  0  0  0
 16 17  1  0  0  0  0
 16 39  1  0  0  0  0
 17 18  2  0  0  0  0
 17 40  1  0  0  0  0
M  CHG  1   3   1
M  END
> <s_m_source_file>
AV-unprocessed.smi

> <i_m_source_file_index>
3222

> <i_lp_mmshare_version>
43012

> <i_f3d_flags>
0

> <s_epik_input>
bjFbY0hdW2NIXVtjSF1uMVtDQEBIXShbQ0gzXSlbQ0BIXShbQ0gzXSlbTkhdW0NIMl1bQ0gyXU4yW0NIMl1bQ0gyXVtDSDJdQzI9Tw==

> <s_epik_cmdline>
J2VwaWtfcHl0aG9uJywgJy1waCcsICc3LjAnLCAnLXRuJywgJzgnLCAnLW1hJywgJzIwMCcsICctbWV0YWxfYmluZGluZycsICctaW1hZScsICc8aW5maWxlLm1hZT4nLCAnLW9tYWUnLCAnPG91dGZpbGUubWFlPic=

> <r_lp_tautomer_probability>
1

> <r_epik_Ionization_Penalty>
0.0064019

> <r_epik_Ionization_Penalty_Charging>
0.00639164

> <r_epik_Ionization_Penalty_Neutral>
1.02567e-05

> <r_epik_State_Penalty>
0.00472531

> <r_epik_Charging_Adjusted_Penalty>
0.011117

> <i_epik_Tot_Q>
1

> <i_epik_Tot_abs_Q>
1

> <r_epik_Metal_State_Penalty>
-0

> <b_epik_Metal_Only>
0

> <s_lp_Force_Field>
OPLS_2005

> <r_lp_Energy>
24.0012

> <b_lp_Chiralities_Consistent>
1

> <s_lp_Variant>
AV-unprocessed.smi:3222-2

> <Gold.Version>
5.8.1

> <Gold.Id.Protein>
6NUR|6NUR_protein|mol2

> <Gold.PLP.Fitness>
51.5954

> <Gold.PLP.PLP>
-45.7723

> <Gold.PLP.part.hbond>
-2.0000

> <Gold.PLP.part.metal>
0.0000

> <Gold.PLP.part.buried>
-3.8119

> <Gold.PLP.part.nonpolar>
-40.0393

> <Gold.PLP.part.repulsive>
0.1282

> <Gold.PLP.ligand.clash>
0.0000

> <Gold.PLP.ligand.torsion>
1.2412

> <Gold.PLP.Chemscore.Hbond>
2.0000

> <Gold.PLP.Chemscore.CHOScore>
0.6621

> <Gold.PLP.Chemscore.Metal>
0.0000

> <Gold.Chemscore.Hbonds>
donor molecule, donor type, donor heavy atom, donor atom, acceptor molecule, acceptor atom, score
      L1  H     3    41       P1  8028  1.98

> <Gold.PLP.Chemscore.Internal.Correction>
0.3194

> <Gold.Rescore>
     Score         DG    S(hbond)    S(metal)    S(lipo)     H(rot)  DE(clash)    DE(int)     intcor
     13.29     -15.11       1.00        0.00      97.42       1.99       0.09       1.73       ----

> <Gold.Chemscore.Fitness>
13.2943

> <Gold.Chemscore.DG>
-15.1057

> <Gold.Chemscore.ZeroCoef>
-5.4800

> <Gold.Chemscore.Hbond>
0.9963

> <Gold.Chemscore.Metal>
0.0000

> <Gold.Chemscore.Lipo>
97.4220

> <Gold.Chemscore.Internal_Hbond>
0.0000

> <Gold.Chemscore.DEClash>
0.0852

> <Gold.Chemscore.DEInternal>
1.7262

> <Gold.Chemscore.Rot>
1.9922

> <Gold.Chemscore.Internal.Correction>
   9.000000E+99

> <Gold.Chemscore.Hbonds>
donor molecule, donor type, donor heavy atom, donor atom, acceptor molecule, acceptor atom, score
      L1  H     3    41       P1  8028  0.93

> <Gold.Chemscore.Hbond.Weighted>
-3.3275

> <Gold.Chemscore.Metal.Weighted>
-0.0000

> <Gold.Chemscore.Lipo.Weighted>
-11.3984

> <Gold.Chemscore.Internal_Hbond.Weighted>
0.0000

> <Gold.Chemscore.DEClash.Weighted>
0.0852

> <Gold.Chemscore.DEInternal.Weighted>
1.7262

> <Gold.Chemscore.Rot.Weighted>
5.1002

> <Gold.Chemscore.Internal.Correction.Weighted>
   9.000000E+99

> <Gold.Protein.RotatedTorsions>
[ 6907 6896 6895 6894 ] final  110.75 input  -60.11 | X-H torsion
[ 7974 7965 7964 7962 ] final  100.15 input  175.53 | X-H torsion
[ 8008 7997 7996 7995 ] final   91.28 input   59.86 | X-H torsion
[ 10167 10162 10161 10158 ] final  168.22 input  -65.29 | X-H torsion
[ 10718 10713 10712 10709 ] final  -87.40 input   66.30 | X-H torsion
[ 10763 10752 10751 10750 ] final   67.44 input  -60.55 | X-H torsion
[ 11005 11000 10999 10996 ] final  -87.24 input  -57.11 | X-H torsion

> <Gold.Protein.ActiveResidues>
 VAL166  LYS551  ARG553  GLY616  TRP617  ASP618  TYR619  PRO620  LYS621  CYS622 
 ASP623  PHE694  ASN695  SER759  ASP760  ASP761  ALA762  ILE779  LEU786  VAL792 
 PHE793  MET794  SER795  GLU796  ALA797  LYS798  CYS799  TRP800  GLU811  SER814 

> <Gold.Protein.RotatedAtoms>
  152.5004  133.8756  159.7320 H   0  0  0  0  0  0  0  0  0  0  0  0  # atno 6907 bound_to 6896
  150.9231  133.6847  159.2834 H   0  0  0  0  0  0  0  0  0  0  0  0  # atno 6908 bound_to 6896
  151.4217  135.1003  159.9668 H   0  0  0  0  0  0  0  0  0  0  0  0  # atno 6909 bound_to 6896
  145.3894  139.2365  143.3360 H   0  0  0  0  0  0  0  0  0  0  0  0  # atno 7974 bound_to 7965
  156.0220  140.3339  155.7048 H   0  0  0  0  0  0  0  0  0  0  0  0  # atno 8008 bound_to 7997
  155.6009  140.0655  157.2751 H   0  0  0  0  0  0  0  0  0  0  0  0  # atno 8009 bound_to 7997
  154.4319  140.1810  156.1160 H   0  0  0  0  0  0  0  0  0  0  0  0  # atno 8010 bound_to 7997
  139.4963  144.3838  151.9593 H   0  0  0  0  0  0  0  0  0  0  0  0  # atno 10167 bound_to 10162
  155.9985  130.4799  150.4861 H   0  0  0  0  0  0  0  0  0  0  0  0  # atno 10718 bound_to 10713
  153.0186  135.5284  154.6979 H   0  0  0  0  0  0  0  0  0  0  0  0  # atno 10763 bound_to 10752
  154.6096  135.2877  155.0449 H   0  0  0  0  0  0  0  0  0  0  0  0  # atno 10764 bound_to 10752
  154.1476  135.6568  153.5008 H   0  0  0  0  0  0  0  0  0  0  0  0  # atno 10765 bound_to 10752
  141.1619  133.7500  156.9278 H   0  0  0  0  0  0  0  0  0  0  0  0  # atno 11005 bound_to 11000
  146.2805  140.4575  142.8778 LP  0  0  0  0  0  0  0  0  0  0  0  0  # atno 17320 bound_to 7965
  144.8451  140.6916  143.6204 LP  0  0  0  0  0  0  0  0  0  0  0  0  # atno 17321 bound_to 7965
  140.3275  144.3355  150.5995 LP  0  0  0  0  0  0  0  0  0  0  0  0  # atno 17342 bound_to 10162
  140.5672  143.2185  151.7662 LP  0  0  0  0  0  0  0  0  0  0  0  0  # atno 17343 bound_to 10162
  157.2861  131.0617  151.2165 LP  0  0  0  0  0  0  0  0  0  0  0  0  # atno 17370 bound_to 10713
  157.3194  130.6929  149.6260 LP  0  0  0  0  0  0  0  0  0  0  0  0  # atno 17371 bound_to 10713
  140.1407  134.9295  157.2463 LP  0  0  0  0  0  0  0  0  0  0  0  0  # atno 17394 bound_to 11000
  140.2840  134.3317  155.7334 LP  0  0  0  0  0  0  0  0  0  0  0  0  # atno 17395 bound_to 11000

$$$$
