AV-unprocessed.smi:102|AV-procd|sdf|970|dock1
  -GOLD-   2262017523D 1   1.00000     0.00000
 Structure written by MMmdl.
 43 44  0  0  0  0  0  0  0  0  2 V2000
  144.5576  143.9307  160.8415 C   0  0  0  0  0  0  0  0  0  0  0  0
  145.6501  143.2048  160.0676 C   0  0  0  0  0  0  0  0  0  0  0  0
  146.7983  143.1205  160.5043 O   0  0  0  0  0  0  0  0  0  0  0  0
  145.2019  142.6963  158.9055 O   0  0  0  0  0  0  0  0  0  0  0  0
  145.7832  141.5180  158.3637 C   0  0  0  0  0  0  0  0  0  0  0  0
  147.0327  141.8514  157.5335 C   0  0  1  0  0  0  0  0  0  0  0  0
  148.2087  141.5946  158.2831 O   0  0  0  0  0  0  0  0  0  0  0  0
  149.2765  141.4591  157.4019 C   0  0  1  0  0  0  0  0  0  0  0  0
  150.3097  140.5448  158.0222 N   0  0  0  0  0  0  0  0  0  0  0  0
  149.9618  139.2788  158.4630 C   0  0  0  0  0  0  0  0  0  0  0  0
  150.8813  138.4498  158.9978 C   0  0  0  0  0  0  0  0  0  0  0  0
  150.5161  137.2256  159.4162 F   0  0  0  0  0  0  0  0  0  0  0  0
  152.2712  138.8888  159.1125 C   0  0  0  0  0  0  0  0  0  0  0  0
  153.1033  138.1323  159.6106 O   0  0  0  0  0  0  0  0  0  0  0  0
  152.5873  140.1344  158.6522 N   0  5  0  0  0  0  0  0  0  0  0  0
  151.6616  140.9741  158.1027 C   0  0  0  0  0  0  0  0  0  0  0  0
  151.9402  142.0888  157.6601 O   0  0  0  0  0  0  0  0  0  0  0  0
  148.7088  140.9242  156.0706 C   0  0  1  0  0  0  0  0  0  0  0  0
  149.1510  139.6007  155.7845 O   0  0  0  0  0  0  0  0  0  0  0  0
  150.3319  139.3947  155.1807 C   0  0  0  0  0  0  0  0  0  0  0  0
  150.5727  137.9236  154.8713 C   0  0  0  0  0  0  0  0  0  0  0  0
  151.1575  140.2590  154.8852 O   0  0  0  0  0  0  0  0  0  0  0  0
  147.2027  140.9480  156.3095 C   0  0  2  0  0  0  0  0  0  0  0  0
  146.5589  141.4951  155.1656 O   0  0  0  0  0  0  0  0  0  0  0  0
  145.2191  141.4854  155.0662 C   0  0  0  0  0  0  0  0  0  0  0  0
  144.7264  142.1926  153.8111 C   0  0  0  0  0  0  0  0  0  0  0  0
  144.4340  140.9787  155.8676 O   0  0  0  0  0  0  0  0  0  0  0  0
  143.8023  143.2231  161.1836 H   0  0  0  0  0  0  0  0  0  0  0  0
  144.0746  144.6753  160.2085 H   0  0  0  0  0  0  0  0  0  0  0  0
  144.9762  144.4370  161.7115 H   0  0  0  0  0  0  0  0  0  0  0  0
  146.0071  140.7811  159.1367 H   0  0  0  0  0  0  0  0  0  0  0  0
  145.0328  141.0662  157.7153 H   0  0  0  0  0  0  0  0  0  0  0  0
  147.0307  142.8992  157.2270 H   0  0  0  0  0  0  0  0  0  0  0  0
  149.7483  142.4377  157.2976 H   0  0  0  0  0  0  0  0  0  0  0  0
  148.9414  138.9364  158.3748 H   0  0  0  0  0  0  0  0  0  0  0  0
  149.0082  141.6231  155.2874 H   0  0  0  0  0  0  0  0  0  0  0  0
  150.6347  137.3495  155.7960 H   0  0  0  0  0  0  0  0  0  0  0  0
  151.5041  137.7942  154.3199 H   0  0  0  0  0  0  0  0  0  0  0  0
  149.7561  137.5246  154.2695 H   0  0  0  0  0  0  0  0  0  0  0  0
  146.8631  139.9377  156.5452 H   0  0  0  0  0  0  0  0  0  0  0  0
  144.8339  141.5398  152.9447 H   0  0  0  0  0  0  0  0  0  0  0  0
  145.3003  143.1025  153.6342 H   0  0  0  0  0  0  0  0  0  0  0  0
  143.6753  142.4628  153.9130 H   0  0  0  0  0  0  0  0  0  0  0  0
  1  2  1  0  0  0  0
  1 28  1  0  0  0  0
  1 29  1  0  0  0  0
  1 30  1  0  0  0  0
  2  3  2  0  0  0  0
  2  4  1  0  0  0  0
  4  5  1  0  0  0  0
  5  6  1  0  0  0  0
  5 31  1  0  0  0  0
  5 32  1  0  0  0  0
  6 23  1  0  0  0  0
  6  7  1  0  0  0  0
  6 33  1  0  0  0  0
  7  8  1  0  0  0  0
  8  9  1  0  0  0  0
  8 18  1  0  0  0  0
  8 34  1  0  0  0  0
  9 16  1  0  0  0  0
  9 10  1  0  0  0  0
 10 11  2  0  0  0  0
 10 35  1  0  0  0  0
 11 12  1  0  0  0  0
 11 13  1  0  0  0  0
 13 14  2  0  0  0  0
 13 15  1  0  0  0  0
 15 16  1  0  0  0  0
 16 17  2  0  0  0  0
 18 19  1  0  0  0  0
 18 23  1  0  0  0  0
 18 36  1  0  0  0  0
 19 20  1  0  0  0  0
 20 21  1  0  0  0  0
 20 22  2  0  0  0  0
 21 37  1  0  0  0  0
 21 38  1  0  0  0  0
 21 39  1  0  0  0  0
 23 24  1  0  0  0  0
 23 40  1  0  0  0  0
 24 25  1  0  0  0  0
 25 26  1  0  0  0  0
 25 27  2  0  0  0  0
 26 41  1  0  0  0  0
 26 42  1  0  0  0  0
 26 43  1  0  0  0  0
M  CHG  1  15  -1
M  END
> <s_m_source_file>
AV-unprocessed.smi

> <i_m_source_file_index>
102

> <i_lp_mmshare_version>
43012

> <i_f3d_flags>
0

> <s_epik_input>
W0NIM11DKD1PKU9bQ0gyXVtDQEBIXTFPW0NASF0oW0NAQEhdKE9DKD1PKVtDSDNdKVtDQEhdMU9DKD1PKVtDSDNdKW4yW2NIXWMoRiljKD1PKVtuSF1jMj1P

> <s_epik_cmdline>
J2VwaWtfcHl0aG9uJywgJy1waCcsICc3LjAnLCAnLXRuJywgJzgnLCAnLW1hJywgJzIwMCcsICctbWV0YWxfYmluZGluZycsICctaW1hZScsICc8aW5maWxlLm1hZT4nLCAnLW9tYWUnLCAnPG91dGZpbGUubWFlPic=

> <r_epik_Ionization_Penalty>
1.40304

> <r_epik_Ionization_Penalty_Charging>
1.43915e-08

> <r_epik_Ionization_Penalty_Neutral>
1.40304

> <r_epik_State_Penalty>
1.48536

> <r_epik_Charging_Adjusted_Penalty>
1.48536

> <i_epik_Tot_Q>
-1

> <i_epik_Tot_abs_Q>
1

> <r_epik_Metal_State_Penalty>
0.00663881

> <b_epik_Metal_Only>
0

> <s_epik_Chemistry_Notes>
This compound has an ester and may undergo hydrolysis at high or low pH. This compound contains an acetal/aminal-like group ( X-CH(R)-Y where X, Y are N, S, or O) that may be acid/base labile, releasing an aldehyde.

> <s_lp_Force_Field>
OPLS_2005

> <r_lp_Energy>
20.3433

> <b_lp_Chiralities_Consistent>
1

> <s_lp_Variant>
AV-unprocessed.smi:102-26

> <Gold.Version>
5.8.1

> <Gold.Id.Protein>
6NUR|6NUR_protein|mol2

> <Gold.PLP.Fitness>
43.6110

> <Gold.PLP.PLP>
-34.5954

> <Gold.PLP.part.hbond>
-4.5802

> <Gold.PLP.part.metal>
0.0000

> <Gold.PLP.part.buried>
-9.6375

> <Gold.PLP.part.nonpolar>
-22.5000

> <Gold.PLP.part.repulsive>
1.0155

> <Gold.PLP.ligand.clash>
0.0000

> <Gold.PLP.ligand.torsion>
1.4366

> <Gold.PLP.Chemscore.Hbond>
3.8322

> <Gold.PLP.Chemscore.CHOScore>
0.0000

> <Gold.PLP.Chemscore.Metal>
0.0000

> <Gold.Chemscore.Hbonds>
donor molecule, donor type, donor heavy atom, donor atom, acceptor molecule, acceptor atom, score
      P1  H  6933  6944       L1     3  0.88
      P1  H  6934  6946       L1     3  0.36
      P1  H  7989  7998       L1    22  1.00

> <Gold.PLP.Chemscore.Internal.Correction>
0.3923

> <Gold.Rescore>
     Score         DG    S(hbond)    S(metal)    S(lipo)     H(rot)  DE(clash)    DE(int)     intcor
      8.59     -11.58       3.72        0.00      33.24       4.00       0.02       2.97       ----

> <Gold.Chemscore.Fitness>
8.5863

> <Gold.Chemscore.DG>
-11.5789

> <Gold.Chemscore.ZeroCoef>
-5.4800

> <Gold.Chemscore.Hbond>
3.7237

> <Gold.Chemscore.Metal>
0.0000

> <Gold.Chemscore.Lipo>
33.2417

> <Gold.Chemscore.Internal_Hbond>
0.0000

> <Gold.Chemscore.DEClash>
0.0208

> <Gold.Chemscore.DEInternal>
2.9718

> <Gold.Chemscore.Rot>
3.9951

> <Gold.Chemscore.Internal.Correction>
   9.000000E+99

> <Gold.Chemscore.Hbonds>
donor molecule, donor type, donor heavy atom, donor atom, acceptor molecule, acceptor atom, score
      P1  H  6933  6944       L1     3  0.82
      P1  H  6934  6946       L1     3  0.08
      P1  H  7989  7998       L1    22  0.97

> <Gold.Chemscore.Hbond.Weighted>
-12.4370

> <Gold.Chemscore.Metal.Weighted>
-0.0000

> <Gold.Chemscore.Lipo.Weighted>
-3.8893

> <Gold.Chemscore.Internal_Hbond.Weighted>
0.0000

> <Gold.Chemscore.DEClash.Weighted>
0.0208

> <Gold.Chemscore.DEInternal.Weighted>
2.9718

> <Gold.Chemscore.Rot.Weighted>
10.2274

> <Gold.Chemscore.Internal.Correction.Weighted>
   9.000000E+99

> <Gold.Protein.RotatedTorsions>
[ 6907 6896 6895 6894 ] final  141.05 input  -60.11 | X-H torsion
[ 7974 7965 7964 7962 ] final  -39.17 input  175.53 | X-H torsion
[ 8008 7997 7996 7995 ] final -135.05 input   59.86 | X-H torsion
[ 10167 10162 10161 10158 ] final -128.84 input  -65.29 | X-H torsion
[ 10718 10713 10712 10709 ] final -137.47 input   66.30 | X-H torsion
[ 10763 10752 10751 10750 ] final  102.67 input  -60.55 | X-H torsion
[ 11005 11000 10999 10996 ] final   85.80 input  -57.11 | X-H torsion

> <Gold.Protein.ActiveResidues>
 VAL166  LYS551  ARG553  GLY616  TRP617  ASP618  TYR619  PRO620  LYS621  CYS622 
 ASP623  PHE694  ASN695  SER759  ASP760  ASP761  ALA762  ILE779  LEU786  VAL792 
 PHE793  MET794  SER795  GLU796  ALA797  LYS798  CYS799  TRP800  GLU811  SER814 

> <Gold.Protein.RotatedAtoms>
  152.2357  133.5094  159.5240 H   0  0  0  0  0  0  0  0  0  0  0  0  # atno 6907 bound_to 6896
  150.7050  134.1157  159.4025 H   0  0  0  0  0  0  0  0  0  0  0  0  # atno 6908 bound_to 6896
  151.9078  135.0351  160.0562 H   0  0  0  0  0  0  0  0  0  0  0  0  # atno 6909 bound_to 6896
  146.0420  140.6596  142.9082 H   0  0  0  0  0  0  0  0  0  0  0  0  # atno 7974 bound_to 7965
  155.3723  140.0489  157.3045 H   0  0  0  0  0  0  0  0  0  0  0  0  # atno 8008 bound_to 7997
  154.5124  140.2196  155.9094 H   0  0  0  0  0  0  0  0  0  0  0  0  # atno 8009 bound_to 7997
  156.1597  140.3119  155.8792 H   0  0  0  0  0  0  0  0  0  0  0  0  # atno 8010 bound_to 7997
  139.9461  143.6108  152.2489 H   0  0  0  0  0  0  0  0  0  0  0  0  # atno 10167 bound_to 10162
  156.2885  130.7361  151.1380 H   0  0  0  0  0  0  0  0  0  0  0  0  # atno 10718 bound_to 10713
  153.3426  135.4002  155.1584 H   0  0  0  0  0  0  0  0  0  0  0  0  # atno 10763 bound_to 10752
  154.8647  135.3637  154.5325 H   0  0  0  0  0  0  0  0  0  0  0  0  # atno 10764 bound_to 10752
  153.5771  135.7077  153.5539 H   0  0  0  0  0  0  0  0  0  0  0  0  # atno 10765 bound_to 10752
  139.8961  134.8312  156.2633 H   0  0  0  0  0  0  0  0  0  0  0  0  # atno 11005 bound_to 11000
  144.7079  140.3925  143.7103 LP  0  0  0  0  0  0  0  0  0  0  0  0  # atno 17320 bound_to 7965
  145.6869  139.1630  143.2669 LP  0  0  0  0  0  0  0  0  0  0  0  0  # atno 17321 bound_to 7965
  139.6666  144.7662  151.1862 LP  0  0  0  0  0  0  0  0  0  0  0  0  # atno 17342 bound_to 10162
  140.7597  143.5929  150.8778 LP  0  0  0  0  0  0  0  0  0  0  0  0  # atno 17343 bound_to 10162
  157.7335  131.0590  150.5571 LP  0  0  0  0  0  0  0  0  0  0  0  0  # atno 17370 bound_to 10713
  156.5685  130.4274  149.6030 LP  0  0  0  0  0  0  0  0  0  0  0  0  # atno 17371 bound_to 10713
  141.0148  133.7074  156.1171 LP  0  0  0  0  0  0  0  0  0  0  0  0  # atno 17394 bound_to 11000
  140.7316  134.4248  157.5565 LP  0  0  0  0  0  0  0  0  0  0  0  0  # atno 17395 bound_to 11000

$$$$
