AV-unprocessed.smi:2177|AV-procd|sdf|8851|dock6
  -GOLD-   2272012 43D 1   1.00000     0.00000
 Structure written by MMmdl.
 42 43  0  0  0  0  0  0  0  0  1 V2000
  153.6161  140.6524  161.0350 C   0  0  0  0  0  0  0  0  0  0  0  0
  152.8823  141.4546  159.9986 C   0  0  0  0  0  0  0  0  0  0  0  0
  153.0401  142.7670  159.9627 N   0  0  0  0  0  0  0  0  0  0  0  0
  152.2490  143.1815  158.9528 N   0  0  0  0  0  0  0  0  0  0  0  0
  152.1785  144.5950  158.6380 C   0  0  0  0  0  0  0  0  0  0  0  0
  151.5920  142.1283  158.3477 C   0  0  0  0  0  0  0  0  0  0  0  0
  150.6472  142.3280  157.2072 C   0  0  0  0  0  0  0  0  0  0  0  0
  151.9746  140.9879  159.0022 C   0  0  0  0  0  0  0  0  0  0  0  0
  151.5274  139.5665  158.7591 C   0  0  0  0  0  0  0  0  0  0  0  0
  151.8864  139.1571  157.3301 C   0  0  0  0  0  0  0  0  0  0  0  0
  153.0109  139.3855  156.8859 O   0  0  0  0  0  0  0  0  0  0  0  0
  150.9082  138.5752  156.6193 N   0  0  0  0  0  0  0  0  0  0  0  0
  150.9542  138.2541  155.1969 C   0  0  1  0  0  0  0  0  0  0  0  0
  150.5723  136.7819  154.9846 C   0  0  0  0  0  0  0  0  0  0  0  0
  150.0231  139.2144  154.4324 C   0  0  1  0  0  0  0  0  0  0  0  0
  148.5389  139.0844  154.7879 C   0  0  0  0  0  0  0  0  0  0  0  0
  147.9706  140.4614  154.4803 C   0  0  0  0  0  0  0  0  0  0  0  0
  149.2075  141.3459  154.2992 C   0  0  0  0  0  0  0  0  0  0  0  0
  150.2946  140.5643  154.7735 O   0  0  0  0  0  0  0  0  0  0  0  0
  152.9216  140.2275  161.7601 H   0  0  0  0  0  0  0  0  0  0  0  0
  154.3364  141.2605  161.5831 H   0  0  0  0  0  0  0  0  0  0  0  0
  154.1623  139.8288  160.5756 H   0  0  0  0  0  0  0  0  0  0  0  0
  152.6182  144.7732  157.6566 H   0  0  0  0  0  0  0  0  0  0  0  0
  152.7200  145.1831  159.3805 H   0  0  0  0  0  0  0  0  0  0  0  0
  151.1369  144.9175  158.6267 H   0  0  0  0  0  0  0  0  0  0  0  0
  150.2928  141.3748  156.8150 H   0  0  0  0  0  0  0  0  0  0  0  0
  151.1302  142.8655  156.3910 H   0  0  0  0  0  0  0  0  0  0  0  0
  149.7766  142.9023  157.5242 H   0  0  0  0  0  0  0  0  0  0  0  0
  151.9971  138.8773  159.4619 H   0  0  0  0  0  0  0  0  0  0  0  0
  150.4517  139.4528  158.8962 H   0  0  0  0  0  0  0  0  0  0  0  0
  150.0248  138.4232  157.0840 H   0  0  0  0  0  0  0  0  0  0  0  0
  151.9685  138.4039  154.8222 H   0  0  0  0  0  0  0  0  0  0  0  0
  150.6147  136.5142  153.9286 H   0  0  0  0  0  0  0  0  0  0  0  0
  149.5615  136.5779  155.3393 H   0  0  0  0  0  0  0  0  0  0  0  0
  151.2542  136.1189  155.5183 H   0  0  0  0  0  0  0  0  0  0  0  0
  150.1524  139.0905  153.3551 H   0  0  0  0  0  0  0  0  0  0  0  0
  148.0420  138.2880  154.2327 H   0  0  0  0  0  0  0  0  0  0  0  0
  148.4221  138.8718  155.8517 H   0  0  0  0  0  0  0  0  0  0  0  0
  147.3647  140.4538  153.5736 H   0  0  0  0  0  0  0  0  0  0  0  0
  147.3428  140.8116  155.3005 H   0  0  0  0  0  0  0  0  0  0  0  0
  149.3643  141.5731  153.2439 H   0  0  0  0  0  0  0  0  0  0  0  0
  149.1330  142.2881  154.8427 H   0  0  0  0  0  0  0  0  0  0  0  0
  1  2  1  0  0  0  0
  1 20  1  0  0  0  0
  1 21  1  0  0  0  0
  1 22  1  0  0  0  0
  2  8  1  0  0  0  0
  2  3  2  0  0  0  0
  3  4  1  0  0  0  0
  4  5  1  0  0  0  0
  4  6  1  0  0  0  0
  5 23  1  0  0  0  0
  5 24  1  0  0  0  0
  5 25  1  0  0  0  0
  6  7  1  0  0  0  0
  6  8  2  0  0  0  0
  7 26  1  0  0  0  0
  7 27  1  0  0  0  0
  7 28  1  0  0  0  0
  8  9  1  0  0  0  0
  9 10  1  0  0  0  0
  9 29  1  0  0  0  0
  9 30  1  0  0  0  0
 10 11  2  0  0  0  0
 10 12  1  0  0  0  0
 12 13  1  0  0  0  0
 12 31  1  0  0  0  0
 13 14  1  0  0  0  0
 13 15  1  0  0  0  0
 13 32  1  0  0  0  0
 14 33  1  0  0  0  0
 14 34  1  0  0  0  0
 14 35  1  0  0  0  0
 15 19  1  0  0  0  0
 15 16  1  0  0  0  0
 15 36  1  0  0  0  0
 16 17  1  0  0  0  0
 16 37  1  0  0  0  0
 16 38  1  0  0  0  0
 17 18  1  0  0  0  0
 17 39  1  0  0  0  0
 17 40  1  0  0  0  0
 18 19  1  0  0  0  0
 18 41  1  0  0  0  0
 18 42  1  0  0  0  0
M  END
> <s_m_source_file>
AV-unprocessed.smi

> <i_m_source_file_index>
2177

> <i_lp_mmshare_version>
43012

> <i_f3d_flags>
0

> <s_epik_input>
W0NIM11jMW5uKFtDSDNdKWMoW0NIM10pYzFbQ0gyXUMoPU8pW05IXVtDQEhdKFtDSDNdKVtDQEBIXTJbQ0gyXVtDSDJdW0NIMl1PMg==

> <s_epik_cmdline>
J2VwaWtfcHl0aG9uJywgJy1waCcsICc3LjAnLCAnLXRuJywgJzgnLCAnLW1hJywgJzIwMCcsICctbWV0YWxfYmluZGluZycsICctaW1hZScsICc8aW5maWxlLm1hZT4nLCAnLW9tYWUnLCAnPG91dGZpbGUubWFlPic=

> <r_lp_tautomer_probability>
1

> <r_epik_Ionization_Penalty>
0.00310467

> <r_epik_Ionization_Penalty_Charging>
0

> <r_epik_Ionization_Penalty_Neutral>
0.00310467

> <r_epik_State_Penalty>
0.00218493

> <r_epik_Charging_Adjusted_Penalty>
0.00218493

> <i_epik_Tot_Q>
0

> <i_epik_Tot_abs_Q>
0

> <r_epik_Metal_State_Penalty>
-0

> <b_epik_Metal_Only>
0

> <s_lp_Force_Field>
OPLS_2005

> <r_lp_Energy>
11.3681

> <b_lp_Chiralities_Consistent>
1

> <s_lp_Variant>
AV-unprocessed.smi:2177-4

> <Gold.Version>
5.8.1

> <Gold.Id.Protein>
6NUR|6NUR_protein|mol2

> <Gold.PLP.Fitness>
44.2565

> <Gold.PLP.PLP>
-38.8227

> <Gold.PLP.part.hbond>
-1.8213

> <Gold.PLP.part.metal>
0.0000

> <Gold.PLP.part.buried>
-5.1725

> <Gold.PLP.part.nonpolar>
-32.7668

> <Gold.PLP.part.repulsive>
0.1059

> <Gold.PLP.ligand.clash>
0.0000

> <Gold.PLP.ligand.torsion>
0.2672

> <Gold.PLP.Chemscore.Hbond>
1.9760

> <Gold.PLP.Chemscore.CHOScore>
0.0000

> <Gold.PLP.Chemscore.Metal>
0.0000

> <Gold.Chemscore.Hbonds>
donor molecule, donor type, donor heavy atom, donor atom, acceptor molecule, acceptor atom, score
      P1  H  7989  7998       L1    19  0.85
      P1  H  7997  8009       L1    11  1.00

> <Gold.PLP.Chemscore.Internal.Correction>
0.0403

> <Gold.Rescore>
     Score         DG    S(hbond)    S(metal)    S(lipo)     H(rot)  DE(clash)    DE(int)     intcor
     16.05     -16.44       1.03        0.00      96.38       1.46       0.00       0.38       ----

> <Gold.Chemscore.Fitness>
16.0532

> <Gold.Chemscore.DG>
-16.4381

> <Gold.Chemscore.ZeroCoef>
-5.4800

> <Gold.Chemscore.Hbond>
1.0258

> <Gold.Chemscore.Metal>
0.0000

> <Gold.Chemscore.Lipo>
96.3804

> <Gold.Chemscore.Internal_Hbond>
0.0000

> <Gold.Chemscore.DEClash>
0.0000

> <Gold.Chemscore.DEInternal>
0.3849

> <Gold.Chemscore.Rot>
1.4627

> <Gold.Chemscore.Internal.Correction>
   9.000000E+99

> <Gold.Chemscore.Hbonds>
donor molecule, donor type, donor heavy atom, donor atom, acceptor molecule, acceptor atom, score
      P1  H  7989  7998       L1    19  0.06
      P1  H  7997  8009       L1    11  0.98

> <Gold.Chemscore.Hbond.Weighted>
-3.4260

> <Gold.Chemscore.Metal.Weighted>
-0.0000

> <Gold.Chemscore.Lipo.Weighted>
-11.2765

> <Gold.Chemscore.Internal_Hbond.Weighted>
0.0000

> <Gold.Chemscore.DEClash.Weighted>
0.0000

> <Gold.Chemscore.DEInternal.Weighted>
0.3849

> <Gold.Chemscore.Rot.Weighted>
3.7445

> <Gold.Chemscore.Internal.Correction.Weighted>
   9.000000E+99

> <Gold.Protein.RotatedTorsions>
[ 6907 6896 6895 6894 ] final -125.85 input  -60.11 | X-H torsion
[ 7974 7965 7964 7962 ] final -128.35 input  175.53 | X-H torsion
[ 8008 7997 7996 7995 ] final  167.50 input   59.86 | X-H torsion
[ 10167 10162 10161 10158 ] final -161.20 input  -65.29 | X-H torsion
[ 10718 10713 10712 10709 ] final   63.05 input   66.30 | X-H torsion
[ 10763 10752 10751 10750 ] final    2.91 input  -60.55 | X-H torsion
[ 11005 11000 10999 10996 ] final  157.19 input  -57.11 | X-H torsion

> <Gold.Protein.ActiveResidues>
 VAL166  LYS551  ARG553  GLY616  TRP617  ASP618  TYR619  PRO620  LYS621  CYS622 
 ASP623  PHE694  ASN695  SER759  ASP760  ASP761  ALA762  ILE779  LEU786  VAL792 
 PHE793  MET794  SER795  GLU796  ALA797  LYS798  CYS799  TRP800  GLU811  SER814 

> <Gold.Protein.RotatedAtoms>
  150.8910  133.7244  159.2904 H   0  0  0  0  0  0  0  0  0  0  0  0  # atno 6907 bound_to 6896
  151.4794  135.1050  159.9783 H   0  0  0  0  0  0  0  0  0  0  0  0  # atno 6908 bound_to 6896
  152.4820  133.8230  159.7119 H   0  0  0  0  0  0  0  0  0  0  0  0  # atno 6909 bound_to 6896
  144.9679  140.7515  143.4688 H   0  0  0  0  0  0  0  0  0  0  0  0  # atno 7974 bound_to 7965
  156.1628  140.1615  156.8582 H   0  0  0  0  0  0  0  0  0  0  0  0  # atno 8008 bound_to 7997
  154.5178  140.0785  156.8149 H   0  0  0  0  0  0  0  0  0  0  0  0  # atno 8009 bound_to 7997
  155.3672  140.3398  155.4244 H   0  0  0  0  0  0  0  0  0  0  0  0  # atno 8010 bound_to 7997
  139.6482  144.0132  152.2143 H   0  0  0  0  0  0  0  0  0  0  0  0  # atno 10167 bound_to 10162
  157.5944  130.9084  149.9666 H   0  0  0  0  0  0  0  0  0  0  0  0  # atno 10718 bound_to 10713
  153.2898  135.6947  153.7304 H   0  0  0  0  0  0  0  0  0  0  0  0  # atno 10763 bound_to 10752
  153.6259  135.3419  155.3027 H   0  0  0  0  0  0  0  0  0  0  0  0  # atno 10764 bound_to 10752
  154.8520  135.4397  154.1977 H   0  0  0  0  0  0  0  0  0  0  0  0  # atno 10765 bound_to 10752
  140.1746  134.8519  157.2731 H   0  0  0  0  0  0  0  0  0  0  0  0  # atno 11005 bound_to 11000
  145.2602  139.1995  143.4896 LP  0  0  0  0  0  0  0  0  0  0  0  0  # atno 17320 bound_to 7965
  146.3373  140.2530  142.8599 LP  0  0  0  0  0  0  0  0  0  0  0  0  # atno 17321 bound_to 7965
  139.9840  144.6408  150.7875 LP  0  0  0  0  0  0  0  0  0  0  0  0  # atno 17342 bound_to 10162
  140.7525  143.2991  151.3126 LP  0  0  0  0  0  0  0  0  0  0  0  0  # atno 17343 bound_to 10162
  156.1004  130.3656  150.0229 LP  0  0  0  0  0  0  0  0  0  0  0  0  # atno 17370 bound_to 10713
  156.8346  130.9404  151.3635 LP  0  0  0  0  0  0  0  0  0  0  0  0  # atno 17371 bound_to 10713
  140.2337  134.3878  155.7510 LP  0  0  0  0  0  0  0  0  0  0  0  0  # atno 17394 bound_to 11000
  141.2219  133.7228  156.8681 LP  0  0  0  0  0  0  0  0  0  0  0  0  # atno 17395 bound_to 11000

$$$$
