AV-unprocessed.smi:265|AV-procd|sdf|2023|dock3
  -GOLD-   2262021223D 1   1.00000     0.00000
 Structure written by MMmdl.
 52 56  0  0  0  0  0  0  0  0  1 V2000
  145.0685  133.7873  152.9726 C   0  0  0  0  0  0  0  0  0  0  0  0
  146.0183  132.8576  152.2011 C   0  0  2  0  0  0  0  0  0  0  0  0
  145.2199  131.8712  151.5516 O   0  0  0  0  0  0  0  0  0  0  0  0
  145.9608  130.6675  151.4598 C   0  0  0  0  0  0  0  0  0  0  0  0
  146.6654  130.6159  152.8066 C   0  0  0  0  0  0  0  0  0  0  0  0
  147.0633  132.0702  153.0423 C   0  0  1  0  0  0  0  0  0  0  0  0
  148.3348  132.2737  152.4477 O   0  0  0  0  0  0  0  0  0  0  0  0
  147.1699  132.4525  154.5424 C   0  0  0  0  0  0  0  0  0  0  0  0
  147.8950  133.6928  154.7783 N   0  0  0  0  0  0  0  0  0  0  0  0
  147.4451  134.9682  154.5197 C   0  0  0  0  0  0  0  0  0  0  0  0
  148.2817  135.9250  154.8157 N   0  0  0  0  0  0  0  0  0  0  0  0
  149.3882  135.2611  155.3325 C   0  0  0  0  0  0  0  0  0  0  0  0
  150.6484  135.6842  155.8421 C   0  0  0  0  0  0  0  0  0  0  0  0
  151.0012  136.9918  155.9292 N   0  0  0  0  0  0  0  0  0  0  0  0
  151.2649  137.5362  157.2609 C   0  0  0  0  0  0  0  0  0  0  0  0
  152.0207  138.8701  157.1624 C   0  0  0  0  0  0  0  0  0  0  0  0
  151.2928  139.8721  156.2520 C   0  0  2  0  0  0  0  0  0  0  0  0
  150.0756  140.2892  156.8565 O   0  0  0  0  0  0  0  0  0  0  0  0
  149.4236  141.3547  156.1637 C   0  0  0  0  0  0  0  0  0  0  0  0
  149.2975  141.0800  154.6537 C   0  0  0  0  0  0  0  0  0  0  0  0
  148.5151  141.7402  153.9741 O   0  0  0  0  0  0  0  0  0  0  0  0
  150.0905  140.1409  154.1130 N   0  0  0  0  0  0  0  0  0  0  0  0
  150.9459  139.2445  154.8838 C   0  0  2  0  0  0  0  0  0  0  0  0
  150.2470  137.8787  155.0456 C   0  0  0  0  0  0  0  0  0  0  0  0
  151.5115  134.7174  156.2551 N   0  0  0  0  0  0  0  0  0  0  0  0
  151.1653  133.4287  156.1868 C   0  0  0  0  0  0  0  0  0  0  0  0
  150.0266  132.8933  155.7429 N   0  0  0  0  0  0  0  0  0  0  0  0
  149.1604  133.8557  155.3157 C   0  0  0  0  0  0  0  0  0  0  0  0
  151.9340  140.7453  156.1149 H   0  0  0  0  0  0  0  0  0  0  0  0
  151.8696  139.0973  154.3225 H   0  0  0  0  0  0  0  0  0  0  0  0
  145.6130  134.5836  153.4802 H   0  0  0  0  0  0  0  0  0  0  0  0
  144.4893  133.2403  153.7168 H   0  0  0  0  0  0  0  0  0  0  0  0
  144.3600  134.2608  152.2924 H   0  0  0  0  0  0  0  0  0  0  0  0
  146.5165  133.4422  151.4253 H   0  0  0  0  0  0  0  0  0  0  0  0
  145.3132  129.8076  151.2880 H   0  0  0  0  0  0  0  0  0  0  0  0
  146.6776  130.7340  150.6398 H   0  0  0  0  0  0  0  0  0  0  0  0
  145.9444  130.2974  153.5602 H   0  0  0  0  0  0  0  0  0  0  0  0
  147.5026  129.9168  152.8301 H   0  0  0  0  0  0  0  0  0  0  0  0
  148.4324  131.6605  151.7353 H   0  0  0  0  0  0  0  0  0  0  0  0
  146.1748  132.5599  154.9757 H   0  0  0  0  0  0  0  0  0  0  0  0
  147.6680  131.6622  155.1049 H   0  0  0  0  0  0  0  0  0  0  0  0
  146.4717  135.1672  154.0948 H   0  0  0  0  0  0  0  0  0  0  0  0
  150.3194  137.6817  157.7855 H   0  0  0  0  0  0  0  0  0  0  0  0
  151.8538  136.8297  157.8473 H   0  0  0  0  0  0  0  0  0  0  0  0
  152.1610  139.2969  158.1558 H   0  0  0  0  0  0  0  0  0  0  0  0
  153.0186  138.6845  156.7631 H   0  0  0  0  0  0  0  0  0  0  0  0
  148.4342  141.5065  156.5958 H   0  0  0  0  0  0  0  0  0  0  0  0
  149.9850  142.2785  156.3085 H   0  0  0  0  0  0  0  0  0  0  0  0
  150.0367  139.9865  153.1167 H   0  0  0  0  0  0  0  0  0  0  0  0
  150.1014  137.4302  154.0632 H   0  0  0  0  0  0  0  0  0  0  0  0
  149.2518  138.0165  155.4716 H   0  0  0  0  0  0  0  0  0  0  0  0
  151.9065  132.7259  156.5381 H   0  0  0  0  0  0  0  0  0  0  0  0
  1  2  1  0  0  0  0
  1 31  1  0  0  0  0
  1 32  1  0  0  0  0
  1 33  1  0  0  0  0
  2  6  1  0  0  0  0
  2  3  1  0  0  0  0
  2 34  1  0  0  0  0
  3  4  1  0  0  0  0
  4  5  1  0  0  0  0
  4 35  1  0  0  0  0
  4 36  1  0  0  0  0
  5  6  1  0  0  0  0
  5 37  1  0  0  0  0
  5 38  1  0  0  0  0
  6  7  1  0  0  0  0
  6  8  1  0  0  0  0
  7 39  1  0  0  0  0
  8  9  1  0  0  0  0
  8 40  1  0  0  0  0
  8 41  1  0  0  0  0
  9 28  1  0  0  0  0
  9 10  1  0  0  0  0
 10 11  2  0  0  0  0
 10 42  1  0  0  0  0
 11 12  1  0  0  0  0
 12 28  2  0  0  0  0
 12 13  1  0  0  0  0
 13 14  1  0  0  0  0
 13 25  2  0  0  0  0
 14 24  1  0  0  0  0
 14 15  1  0  0  0  0
 15 16  1  0  0  0  0
 15 43  1  0  0  0  0
 15 44  1  0  0  0  0
 16 17  1  0  0  0  0
 16 45  1  0  0  0  0
 16 46  1  0  0  0  0
 17 29  1  0  0  0  0
 17 23  1  0  0  0  0
 17 18  1  0  0  0  0
 18 19  1  0  0  0  0
 19 20  1  0  0  0  0
 19 47  1  0  0  0  0
 19 48  1  0  0  0  0
 20 21  2  0  0  0  0
 20 22  1  0  0  0  0
 22 23  1  0  0  0  0
 22 49  1  0  0  0  0
 23 30  1  0  0  0  0
 23 24  1  0  0  0  0
 24 50  1  0  0  0  0
 24 51  1  0  0  0  0
 25 26  1  0  0  0  0
 26 27  2  0  0  0  0
 26 52  1  0  0  0  0
 27 28  1  0  0  0  0
M  END
> <s_m_source_file>
AV-unprocessed.smi

> <i_m_source_file_index>
265

> <i_lp_mmshare_version>
43012

> <i_f3d_flags>
0

> <s_epik_input>
W0NIMl0xW0NIMl1PW0NAQEhdKFtDSDNdKVtDQEBdMShbT0hdKVtDSDJdbihbY0hdbjIpYyhjMjMpbltjSF1uYzNOKFtDSDJdW0NIMl00KVtDSDJdW0NAQEhdKFtDQEhdNDUpW05IXUMoPU8pW0NIMl1PNQ==

> <s_epik_cmdline>
J2VwaWtfcHl0aG9uJywgJy1waCcsICc3LjAnLCAnLXRuJywgJzgnLCAnLW1hJywgJzIwMCcsICctbWV0YWxfYmluZGluZycsICctaW1hZScsICc8aW5maWxlLm1hZT4nLCAnLW9tYWUnLCAnPG91dGZpbGUubWFlPic=

> <r_lp_tautomer_probability>
1

> <r_epik_Ionization_Penalty>
0.00221504

> <r_epik_Ionization_Penalty_Charging>
0

> <r_epik_Ionization_Penalty_Neutral>
0.00221504

> <r_epik_State_Penalty>
-0

> <r_epik_Charging_Adjusted_Penalty>
0

> <i_epik_Tot_Q>
0

> <i_epik_Tot_abs_Q>
0

> <r_epik_Metal_State_Penalty>
-0

> <b_epik_Metal_Only>
0

> <s_lp_Force_Field>
OPLS_2005

> <r_lp_Energy>
44.3548

> <b_lp_Chiralities_Consistent>
1

> <s_lp_Variant>
AV-unprocessed.smi:265-9

> <Gold.Version>
5.8.1

> <Gold.Id.Protein>
6NUR|6NUR_protein|mol2

> <Gold.PLP.Fitness>
41.3176

> <Gold.PLP.PLP>
-32.8064

> <Gold.PLP.part.hbond>
-4.0000

> <Gold.PLP.part.metal>
0.0000

> <Gold.PLP.part.buried>
-4.8957

> <Gold.PLP.part.nonpolar>
-26.1707

> <Gold.PLP.part.repulsive>
4.8449

> <Gold.PLP.ligand.clash>
0.0000

> <Gold.PLP.ligand.torsion>
0.6415

> <Gold.PLP.Chemscore.Hbond>
3.1457

> <Gold.PLP.Chemscore.CHOScore>
0.0000

> <Gold.PLP.Chemscore.Metal>
0.0000

> <Gold.Chemscore.Hbonds>
donor molecule, donor type, donor heavy atom, donor atom, acceptor molecule, acceptor atom, score
      L1  H     7    39       P1 10747  1.00
      L1  H    22    49       P1  7957  1.00
      P1  H  8011  8017       L1    21  0.34
      P1  H 10752 10763       L1    25  0.40

> <Gold.PLP.Chemscore.Internal.Correction>
0.3570

> <Gold.Rescore>
     Score         DG    S(hbond)    S(metal)    S(lipo)     H(rot)  DE(clash)    DE(int)     intcor
     11.83     -15.25       2.22        0.00      69.24       2.25       1.36       2.06       ----

> <Gold.Chemscore.Fitness>
11.8273

> <Gold.Chemscore.DG>
-15.2479

> <Gold.Chemscore.ZeroCoef>
-5.4800

> <Gold.Chemscore.Hbond>
2.2200

> <Gold.Chemscore.Metal>
0.0000

> <Gold.Chemscore.Lipo>
69.2400

> <Gold.Chemscore.Internal_Hbond>
0.0000

> <Gold.Chemscore.DEClash>
1.3569

> <Gold.Chemscore.DEInternal>
2.0636

> <Gold.Chemscore.Rot>
2.2453

> <Gold.Chemscore.Internal.Correction>
   9.000000E+99

> <Gold.Chemscore.Hbonds>
donor molecule, donor type, donor heavy atom, donor atom, acceptor molecule, acceptor atom, score
      L1  H     7    39       P1 10747  1.00
      L1  H    22    49       P1  7957  0.96
      P1  H  8011  8017       L1    21  0.13
      P1  H 10752 10763       L1    25  0.03

> <Gold.Chemscore.Hbond.Weighted>
-7.4147

> <Gold.Chemscore.Metal.Weighted>
-0.0000

> <Gold.Chemscore.Lipo.Weighted>
-8.1011

> <Gold.Chemscore.Internal_Hbond.Weighted>
0.0000

> <Gold.Chemscore.DEClash.Weighted>
1.3569

> <Gold.Chemscore.DEInternal.Weighted>
2.0636

> <Gold.Chemscore.Rot.Weighted>
5.7479

> <Gold.Chemscore.Internal.Correction.Weighted>
   9.000000E+99

> <Gold.Protein.RotatedTorsions>
[ 6907 6896 6895 6894 ] final   54.13 input  -60.11 | X-H torsion
[ 7974 7965 7964 7962 ] final  -54.88 input  175.53 | X-H torsion
[ 8008 7997 7996 7995 ] final -136.96 input   59.86 | X-H torsion
[ 10167 10162 10161 10158 ] final   40.58 input  -65.29 | X-H torsion
[ 10718 10713 10712 10709 ] final  -80.72 input   66.30 | X-H torsion
[ 10763 10752 10751 10750 ] final   86.60 input  -60.55 | X-H torsion
[ 11005 11000 10999 10996 ] final -167.71 input  -57.11 | X-H torsion

> <Gold.Protein.ActiveResidues>
 VAL166  LYS551  ARG553  GLY616  TRP617  ASP618  TYR619  PRO620  LYS621  CYS622 
 ASP623  PHE694  ASN695  SER759  ASP760  ASP761  ALA762  ILE779  LEU786  VAL792 
 PHE793  MET794  SER795  GLU796  ALA797  LYS798  CYS799  TRP800  GLU811  SER814 

> <Gold.Protein.RotatedAtoms>
  152.3408  134.7137  160.0264 H   0  0  0  0  0  0  0  0  0  0  0  0  # atno 6907 bound_to 6896
  151.7523  133.3323  159.3403 H   0  0  0  0  0  0  0  0  0  0  0  0  # atno 6908 bound_to 6896
  150.7478  134.6113  159.6132 H   0  0  0  0  0  0  0  0  0  0  0  0  # atno 6909 bound_to 6896
  145.8805  140.8148  142.9842 H   0  0  0  0  0  0  0  0  0  0  0  0  # atno 7974 bound_to 7965
  155.4038  140.0507  157.3035 H   0  0  0  0  0  0  0  0  0  0  0  0  # atno 8008 bound_to 7997
  154.4978  140.2145  155.9370 H   0  0  0  0  0  0  0  0  0  0  0  0  # atno 8009 bound_to 7997
  156.1428  140.3151  155.8528 H   0  0  0  0  0  0  0  0  0  0  0  0  # atno 8010 bound_to 7997
  140.3727  144.2083  150.6132 H   0  0  0  0  0  0  0  0  0  0  0  0  # atno 10167 bound_to 10162
  156.0064  130.4582  150.3843 H   0  0  0  0  0  0  0  0  0  0  0  0  # atno 10718 bound_to 10713
  153.1586  135.4574  154.9740 H   0  0  0  0  0  0  0  0  0  0  0  0  # atno 10763 bound_to 10752
  154.7880  135.3211  154.7844 H   0  0  0  0  0  0  0  0  0  0  0  0  # atno 10764 bound_to 10752
  153.8337  135.6936  153.4866 H   0  0  0  0  0  0  0  0  0  0  0  0  # atno 10765 bound_to 10752
  140.5502  134.5435  157.5120 H   0  0  0  0  0  0  0  0  0  0  0  0  # atno 11005 bound_to 11000
  144.6727  140.1377  143.7439 LP  0  0  0  0  0  0  0  0  0  0  0  0  # atno 17320 bound_to 7965
  145.9029  139.2441  143.1483 LP  0  0  0  0  0  0  0  0  0  0  0  0  # atno 17321 bound_to 7965
  140.5017  143.2316  151.8669 LP  0  0  0  0  0  0  0  0  0  0  0  0  # atno 17342 bound_to 10162
  139.4802  144.5052  151.9007 LP  0  0  0  0  0  0  0  0  0  0  0  0  # atno 17343 bound_to 10162
  157.1921  131.0418  151.2695 LP  0  0  0  0  0  0  0  0  0  0  0  0  # atno 17370 bound_to 10713
  157.4052  130.7355  149.6797 LP  0  0  0  0  0  0  0  0  0  0  0  0  # atno 17371 bound_to 10713
  139.9459  134.7703  156.0564 LP  0  0  0  0  0  0  0  0  0  0  0  0  # atno 17394 bound_to 11000
  141.1176  133.6623  156.3133 LP  0  0  0  0  0  0  0  0  0  0  0  0  # atno 17395 bound_to 11000

$$$$
