AV-unprocessed.smi:1814|AV-procd|sdf|7349|dock2
  -GOLD-   22720 9 13D 1   1.00000     0.00000
 Structure written by MMmdl.
 31 32  0  0  0  0  0  0  0  0  1 V2000
  150.7493  140.6014  156.5049 O   0  0  0  0  0  0  0  0  0  0  0  0
  150.1846  141.6846  156.3494 C   0  0  0  0  0  0  0  0  0  0  0  0
  150.3958  142.7848  157.0930 N   0  0  0  0  0  0  0  0  0  0  0  0
  151.2890  142.9485  158.1843 C   0  0  0  0  0  0  0  0  0  0  0  0
  151.7925  141.9404  158.9061 N   0  0  0  0  0  0  0  0  0  0  0  0
  152.6443  142.3929  159.9167 C   0  0  0  0  0  0  0  0  0  0  0  0
  152.7794  143.7587  159.9501 C   0  0  0  0  0  0  0  0  0  0  0  0
  151.8340  144.5352  158.7081 S   0  0  0  0  0  0  0  0  0  0  0  0
  149.2694  141.9116  155.3957 N   0  0  0  0  0  0  0  0  0  0  0  0
  148.8142  140.9311  154.4143 C   0  0  2  0  0  0  0  0  0  0  0  0
  147.6842  141.5168  153.5435 C   0  0  0  0  0  0  0  0  0  0  0  0
  147.1456  140.4791  152.5428 C   0  0  0  0  0  0  0  0  0  0  0  0
  146.7019  139.1750  153.2325 C   0  0  2  0  0  0  0  0  0  0  0  0
  145.5251  139.3983  153.9844 O   0  0  0  0  0  0  0  0  0  0  0  0
  147.8091  138.6096  154.1420 C   0  0  0  0  0  0  0  0  0  0  0  0
  148.3382  139.6578  155.1368 C   0  0  0  0  0  0  0  0  0  0  0  0
  149.8606  143.6036  156.8451 H   0  0  0  0  0  0  0  0  0  0  0  0
  153.1148  141.6716  160.5685 H   0  0  0  0  0  0  0  0  0  0  0  0
  153.3754  144.3519  160.6276 H   0  0  0  0  0  0  0  0  0  0  0  0
  148.8572  142.8314  155.3412 H   0  0  0  0  0  0  0  0  0  0  0  0
  149.6523  140.6597  153.7694 H   0  0  0  0  0  0  0  0  0  0  0  0
  146.8698  141.8652  154.1802 H   0  0  0  0  0  0  0  0  0  0  0  0
  148.0428  142.3915  152.9993 H   0  0  0  0  0  0  0  0  0  0  0  0
  146.3210  140.9042  151.9692 H   0  0  0  0  0  0  0  0  0  0  0  0
  147.9294  140.2483  151.8201 H   0  0  0  0  0  0  0  0  0  0  0  0
  146.4552  138.4352  152.4704 H   0  0  0  0  0  0  0  0  0  0  0  0
  144.9335  139.9240  153.4678 H   0  0  0  0  0  0  0  0  0  0  0  0
  147.4467  137.7321  154.6788 H   0  0  0  0  0  0  0  0  0  0  0  0
  148.6368  138.2646  153.5210 H   0  0  0  0  0  0  0  0  0  0  0  0
  149.1566  139.2295  155.7166 H   0  0  0  0  0  0  0  0  0  0  0  0
  147.5536  139.9085  155.8522 H   0  0  0  0  0  0  0  0  0  0  0  0
  1  2  2  0  0  0  0
  2  3  1  0  0  0  0
  2  9  1  0  0  0  0
  3  4  1  0  0  0  0
  3 17  1  0  0  0  0
  4  8  1  0  0  0  0
  4  5  2  0  0  0  0
  5  6  1  0  0  0  0
  6  7  2  0  0  0  0
  6 18  1  0  0  0  0
  7  8  1  0  0  0  0
  7 19  1  0  0  0  0
  9 10  1  0  0  0  0
  9 20  1  0  0  0  0
 10 16  1  0  0  0  0
 10 11  1  0  0  0  0
 10 21  1  0  0  0  0
 11 12  1  0  0  0  0
 11 22  1  0  0  0  0
 11 23  1  0  0  0  0
 12 13  1  0  0  0  0
 12 24  1  0  0  0  0
 12 25  1  0  0  0  0
 13 14  1  0  0  0  0
 13 15  1  0  0  0  0
 13 26  1  0  0  0  0
 14 27  1  0  0  0  0
 15 16  1  0  0  0  0
 15 28  1  0  0  0  0
 15 29  1  0  0  0  0
 16 30  1  0  0  0  0
 16 31  1  0  0  0  0
M  END
> <s_m_source_file>
AV-unprocessed.smi

> <i_m_source_file_index>
1814

> <i_lp_mmshare_version>
43012

> <i_f3d_flags>
0

> <s_epik_input>
czFbY0hdW2NIXW5jMVtOSF1DKD1PKVtOSF1bQ0BASF0yW0NIMl1bQ0gyXVtDQEBIXShbT0hdKVtDSDJdW0NIMl0y

> <s_epik_cmdline>
J2VwaWtfcHl0aG9uJywgJy1waCcsICc3LjAnLCAnLXRuJywgJzgnLCAnLW1hJywgJzIwMCcsICctbWV0YWxfYmluZGluZycsICctaW1hZScsICc8aW5maWxlLm1hZT4nLCAnLW9tYWUnLCAnPG91dGZpbGUubWFlPic=

> <r_lp_tautomer_probability>
0.999

> <r_epik_Ionization_Penalty>
0.000428518

> <r_epik_Ionization_Penalty_Charging>
0

> <r_epik_Ionization_Penalty_Neutral>
0.000428518

> <r_epik_State_Penalty>
0.000177984

> <r_epik_Charging_Adjusted_Penalty>
0.000177984

> <i_epik_Tot_Q>
0

> <i_epik_Tot_abs_Q>
0

> <r_epik_Metal_State_Penalty>
-0

> <b_epik_Metal_Only>
0

> <s_lp_Force_Field>
OPLS_2005

> <r_lp_Energy>
9.0844

> <b_lp_Chiralities_Consistent>
1

> <s_lp_Variant>
AV-unprocessed.smi:1814-2

> <Gold.Version>
5.8.1

> <Gold.Id.Protein>
6NUR|6NUR_protein|mol2

> <Gold.PLP.Fitness>
40.6343

> <Gold.PLP.PLP>
-31.8715

> <Gold.PLP.part.hbond>
-3.0000

> <Gold.PLP.part.metal>
0.0000

> <Gold.PLP.part.buried>
-3.9616

> <Gold.PLP.part.nonpolar>
-25.4956

> <Gold.PLP.part.repulsive>
0.2049

> <Gold.PLP.ligand.clash>
0.0000

> <Gold.PLP.ligand.torsion>
0.1200

> <Gold.PLP.Chemscore.Hbond>
3.0000

> <Gold.PLP.Chemscore.CHOScore>
0.0000

> <Gold.PLP.Chemscore.Metal>
0.0000

> <Gold.Chemscore.Hbonds>
donor molecule, donor type, donor heavy atom, donor atom, acceptor molecule, acceptor atom, score
      L1  H     3    17       P1  8028  1.00
      L1  H     9    20       P1  8028  1.00
      L1  H    14    27       P1 10175  1.00

> <Gold.PLP.Chemscore.Internal.Correction>
0.0028

> <Gold.Rescore>
     Score         DG    S(hbond)    S(metal)    S(lipo)     H(rot)  DE(clash)    DE(int)     intcor
     17.73     -20.28       2.96        0.00      74.87       1.50       0.17       2.38       ----

> <Gold.Chemscore.Fitness>
17.7296

> <Gold.Chemscore.DG>
-20.2752

> <Gold.Chemscore.ZeroCoef>
-5.4800

> <Gold.Chemscore.Hbond>
2.9571

> <Gold.Chemscore.Metal>
0.0000

> <Gold.Chemscore.Lipo>
74.8713

> <Gold.Chemscore.Internal_Hbond>
0.0000

> <Gold.Chemscore.DEClash>
0.1673

> <Gold.Chemscore.DEInternal>
2.3783

> <Gold.Chemscore.Rot>
1.5006

> <Gold.Chemscore.Internal.Correction>
   9.000000E+99

> <Gold.Chemscore.Hbonds>
donor molecule, donor type, donor heavy atom, donor atom, acceptor molecule, acceptor atom, score
      L1  H     3    17       P1  8028  0.98
      L1  H     9    20       P1  8028  0.97
      L1  H    14    27       P1 10175  1.00

> <Gold.Chemscore.Hbond.Weighted>
-9.8767

> <Gold.Chemscore.Metal.Weighted>
-0.0000

> <Gold.Chemscore.Lipo.Weighted>
-8.7599

> <Gold.Chemscore.Internal_Hbond.Weighted>
0.0000

> <Gold.Chemscore.DEClash.Weighted>
0.1673

> <Gold.Chemscore.DEInternal.Weighted>
2.3783

> <Gold.Chemscore.Rot.Weighted>
3.8415

> <Gold.Chemscore.Internal.Correction.Weighted>
   9.000000E+99

> <Gold.Protein.RotatedTorsions>
[ 6907 6896 6895 6894 ] final  160.55 input  -60.11 | X-H torsion
[ 7974 7965 7964 7962 ] final -149.17 input  175.53 | X-H torsion
[ 8008 7997 7996 7995 ] final -104.04 input   59.86 | X-H torsion
[ 10167 10162 10161 10158 ] final  125.63 input  -65.29 | X-H torsion
[ 10718 10713 10712 10709 ] final   64.53 input   66.30 | X-H torsion
[ 10763 10752 10751 10750 ] final   46.95 input  -60.55 | X-H torsion
[ 11005 11000 10999 10996 ] final   90.08 input  -57.11 | X-H torsion

> <Gold.Protein.ActiveResidues>
 VAL166  LYS551  ARG553  GLY616  TRP617  ASP618  TYR619  PRO620  LYS621  CYS622 
 ASP623  PHE694  ASN695  SER759  ASP760  ASP761  ALA762  ILE779  LEU786  VAL792 
 PHE793  MET794  SER795  GLU796  ALA797  LYS798  CYS799  TRP800  GLU811  SER814 

> <Gold.Protein.RotatedAtoms>
  151.9690  133.3719  159.4063 H   0  0  0  0  0  0  0  0  0  0  0  0  # atno 6907 bound_to 6896
  150.6952  134.4160  159.5192 H   0  0  0  0  0  0  0  0  0  0  0  0  # atno 6908 bound_to 6896
  152.1861  134.8712  160.0572 H   0  0  0  0  0  0  0  0  0  0  0  0  # atno 6909 bound_to 6896
  144.7984  140.5100  143.5724 H   0  0  0  0  0  0  0  0  0  0  0  0  # atno 7974 bound_to 7965
  154.8795  140.0420  157.1774 H   0  0  0  0  0  0  0  0  0  0  0  0  # atno 8008 bound_to 7997
  154.8654  140.2950  155.5493 H   0  0  0  0  0  0  0  0  0  0  0  0  # atno 8009 bound_to 7997
  156.2999  140.2439  156.3634 H   0  0  0  0  0  0  0  0  0  0  0  0  # atno 8010 bound_to 7997
  139.5675  144.6920  151.3869 H   0  0  0  0  0  0  0  0  0  0  0  0  # atno 10167 bound_to 10162
  157.6046  130.9165  149.9858 H   0  0  0  0  0  0  0  0  0  0  0  0  # atno 10718 bound_to 10713
  152.9805  135.5992  154.3684 H   0  0  0  0  0  0  0  0  0  0  0  0  # atno 10763 bound_to 10752
  154.3359  135.2768  155.2449 H   0  0  0  0  0  0  0  0  0  0  0  0  # atno 10764 bound_to 10752
  154.4553  135.5979  153.6274 H   0  0  0  0  0  0  0  0  0  0  0  0  # atno 10765 bound_to 10752
  139.8863  134.8592  156.3234 H   0  0  0  0  0  0  0  0  0  0  0  0  # atno 11005 bound_to 11000
  145.5615  139.1479  143.3338 LP  0  0  0  0  0  0  0  0  0  0  0  0  # atno 17320 bound_to 7965
  146.2259  140.5751  142.8997 LP  0  0  0  0  0  0  0  0  0  0  0  0  # atno 17321 bound_to 7965
  140.6959  143.7750  150.7326 LP  0  0  0  0  0  0  0  0  0  0  0  0  # atno 17342 bound_to 10162
  140.1246  143.4581  152.2292 LP  0  0  0  0  0  0  0  0  0  0  0  0  # atno 17343 bound_to 10162
  156.1128  130.3649  150.0020 LP  0  0  0  0  0  0  0  0  0  0  0  0  # atno 17370 bound_to 10713
  156.8115  130.9326  151.3644 LP  0  0  0  0  0  0  0  0  0  0  0  0  # atno 17371 bound_to 10713
  140.9771  133.7290  156.0618 LP  0  0  0  0  0  0  0  0  0  0  0  0  # atno 17394 bound_to 11000
  140.7797  134.3740  157.5490 LP  0  0  0  0  0  0  0  0  0  0  0  0  # atno 17395 bound_to 11000

$$$$
