AV-unprocessed.smi:90|AV-procd|sdf|832|dock4
  -GOLD-   2262017253D 1   1.00000     0.00000
 Structure written by MMmdl.
 64 67  0  0  0  0  0  0  0  0  2 V2000
  149.4033  133.2129  153.1565 C   0  0  0  0  0  0  0  0  0  0  0  0
  148.9412  132.2237  154.1268 N   0  0  0  0  0  0  0  0  0  0  0  0
  147.7741  131.4108  153.7984 C   0  0  0  0  0  0  0  0  0  0  0  0
  146.4523  132.1683  154.0349 C   0  0  0  0  0  0  0  0  0  0  0  0
  145.7202  132.5998  152.7370 C   0  0  1  0  0  0  0  0  0  0  0  0
  145.3669  131.3597  151.8766 C   0  0  0  0  0  0  0  0  0  0  0  0
  144.6192  131.7327  150.5926 C   0  0  0  0  0  0  0  0  0  0  0  0
  143.3728  132.5461  150.9403 C   0  0  0  0  0  0  0  0  0  0  0  0
  143.7583  133.7760  151.7713 C   0  0  0  0  0  0  0  0  0  0  0  0
  144.4795  133.3953  153.0156 N   0  3  2  0  0  0  0  0  0  0  0  0
  144.6920  134.5874  153.8735 C   0  0  0  0  0  0  0  0  0  0  0  0
  149.5591  132.1389  155.3404 C   0  0  0  0  0  0  0  0  0  0  0  0
  150.6401  132.9355  155.5583 N   0  0  0  0  0  0  0  0  0  0  0  0
  151.3046  132.8910  156.7152 C   0  0  0  0  0  0  0  0  0  0  0  0
  151.0609  132.1362  157.7854 N   0  0  0  0  0  0  0  0  0  0  0  0
  149.9705  131.3422  157.5927 C   0  0  0  0  0  0  0  0  0  0  0  0
  149.1698  131.2763  156.4134 C   0  0  0  0  0  0  0  0  0  0  0  0
  148.1504  130.3484  156.6059 N   0  0  0  0  0  0  0  0  0  0  0  0
  148.3450  129.8879  157.8095 C   0  0  0  0  0  0  0  0  0  0  0  0
  149.4084  130.4420  158.4830 N   0  0  0  0  0  0  0  0  0  0  0  0
  149.8491  130.1092  159.8315 C   0  0  0  0  0  0  0  0  0  0  0  0
  148.9029  130.5913  160.9725 C   0  0  0  0  0  0  0  0  0  0  0  0
  149.6168  130.4953  162.3511 C   0  0  0  0  0  0  0  0  0  0  0  0
  149.9488  129.1639  162.6909 O   0  0  0  0  0  0  0  0  0  0  0  0
  148.4655  132.0572  160.7180 C   0  0  0  0  0  0  0  0  0  0  0  0
  147.2873  132.5021  161.6051 C   0  0  0  0  0  0  0  0  0  0  0  0
  146.1885  131.6155  161.4432 O   0  0  0  0  0  0  0  0  0  0  0  0
  146.4953  130.2832  161.8329 C   0  0  0  0  0  0  0  0  0  0  0  0
  147.6177  129.7253  160.9400 C   0  0  0  0  0  0  0  0  0  0  0  0
  149.4476  134.2046  153.6081 H   0  0  0  0  0  0  0  0  0  0  0  0
  148.7314  133.2673  152.2997 H   0  0  0  0  0  0  0  0  0  0  0  0
  150.3957  132.9546  152.7861 H   0  0  0  0  0  0  0  0  0  0  0  0
  147.8405  131.1326  152.7459 H   0  0  0  0  0  0  0  0  0  0  0  0
  147.8189  130.4688  154.3402 H   0  0  0  0  0  0  0  0  0  0  0  0
  145.7803  131.5687  154.6496 H   0  0  0  0  0  0  0  0  0  0  0  0
  146.7093  133.0398  154.6337 H   0  0  0  0  0  0  0  0  0  0  0  0
  146.3949  133.2378  152.1633 H   0  0  0  0  0  0  0  0  0  0  0  0
  146.2647  130.8114  151.5950 H   0  0  0  0  0  0  0  0  0  0  0  0
  144.7569  130.6693  152.4611 H   0  0  0  0  0  0  0  0  0  0  0  0
  145.2715  132.3118  149.9377 H   0  0  0  0  0  0  0  0  0  0  0  0
  144.3411  130.8330  150.0431 H   0  0  0  0  0  0  0  0  0  0  0  0
  142.8623  132.8556  150.0277 H   0  0  0  0  0  0  0  0  0  0  0  0
  142.6682  131.9273  151.4979 H   0  0  0  0  0  0  0  0  0  0  0  0
  144.3810  134.4495  151.1799 H   0  0  0  0  0  0  0  0  0  0  0  0
  142.8511  134.3262  152.0242 H   0  0  0  0  0  0  0  0  0  0  0  0
  145.4921  135.2159  153.4804 H   0  0  0  0  0  0  0  0  0  0  0  0
  144.9341  134.3084  154.8981 H   0  0  0  0  0  0  0  0  0  0  0  0
  143.7873  135.1934  153.9319 H   0  0  0  0  0  0  0  0  0  0  0  0
  152.1542  133.5534  156.7930 H   0  0  0  0  0  0  0  0  0  0  0  0
  147.7088  129.1310  158.2449 H   0  0  0  0  0  0  0  0  0  0  0  0
  149.9615  129.0251  159.8756 H   0  0  0  0  0  0  0  0  0  0  0  0
  150.8537  130.5099  159.9719 H   0  0  0  0  0  0  0  0  0  0  0  0
  150.5289  131.0919  162.3575 H   0  0  0  0  0  0  0  0  0  0  0  0
  148.9971  130.8896  163.1547 H   0  0  0  0  0  0  0  0  0  0  0  0
  150.8230  128.9833  162.3804 H   0  0  0  0  0  0  0  0  0  0  0  0
  149.3020  132.7407  160.8670 H   0  0  0  0  0  0  0  0  0  0  0  0
  148.1634  132.1680  159.6757 H   0  0  0  0  0  0  0  0  0  0  0  0
  147.5727  132.5594  162.6556 H   0  0  0  0  0  0  0  0  0  0  0  0
  146.9680  133.5041  161.3178 H   0  0  0  0  0  0  0  0  0  0  0  0
  146.7659  130.2482  162.8886 H   0  0  0  0  0  0  0  0  0  0  0  0
  145.5973  129.6753  161.7217 H   0  0  0  0  0  0  0  0  0  0  0  0
  147.2378  129.6790  159.9184 H   0  0  0  0  0  0  0  0  0  0  0  0
  147.8356  128.6942  161.2195 H   0  0  0  0  0  0  0  0  0  0  0  0
  143.8556  132.7864  153.5256 H   0  0  0  0  0  0  0  0  0  0  0  0
  1  2  1  0  0  0  0
  1 30  1  0  0  0  0
  1 31  1  0  0  0  0
  1 32  1  0  0  0  0
  2  3  1  0  0  0  0
  2 12  1  0  0  0  0
  3  4  1  0  0  0  0
  3 33  1  0  0  0  0
  3 34  1  0  0  0  0
  4  5  1  0  0  0  0
  4 35  1  0  0  0  0
  4 36  1  0  0  0  0
  5 10  1  0  0  0  0
  5  6  1  0  0  0  0
  5 37  1  0  0  0  0
  6  7  1  0  0  0  0
  6 38  1  0  0  0  0
  6 39  1  0  0  0  0
  7  8  1  0  0  0  0
  7 40  1  0  0  0  0
  7 41  1  0  0  0  0
  8  9  1  0  0  0  0
  8 42  1  0  0  0  0
  8 43  1  0  0  0  0
  9 10  1  0  0  0  0
  9 44  1  0  0  0  0
  9 45  1  0  0  0  0
 10 11  1  0  0  0  0
 10 64  1  0  0  0  0
 11 46  1  0  0  0  0
 11 47  1  0  0  0  0
 11 48  1  0  0  0  0
 12 17  1  0  0  0  0
 12 13  2  0  0  0  0
 13 14  1  0  0  0  0
 14 15  2  0  0  0  0
 14 49  1  0  0  0  0
 15 16  1  0  0  0  0
 16 20  1  0  0  0  0
 16 17  2  0  0  0  0
 17 18  1  0  0  0  0
 18 19  2  0  0  0  0
 19 20  1  0  0  0  0
 19 50  1  0  0  0  0
 20 21  1  0  0  0  0
 21 22  1  0  0  0  0
 21 51  1  0  0  0  0
 21 52  1  0  0  0  0
 22 29  1  0  0  0  0
 22 23  1  0  0  0  0
 22 25  1  0  0  0  0
 23 24  1  0  0  0  0
 23 53  1  0  0  0  0
 23 54  1  0  0  0  0
 24 55  1  0  0  0  0
 25 26  1  0  0  0  0
 25 56  1  0  0  0  0
 25 57  1  0  0  0  0
 26 27  1  0  0  0  0
 26 58  1  0  0  0  0
 26 59  1  0  0  0  0
 27 28  1  0  0  0  0
 28 29  1  0  0  0  0
 28 60  1  0  0  0  0
 28 61  1  0  0  0  0
 29 62  1  0  0  0  0
 29 63  1  0  0  0  0
M  CHG  1  10   1
M  END
> <s_m_source_file>
AV-unprocessed.smi

> <i_m_source_file_index>
90

> <i_lp_mmshare_version>
43012

> <i_f3d_flags>
0

> <s_epik_input>
W0NIM11OMVtDSDJdW0NIMl1bQ0gyXVtDSDJdW0NASF0xW0NIMl1bQ0gyXU4oW0NIM10pYyhuW2NIXW4yKWMoYzIzKW5bY0hdbjNbQ0gyXUM0KFtDSDJdW09IXSlbQ0gyXVtDSDJdT1tDSDJdW0NIMl00

> <s_epik_cmdline>
J2VwaWtfcHl0aG9uJywgJy1waCcsICc3LjAnLCAnLXRuJywgJzgnLCAnLW1hJywgJzIwMCcsICctbWV0YWxfYmluZGluZycsICctaW1hZScsICc8aW5maWxlLm1hZT4nLCAnLW9tYWUnLCAnPG91dGZpbGUubWFlPic=

> <r_lp_tautomer_probability>
1

> <r_epik_Ionization_Penalty>
0.00234895

> <r_epik_Ionization_Penalty_Charging>
0.00106647

> <r_epik_Ionization_Penalty_Neutral>
0.00128248

> <r_epik_State_Penalty>
-0

> <r_epik_Charging_Adjusted_Penalty>
0.00106647

> <i_epik_Tot_Q>
1

> <i_epik_Tot_abs_Q>
1

> <r_epik_Metal_State_Penalty>
-0

> <b_epik_Metal_Only>
0

> <s_lp_Force_Field>
OPLS_2005

> <r_lp_Energy>
42.6574

> <b_lp_Chiralities_Consistent>
1

> <s_lp_Variant>
AV-unprocessed.smi:90-4

> <Gold.Version>
5.8.1

> <Gold.Id.Protein>
6NUR|6NUR_protein|mol2

> <Gold.PLP.Fitness>
42.8445

> <Gold.PLP.PLP>
-35.3386

> <Gold.PLP.part.hbond>
-2.0000

> <Gold.PLP.part.metal>
0.0000

> <Gold.PLP.part.buried>
-5.1881

> <Gold.PLP.part.nonpolar>
-28.9006

> <Gold.PLP.part.repulsive>
0.0542

> <Gold.PLP.ligand.clash>
0.0000

> <Gold.PLP.ligand.torsion>
0.8882

> <Gold.PLP.Chemscore.Hbond>
3.0000

> <Gold.PLP.Chemscore.CHOScore>
0.0000

> <Gold.PLP.Chemscore.Metal>
0.0000

> <Gold.Chemscore.Hbonds>
donor molecule, donor type, donor heavy atom, donor atom, acceptor molecule, acceptor atom, score
      L1  H    10    64       P1 10957  2.00
      P1  H  6896  6908       L1    15  1.00

> <Gold.PLP.Chemscore.Internal.Correction>
0.2822

> <Gold.Rescore>
     Score         DG    S(hbond)    S(metal)    S(lipo)     H(rot)  DE(clash)    DE(int)     intcor
     12.24     -14.29       1.62        0.00      88.81       2.73       0.18       1.87       ----

> <Gold.Chemscore.Fitness>
12.2356

> <Gold.Chemscore.DG>
-14.2885

> <Gold.Chemscore.ZeroCoef>
-5.4800

> <Gold.Chemscore.Hbond>
1.6225

> <Gold.Chemscore.Metal>
0.0000

> <Gold.Chemscore.Lipo>
88.8050

> <Gold.Chemscore.Internal_Hbond>
0.0000

> <Gold.Chemscore.DEClash>
0.1806

> <Gold.Chemscore.DEInternal>
1.8724

> <Gold.Chemscore.Rot>
2.7347

> <Gold.Chemscore.Internal.Correction>
   9.000000E+99

> <Gold.Chemscore.Hbonds>
donor molecule, donor type, donor heavy atom, donor atom, acceptor molecule, acceptor atom, score
      L1  H    10    64       P1 10957  0.63
      P1  H  6896  6908       L1    15  0.40

> <Gold.Chemscore.Hbond.Weighted>
-5.4193

> <Gold.Chemscore.Metal.Weighted>
-0.0000

> <Gold.Chemscore.Lipo.Weighted>
-10.3902

> <Gold.Chemscore.Internal_Hbond.Weighted>
0.0000

> <Gold.Chemscore.DEClash.Weighted>
0.1806

> <Gold.Chemscore.DEInternal.Weighted>
1.8724

> <Gold.Chemscore.Rot.Weighted>
7.0009

> <Gold.Chemscore.Internal.Correction.Weighted>
   9.000000E+99

> <Gold.Protein.RotatedTorsions>
[ 6907 6896 6895 6894 ] final   71.62 input  -60.11 | X-H torsion
[ 7974 7965 7964 7962 ] final -102.61 input  175.53 | X-H torsion
[ 8008 7997 7996 7995 ] final  -11.27 input   59.86 | X-H torsion
[ 10167 10162 10161 10158 ] final -103.47 input  -65.29 | X-H torsion
[ 10718 10713 10712 10709 ] final -175.37 input   66.30 | X-H torsion
[ 10763 10752 10751 10750 ] final  -67.59 input  -60.55 | X-H torsion
[ 11005 11000 10999 10996 ] final  -20.87 input  -57.11 | X-H torsion

> <Gold.Protein.ActiveResidues>
 VAL166  LYS551  ARG553  GLY616  TRP617  ASP618  TYR619  PRO620  LYS621  CYS622 
 ASP623  PHE694  ASN695  SER759  ASP760  ASP761  ALA762  ILE779  LEU786  VAL792 
 PHE793  MET794  SER795  GLU796  ALA797  LYS798  CYS799  TRP800  GLU811  SER814 

> <Gold.Protein.RotatedAtoms>
  152.4820  134.4694  159.9630 H   0  0  0  0  0  0  0  0  0  0  0  0  # atno 6907 bound_to 6896
  151.4697  133.3566  159.2829 H   0  0  0  0  0  0  0  0  0  0  0  0  # atno 6908 bound_to 6896
  150.8900  134.8328  159.7347 H   0  0  0  0  0  0  0  0  0  0  0  0  # atno 6909 bound_to 6896
  145.2665  140.9285  143.3011 H   0  0  0  0  0  0  0  0  0  0  0  0  # atno 7974 bound_to 7965
  154.5480  140.2307  155.8532 H   0  0  0  0  0  0  0  0  0  0  0  0  # atno 8008 bound_to 7997
  156.1920  140.3074  155.9313 H   0  0  0  0  0  0  0  0  0  0  0  0  # atno 8009 bound_to 7997
  155.3127  140.0436  157.3026 H   0  0  0  0  0  0  0  0  0  0  0  0  # atno 8010 bound_to 7997
  140.2196  143.3686  152.0981 H   0  0  0  0  0  0  0  0  0  0  0  0  # atno 10167 bound_to 10162
  156.7989  130.9545  151.3119 H   0  0  0  0  0  0  0  0  0  0  0  0  # atno 10718 bound_to 10713
  154.3767  135.6083  153.5769 H   0  0  0  0  0  0  0  0  0  0  0  0  # atno 10763 bound_to 10752
  152.9789  135.5851  154.4458 H   0  0  0  0  0  0  0  0  0  0  0  0  # atno 10764 bound_to 10752
  154.4221  135.2846  155.1946 H   0  0  0  0  0  0  0  0  0  0  0  0  # atno 10765 bound_to 10752
  140.8506  133.7859  155.9962 H   0  0  0  0  0  0  0  0  0  0  0  0  # atno 11005 bound_to 11000
  144.9372  139.4230  143.6466 LP  0  0  0  0  0  0  0  0  0  0  0  0  # atno 17320 bound_to 7965
  146.3259  139.8314  142.8907 LP  0  0  0  0  0  0  0  0  0  0  0  0  # atno 17321 bound_to 7965
  139.5149  144.6955  151.5643 LP  0  0  0  0  0  0  0  0  0  0  0  0  # atno 17342 bound_to 10162
  140.6265  143.9159  150.6568 LP  0  0  0  0  0  0  0  0  0  0  0  0  # atno 17343 bound_to 10162
  157.6564  130.8928  149.9737 LP  0  0  0  0  0  0  0  0  0  0  0  0  # atno 17370 bound_to 10713
  156.1113  130.3650  150.0044 LP  0  0  0  0  0  0  0  0  0  0  0  0  # atno 17371 bound_to 10713
  140.8794  134.2629  157.5151 LP  0  0  0  0  0  0  0  0  0  0  0  0  # atno 17394 bound_to 11000
  139.8704  134.9607  156.4374 LP  0  0  0  0  0  0  0  0  0  0  0  0  # atno 17395 bound_to 11000

$$$$
