AV-unprocessed.smi:527|AV-procd|sdf|2821|dock5
  -GOLD-   2262023303D 1   1.00000     0.00000
 Structure written by MMmdl.
 42 43  0  0  0  0  0  0  0  0  1 V2000
  144.9775  130.9140  151.0714 C   0  0  0  0  0  0  0  0  0  0  0  0
  144.7384  132.1705  151.9251 C   0  0  2  0  0  0  0  0  0  0  0  0
  143.5967  133.0393  151.3589 C   0  0  0  0  0  0  0  0  0  0  0  0
  143.2957  134.2381  152.2722 C   0  0  0  0  0  0  0  0  0  0  0  0
  144.5567  135.0714  152.5475 C   0  0  0  0  0  0  0  0  0  0  0  0
  145.6915  134.1972  153.1157 C   0  0  2  0  0  0  0  0  0  0  0  0
  146.8619  135.0263  153.3953 N   0  0  0  0  0  0  0  0  0  0  0  0
  147.4679  135.1402  154.5865 C   0  0  0  0  0  0  0  0  0  0  0  0
  146.9587  134.7670  155.6455 O   0  0  0  0  0  0  0  0  0  0  0  0
  148.6849  135.7003  154.4536 N   0  0  0  0  0  0  0  0  0  0  0  0
  149.5474  136.0413  155.4336 C   0  0  0  0  0  0  0  0  0  0  0  0
  149.3404  135.9064  156.6409 O   0  0  0  0  0  0  0  0  0  0  0  0
  150.8742  136.6463  154.9678 C   0  0  0  0  0  0  0  0  0  0  0  0
  150.8501  138.0969  155.0322 N   0  0  0  0  0  0  0  0  0  0  0  0
  151.4035  138.9024  156.0199 C   0  0  0  0  0  0  0  0  0  0  0  0
  151.1262  140.2037  155.6668 C   0  0  0  0  0  0  0  0  0  0  0  0
  150.4094  140.2229  154.4727 N   0  0  0  0  0  0  0  0  0  0  0  0
  150.2853  138.9405  154.1565 C   0  0  0  0  0  0  0  0  0  0  0  0
  146.0226  133.0059  152.1745 C   0  0  2  0  0  0  0  0  0  0  0  0
  146.7413  133.4380  150.8751 C   0  0  0  0  0  0  0  0  0  0  0  0
  145.2146  131.1642  150.0374 H   0  0  0  0  0  0  0  0  0  0  0  0
  144.0892  130.2818  151.0554 H   0  0  0  0  0  0  0  0  0  0  0  0
  145.7974  130.3163  151.4704 H   0  0  0  0  0  0  0  0  0  0  0  0
  144.4067  131.8105  152.9003 H   0  0  0  0  0  0  0  0  0  0  0  0
  143.8515  133.3921  150.3592 H   0  0  0  0  0  0  0  0  0  0  0  0
  142.6939  132.4376  151.2470 H   0  0  0  0  0  0  0  0  0  0  0  0
  142.5264  134.8654  151.8212 H   0  0  0  0  0  0  0  0  0  0  0  0
  142.8855  133.8797  153.2171 H   0  0  0  0  0  0  0  0  0  0  0  0
  144.8796  135.5616  151.6285 H   0  0  0  0  0  0  0  0  0  0  0  0
  144.3151  135.8702  153.2498 H   0  0  0  0  0  0  0  0  0  0  0  0
  145.3377  133.7916  154.0658 H   0  0  0  0  0  0  0  0  0  0  0  0
  147.2473  135.5394  152.6161 H   0  0  0  0  0  0  0  0  0  0  0  0
  148.9970  135.8722  153.5093 H   0  0  0  0  0  0  0  0  0  0  0  0
  151.6876  136.2725  155.5908 H   0  0  0  0  0  0  0  0  0  0  0  0
  151.0878  136.3444  153.9413 H   0  0  0  0  0  0  0  0  0  0  0  0
  151.9317  138.4952  156.8695 H   0  0  0  0  0  0  0  0  0  0  0  0
  151.3845  141.1202  156.1766 H   0  0  0  0  0  0  0  0  0  0  0  0
  149.7668  138.6061  153.2698 H   0  0  0  0  0  0  0  0  0  0  0  0
  146.7215  132.3591  152.7072 H   0  0  0  0  0  0  0  0  0  0  0  0
  146.1145  134.0744  150.2516 H   0  0  0  0  0  0  0  0  0  0  0  0
  147.0347  132.5768  150.2761 H   0  0  0  0  0  0  0  0  0  0  0  0
  147.6579  133.9881  151.0876 H   0  0  0  0  0  0  0  0  0  0  0  0
  1  2  1  0  0  0  0
  1 21  1  0  0  0  0
  1 22  1  0  0  0  0
  1 23  1  0  0  0  0
  2 19  1  0  0  0  0
  2  3  1  0  0  0  0
  2 24  1  0  0  0  0
  3  4  1  0  0  0  0
  3 25  1  0  0  0  0
  3 26  1  0  0  0  0
  4  5  1  0  0  0  0
  4 27  1  0  0  0  0
  4 28  1  0  0  0  0
  5  6  1  0  0  0  0
  5 29  1  0  0  0  0
  5 30  1  0  0  0  0
  6  7  1  0  0  0  0
  6 19  1  0  0  0  0
  6 31  1  0  0  0  0
  7  8  1  0  0  0  0
  7 32  1  0  0  0  0
  8  9  2  0  0  0  0
  8 10  1  0  0  0  0
 10 11  1  0  0  0  0
 10 33  1  0  0  0  0
 11 12  2  0  0  0  0
 11 13  1  0  0  0  0
 13 14  1  0  0  0  0
 13 34  1  0  0  0  0
 13 35  1  0  0  0  0
 14 18  1  0  0  0  0
 14 15  1  0  0  0  0
 15 16  2  0  0  0  0
 15 36  1  0  0  0  0
 16 17  1  0  0  0  0
 16 37  1  0  0  0  0
 17 18  2  0  0  0  0
 18 38  1  0  0  0  0
 19 20  1  0  0  0  0
 19 39  1  0  0  0  0
 20 40  1  0  0  0  0
 20 41  1  0  0  0  0
 20 42  1  0  0  0  0
M  END
> <s_m_source_file>
AV-unprocessed.smi

> <i_m_source_file_index>
527

> <i_lp_mmshare_version>
43012

> <i_f3d_flags>
0

> <s_epik_input>
W0NIM11bQ0BASF0xW0NIMl1bQ0gyXVtDSDJdW0NASF0oW0NASF0xW0NIM10pW05IXUMoPU8pW05IXUMoPU8pW0NIMl1uMltjSF1bY0hdbltjSF0y

> <s_epik_cmdline>
J2VwaWtfcHl0aG9uJywgJy1waCcsICc3LjAnLCAnLXRuJywgJzgnLCAnLW1hJywgJzIwMCcsICctbWV0YWxfYmluZGluZycsICctaW1hZScsICc8aW5maWxlLm1hZT4nLCAnLW9tYWUnLCAnPG91dGZpbGUubWFlPic=

> <r_lp_tautomer_probability>
1

> <r_epik_Ionization_Penalty>
0.172132

> <r_epik_Ionization_Penalty_Charging>
0.172105

> <r_epik_Ionization_Penalty_Neutral>
2.71747e-05

> <r_epik_State_Penalty>
0.161503

> <r_epik_Charging_Adjusted_Penalty>
0.333607

> <i_epik_Tot_Q>
0

> <i_epik_Tot_abs_Q>
0

> <r_epik_Metal_State_Penalty>
0.124763

> <b_epik_Metal_Only>
0

> <s_lp_Force_Field>
OPLS_2005

> <r_lp_Energy>
16.867

> <b_lp_Chiralities_Consistent>
1

> <s_lp_Variant>
AV-unprocessed.smi:527-7

> <Gold.Version>
5.8.1

> <Gold.Id.Protein>
6NUR|6NUR_protein|mol2

> <Gold.PLP.Fitness>
42.7328

> <Gold.PLP.PLP>
-31.8796

> <Gold.PLP.part.hbond>
-3.0000

> <Gold.PLP.part.metal>
0.0000

> <Gold.PLP.part.buried>
-4.5307

> <Gold.PLP.part.nonpolar>
-24.8329

> <Gold.PLP.part.repulsive>
0.1385

> <Gold.PLP.ligand.clash>
0.0000

> <Gold.PLP.ligand.torsion>
0.6705

> <Gold.PLP.Chemscore.Hbond>
2.8800

> <Gold.PLP.Chemscore.CHOScore>
1.1734

> <Gold.PLP.Chemscore.Metal>
0.0000

> <Gold.Chemscore.Hbonds>
donor molecule, donor type, donor heavy atom, donor atom, acceptor molecule, acceptor atom, score
      L1  H     7    32       P1  7948  0.86
      L1  H    10    33       P1  7948  1.00
      P1  H  7989  7998       L1    17  0.90
      L1  C    18    38       P1  7948  0.24
      L1  C    18    38       P1  7957  0.83

> <Gold.PLP.Chemscore.Internal.Correction>
0.0340

> <Gold.Rescore>
     Score         DG    S(hbond)    S(metal)    S(lipo)     H(rot)  DE(clash)    DE(int)     intcor
     15.23     -17.53       2.66        0.00      63.35       1.66       0.29       2.02       ----

> <Gold.Chemscore.Fitness>
15.2274

> <Gold.Chemscore.DG>
-17.5342

> <Gold.Chemscore.ZeroCoef>
-5.4800

> <Gold.Chemscore.Hbond>
2.6643

> <Gold.Chemscore.Metal>
0.0000

> <Gold.Chemscore.Lipo>
63.3539

> <Gold.Chemscore.Internal_Hbond>
0.0000

> <Gold.Chemscore.DEClash>
0.2859

> <Gold.Chemscore.DEInternal>
2.0209

> <Gold.Chemscore.Rot>
1.6629

> <Gold.Chemscore.Internal.Correction>
   9.000000E+99

> <Gold.Chemscore.Hbonds>
donor molecule, donor type, donor heavy atom, donor atom, acceptor molecule, acceptor atom, score
      L1  H     7    32       P1  7948  0.83
      L1  H    10    33       P1  7948  0.92
      P1  H  7989  7998       L1    17  0.11

> <Gold.Chemscore.Hbond.Weighted>
-8.8987

> <Gold.Chemscore.Metal.Weighted>
-0.0000

> <Gold.Chemscore.Lipo.Weighted>
-7.4124

> <Gold.Chemscore.Internal_Hbond.Weighted>
0.0000

> <Gold.Chemscore.DEClash.Weighted>
0.2859

> <Gold.Chemscore.DEInternal.Weighted>
2.0209

> <Gold.Chemscore.Rot.Weighted>
4.2569

> <Gold.Chemscore.Internal.Correction.Weighted>
   9.000000E+99

> <Gold.Protein.RotatedTorsions>
[ 6907 6896 6895 6894 ] final    2.83 input  -60.11 | X-H torsion
[ 7974 7965 7964 7962 ] final   94.90 input  175.53 | X-H torsion
[ 8008 7997 7996 7995 ] final   -9.69 input   59.86 | X-H torsion
[ 10167 10162 10161 10158 ] final -151.45 input  -65.29 | X-H torsion
[ 10718 10713 10712 10709 ] final  -26.02 input   66.30 | X-H torsion
[ 10763 10752 10751 10750 ] final   11.72 input  -60.55 | X-H torsion
[ 11005 11000 10999 10996 ] final -131.96 input  -57.11 | X-H torsion

> <Gold.Protein.ActiveResidues>
 VAL166  LYS551  ARG553  GLY616  TRP617  ASP618  TYR619  PRO620  LYS621  CYS622 
 ASP623  PHE694  ASN695  SER759  ASP760  ASP761  ALA762  ILE779  LEU786  VAL792 
 PHE793  MET794  SER795  GLU796  ALA797  LYS798  CYS799  TRP800  GLU811  SER814 

> <Gold.Protein.RotatedAtoms>
  151.6153  135.1037  160.0089 H   0  0  0  0  0  0  0  0  0  0  0  0  # atno 6907 bound_to 6896
  152.4187  133.7076  159.6471 H   0  0  0  0  0  0  0  0  0  0  0  0  # atno 6908 bound_to 6896
  150.8074  133.8410  159.3220 H   0  0  0  0  0  0  0  0  0  0  0  0  # atno 6909 bound_to 6896
  145.4593  139.2288  143.2996 H   0  0  0  0  0  0  0  0  0  0  0  0  # atno 7974 bound_to 7965
  154.5623  140.2348  155.8316 H   0  0  0  0  0  0  0  0  0  0  0  0  # atno 8008 bound_to 7997
  156.2040  140.3045  155.9546 H   0  0  0  0  0  0  0  0  0  0  0  0  # atno 8009 bound_to 7997
  155.2865  140.0425  157.3010 H   0  0  0  0  0  0  0  0  0  0  0  0  # atno 8010 bound_to 7997
  139.7266  143.8873  152.2521 H   0  0  0  0  0  0  0  0  0  0  0  0  # atno 10167 bound_to 10162
  156.4568  130.4495  149.6954 H   0  0  0  0  0  0  0  0  0  0  0  0  # atno 10718 bound_to 10713
  153.1897  135.6840  153.8369 H   0  0  0  0  0  0  0  0  0  0  0  0  # atno 10763 bound_to 10752
  153.7672  135.3201  155.3347 H   0  0  0  0  0  0  0  0  0  0  0  0  # atno 10764 bound_to 10752
  154.8110  135.4717  154.0614 H   0  0  0  0  0  0  0  0  0  0  0  0  # atno 10765 bound_to 10752
  140.9213  134.1441  157.4312 H   0  0  0  0  0  0  0  0  0  0  0  0  # atno 11005 bound_to 11000
  146.2460  140.5361  142.8914 LP  0  0  0  0  0  0  0  0  0  0  0  0  # atno 17320 bound_to 7965
  144.8012  140.6217  143.6477 LP  0  0  0  0  0  0  0  0  0  0  0  0  # atno 17321 bound_to 7965
  139.8785  144.7030  150.8905 LP  0  0  0  0  0  0  0  0  0  0  0  0  # atno 17342 bound_to 10162
  140.7764  143.3681  151.1701 LP  0  0  0  0  0  0  0  0  0  0  0  0  # atno 17343 bound_to 10162
  156.3759  130.7554  151.2542 LP  0  0  0  0  0  0  0  0  0  0  0  0  # atno 17370 bound_to 10713
  157.7500  131.0310  150.4161 LP  0  0  0  0  0  0  0  0  0  0  0  0  # atno 17371 bound_to 10713
  139.8776  134.9972  156.5835 LP  0  0  0  0  0  0  0  0  0  0  0  0  # atno 17394 bound_to 11000
  140.7984  133.8525  155.8706 LP  0  0  0  0  0  0  0  0  0  0  0  0  # atno 17395 bound_to 11000

$$$$
