AV-unprocessed.smi:799|AV-procd|sdf|3786|dock4
  -GOLD-   22720 1223D 1   1.00000     0.00000
 Structure written by MMmdl.
 47 48  0  0  0  0  0  0  0  0  1 V2000
  149.6061  142.2181  155.4267 C   0  0  0  0  0  0  0  0  0  0  0  0
  149.4867  140.8152  154.9092 C   0  0  0  0  0  0  0  0  0  0  0  0
  148.3159  140.1471  154.4470 C   0  0  0  0  0  0  0  0  0  0  0  0
  148.7900  138.9109  154.1023 C   0  0  0  0  0  0  0  0  0  0  0  0
  148.1020  137.8464  153.6111 N   0  0  0  0  0  0  0  0  0  0  0  0
  146.8300  137.4875  153.8562 C   0  0  0  0  0  0  0  0  0  0  0  0
  146.0480  138.1009  154.5826 O   0  0  0  0  0  0  0  0  0  0  0  0
  146.5132  136.3654  153.1867 N   0  0  0  0  0  0  0  0  0  0  0  0
  145.2187  135.6649  153.1227 C   0  0  2  0  0  0  0  0  0  0  0  0
  144.1574  136.7457  152.8099 C   0  0  0  0  0  0  0  0  0  0  0  0
  144.9010  135.0374  154.5120 C   0  0  0  0  0  0  0  0  0  0  0  0
  143.5862  134.5172  154.5811 O   0  0  0  0  0  0  0  0  0  0  0  0
  145.2436  134.5592  152.0046 C   0  0  0  0  0  0  0  0  0  0  0  0
  143.8460  133.9942  151.6331 C   0  0  0  0  0  0  0  0  0  0  0  0
  143.9214  133.0116  150.4533 C   0  0  0  0  0  0  0  0  0  0  0  0
  144.8905  131.8592  150.7486 C   0  0  0  0  0  0  0  0  0  0  0  0
  146.2809  132.3954  151.1141 C   0  0  0  0  0  0  0  0  0  0  0  0
  146.2080  133.3792  152.2934 C   0  0  0  0  0  0  0  0  0  0  0  0
  150.1436  138.8655  154.3603 N   0  0  0  0  0  0  0  0  0  0  0  0
  151.0984  137.7900  154.1728 C   0  0  0  0  0  0  0  0  0  0  0  0
  150.5695  140.0481  154.8539 N   0  0  0  0  0  0  0  0  0  0  0  0
  148.6316  142.7046  155.4741 H   0  0  0  0  0  0  0  0  0  0  0  0
  150.2466  142.8209  154.7825 H   0  0  0  0  0  0  0  0  0  0  0  0
  150.0325  142.2322  156.4299 H   0  0  0  0  0  0  0  0  0  0  0  0
  147.3067  140.5265  154.3909 H   0  0  0  0  0  0  0  0  0  0  0  0
  148.6064  137.2746  152.9498 H   0  0  0  0  0  0  0  0  0  0  0  0
  147.2450  135.9584  152.6233 H   0  0  0  0  0  0  0  0  0  0  0  0
  143.1462  136.3400  152.8233 H   0  0  0  0  0  0  0  0  0  0  0  0
  144.3161  137.2083  151.8364 H   0  0  0  0  0  0  0  0  0  0  0  0
  144.1806  137.5509  153.5453 H   0  0  0  0  0  0  0  0  0  0  0  0
  145.5795  134.2144  154.7335 H   0  0  0  0  0  0  0  0  0  0  0  0
  145.0270  135.7646  155.3143 H   0  0  0  0  0  0  0  0  0  0  0  0
  143.6395  133.5776  154.6653 H   0  0  0  0  0  0  0  0  0  0  0  0
  145.6280  135.0344  151.1017 H   0  0  0  0  0  0  0  0  0  0  0  0
  143.4054  133.4830  152.4887 H   0  0  0  0  0  0  0  0  0  0  0  0
  143.1563  134.7941  151.3653 H   0  0  0  0  0  0  0  0  0  0  0  0
  142.9295  132.6145  150.2360 H   0  0  0  0  0  0  0  0  0  0  0  0
  144.2445  133.5415  149.5563 H   0  0  0  0  0  0  0  0  0  0  0  0
  144.5028  131.2551  151.5698 H   0  0  0  0  0  0  0  0  0  0  0  0
  144.9609  131.1996  149.8833 H   0  0  0  0  0  0  0  0  0  0  0  0
  146.9430  131.5659  151.3640 H   0  0  0  0  0  0  0  0  0  0  0  0
  146.7218  132.8917  150.2486 H   0  0  0  0  0  0  0  0  0  0  0  0
  147.2157  133.7381  152.4960 H   0  0  0  0  0  0  0  0  0  0  0  0
  145.8872  132.8356  153.1820 H   0  0  0  0  0  0  0  0  0  0  0  0
  150.5966  136.8814  153.8401 H   0  0  0  0  0  0  0  0  0  0  0  0
  151.6105  137.5842  155.1130 H   0  0  0  0  0  0  0  0  0  0  0  0
  151.8343  138.0808  153.4224 H   0  0  0  0  0  0  0  0  0  0  0  0
  1  2  1  0  0  0  0
  1 22  1  0  0  0  0
  1 23  1  0  0  0  0
  1 24  1  0  0  0  0
  2 21  2  0  0  0  0
  2  3  1  0  0  0  0
  3  4  2  0  0  0  0
  3 25  1  0  0  0  0
  4  5  1  0  0  0  0
  4 19  1  0  0  0  0
  5  6  1  0  0  0  0
  5 26  1  0  0  0  0
  6  7  2  0  0  0  0
  6  8  1  0  0  0  0
  8  9  1  0  0  0  0
  8 27  1  0  0  0  0
  9 10  1  0  0  0  0
  9 11  1  0  0  0  0
  9 13  1  0  0  0  0
 10 28  1  0  0  0  0
 10 29  1  0  0  0  0
 10 30  1  0  0  0  0
 11 12  1  0  0  0  0
 11 31  1  0  0  0  0
 11 32  1  0  0  0  0
 12 33  1  0  0  0  0
 13 18  1  0  0  0  0
 13 14  1  0  0  0  0
 13 34  1  0  0  0  0
 14 15  1  0  0  0  0
 14 35  1  0  0  0  0
 14 36  1  0  0  0  0
 15 16  1  0  0  0  0
 15 37  1  0  0  0  0
 15 38  1  0  0  0  0
 16 17  1  0  0  0  0
 16 39  1  0  0  0  0
 16 40  1  0  0  0  0
 17 18  1  0  0  0  0
 17 41  1  0  0  0  0
 17 42  1  0  0  0  0
 18 43  1  0  0  0  0
 18 44  1  0  0  0  0
 19 20  1  0  0  0  0
 19 21  1  0  0  0  0
 20 45  1  0  0  0  0
 20 46  1  0  0  0  0
 20 47  1  0  0  0  0
M  END
> <s_m_source_file>
AV-unprocessed.smi

> <i_m_source_file_index>
799

> <i_lp_mmshare_version>
43012

> <i_f3d_flags>
0

> <s_epik_input>
W0NIM11jMVtjSF1jKG4objEpW0NIM10pW05IXUMoPU8pW05IXVtDQEBdKFtDSDNdKShbQ0gyXVtPSF0pW0NIXTJbQ0gyXVtDSDJdW0NIMl1bQ0gyXVtDSDJdMg==

> <s_epik_cmdline>
J2VwaWtfcHl0aG9uJywgJy1waCcsICc3LjAnLCAnLXRuJywgJzgnLCAnLW1hJywgJzIwMCcsICctbWV0YWxfYmluZGluZycsICctaW1hZScsICc8aW5maWxlLm1hZT4nLCAnLW9tYWUnLCAnPG91dGZpbGUubWFlPic=

> <r_lp_tautomer_probability>
1

> <r_epik_Ionization_Penalty>
9.86025e-05

> <r_epik_Ionization_Penalty_Charging>
0

> <r_epik_Ionization_Penalty_Neutral>
9.86025e-05

> <r_epik_State_Penalty>
-0

> <r_epik_Charging_Adjusted_Penalty>
0

> <i_epik_Tot_Q>
0

> <i_epik_Tot_abs_Q>
0

> <r_epik_Metal_State_Penalty>
-0

> <b_epik_Metal_Only>
0

> <s_lp_Force_Field>
OPLS_2005

> <r_lp_Energy>
22.5502

> <b_lp_Chiralities_Consistent>
1

> <s_lp_Variant>
AV-unprocessed.smi:799-2

> <Gold.Version>
5.8.1

> <Gold.Id.Protein>
6NUR|6NUR_protein|mol2

> <Gold.PLP.Fitness>
43.0370

> <Gold.PLP.PLP>
-32.6192

> <Gold.PLP.part.hbond>
-3.9542

> <Gold.PLP.part.metal>
0.0000

> <Gold.PLP.part.buried>
-0.9891

> <Gold.PLP.part.nonpolar>
-29.0044

> <Gold.PLP.part.repulsive>
0.1713

> <Gold.PLP.ligand.clash>
0.0000

> <Gold.PLP.ligand.torsion>
0.5336

> <Gold.PLP.Chemscore.Hbond>
3.8055

> <Gold.PLP.Chemscore.CHOScore>
0.0000

> <Gold.PLP.Chemscore.Metal>
0.0000

> <Gold.Chemscore.Hbonds>
donor molecule, donor type, donor heavy atom, donor atom, acceptor molecule, acceptor atom, score
      L1  H     5    26       P1  7948  1.00
      L1  H     8    27       P1  7948  0.93
      L1  H    12    33       P1 10957  0.90
      P1  H  7989  7998       L1    21  1.00

> <Gold.PLP.Chemscore.Internal.Correction>
0.0686

> <Gold.Rescore>
     Score         DG    S(hbond)    S(metal)    S(lipo)     H(rot)  DE(clash)    DE(int)     intcor
     16.95     -18.39       2.85        0.00      73.17       2.01       0.21       1.23       ----

> <Gold.Chemscore.Fitness>
16.9495

> <Gold.Chemscore.DG>
-18.3938

> <Gold.Chemscore.ZeroCoef>
-5.4800

> <Gold.Chemscore.Hbond>
2.8473

> <Gold.Chemscore.Metal>
0.0000

> <Gold.Chemscore.Lipo>
73.1674

> <Gold.Chemscore.Internal_Hbond>
0.0000

> <Gold.Chemscore.DEClash>
0.2141

> <Gold.Chemscore.DEInternal>
1.2302

> <Gold.Chemscore.Rot>
2.0144

> <Gold.Chemscore.Internal.Correction>
   9.000000E+99

> <Gold.Chemscore.Hbonds>
donor molecule, donor type, donor heavy atom, donor atom, acceptor molecule, acceptor atom, score
      L1  H     5    26       P1  7948  0.93
      L1  H     8    27       P1  7948  0.89
      L1  H    12    33       P1 10957  0.83
      P1  H  7989  7998       L1    21  0.24

> <Gold.Chemscore.Hbond.Weighted>
-9.5100

> <Gold.Chemscore.Metal.Weighted>
-0.0000

> <Gold.Chemscore.Lipo.Weighted>
-8.5606

> <Gold.Chemscore.Internal_Hbond.Weighted>
0.0000

> <Gold.Chemscore.DEClash.Weighted>
0.2141

> <Gold.Chemscore.DEInternal.Weighted>
1.2302

> <Gold.Chemscore.Rot.Weighted>
5.1568

> <Gold.Chemscore.Internal.Correction.Weighted>
   9.000000E+99

> <Gold.Protein.RotatedTorsions>
[ 6907 6896 6895 6894 ] final    6.02 input  -60.11 | X-H torsion
[ 7974 7965 7964 7962 ] final -138.41 input  175.53 | X-H torsion
[ 8008 7997 7996 7995 ] final    3.99 input   59.86 | X-H torsion
[ 10167 10162 10161 10158 ] final  118.78 input  -65.29 | X-H torsion
[ 10718 10713 10712 10709 ] final   13.30 input   66.30 | X-H torsion
[ 10763 10752 10751 10750 ] final    6.02 input  -60.55 | X-H torsion
[ 11005 11000 10999 10996 ] final  171.26 input  -57.11 | X-H torsion

> <Gold.Protein.ActiveResidues>
 VAL166  LYS551  ARG553  GLY616  TRP617  ASP618  TYR619  PRO620  LYS621  CYS622 
 ASP623  PHE694  ASN695  SER759  ASP760  ASP761  ALA762  ILE779  LEU786  VAL792 
 PHE793  MET794  SER795  GLU796  ALA797  LYS798  CYS799  TRP800  GLU811  SER814 

> <Gold.Protein.RotatedAtoms>
  151.6670  135.0981  160.0190 H   0  0  0  0  0  0  0  0  0  0  0  0  # atno 6907 bound_to 6896
  152.3914  133.6680  159.6249 H   0  0  0  0  0  0  0  0  0  0  0  0  # atno 6908 bound_to 6896
  150.7829  133.8865  159.3342 H   0  0  0  0  0  0  0  0  0  0  0  0  # atno 6909 bound_to 6896
  144.8761  140.6438  143.5236 H   0  0  0  0  0  0  0  0  0  0  0  0  # atno 7974 bound_to 7965
  154.7104  140.2691  155.6635 H   0  0  0  0  0  0  0  0  0  0  0  0  # atno 8008 bound_to 7997
  156.2793  140.2754  156.1667 H   0  0  0  0  0  0  0  0  0  0  0  0  # atno 8009 bound_to 7997
  155.0643  140.0371  157.2577 H   0  0  0  0  0  0  0  0  0  0  0  0  # atno 8010 bound_to 7997
  139.6089  144.7077  151.2890 H   0  0  0  0  0  0  0  0  0  0  0  0  # atno 10167 bound_to 10162
  157.0226  130.6161  149.5723 H   0  0  0  0  0  0  0  0  0  0  0  0  # atno 10718 bound_to 10713
  153.2526  135.6915  153.7663 H   0  0  0  0  0  0  0  0  0  0  0  0  # atno 10763 bound_to 10752
  153.6751  135.3338  155.3164 H   0  0  0  0  0  0  0  0  0  0  0  0  # atno 10764 bound_to 10752
  154.8400  135.4509  154.1489 H   0  0  0  0  0  0  0  0  0  0  0  0  # atno 10765 bound_to 10752
  140.3172  134.7468  157.4036 H   0  0  0  0  0  0  0  0  0  0  0  0  # atno 11005 bound_to 11000
  145.4041  139.1592  143.4161 LP  0  0  0  0  0  0  0  0  0  0  0  0  # atno 17320 bound_to 7965
  146.2963  140.4140  142.8720 LP  0  0  0  0  0  0  0  0  0  0  0  0  # atno 17321 bound_to 7965
  140.7305  143.6879  150.7947 LP  0  0  0  0  0  0  0  0  0  0  0  0  # atno 17342 bound_to 10162
  140.0469  143.5289  152.2692 LP  0  0  0  0  0  0  0  0  0  0  0  0  # atno 17343 bound_to 10162
  156.0097  130.5187  150.7947 LP  0  0  0  0  0  0  0  0  0  0  0  0  # atno 17370 bound_to 10713
  157.5238  131.0933  151.0044 LP  0  0  0  0  0  0  0  0  0  0  0  0  # atno 17371 bound_to 10713
  140.0973  134.5519  155.8386 LP  0  0  0  0  0  0  0  0  0  0  0  0  # atno 17394 bound_to 11000
  141.2095  133.6684  156.6443 LP  0  0  0  0  0  0  0  0  0  0  0  0  # atno 17395 bound_to 11000

$$$$
