AV-unprocessed.smi:1847|AV-procd|sdf|7517|dock2
  -GOLD-   22720 9223D 1   1.00000     0.00000
 Structure written by MMmdl.
 24 25  0  0  0  0  0  0  0  0  2 V2000
  152.2544  138.1984  158.6584 O   0  0  0  0  0  0  0  0  0  0  0  0
  152.3285  139.0937  157.8116 C   0  0  0  0  0  0  0  0  0  0  0  0
  152.9404  140.2884  158.0191 N   0  5  0  0  0  0  0  0  0  0  0  0
  153.3209  140.6600  159.2516 C   0  0  0  0  0  0  0  0  0  0  0  0
  154.0346  139.7839  160.0992 C   0  0  0  0  0  0  0  0  0  0  0  0
  154.4210  140.2237  161.3812 C   0  0  0  0  0  0  0  0  0  0  0  0
  154.1496  141.4571  161.8564 N   0  0  0  0  0  0  0  0  0  0  0  0
  153.4745  142.2998  161.0474 C   0  0  0  0  0  0  0  0  0  0  0  0
  153.0459  141.9530  159.7504 C   0  0  0  0  0  0  0  0  0  0  0  0
  151.7392  138.9100  156.4875 C   0  0  0  0  0  0  0  0  0  0  0  0
  151.5081  139.9817  155.6919 C   0  0  0  0  0  0  0  0  0  0  0  0
  150.9251  139.9007  154.4517 O   0  0  0  0  0  0  0  0  0  0  0  0
  150.3429  138.6380  154.1516 C   0  0  0  0  0  0  0  0  0  0  0  0
  151.2471  137.5018  154.6497 C   0  0  0  0  0  0  0  0  0  0  0  0
  151.4702  137.6317  156.0490 O   0  0  0  0  0  0  0  0  0  0  0  0
  154.2819  138.7843  159.7728 H   0  0  0  0  0  0  0  0  0  0  0  0
  154.9647  139.5652  162.0423 H   0  0  0  0  0  0  0  0  0  0  0  0
  153.2692  143.2827  161.4449 H   0  0  0  0  0  0  0  0  0  0  0  0
  152.5102  142.6718  159.1474 H   0  0  0  0  0  0  0  0  0  0  0  0
  151.7193  141.0068  155.9606 H   0  0  0  0  0  0  0  0  0  0  0  0
  149.3599  138.5749  154.6202 H   0  0  0  0  0  0  0  0  0  0  0  0
  150.1914  138.5615  153.0749 H   0  0  0  0  0  0  0  0  0  0  0  0
  150.7890  136.5332  154.4499 H   0  0  0  0  0  0  0  0  0  0  0  0
  152.2057  137.5184  154.1292 H   0  0  0  0  0  0  0  0  0  0  0  0
  1  2  2  0  0  0  0
  2  3  1  0  0  0  0
  2 10  1  0  0  0  0
  3  4  1  0  0  0  0
  4  9  1  0  0  0  0
  4  5  2  0  0  0  0
  5  6  1  0  0  0  0
  5 16  1  0  0  0  0
  6  7  2  0  0  0  0
  6 17  1  0  0  0  0
  7  8  1  0  0  0  0
  8  9  2  0  0  0  0
  8 18  1  0  0  0  0
  9 19  1  0  0  0  0
 10 15  1  0  0  0  0
 10 11  2  0  0  0  0
 11 12  1  0  0  0  0
 11 20  1  0  0  0  0
 12 13  1  0  0  0  0
 13 14  1  0  0  0  0
 13 21  1  0  0  0  0
 13 22  1  0  0  0  0
 14 15  1  0  0  0  0
 14 23  1  0  0  0  0
 14 24  1  0  0  0  0
M  CHG  1   3  -1
M  END
> <s_m_source_file>
AV-unprocessed.smi

> <i_m_source_file_index>
1847

> <i_lp_mmshare_version>
43012

> <i_f3d_flags>
0

> <s_epik_input>
TzFbQ0gyXVtDSDJdT1tDSF09QzFDKD1PKVtOSF1jMltjSF1bY0hdbltjSF1bY0hdMg==

> <s_epik_cmdline>
J2VwaWtfcHl0aG9uJywgJy1waCcsICc3LjAnLCAnLXRuJywgJzgnLCAnLW1hJywgJzIwMCcsICctbWV0YWxfYmluZGluZycsICctaW1hZScsICc8aW5maWxlLm1hZT4nLCAnLW9tYWUnLCAnPG91dGZpbGUubWFlPic=

> <r_epik_Ionization_Penalty>
6.68616

> <r_epik_Ionization_Penalty_Charging>
5.33655

> <r_epik_Ionization_Penalty_Neutral>
1.34962

> <r_epik_State_Penalty>
5.36971

> <r_epik_Charging_Adjusted_Penalty>
10.7063

> <i_epik_Tot_Q>
-1

> <i_epik_Tot_abs_Q>
1

> <r_epik_Metal_State_Penalty>
1.43726

> <b_epik_Metal_Only>
1

> <s_lp_Force_Field>
OPLS_2005

> <r_lp_Energy>
5.87976

> <b_lp_Chiralities_Consistent>
1

> <s_lp_Variant>
AV-unprocessed.smi:1847-3

> <Gold.Version>
5.8.1

> <Gold.Id.Protein>
6NUR|6NUR_protein|mol2

> <Gold.PLP.Fitness>
36.7604

> <Gold.PLP.PLP>
-28.7269

> <Gold.PLP.part.hbond>
-2.5524

> <Gold.PLP.part.metal>
0.0000

> <Gold.PLP.part.buried>
-3.2547

> <Gold.PLP.part.nonpolar>
-22.9124

> <Gold.PLP.part.repulsive>
0.1060

> <Gold.PLP.ligand.clash>
0.0051

> <Gold.PLP.ligand.torsion>
0.5808

> <Gold.PLP.Chemscore.Hbond>
2.8880

> <Gold.PLP.Chemscore.CHOScore>
0.0000

> <Gold.PLP.Chemscore.Metal>
0.0000

> <Gold.Chemscore.Hbonds>
donor molecule, donor type, donor heavy atom, donor atom, acceptor molecule, acceptor atom, score
      P1  H  7989  7998       L1    12  1.00
      P1  H  7997  8008       L1     3  1.86

> <Gold.PLP.Chemscore.Internal.Correction>
0.5362

> <Gold.Rescore>
     Score         DG    S(hbond)    S(metal)    S(lipo)     H(rot)  DE(clash)    DE(int)     intcor
     17.69     -19.60       1.76        0.00      70.50       0.00       0.00       1.92       ----

> <Gold.Chemscore.Fitness>
17.6866

> <Gold.Chemscore.DG>
-19.6031

> <Gold.Chemscore.ZeroCoef>
-5.4800

> <Gold.Chemscore.Hbond>
1.7588

> <Gold.Chemscore.Metal>
0.0000

> <Gold.Chemscore.Lipo>
70.5013

> <Gold.Chemscore.Internal_Hbond>
0.0000

> <Gold.Chemscore.DEClash>
0.0000

> <Gold.Chemscore.DEInternal>
1.9165

> <Gold.Chemscore.Rot>
0.0000

> <Gold.Chemscore.Internal.Correction>
   9.000000E+99

> <Gold.Chemscore.Hbonds>
donor molecule, donor type, donor heavy atom, donor atom, acceptor molecule, acceptor atom, score
      P1  H  7989  7998       L1    12  0.70
      P1  H  7997  8008       L1     3  0.19

> <Gold.Chemscore.Hbond.Weighted>
-5.8744

> <Gold.Chemscore.Metal.Weighted>
-0.0000

> <Gold.Chemscore.Lipo.Weighted>
-8.2487

> <Gold.Chemscore.Internal_Hbond.Weighted>
0.0000

> <Gold.Chemscore.DEClash.Weighted>
0.0000

> <Gold.Chemscore.DEInternal.Weighted>
1.9165

> <Gold.Chemscore.Rot.Weighted>
0.0000

> <Gold.Chemscore.Internal.Correction.Weighted>
   9.000000E+99

> <Gold.Protein.RotatedTorsions>
[ 6907 6896 6895 6894 ] final -173.21 input  -60.11 | X-H torsion
[ 7974 7965 7964 7962 ] final  164.68 input  175.53 | X-H torsion
[ 8008 7997 7996 7995 ] final  -78.03 input   59.86 | X-H torsion
[ 10167 10162 10161 10158 ] final   72.58 input  -65.29 | X-H torsion
[ 10718 10713 10712 10709 ] final    1.42 input   66.30 | X-H torsion
[ 10763 10752 10751 10750 ] final  163.19 input  -60.55 | X-H torsion
[ 11005 11000 10999 10996 ] final  139.68 input  -57.11 | X-H torsion

> <Gold.Protein.ActiveResidues>
 VAL166  LYS551  ARG553  GLY616  TRP617  ASP618  TYR619  PRO620  LYS621  CYS622 
 ASP623  PHE694  ASN695  SER759  ASP760  ASP761  ALA762  ILE779  LEU786  VAL792 
 PHE793  MET794  SER795  GLU796  ALA797  LYS798  CYS799  TRP800  GLU811  SER814 

> <Gold.Protein.RotatedAtoms>
  151.5525  133.3415  159.2955 H   0  0  0  0  0  0  0  0  0  0  0  0  # atno 6907 bound_to 6896
  150.8470  134.7785  159.6989 H   0  0  0  0  0  0  0  0  0  0  0  0  # atno 6908 bound_to 6896
  152.4525  134.5370  159.9879 H   0  0  0  0  0  0  0  0  0  0  0  0  # atno 6909 bound_to 6896
  144.7535  139.8361  143.6358 H   0  0  0  0  0  0  0  0  0  0  0  0  # atno 7974 bound_to 7965
  154.5651  140.0701  156.8879 H   0  0  0  0  0  0  0  0  0  0  0  0  # atno 8008 bound_to 7997
  155.2739  140.3367  155.4245 H   0  0  0  0  0  0  0  0  0  0  0  0  # atno 8009 bound_to 7997
  156.2074  140.1745  156.7756 H   0  0  0  0  0  0  0  0  0  0  0  0  # atno 8010 bound_to 7997
  140.0337  144.5445  150.7487 H   0  0  0  0  0  0  0  0  0  0  0  0  # atno 10167 bound_to 10162
  156.8479  130.5543  149.5672 H   0  0  0  0  0  0  0  0  0  0  0  0  # atno 10718 bound_to 10713
  154.2899  135.2761  155.2659 H   0  0  0  0  0  0  0  0  0  0  0  0  # atno 10763 bound_to 10752
  154.5143  135.5774  153.6633 H   0  0  0  0  0  0  0  0  0  0  0  0  # atno 10764 bound_to 10752
  152.9916  135.6189  154.3063 H   0  0  0  0  0  0  0  0  0  0  0  0  # atno 10765 bound_to 10752
  140.0272  134.9369  157.0592 H   0  0  0  0  0  0  0  0  0  0  0  0  # atno 11005 bound_to 11000
  146.1515  139.4600  143.0045 LP  0  0  0  0  0  0  0  0  0  0  0  0  # atno 17320 bound_to 7965
  145.6861  141.0177  143.1580 LP  0  0  0  0  0  0  0  0  0  0  0  0  # atno 17321 bound_to 7965
  140.7291  143.2668  151.4017 LP  0  0  0  0  0  0  0  0  0  0  0  0  # atno 17342 bound_to 10162
  139.6059  144.1198  152.2248 LP  0  0  0  0  0  0  0  0  0  0  0  0  # atno 17343 bound_to 10162
  156.0844  130.5846  150.9622 LP  0  0  0  0  0  0  0  0  0  0  0  0  # atno 17370 bound_to 10713
  157.6320  131.0920  150.8423 LP  0  0  0  0  0  0  0  0  0  0  0  0  # atno 17371 bound_to 10713
  140.4286  134.1805  155.7167 LP  0  0  0  0  0  0  0  0  0  0  0  0  # atno 17394 bound_to 11000
  141.1810  133.8414  157.1258 LP  0  0  0  0  0  0  0  0  0  0  0  0  # atno 17395 bound_to 11000

$$$$
