AV-unprocessed.smi:456|AV-procd|sdf|2618|dock3
  -GOLD-   2262023 13D 1   1.00000     0.00000
 Structure written by MMmdl.
 33 35  0  0  0  0  0  0  0  0  2 V2000
  151.5991  144.1211  162.1085 O   0  0  0  0  0  0  0  0  0  0  0  0
  152.2845  143.1773  161.3076 C   0  0  1  0  0  0  0  0  0  0  0  0
  152.8694  143.8790  160.0663 C   0  0  0  0  0  0  0  0  0  0  0  0
  152.0615  143.6680  158.8580 N   0  0  0  0  0  0  0  0  0  0  0  0
  151.2600  144.5330  158.1792 C   0  0  0  0  0  0  0  0  0  0  0  0
  150.7256  143.8560  157.1249 N   0  3  0  0  0  0  0  0  0  0  0  0
  151.1918  142.5391  157.1316 C   0  0  0  0  0  0  0  0  0  0  0  0
  150.9354  141.4754  156.2728 C   0  0  0  0  0  0  0  0  0  0  0  0
  151.5768  140.2536  156.5658 C   0  0  0  0  0  0  0  0  0  0  0  0
  151.3629  139.1858  155.7613 F   0  0  0  0  0  0  0  0  0  0  0  0
  152.4350  140.1231  157.6787 C   0  0  0  0  0  0  0  0  0  0  0  0
  153.0306  138.9321  157.9240 F   0  0  0  0  0  0  0  0  0  0  0  0
  152.6867  141.2089  158.5431 C   0  0  0  0  0  0  0  0  0  0  0  0
  152.0499  142.4121  158.2440 C   0  0  0  0  0  0  0  0  0  0  0  0
  153.3638  142.4376  162.0818 C   0  0  0  0  0  0  0  0  0  0  0  0
  154.0346  141.3478  161.4858 C   0  0  0  0  0  0  0  0  0  0  0  0
  155.0425  140.6624  162.1913 C   0  0  0  0  0  0  0  0  0  0  0  0
  155.3883  141.0649  163.4956 C   0  0  0  0  0  0  0  0  0  0  0  0
  154.7258  142.1539  164.0939 C   0  0  0  0  0  0  0  0  0  0  0  0
  153.7171  142.8391  163.3893 C   0  0  0  0  0  0  0  0  0  0  0  0
  151.2574  143.6755  162.8688 H   0  0  0  0  0  0  0  0  0  0  0  0
  151.5400  142.4488  160.9843 H   0  0  0  0  0  0  0  0  0  0  0  0
  152.9356  144.9552  160.2324 H   0  0  0  0  0  0  0  0  0  0  0  0
  153.8850  143.5348  159.8659 H   0  0  0  0  0  0  0  0  0  0  0  0
  151.0786  145.5674  158.4339 H   0  0  0  0  0  0  0  0  0  0  0  0
  150.2788  141.5703  155.4205 H   0  0  0  0  0  0  0  0  0  0  0  0
  153.3439  141.0989  159.3928 H   0  0  0  0  0  0  0  0  0  0  0  0
  153.7797  141.0333  160.4842 H   0  0  0  0  0  0  0  0  0  0  0  0
  155.5516  139.8284  161.7309 H   0  0  0  0  0  0  0  0  0  0  0  0
  156.1620  140.5398  164.0361 H   0  0  0  0  0  0  0  0  0  0  0  0
  154.9925  142.4650  165.0934 H   0  0  0  0  0  0  0  0  0  0  0  0
  153.2176  143.6758  163.8555 H   0  0  0  0  0  0  0  0  0  0  0  0
  150.0888  144.2656  156.4533 H   0  0  0  0  0  0  0  0  0  0  0  0
  1  2  1  0  0  0  0
  1 21  1  0  0  0  0
  2  3  1  0  0  0  0
  2 15  1  0  0  0  0
  2 22  1  0  0  0  0
  3  4  1  0  0  0  0
  3 23  1  0  0  0  0
  3 24  1  0  0  0  0
  4 14  1  0  0  0  0
  4  5  1  0  0  0  0
  5  6  2  0  0  0  0
  5 25  1  0  0  0  0
  6  7  1  0  0  0  0
  6 33  1  0  0  0  0
  7 14  2  0  0  0  0
  7  8  1  0  0  0  0
  8  9  2  0  0  0  0
  8 26  1  0  0  0  0
  9 10  1  0  0  0  0
  9 11  1  0  0  0  0
 11 12  1  0  0  0  0
 11 13  2  0  0  0  0
 13 14  1  0  0  0  0
 13 27  1  0  0  0  0
 15 20  1  0  0  0  0
 15 16  2  0  0  0  0
 16 17  1  0  0  0  0
 16 28  1  0  0  0  0
 17 18  2  0  0  0  0
 17 29  1  0  0  0  0
 18 19  1  0  0  0  0
 18 30  1  0  0  0  0
 19 20  2  0  0  0  0
 19 31  1  0  0  0  0
 20 32  1  0  0  0  0
M  CHG  1   6   1
M  END
> <s_m_source_file>
AV-unprocessed.smi

> <i_m_source_file_index>
456

> <i_lp_mmshare_version>
43012

> <i_f3d_flags>
0

> <s_epik_input>
W2NIXTFbY0hdW2NIXVtjSF1bY0hdYzFbQ0BIXShbT0hdKVtDSDJdbihbY0hdbjIpYyhjMjMpW2NIXWMoRiljKEYpW2NIXTM=

> <s_epik_cmdline>
J2VwaWtfcHl0aG9uJywgJy1waCcsICc3LjAnLCAnLXRuJywgJzgnLCAnLW1hJywgJzIwMCcsICctbWV0YWxfYmluZGluZycsICctaW1hZScsICc8aW5maWxlLm1hZT4nLCAnLW9tYWUnLCAnPG91dGZpbGUubWFlPic=

> <r_epik_Ionization_Penalty>
2.16139

> <r_epik_Ionization_Penalty_Charging>
2.16138

> <r_epik_Ionization_Penalty_Neutral>
1.34362e-06

> <r_epik_State_Penalty>
2.30198

> <r_epik_Charging_Adjusted_Penalty>
4.46337

> <i_epik_Tot_Q>
1

> <i_epik_Tot_abs_Q>
1

> <r_epik_Metal_State_Penalty>
6.38245

> <b_epik_Metal_Only>
0

> <s_lp_Force_Field>
OPLS_2005

> <r_lp_Energy>
14.9755

> <b_lp_Chiralities_Consistent>
1

> <s_lp_Variant>
AV-unprocessed.smi:456-4

> <Gold.Version>
5.8.1

> <Gold.Id.Protein>
6NUR|6NUR_protein|mol2

> <Gold.PLP.Fitness>
54.9700

> <Gold.PLP.PLP>
-50.6103

> <Gold.PLP.part.hbond>
-2.9621

> <Gold.PLP.part.metal>
0.0000

> <Gold.PLP.part.buried>
-2.9056

> <Gold.PLP.part.nonpolar>
-43.7941

> <Gold.PLP.part.repulsive>
0.0041

> <Gold.PLP.ligand.clash>
0.0000

> <Gold.PLP.ligand.torsion>
0.8312

> <Gold.PLP.Chemscore.Hbond>
2.0000

> <Gold.PLP.Chemscore.CHOScore>
0.0000

> <Gold.PLP.Chemscore.Metal>
0.0000

> <Gold.Chemscore.Hbonds>
donor molecule, donor type, donor heavy atom, donor atom, acceptor molecule, acceptor atom, score
      L1  H     6    33       P1  8028  1.79

> <Gold.PLP.Chemscore.Internal.Correction>
0.0221

> <Gold.Rescore>
     Score         DG    S(hbond)    S(metal)    S(lipo)     H(rot)  DE(clash)    DE(int)     intcor
     16.31     -18.48       0.99        0.00     127.12       2.03       1.32       0.85       ----

> <Gold.Chemscore.Fitness>
16.3071

> <Gold.Chemscore.DG>
-18.4787

> <Gold.Chemscore.ZeroCoef>
-5.4800

> <Gold.Chemscore.Hbond>
0.9913

> <Gold.Chemscore.Metal>
0.0000

> <Gold.Chemscore.Lipo>
127.1216

> <Gold.Chemscore.Internal_Hbond>
0.0000

> <Gold.Chemscore.DEClash>
1.3235

> <Gold.Chemscore.DEInternal>
0.8481

> <Gold.Chemscore.Rot>
2.0256

> <Gold.Chemscore.Internal.Correction>
   9.000000E+99

> <Gold.Chemscore.Hbonds>
donor molecule, donor type, donor heavy atom, donor atom, acceptor molecule, acceptor atom, score
      L1  H     6    33       P1  8028  0.87

> <Gold.Chemscore.Hbond.Weighted>
-3.3110

> <Gold.Chemscore.Metal.Weighted>
-0.0000

> <Gold.Chemscore.Lipo.Weighted>
-14.8732

> <Gold.Chemscore.Internal_Hbond.Weighted>
0.0000

> <Gold.Chemscore.DEClash.Weighted>
1.3235

> <Gold.Chemscore.DEInternal.Weighted>
0.8481

> <Gold.Chemscore.Rot.Weighted>
5.1855

> <Gold.Chemscore.Internal.Correction.Weighted>
   9.000000E+99

> <Gold.Protein.RotatedTorsions>
[ 6907 6896 6895 6894 ] final  -12.47 input  -60.11 | X-H torsion
[ 7974 7965 7964 7962 ] final  -40.13 input  175.53 | X-H torsion
[ 8008 7997 7996 7995 ] final   65.62 input   59.86 | X-H torsion
[ 10167 10162 10161 10158 ] final  -22.28 input  -65.29 | X-H torsion
[ 10718 10713 10712 10709 ] final   24.63 input   66.30 | X-H torsion
[ 10763 10752 10751 10750 ] final  -98.54 input  -60.55 | X-H torsion
[ 11005 11000 10999 10996 ] final  -90.95 input  -57.11 | X-H torsion

> <Gold.Protein.ActiveResidues>
 VAL166  LYS551  ARG553  GLY616  TRP617  ASP618  TYR619  PRO620  LYS621  CYS622 
 ASP623  PHE694  ASN695  SER759  ASP760  ASP761  ALA762  ILE779  LEU786  VAL792 
 PHE793  MET794  SER795  GLU796  ALA797  LYS798  CYS799  TRP800  GLU811  SER814 

> <Gold.Protein.RotatedAtoms>
  151.3701  135.0921  159.9462 H   0  0  0  0  0  0  0  0  0  0  0  0  # atno 6907 bound_to 6896
  152.5138  133.9173  159.7528 H   0  0  0  0  0  0  0  0  0  0  0  0  # atno 6908 bound_to 6896
  150.9585  133.6416  159.2788 H   0  0  0  0  0  0  0  0  0  0  0  0  # atno 6909 bound_to 6896
  146.0333  140.6704  142.9122 H   0  0  0  0  0  0  0  0  0  0  0  0  # atno 7974 bound_to 7965
  155.6645  140.3497  155.4795 H   0  0  0  0  0  0  0  0  0  0  0  0  # atno 8008 bound_to 7997
  155.9740  140.1161  157.0810 H   0  0  0  0  0  0  0  0  0  0  0  0  # atno 8009 bound_to 7997
  154.4174  140.1151  156.5331 H   0  0  0  0  0  0  0  0  0  0  0  0  # atno 8010 bound_to 7997
  140.7285  143.4549  151.0462 H   0  0  0  0  0  0  0  0  0  0  0  0  # atno 10167 bound_to 10162
  157.1824  130.6809  149.6118 H   0  0  0  0  0  0  0  0  0  0  0  0  # atno 10718 bound_to 10713
  154.7422  135.5005  153.9143 H   0  0  0  0  0  0  0  0  0  0  0  0  # atno 10763 bound_to 10752
  153.1055  135.6696  153.9602 H   0  0  0  0  0  0  0  0  0  0  0  0  # atno 10764 bound_to 10752
  153.9376  135.3071  155.3423 H   0  0  0  0  0  0  0  0  0  0  0  0  # atno 10765 bound_to 10752
  141.1555  133.7724  156.9810 H   0  0  0  0  0  0  0  0  0  0  0  0  # atno 11005 bound_to 11000
  144.7040  140.3775  143.7133 LP  0  0  0  0  0  0  0  0  0  0  0  0  # atno 17320 bound_to 7965
  145.7005  139.1660  143.2595 LP  0  0  0  0  0  0  0  0  0  0  0  0  # atno 17321 bound_to 7965
  139.8229  143.7795  152.3177 LP  0  0  0  0  0  0  0  0  0  0  0  0  # atno 17342 bound_to 10162
  139.7884  144.7419  150.9989 LP  0  0  0  0  0  0  0  0  0  0  0  0  # atno 17343 bound_to 10162
  155.9722  130.4642  150.6210 LP  0  0  0  0  0  0  0  0  0  0  0  0  # atno 17370 bound_to 10713
  157.3940  131.0800  151.1369 LP  0  0  0  0  0  0  0  0  0  0  0  0  # atno 17371 bound_to 10713
  140.1066  134.9503  157.2002 LP  0  0  0  0  0  0  0  0  0  0  0  0  # atno 17394 bound_to 11000
  140.3249  134.2875  155.7239 LP  0  0  0  0  0  0  0  0  0  0  0  0  # atno 17395 bound_to 11000

$$$$
