AV-unprocessed.smi:33|AV-procd|sdf|202|dock2
  -GOLD-   2262015483D 1   1.00000     0.00000
 Structure written by MMmdl.
 67 72  0  0  0  0  0  0  0  0  1 V2000
  153.7054  141.4232  163.2012 O   0  0  0  0  0  0  0  0  0  0  0  0
  153.8835  141.5039  161.9839 C   0  0  0  0  0  0  0  0  0  0  0  0
  154.7731  140.7495  161.3092 O   0  0  0  0  0  0  0  0  0  0  0  0
  155.6931  139.9361  162.0195 C   0  0  0  0  0  0  0  0  0  0  0  0
  155.3342  138.4587  161.8254 C   0  0  1  0  0  0  0  0  0  0  0  0
  154.1962  138.1279  162.6071 O   0  0  0  0  0  0  0  0  0  0  0  0
  153.6318  136.9528  162.1135 C   0  0  2  0  0  0  0  0  0  0  0  0
  154.2345  135.8075  162.8764 N   0  0  0  0  0  0  0  0  0  0  0  0
  154.4343  135.6513  164.2348 C   0  0  0  0  0  0  0  0  0  0  0  0
  154.9581  134.5118  164.5983 N   0  0  0  0  0  0  0  0  0  0  0  0
  155.1074  133.8170  163.4062 C   0  0  0  0  0  0  0  0  0  0  0  0
  155.5973  132.5270  163.0677 C   0  0  0  0  0  0  0  0  0  0  0  0
  156.0758  131.6589  163.9893 N   0  0  0  0  0  0  0  0  0  0  0  0
  157.1934  132.1140  164.8307 C   0  0  0  0  0  0  0  0  0  0  0  0
  157.9277  133.0175  164.4260 O   0  0  0  0  0  0  0  0  0  0  0  0
  157.4818  131.4490  166.1474 C   0  0  0  0  0  0  0  0  0  0  0  0
  156.4475  130.7858  166.8437 C   0  0  0  0  0  0  0  0  0  0  0  0
  156.7109  130.1530  168.0740 C   0  0  0  0  0  0  0  0  0  0  0  0
  158.0139  130.1633  168.6071 C   0  0  0  0  0  0  0  0  0  0  0  0
  159.0562  130.7962  167.9034 C   0  0  0  0  0  0  0  0  0  0  0  0
  158.7938  131.4286  166.6727 C   0  0  0  0  0  0  0  0  0  0  0  0
  155.4307  130.3398  164.0567 C   0  0  0  0  0  0  0  0  0  0  0  0
  156.0634  129.3745  164.4892 O   0  0  0  0  0  0  0  0  0  0  0  0
  154.0247  130.1531  163.5622 C   0  0  0  0  0  0  0  0  0  0  0  0
  153.6728  128.9815  162.8568 C   0  0  0  0  0  0  0  0  0  0  0  0
  152.3524  128.7959  162.4034 C   0  0  0  0  0  0  0  0  0  0  0  0
  151.3718  129.7704  162.6701 C   0  0  0  0  0  0  0  0  0  0  0  0
  151.7093  130.9268  163.3987 C   0  0  0  0  0  0  0  0  0  0  0  0
  153.0299  131.1146  163.8502 C   0  0  0  0  0  0  0  0  0  0  0  0
  155.5787  132.1602  161.7601 N   0  0  0  0  0  0  0  0  0  0  0  0
  155.1110  133.0092  160.8400 C   0  0  0  0  0  0  0  0  0  0  0  0
  154.6300  134.2435  161.0095 N   0  0  0  0  0  0  0  0  0  0  0  0
  154.6473  134.6139  162.3231 C   0  0  0  0  0  0  0  0  0  0  0  0
  153.9740  136.8843  160.6114 C   0  0  1  0  0  0  0  0  0  0  0  0
  152.8243  136.9833  159.7961 O   0  0  0  0  0  0  0  0  0  0  0  0
  154.8793  138.0969  160.4108 C   0  0  2  0  0  0  0  0  0  0  0  0
  155.9134  137.8069  159.6203 F   0  0  0  0  0  0  0  0  0  0  0  0
  153.1380  142.4511  161.1055 C   0  0  0  0  0  0  0  0  0  0  0  0
  153.1609  142.2592  159.7043 C   0  0  0  0  0  0  0  0  0  0  0  0
  152.4645  143.1345  158.8484 C   0  0  0  0  0  0  0  0  0  0  0  0
  151.7370  144.2132  159.3835 C   0  0  0  0  0  0  0  0  0  0  0  0
  151.7073  144.4161  160.7757 C   0  0  0  0  0  0  0  0  0  0  0  0
  152.4028  143.5412  161.6335 C   0  0  0  0  0  0  0  0  0  0  0  0
  156.6992  140.1206  161.6402 H   0  0  0  0  0  0  0  0  0  0  0  0
  155.6905  140.1949  163.0792 H   0  0  0  0  0  0  0  0  0  0  0  0
  156.1681  137.8288  162.1373 H   0  0  0  0  0  0  0  0  0  0  0  0
  152.5631  136.9047  162.3263 H   0  0  0  0  0  0  0  0  0  0  0  0
  154.1813  136.4093  164.9615 H   0  0  0  0  0  0  0  0  0  0  0  0
  155.4432  130.7727  166.4450 H   0  0  0  0  0  0  0  0  0  0  0  0
  155.9127  129.6592  168.6086 H   0  0  0  0  0  0  0  0  0  0  0  0
  158.2147  129.6796  169.5516 H   0  0  0  0  0  0  0  0  0  0  0  0
  160.0578  130.7967  168.3074 H   0  0  0  0  0  0  0  0  0  0  0  0
  159.6026  131.9080  166.1404 H   0  0  0  0  0  0  0  0  0  0  0  0
  154.4177  128.2276  162.6466 H   0  0  0  0  0  0  0  0  0  0  0  0
  152.0919  127.9048  161.8514 H   0  0  0  0  0  0  0  0  0  0  0  0
  150.3594  129.6267  162.3225 H   0  0  0  0  0  0  0  0  0  0  0  0
  150.9552  131.6696  163.6129 H   0  0  0  0  0  0  0  0  0  0  0  0
  153.2770  132.0037  164.4127 H   0  0  0  0  0  0  0  0  0  0  0  0
  155.1236  132.6481  159.8222 H   0  0  0  0  0  0  0  0  0  0  0  0
  154.4838  135.9518  160.3703 H   0  0  0  0  0  0  0  0  0  0  0  0
  152.4210  137.8249  159.9465 H   0  0  0  0  0  0  0  0  0  0  0  0
  154.3339  138.9285  159.9610 H   0  0  0  0  0  0  0  0  0  0  0  0
  153.7119  141.4375  159.2697 H   0  0  0  0  0  0  0  0  0  0  0  0
  152.4892  142.9769  157.7800 H   0  0  0  0  0  0  0  0  0  0  0  0
  151.2029  144.8841  158.7268 H   0  0  0  0  0  0  0  0  0  0  0  0
  151.1498  145.2446  161.1871 H   0  0  0  0  0  0  0  0  0  0  0  0
  152.3595  143.7257  162.6971 H   0  0  0  0  0  0  0  0  0  0  0  0
  1  2  2  0  0  0  0
  2  3  1  0  0  0  0
  2 38  1  0  0  0  0
  3  4  1  0  0  0  0
  4  5  1  0  0  0  0
  4 44  1  0  0  0  0
  4 45  1  0  0  0  0
  5 36  1  0  0  0  0
  5  6  1  0  0  0  0
  5 46  1  0  0  0  0
  6  7  1  0  0  0  0
  7  8  1  0  0  0  0
  7 34  1  0  0  0  0
  7 47  1  0  0  0  0
  8 33  1  0  0  0  0
  8  9  1  0  0  0  0
  9 10  2  0  0  0  0
  9 48  1  0  0  0  0
 10 11  1  0  0  0  0
 11 33  2  0  0  0  0
 11 12  1  0  0  0  0
 12 13  1  0  0  0  0
 12 30  2  0  0  0  0
 13 14  1  0  0  0  0
 13 22  1  0  0  0  0
 14 15  2  0  0  0  0
 14 16  1  0  0  0  0
 16 21  1  0  0  0  0
 16 17  2  0  0  0  0
 17 18  1  0  0  0  0
 17 49  1  0  0  0  0
 18 19  2  0  0  0  0
 18 50  1  0  0  0  0
 19 20  1  0  0  0  0
 19 51  1  0  0  0  0
 20 21  2  0  0  0  0
 20 52  1  0  0  0  0
 21 53  1  0  0  0  0
 22 23  2  0  0  0  0
 22 24  1  0  0  0  0
 24 29  1  0  0  0  0
 24 25  2  0  0  0  0
 25 26  1  0  0  0  0
 25 54  1  0  0  0  0
 26 27  2  0  0  0  0
 26 55  1  0  0  0  0
 27 28  1  0  0  0  0
 27 56  1  0  0  0  0
 28 29  2  0  0  0  0
 28 57  1  0  0  0  0
 29 58  1  0  0  0  0
 30 31  1  0  0  0  0
 31 32  2  0  0  0  0
 31 59  1  0  0  0  0
 32 33  1  0  0  0  0
 34 35  1  0  0  0  0
 34 36  1  0  0  0  0
 34 60  1  0  0  0  0
 35 61  1  0  0  0  0
 36 37  1  0  0  0  0
 36 62  1  0  0  0  0
 38 43  1  0  0  0  0
 38 39  2  0  0  0  0
 39 40  1  0  0  0  0
 39 63  1  0  0  0  0
 40 41  2  0  0  0  0
 40 64  1  0  0  0  0
 41 42  1  0  0  0  0
 41 65  1  0  0  0  0
 42 43  2  0  0  0  0
 42 66  1  0  0  0  0
 43 67  1  0  0  0  0
M  END
> <s_m_source_file>
AV-unprocessed.smi

> <i_m_source_file_index>
33

> <i_lp_mmshare_version>
43012

> <i_f3d_flags>
0

> <s_epik_input>
W2NIXTFbY0hdW2NIXVtjSF1bY0hdYzFDKD1PKU9bQ0gyXVtDQEBIXTJPW0NASF0oW0NAQEhdKFtPSF0pW0NAQEhdMkYpbihbY0hdbjMpYyhjMzQpbltjSF1uYzROKEMoPU8pYzVbY0hdW2NIXVtjSF1bY0hdW2NIXTUpQyg9TyljNltjSF1bY0hdW2NIXVtjSF1bY0hdNg==

> <s_epik_cmdline>
J2VwaWtfcHl0aG9uJywgJy1waCcsICc3LjAnLCAnLXRuJywgJzgnLCAnLW1hJywgJzIwMCcsICctbWV0YWxfYmluZGluZycsICctaW1hZScsICc8aW5maWxlLm1hZT4nLCAnLW9tYWUnLCAnPG91dGZpbGUubWFlPic=

> <r_lp_tautomer_probability>
1

> <r_epik_Ionization_Penalty>
0.00067664

> <r_epik_Ionization_Penalty_Charging>
0

> <r_epik_Ionization_Penalty_Neutral>
0.00067664

> <r_epik_State_Penalty>
0.000428095

> <r_epik_Charging_Adjusted_Penalty>
0.000428095

> <i_epik_Tot_Q>
0

> <i_epik_Tot_abs_Q>
0

> <r_epik_Metal_State_Penalty>
-0

> <b_epik_Metal_Only>
0

> <s_epik_Chemistry_Notes>
This compound has an ester and may undergo hydrolysis at high or low pH. This compound contains an acetal/aminal-like group ( X-CH(R)-Y where X, Y are N, S, or O) that may be acid/base labile, releasing an aldehyde.

> <s_lp_Force_Field>
OPLS_2005

> <r_lp_Energy>
69.1038

> <b_lp_Chiralities_Consistent>
1

> <s_lp_Variant>
AV-unprocessed.smi:33-4

> <Gold.Version>
5.8.1

> <Gold.Id.Protein>
6NUR|6NUR_protein|mol2

> <Gold.PLP.Fitness>
54.1179

> <Gold.PLP.PLP>
-54.5114

> <Gold.PLP.part.hbond>
-1.9353

> <Gold.PLP.part.metal>
0.0000

> <Gold.PLP.part.buried>
-3.6779

> <Gold.PLP.part.nonpolar>
-50.3137

> <Gold.PLP.part.repulsive>
0.1160

> <Gold.PLP.ligand.clash>
0.0006

> <Gold.PLP.ligand.torsion>
3.5622

> <Gold.PLP.Chemscore.Hbond>
1.0000

> <Gold.PLP.Chemscore.CHOScore>
0.0000

> <Gold.PLP.Chemscore.Metal>
0.0000

> <Gold.Chemscore.Hbonds>
donor molecule, donor type, donor heavy atom, donor atom, acceptor molecule, acceptor atom, score
      P1  H  6896  6908       L1    35  0.83

> <Gold.PLP.Chemscore.Internal.Correction>
3.7316

> <Gold.Rescore>
     Score         DG    S(hbond)    S(metal)    S(lipo)     H(rot)  DE(clash)    DE(int)     intcor
      9.29     -19.55       0.97        0.00     147.97       2.52       0.85       9.42       ----

> <Gold.Chemscore.Fitness>
9.2861

> <Gold.Chemscore.DG>
-19.5529

> <Gold.Chemscore.ZeroCoef>
-5.4800

> <Gold.Chemscore.Hbond>
0.9653

> <Gold.Chemscore.Metal>
0.0000

> <Gold.Chemscore.Lipo>
147.9672

> <Gold.Chemscore.Internal_Hbond>
0.0000

> <Gold.Chemscore.DEClash>
0.8510

> <Gold.Chemscore.DEInternal>
9.4157

> <Gold.Chemscore.Rot>
2.5247

> <Gold.Chemscore.Internal.Correction>
   9.000000E+99

> <Gold.Chemscore.Hbonds>
donor molecule, donor type, donor heavy atom, donor atom, acceptor molecule, acceptor atom, score
      P1  H  6896  6908       L1    35  0.29

> <Gold.Chemscore.Hbond.Weighted>
-3.2240

> <Gold.Chemscore.Metal.Weighted>
-0.0000

> <Gold.Chemscore.Lipo.Weighted>
-17.3122

> <Gold.Chemscore.Internal_Hbond.Weighted>
0.0000

> <Gold.Chemscore.DEClash.Weighted>
0.8510

> <Gold.Chemscore.DEInternal.Weighted>
9.4157

> <Gold.Chemscore.Rot.Weighted>
6.4633

> <Gold.Chemscore.Internal.Correction.Weighted>
   9.000000E+99

> <Gold.Protein.RotatedTorsions>
[ 6907 6896 6895 6894 ] final  -97.87 input  -60.11 | X-H torsion
[ 7974 7965 7964 7962 ] final   92.24 input  175.53 | X-H torsion
[ 8008 7997 7996 7995 ] final   92.34 input   59.86 | X-H torsion
[ 10167 10162 10161 10158 ] final  176.55 input  -65.29 | X-H torsion
[ 10718 10713 10712 10709 ] final  -99.41 input   66.30 | X-H torsion
[ 10763 10752 10751 10750 ] final   -2.78 input  -60.55 | X-H torsion
[ 11005 11000 10999 10996 ] final  164.95 input  -57.11 | X-H torsion

> <Gold.Protein.ActiveResidues>
 VAL166  LYS551  ARG553  GLY616  TRP617  ASP618  TYR619  PRO620  LYS621  CYS622 
 ASP623  PHE694  ASN695  SER759  ASP760  ASP761  ALA762  ILE779  LEU786  VAL792 
 PHE793  MET794  SER795  GLU796  ALA797  LYS798  CYS799  TRP800  GLU811  SER814 

> <Gold.Protein.RotatedAtoms>
  150.7029  134.1282  159.4059 H   0  0  0  0  0  0  0  0  0  0  0  0  # atno 6907 bound_to 6896
  151.9267  135.0272  160.0535 H   0  0  0  0  0  0  0  0  0  0  0  0  # atno 6908 bound_to 6896
  152.2210  133.4948  159.5199 H   0  0  0  0  0  0  0  0  0  0  0  0  # atno 6909 bound_to 6896
  145.4949  139.2276  143.2809 H   0  0  0  0  0  0  0  0  0  0  0  0  # atno 7974 bound_to 7965
  156.0343  140.3326  155.7173 H   0  0  0  0  0  0  0  0  0  0  0  0  # atno 8008 bound_to 7997
  155.5839  140.0639  157.2794 H   0  0  0  0  0  0  0  0  0  0  0  0  # atno 8009 bound_to 7997
  154.4366  140.1839  156.0993 H   0  0  0  0  0  0  0  0  0  0  0  0  # atno 8010 bound_to 7997
  139.5219  144.2902  152.0471 H   0  0  0  0  0  0  0  0  0  0  0  0  # atno 10167 bound_to 10162
  156.0133  130.5281  150.6666 H   0  0  0  0  0  0  0  0  0  0  0  0  # atno 10718 bound_to 10713
  153.3625  135.6991  153.6701 H   0  0  0  0  0  0  0  0  0  0  0  0  # atno 10763 bound_to 10752
  153.5383  135.3578  155.2707 H   0  0  0  0  0  0  0  0  0  0  0  0  # atno 10764 bound_to 10752
  154.8670  135.4197  154.2886 H   0  0  0  0  0  0  0  0  0  0  0  0  # atno 10765 bound_to 10752
  140.2511  134.7976  157.3502 H   0  0  0  0  0  0  0  0  0  0  0  0  # atno 11005 bound_to 11000
  146.2262  140.5745  142.8995 LP  0  0  0  0  0  0  0  0  0  0  0  0  # atno 17320 bound_to 7965
  144.7813  140.5845  143.6604 LP  0  0  0  0  0  0  0  0  0  0  0  0  # atno 17321 bound_to 7965
  140.2353  144.4326  150.6282 LP  0  0  0  0  0  0  0  0  0  0  0  0  # atno 17342 bound_to 10162
  140.6327  143.2190  151.6460 LP  0  0  0  0  0  0  0  0  0  0  0  0  # atno 17343 bound_to 10162
  157.4397  131.0859  151.0956 LP  0  0  0  0  0  0  0  0  0  0  0  0  # atno 17370 bound_to 10713
  157.1503  130.6181  149.5580 LP  0  0  0  0  0  0  0  0  0  0  0  0  # atno 17371 bound_to 10713
  140.1557  134.4792  155.7929 LP  0  0  0  0  0  0  0  0  0  0  0  0  # atno 17394 bound_to 11000
  141.2201  133.6880  156.7457 LP  0  0  0  0  0  0  0  0  0  0  0  0  # atno 17395 bound_to 11000

$$$$
