AV-unprocessed.smi:2746|AV-procd|sdf|10572|dock1
  -GOLD-   2272015 23D 1   1.00000     0.00000
 Structure written by MMmdl.
 38 39  0  0  0  0  0  0  0  0  1 V2000
  151.5977  145.6906  160.4071 C   0  0  0  0  0  0  0  0  0  0  0  0
  151.5393  144.7360  159.4665 C   0  0  0  0  0  0  0  0  0  0  0  0
  152.4252  143.5042  159.4365 C   0  0  1  0  0  0  0  0  0  0  0  0
  152.3248  142.7187  160.7503 C   0  0  0  0  0  0  0  0  0  0  0  0
  152.0507  142.6378  158.3244 N   0  0  0  0  0  0  0  0  0  0  0  0
  152.5419  141.4082  158.0915 C   0  0  0  0  0  0  0  0  0  0  0  0
  153.3941  140.8751  158.8034 O   0  0  0  0  0  0  0  0  0  0  0  0
  152.0165  140.7161  156.8622 C   0  0  0  0  0  0  0  0  0  0  0  0
  150.7801  141.1163  156.3038 C   0  0  0  0  0  0  0  0  0  0  0  0
  150.3084  140.4675  155.1407 C   0  0  0  0  0  0  0  0  0  0  0  0
  149.0933  140.8140  154.5343 N   0  0  0  0  0  0  0  0  0  0  0  0
  148.3646  139.6760  153.9885 C   0  0  0  0  0  0  0  0  0  0  0  0
  147.1114  140.1644  153.2410 C   0  0  0  0  0  0  0  0  0  0  0  0
  146.3100  140.9539  154.1155 O   0  0  0  0  0  0  0  0  0  0  0  0
  147.0068  142.1039  154.5873 C   0  0  0  0  0  0  0  0  0  0  0  0
  148.2563  141.6645  155.3702 C   0  0  0  0  0  0  0  0  0  0  0  0
  151.0961  139.4450  154.5776 C   0  0  0  0  0  0  0  0  0  0  0  0
  152.3147  139.1159  155.1998 C   0  0  0  0  0  0  0  0  0  0  0  0
  152.7691  139.7320  156.3110 N   0  0  0  0  0  0  0  0  0  0  0  0
  152.3045  145.6320  161.2220 H   0  0  0  0  0  0  0  0  0  0  0  0
  150.9380  146.5450  160.3730 H   0  0  0  0  0  0  0  0  0  0  0  0
  150.8189  144.8293  158.6667 H   0  0  0  0  0  0  0  0  0  0  0  0
  153.4630  143.8190  159.3103 H   0  0  0  0  0  0  0  0  0  0  0  0
  152.6222  143.3358  161.5988 H   0  0  0  0  0  0  0  0  0  0  0  0
  152.9780  141.8455  160.7355 H   0  0  0  0  0  0  0  0  0  0  0  0
  151.3070  142.3708  160.9318 H   0  0  0  0  0  0  0  0  0  0  0  0
  151.3627  142.9945  157.6769 H   0  0  0  0  0  0  0  0  0  0  0  0
  150.2009  141.9078  156.7576 H   0  0  0  0  0  0  0  0  0  0  0  0
  149.0094  139.1150  153.3109 H   0  0  0  0  0  0  0  0  0  0  0  0
  148.0732  138.9992  154.7929 H   0  0  0  0  0  0  0  0  0  0  0  0
  147.3862  140.7453  152.3590 H   0  0  0  0  0  0  0  0  0  0  0  0
  146.5256  139.3139  152.8924 H   0  0  0  0  0  0  0  0  0  0  0  0
  147.2796  142.7462  153.7484 H   0  0  0  0  0  0  0  0  0  0  0  0
  146.3441  142.6834  155.2299 H   0  0  0  0  0  0  0  0  0  0  0  0
  147.9580  141.1220  156.2686 H   0  0  0  0  0  0  0  0  0  0  0  0
  148.8226  142.5390  155.6931 H   0  0  0  0  0  0  0  0  0  0  0  0
  150.7759  138.9228  153.6879 H   0  0  0  0  0  0  0  0  0  0  0  0
  152.9426  138.3370  154.7935 H   0  0  0  0  0  0  0  0  0  0  0  0
  1  2  2  0  0  0  0
  1 20  1  0  0  0  0
  1 21  1  0  0  0  0
  2  3  1  0  0  0  0
  2 22  1  0  0  0  0
  3  4  1  0  0  0  0
  3  5  1  0  0  0  0
  3 23  1  0  0  0  0
  4 24  1  0  0  0  0
  4 25  1  0  0  0  0
  4 26  1  0  0  0  0
  5  6  1  0  0  0  0
  5 27  1  0  0  0  0
  6  7  2  0  0  0  0
  6  8  1  0  0  0  0
  8 19  1  0  0  0  0
  8  9  2  0  0  0  0
  9 10  1  0  0  0  0
  9 28  1  0  0  0  0
 10 11  1  0  0  0  0
 10 17  2  0  0  0  0
 11 16  1  0  0  0  0
 11 12  1  0  0  0  0
 12 13  1  0  0  0  0
 12 29  1  0  0  0  0
 12 30  1  0  0  0  0
 13 14  1  0  0  0  0
 13 31  1  0  0  0  0
 13 32  1  0  0  0  0
 14 15  1  0  0  0  0
 15 16  1  0  0  0  0
 15 33  1  0  0  0  0
 15 34  1  0  0  0  0
 16 35  1  0  0  0  0
 16 36  1  0  0  0  0
 17 18  1  0  0  0  0
 17 37  1  0  0  0  0
 18 19  2  0  0  0  0
 18 38  1  0  0  0  0
M  END
> <s_m_source_file>
AV-unprocessed.smi

> <i_m_source_file_index>
2746

> <i_lp_mmshare_version>
43012

> <i_f3d_flags>
0

> <s_epik_input>
W0NIMl09W0NIXVtDQEhdKFtDSDNdKVtOSF1DKD1PKWMxW2NIXWMoW2NIXVtjSF1uMSlOMltDSDJdW0NIMl1PW0NIMl1bQ0gyXTI=

> <s_epik_cmdline>
J2VwaWtfcHl0aG9uJywgJy1waCcsICc3LjAnLCAnLXRuJywgJzgnLCAnLW1hJywgJzIwMCcsICctbWV0YWxfYmluZGluZycsICctaW1hZScsICc8aW5maWxlLm1hZT4nLCAnLW9tYWUnLCAnPG91dGZpbGUubWFlPic=

> <r_lp_tautomer_probability>
1

> <r_epik_Ionization_Penalty>
0.373275

> <r_epik_Ionization_Penalty_Charging>
0

> <r_epik_Ionization_Penalty_Neutral>
0.373275

> <r_epik_State_Penalty>
0.370855

> <r_epik_Charging_Adjusted_Penalty>
0.370855

> <i_epik_Tot_Q>
0

> <i_epik_Tot_abs_Q>
0

> <r_epik_Metal_State_Penalty>
0.225885

> <b_epik_Metal_Only>
0

> <s_lp_Force_Field>
OPLS_2005

> <r_lp_Energy>
21.8565

> <b_lp_Chiralities_Consistent>
1

> <s_lp_Variant>
AV-unprocessed.smi:2746-2

> <Gold.Version>
5.8.1

> <Gold.Id.Protein>
6NUR|6NUR_protein|mol2

> <Gold.PLP.Fitness>
41.6215

> <Gold.PLP.PLP>
-40.1319

> <Gold.PLP.part.hbond>
-1.0572

> <Gold.PLP.part.metal>
0.0000

> <Gold.PLP.part.buried>
-1.1607

> <Gold.PLP.part.nonpolar>
-36.4439

> <Gold.PLP.part.repulsive>
0.3601

> <Gold.PLP.ligand.clash>
0.1384

> <Gold.PLP.ligand.torsion>
0.7545

> <Gold.PLP.Chemscore.Hbond>
1.0000

> <Gold.PLP.Chemscore.CHOScore>
0.0000

> <Gold.PLP.Chemscore.Metal>
0.0000

> <Gold.Chemscore.Hbonds>
donor molecule, donor type, donor heavy atom, donor atom, acceptor molecule, acceptor atom, score
      P1  H  7997  8009       L1    19  0.88

> <Gold.PLP.Chemscore.Internal.Correction>
0.1370

> <Gold.Rescore>
     Score         DG    S(hbond)    S(metal)    S(lipo)     H(rot)  DE(clash)    DE(int)     intcor
     14.40     -16.87       0.61        0.00     107.71       1.27       0.22       2.24       ----

> <Gold.Chemscore.Fitness>
14.4026

> <Gold.Chemscore.DG>
-16.8677

> <Gold.Chemscore.ZeroCoef>
-5.4800

> <Gold.Chemscore.Hbond>
0.6131

> <Gold.Chemscore.Metal>
0.0000

> <Gold.Chemscore.Lipo>
107.7090

> <Gold.Chemscore.Internal_Hbond>
0.0000

> <Gold.Chemscore.DEClash>
0.2219

> <Gold.Chemscore.DEInternal>
2.2431

> <Gold.Chemscore.Rot>
1.2742

> <Gold.Chemscore.Internal.Correction>
   9.000000E+99

> <Gold.Chemscore.Hbonds>
donor molecule, donor type, donor heavy atom, donor atom, acceptor molecule, acceptor atom, score
      P1  H  7997  8009       L1    19  0.52

> <Gold.Chemscore.Hbond.Weighted>
-2.0477

> <Gold.Chemscore.Metal.Weighted>
-0.0000

> <Gold.Chemscore.Lipo.Weighted>
-12.6019

> <Gold.Chemscore.Internal_Hbond.Weighted>
0.0000

> <Gold.Chemscore.DEClash.Weighted>
0.2219

> <Gold.Chemscore.DEInternal.Weighted>
2.2431

> <Gold.Chemscore.Rot.Weighted>
3.2619

> <Gold.Chemscore.Internal.Correction.Weighted>
   9.000000E+99

> <Gold.Protein.RotatedTorsions>
[ 6907 6896 6895 6894 ] final  113.73 input  -60.11 | X-H torsion
[ 7974 7965 7964 7962 ] final -170.16 input  175.53 | X-H torsion
[ 8008 7997 7996 7995 ] final  172.19 input   59.86 | X-H torsion
[ 10167 10162 10161 10158 ] final  101.62 input  -65.29 | X-H torsion
[ 10718 10713 10712 10709 ] final  144.76 input   66.30 | X-H torsion
[ 10763 10752 10751 10750 ] final  172.88 input  -60.55 | X-H torsion
[ 11005 11000 10999 10996 ] final -143.02 input  -57.11 | X-H torsion

> <Gold.Protein.ActiveResidues>
 VAL166  LYS551  ARG553  GLY616  TRP617  ASP618  TYR619  PRO620  LYS621  CYS622 
 ASP623  PHE694  ASN695  SER759  ASP760  ASP761  ALA762  ILE779  LEU786  VAL792 
 PHE793  MET794  SER795  GLU796  ALA797  LYS798  CYS799  TRP800  GLU811  SER814 

> <Gold.Protein.RotatedAtoms>
  152.4844  133.8334  159.7115 H   0  0  0  0  0  0  0  0  0  0  0  0  # atno 6907 bound_to 6896
  150.8918  133.7224  159.2909 H   0  0  0  0  0  0  0  0  0  0  0  0  # atno 6908 bound_to 6896
  151.4694  135.1048  159.9799 H   0  0  0  0  0  0  0  0  0  0  0  0  # atno 6909 bound_to 6896
  144.7174  140.2114  143.6327 H   0  0  0  0  0  0  0  0  0  0  0  0  # atno 7974 bound_to 7965
  156.1199  140.1492  156.9220 H   0  0  0  0  0  0  0  0  0  0  0  0  # atno 8008 bound_to 7997
  154.4828  140.0874  156.7458 H   0  0  0  0  0  0  0  0  0  0  0  0  # atno 8009 bound_to 7997
  155.4447  140.3432  155.4296 H   0  0  0  0  0  0  0  0  0  0  0  0  # atno 8010 bound_to 7997
  139.7422  144.7008  151.0558 H   0  0  0  0  0  0  0  0  0  0  0  0  # atno 10167 bound_to 10162
  157.3533  131.0954  151.0980 H   0  0  0  0  0  0  0  0  0  0  0  0  # atno 10718 bound_to 10713
  154.4322  135.2760  155.1904 H   0  0  0  0  0  0  0  0  0  0  0  0  # atno 10763 bound_to 10752
  154.3805  135.6088  153.5792 H   0  0  0  0  0  0  0  0  0  0  0  0  # atno 10764 bound_to 10752
  152.9837  135.5879  154.4636 H   0  0  0  0  0  0  0  0  0  0  0  0  # atno 10765 bound_to 10752
  140.8167  134.2680  157.4918 H   0  0  0  0  0  0  0  0  0  0  0  0  # atno 11005 bound_to 11000
  145.8587  139.2212  143.1729 LP  0  0  0  0  0  0  0  0  0  0  0  0  # atno 17320 bound_to 7965
  146.0193  140.8363  142.9931 LP  0  0  0  0  0  0  0  0  0  0  0  0  # atno 17321 bound_to 7965
  140.7787  143.4910  150.9893 LP  0  0  0  0  0  0  0  0  0  0  0  0  # atno 17342 bound_to 10162
  139.8599  143.7328  152.3174 LP  0  0  0  0  0  0  0  0  0  0  0  0  # atno 17343 bound_to 10162
  157.2148  130.6454  149.5788 LP  0  0  0  0  0  0  0  0  0  0  0  0  # atno 17370 bound_to 10713
  155.9725  130.4648  150.6231 LP  0  0  0  0  0  0  0  0  0  0  0  0  # atno 17371 bound_to 10713
  139.8710  134.9513  156.4081 LP  0  0  0  0  0  0  0  0  0  0  0  0  # atno 17394 bound_to 11000
  140.9141  133.7691  155.9827 LP  0  0  0  0  0  0  0  0  0  0  0  0  # atno 17395 bound_to 11000

$$$$
