AV-unprocessed.smi:1638|AV-procd|sdf|6547|dock10
  -GOLD-   22720 7233D 1   1.00000     0.00000
 Structure written by MMmdl.
 40 41  0  0  0  0  0  0  0  0  3 V2000
  152.4557  140.1687  159.8790 C   0  0  0  0  0  0  0  0  0  0  0  0
  152.5851  139.0288  158.9277 C   0  0  0  0  0  0  0  0  0  0  0  0
  153.7226  138.7456  158.2878 N   0  0  0  0  0  0  0  0  0  0  0  0
  153.5947  137.6397  157.4611 N   0  0  0  0  0  0  0  0  0  0  0  0
  152.3704  137.0935  157.4995 C   0  0  0  0  0  0  0  0  0  0  0  0
  152.0495  136.0034  156.7835 N   0  5  0  0  0  0  0  0  0  0  0  0
  150.7860  135.5284  156.8253 C   0  0  0  0  0  0  0  0  0  0  0  0
  150.2298  135.0228  157.8023 O   0  0  0  0  0  0  0  0  0  0  0  0
  150.1455  135.5938  155.6494 N   0  0  0  0  0  0  0  0  0  0  0  0
  148.8731  134.9491  155.3277 C   0  0  0  0  0  0  0  0  0  0  0  0
  147.7797  135.9967  155.0316 C   0  0  0  0  0  0  0  0  0  0  0  0
  146.9810  135.6520  153.8236 N   0  3  0  0  0  0  0  0  0  0  0  0
  145.7751  136.4925  153.6158 C   0  0  0  0  0  0  0  0  0  0  0  0
  145.7241  136.9722  152.1553 C   0  0  0  0  0  0  0  0  0  0  0  0
  145.2930  135.8978  151.1442 C   0  0  0  0  0  0  0  0  0  0  0  0
  146.1259  134.6044  151.1838 C   0  0  0  0  0  0  0  0  0  0  0  0
  145.8876  133.7869  152.4659 C   0  0  0  0  0  0  0  0  0  0  0  0
  146.7525  134.1899  153.6781 C   0  0  0  0  0  0  0  0  0  0  0  0
  151.2532  137.9439  158.5644 S   0  0  0  0  0  0  0  0  0  0  0  0
  152.7183  139.8440  160.8860 H   0  0  0  0  0  0  0  0  0  0  0  0
  151.4304  140.5389  159.8858 H   0  0  0  0  0  0  0  0  0  0  0  0
  153.1182  140.9846  159.5882 H   0  0  0  0  0  0  0  0  0  0  0  0
  150.6334  136.0405  154.8861 H   0  0  0  0  0  0  0  0  0  0  0  0
  148.9836  134.2563  154.4923 H   0  0  0  0  0  0  0  0  0  0  0  0
  148.5748  134.3415  156.1823 H   0  0  0  0  0  0  0  0  0  0  0  0
  147.1272  136.1352  155.8945 H   0  0  0  0  0  0  0  0  0  0  0  0
  148.2921  136.9482  154.8868 H   0  0  0  0  0  0  0  0  0  0  0  0
  144.8644  135.9667  153.9056 H   0  0  0  0  0  0  0  0  0  0  0  0
  145.8126  137.3813  154.2455 H   0  0  0  0  0  0  0  0  0  0  0  0
  145.0247  137.8058  152.0829 H   0  0  0  0  0  0  0  0  0  0  0  0
  146.6966  137.3766  151.8694 H   0  0  0  0  0  0  0  0  0  0  0  0
  144.2403  135.6570  151.2960 H   0  0  0  0  0  0  0  0  0  0  0  0
  145.3570  136.3242  150.1425 H   0  0  0  0  0  0  0  0  0  0  0  0
  145.8303  133.9939  150.3299 H   0  0  0  0  0  0  0  0  0  0  0  0
  147.1860  134.8164  151.0431 H   0  0  0  0  0  0  0  0  0  0  0  0
  144.8311  133.8310  152.7327 H   0  0  0  0  0  0  0  0  0  0  0  0
  146.0821  132.7349  152.2543 H   0  0  0  0  0  0  0  0  0  0  0  0
  147.7224  133.7004  153.5937 H   0  0  0  0  0  0  0  0  0  0  0  0
  146.2922  133.7985  154.5861 H   0  0  0  0  0  0  0  0  0  0  0  0
  147.5830  135.9084  153.0528 H   0  0  0  0  0  0  0  0  0  0  0  0
  1  2  1  0  0  0  0
  1 20  1  0  0  0  0
  1 21  1  0  0  0  0
  1 22  1  0  0  0  0
  2 19  1  0  0  0  0
  2  3  2  0  0  0  0
  3  4  1  0  0  0  0
  4  5  2  0  0  0  0
  5  6  1  0  0  0  0
  5 19  1  0  0  0  0
  6  7  1  0  0  0  0
  7  8  2  0  0  0  0
  7  9  1  0  0  0  0
  9 10  1  0  0  0  0
  9 23  1  0  0  0  0
 10 11  1  0  0  0  0
 10 24  1  0  0  0  0
 10 25  1  0  0  0  0
 11 12  1  0  0  0  0
 11 26  1  0  0  0  0
 11 27  1  0  0  0  0
 12 18  1  0  0  0  0
 12 13  1  0  0  0  0
 12 40  1  0  0  0  0
 13 14  1  0  0  0  0
 13 28  1  0  0  0  0
 13 29  1  0  0  0  0
 14 15  1  0  0  0  0
 14 30  1  0  0  0  0
 14 31  1  0  0  0  0
 15 16  1  0  0  0  0
 15 32  1  0  0  0  0
 15 33  1  0  0  0  0
 16 17  1  0  0  0  0
 16 34  1  0  0  0  0
 16 35  1  0  0  0  0
 17 18  1  0  0  0  0
 17 36  1  0  0  0  0
 17 37  1  0  0  0  0
 18 38  1  0  0  0  0
 18 39  1  0  0  0  0
M  CHG  1   6  -1
M  CHG  1  12   1
M  END
> <s_m_source_file>
AV-unprocessed.smi

> <i_m_source_file_index>
1638

> <i_lp_mmshare_version>
43012

> <i_f3d_flags>
0

> <s_epik_input>
W0NIM11jMW5uYyhzMSlbTkhdQyg9TylbTkhdW0NIMl1bQ0gyXU4yW0NIMl1bQ0gyXVtDSDJdW0NIMl1bQ0gyXVtDSDJdMg==

> <s_epik_cmdline>
J2VwaWtfcHl0aG9uJywgJy1waCcsICc3LjAnLCAnLXRuJywgJzgnLCAnLW1hJywgJzIwMCcsICctbWV0YWxfYmluZGluZycsICctaW1hZScsICc8aW5maWxlLm1hZT4nLCAnLW9tYWUnLCAnPG91dGZpbGUubWFlPic=

> <r_lp_tautomer_probability>
1

> <r_epik_Ionization_Penalty>
3.03755

> <r_epik_Ionization_Penalty_Charging>
2.92994

> <r_epik_Ionization_Penalty_Neutral>
0.107609

> <r_epik_State_Penalty>
2.92594

> <r_epik_Charging_Adjusted_Penalty>
5.85589

> <i_epik_Tot_Q>
0

> <i_epik_Tot_abs_Q>
2

> <r_epik_Metal_State_Penalty>
0.448256

> <b_epik_Metal_Only>
1

> <s_lp_Force_Field>
OPLS_2005

> <r_lp_Energy>
18.025

> <b_lp_Chiralities_Consistent>
1

> <s_lp_Variant>
AV-unprocessed.smi:1638-2

> <Gold.Version>
5.8.1

> <Gold.Id.Protein>
6NUR|6NUR_protein|mol2

> <Gold.PLP.Fitness>
38.3284

> <Gold.PLP.PLP>
-23.7549

> <Gold.PLP.part.hbond>
-4.9653

> <Gold.PLP.part.metal>
0.0000

> <Gold.PLP.part.buried>
-4.3072

> <Gold.PLP.part.nonpolar>
-15.5985

> <Gold.PLP.part.repulsive>
0.0644

> <Gold.PLP.ligand.clash>
0.0000

> <Gold.PLP.ligand.torsion>
1.1038

> <Gold.PLP.Chemscore.Hbond>
5.5676

> <Gold.PLP.Chemscore.CHOScore>
0.0000

> <Gold.PLP.Chemscore.Metal>
0.0000

> <Gold.Chemscore.Hbonds>
donor molecule, donor type, donor heavy atom, donor atom, acceptor molecule, acceptor atom, score
      L1  H    12    40       P1  7948  2.00
      P1  H  6896  6907       L1     8  0.72
      P1  H  7997  8010       L1     3  1.00
      P1  H 10752 10763       L1     6  1.17

> <Gold.PLP.Chemscore.Internal.Correction>
0.0784

> <Gold.Rescore>
     Score         DG    S(hbond)    S(metal)    S(lipo)     H(rot)  DE(clash)    DE(int)     intcor
     17.30     -18.42       3.42        0.00      47.22       1.57       0.01       1.11       ----

> <Gold.Chemscore.Fitness>
17.2989

> <Gold.Chemscore.DG>
-18.4203

> <Gold.Chemscore.ZeroCoef>
-5.4800

> <Gold.Chemscore.Hbond>
3.4227

> <Gold.Chemscore.Metal>
0.0000

> <Gold.Chemscore.Lipo>
47.2157

> <Gold.Chemscore.Internal_Hbond>
0.0000

> <Gold.Chemscore.DEClash>
0.0149

> <Gold.Chemscore.DEInternal>
1.1066

> <Gold.Chemscore.Rot>
1.5686

> <Gold.Chemscore.Internal.Correction>
   9.000000E+99

> <Gold.Chemscore.Hbonds>
donor molecule, donor type, donor heavy atom, donor atom, acceptor molecule, acceptor atom, score
      L1  H    12    40       P1  7948  1.00
      P1  H  6896  6907       L1     8  0.72
      P1  H  7997  8010       L1     3  0.34
      P1  H 10752 10763       L1     6  0.46

> <Gold.Chemscore.Hbond.Weighted>
-11.4318

> <Gold.Chemscore.Metal.Weighted>
-0.0000

> <Gold.Chemscore.Lipo.Weighted>
-5.5242

> <Gold.Chemscore.Internal_Hbond.Weighted>
0.0000

> <Gold.Chemscore.DEClash.Weighted>
0.0149

> <Gold.Chemscore.DEInternal.Weighted>
1.1066

> <Gold.Chemscore.Rot.Weighted>
4.0157

> <Gold.Chemscore.Internal.Correction.Weighted>
   9.000000E+99

> <Gold.Protein.RotatedTorsions>
[ 6907 6896 6895 6894 ] final  -83.37 input  -60.11 | X-H torsion
[ 7974 7965 7964 7962 ] final  109.60 input  175.53 | X-H torsion
[ 8008 7997 7996 7995 ] final   22.64 input   59.86 | X-H torsion
[ 10167 10162 10161 10158 ] final   66.29 input  -65.29 | X-H torsion
[ 10718 10713 10712 10709 ] final  142.28 input   66.30 | X-H torsion
[ 10763 10752 10751 10750 ] final   76.39 input  -60.55 | X-H torsion
[ 11005 11000 10999 10996 ] final -116.99 input  -57.11 | X-H torsion

> <Gold.Protein.ActiveResidues>
 VAL166  LYS551  ARG553  GLY616  TRP617  ASP618  TYR619  PRO620  LYS621  CYS622 
 ASP623  PHE694  ASN695  SER759  ASP760  ASP761  ALA762  ILE779  LEU786  VAL792 
 PHE793  MET794  SER795  GLU796  ALA797  LYS798  CYS799  TRP800  GLU811  SER814 

> <Gold.Protein.RotatedAtoms>
  150.6886  134.3522  159.4913 H   0  0  0  0  0  0  0  0  0  0  0  0  # atno 6907 bound_to 6896
  152.1362  134.9095  160.0565 H   0  0  0  0  0  0  0  0  0  0  0  0  # atno 6908 bound_to 6896
  152.0246  133.3877  159.4309 H   0  0  0  0  0  0  0  0  0  0  0  0  # atno 6909 bound_to 6896
  145.2657  139.2685  143.3993 H   0  0  0  0  0  0  0  0  0  0  0  0  # atno 7974 bound_to 7965
  154.9688  140.3087  155.4997 H   0  0  0  0  0  0  0  0  0  0  0  0  # atno 8008 bound_to 7997
  156.2968  140.2288  156.4718 H   0  0  0  0  0  0  0  0  0  0  0  0  # atno 8009 bound_to 7997
  154.7896  140.0440  157.1179 H   0  0  0  0  0  0  0  0  0  0  0  0  # atno 8010 bound_to 7997
  140.1020  144.4895  150.7031 H   0  0  0  0  0  0  0  0  0  0  0  0  # atno 10167 bound_to 10162
  157.3824  131.0994  151.0726 H   0  0  0  0  0  0  0  0  0  0  0  0  # atno 10718 bound_to 10713
  153.0722  135.4953  154.8328 H   0  0  0  0  0  0  0  0  0  0  0  0  # atno 10763 bound_to 10752
  154.7038  135.3006  154.9304 H   0  0  0  0  0  0  0  0  0  0  0  0  # atno 10764 bound_to 10752
  154.0019  135.6765  153.4812 H   0  0  0  0  0  0  0  0  0  0  0  0  # atno 10765 bound_to 10752
  141.0385  133.9872  157.3033 H   0  0  0  0  0  0  0  0  0  0  0  0  # atno 11005 bound_to 11000
  146.3262  140.3086  142.8625 LP  0  0  0  0  0  0  0  0  0  0  0  0  # atno 17320 bound_to 7965
  144.9379  140.8046  143.5649 LP  0  0  0  0  0  0  0  0  0  0  0  0  # atno 17321 bound_to 7965
  140.6973  143.2411  151.4966 LP  0  0  0  0  0  0  0  0  0  0  0  0  # atno 17342 bound_to 10162
  139.5666  144.2028  152.1774 LP  0  0  0  0  0  0  0  0  0  0  0  0  # atno 17343 bound_to 10162
  157.1789  130.6301  149.5665 LP  0  0  0  0  0  0  0  0  0  0  0  0  # atno 17370 bound_to 10713
  155.9779  130.4760  150.6621 LP  0  0  0  0  0  0  0  0  0  0  0  0  # atno 17371 bound_to 10713
  139.9258  135.0201  156.8229 LP  0  0  0  0  0  0  0  0  0  0  0  0  # atno 17394 bound_to 11000
  140.6278  133.9934  155.7648 LP  0  0  0  0  0  0  0  0  0  0  0  0  # atno 17395 bound_to 11000

$$$$
