#       Name:                AV-unprocessed.smi:910
#       Creating user name   scv26
#       Creation time:       Fri Mar 27 02:01:30 2020


#       File generated by GOLD software.
#

@<TRIPOS>MOLECULE
AV-unprocessed.smi:910
    53    54     1
SMALL
NO_CHARGES


@<TRIPOS>ATOM
      1 ****        -3.7169   4.7684  -1.6914 C.3            1 S1                 0.0000
      2 ****        -3.4607   3.3080  -1.8932 C.2            1 S1                 0.0000
      3 ****        -2.1778   2.7925  -2.0117 N.2            1 S1                 0.0000
      4 ****        -2.3577   1.4810  -2.1780 C.2            1 S1                 0.0000
      5 ****        -1.3447   0.5039  -2.3434 N.am           1 S1                 0.0000
      6 ****        -0.0153   0.6957  -2.3431 C.2            1 S1                 0.0000
      7 ****         0.5457   1.7853  -2.2242 O.2            1 S1                 0.0000
      8 ****         0.6417  -0.4648  -2.4785 N.am           1 S1                 0.0000
      9 ****         2.0917  -0.6227  -2.4313 C.3            1 S1                 0.0000
     10 ****         2.6289  -0.4773  -0.9997 C.3            1 S1                 0.0000
     11 ****         1.9747  -1.4286  -0.1728 O.3            1 S1                 0.0000
     12 ****         2.2484  -1.2940   1.2152 C.3            1 S1                 0.0000
     13 ****         3.5459  -2.0536   1.5584 C.3            1 S1                 0.0000
     14 ****         3.8105  -2.0604   3.0712 C.3            1 S1                 0.0000
     15 ****         2.6135  -2.6414   3.8374 C.3            1 S1                 0.0000
     16 ****         1.3216  -1.8794   3.5043 C.3            1 S1                 0.0000
     17 ****         1.0398  -1.8670   1.9884 C.3            1 S1                 0.0000
     18 ****        -0.2510  -1.0890   1.6808 C.3            1 S1                 0.0000
     19 ****        -3.6626   1.1001  -2.1773 O.3            1 S1                 0.0000
     20 ****        -4.3517   2.2697  -1.9964 C.2            1 S1                 0.0000
     21 ****        -5.8402   2.1994  -1.9466 C.3            1 S1                 0.0000
     22 ****        -4.5485   4.9317  -1.0058 H              1 S1                 0.0000
     23 ****        -3.9644   5.2560  -2.6344 H              1 S1                 0.0000
     24 ****        -2.8443   5.2734  -1.2758 H              1 S1                 0.0000
     25 ****        -1.6671  -0.4460  -2.4518 H              1 S1                 0.0000
     26 ****         0.0988  -1.3106  -2.5728 H              1 S1                 0.0000
     27 ****         2.3401  -1.6103  -2.8205 H              1 S1                 0.0000
     28 ****         2.5684   0.1031  -3.0917 H              1 S1                 0.0000
     29 ****         3.7067  -0.6403  -0.9862 H              1 S1                 0.0000
     30 ****         2.4492   0.5355  -0.6358 H              1 S1                 0.0000
     31 ****         2.3574  -0.2416   1.4847 H              1 S1                 0.0000
     32 ****         3.4738  -3.0807   1.1987 H              1 S1                 0.0000
     33 ****         4.3964  -1.6060   1.0444 H              1 S1                 0.0000
     34 ****         4.7084  -2.6393   3.2892 H              1 S1                 0.0000
     35 ****         4.0060  -1.0434   3.4134 H              1 S1                 0.0000
     36 ****         2.4924  -3.6955   3.5844 H              1 S1                 0.0000
     37 ****         2.8037  -2.6003   4.9103 H              1 S1                 0.0000
     38 ****         0.4845  -2.3334   4.0357 H              1 S1                 0.0000
     39 ****         1.4007  -0.8553   3.8727 H              1 S1                 0.0000
     40 ****         0.8895  -2.8991   1.6677 H              1 S1                 0.0000
     41 ****        -0.1591  -0.0402   1.9649 H              1 S1                 0.0000
     42 ****        -1.1000  -1.5072   2.2220 H              1 S1                 0.0000
     43 ****        -0.4936  -1.1237   0.6183 H              1 S1                 0.0000
     44 ****        -6.2856   3.0275  -2.4981 H              1 S1                 0.0000
     45 ****        -6.1936   2.2499  -0.9167 H              1 S1                 0.0000
     46 ****        -6.2035   1.2692  -2.3839 H              1 S1                 0.0000
     47 ****        -1.3122   3.2922  -1.9796 LP             1 S1                 0.0000
     48 ****         0.0027   2.6182  -2.1170 LP             1 S1                 0.0000
     49 ****         1.5443   1.8374  -2.2348 LP             1 S1                 0.0000
     50 ****         2.2627  -2.3420  -0.4603 LP             1 S1                 0.0000
     51 ****         0.9884  -1.3324  -0.3069 LP             1 S1                 0.0000
     52 ****        -3.8455   0.4611  -1.4302 LP             1 S1                 0.0000
     53 ****        -3.9086   0.6742  -3.0480 LP             1 S1                 0.0000
@<TRIPOS>BOND
    1    1    2 1     
    2    1   22 1     
    3    1   23 1     
    4    1   24 1     
    5    2   20 2     
    6    2    3 1     
    7    3    4 2     
    8    4    5 1     
    9    4   19 1     
   10    5    6 am    
   11    5   25 1     
   12    6    7 2     
   13    6    8 am    
   14    8    9 1     
   15    8   26 1     
   16    9   10 1     
   17    9   27 1     
   18    9   28 1     
   19   10   11 1     
   20   10   29 1     
   21   10   30 1     
   22   11   12 1     
   23   12   17 1     
   24   12   13 1     
   25   12   31 1     
   26   13   14 1     
   27   13   32 1     
   28   13   33 1     
   29   14   15 1     
   30   14   34 1     
   31   14   35 1     
   32   15   16 1     
   33   15   36 1     
   34   15   37 1     
   35   16   17 1     
   36   16   38 1     
   37   16   39 1     
   38   17   18 1     
   39   17   40 1     
   40   18   41 1     
   41   18   42 1     
   42   18   43 1     
   43   19   20 1     
   44   20   21 1     
   45   21   44 1     
   46   21   45 1     
   47   21   46 1     
   48    3   47 1     
   49    7   48 1     
   50    7   49 1     
   51   11   50 1     
   52   11   51 1     
   53   19   52 1     
   54   19   53 1     
@<TRIPOS>SUBSTRUCTURE
      1 S1             1
@<TRIPOS>SET
LONE_PAIRS      STATIC     ATOMS    <user>   **** ""
7 47 48 49 50 51 52 53
DONOR_HYDROGENS      STATIC     ATOMS    <user>   **** ""
2 25 26
ATOM$BLUE        STATIC     ATOMS    COLORGROUP SYSTEM
7 47 48 49 50 51 52 53
ATOM$RED        STATIC     ATOMS    COLORGROUP SYSTEM
2 25 26
