#       Name:                AV-unprocessed.smi:1509
#       Creating user name   scv26
#       Creation time:       Fri Mar 27 06:22:01 2020


#       File generated by GOLD software.
#

@<TRIPOS>MOLECULE
AV-unprocessed.smi:1509
    47    48     1
SMALL
NO_CHARGES


@<TRIPOS>ATOM
      1 ****        -4.1226  -0.0749  -0.2585 C.3            1 S1                 0.0000
      2 ****        -3.8175   1.0500   0.7463 C.3            1 S1                 0.0000
      3 ****        -4.2593   2.4366   0.2431 C.3            1 S1                 0.0000
      4 ****        -3.3164   2.9581  -0.8501 C.3            1 S1                 0.0000
      5 ****        -1.8545   2.9315  -0.3767 C.3            1 S1                 0.0000
      6 ****        -1.4572   1.5692   0.0639 N.4            1 S1                 1.0000
      7 ****        -0.0095   1.4833   0.3833 C.3            1 S1                 0.0000
      8 ****         0.5309   0.0461   0.2883 C.3            1 S1                 0.0000
      9 ****         2.0527  -0.0182   0.5019 C.3            1 S1                 0.0000
     10 ****         2.5546  -1.3849   0.4162 N.am           1 S1                 0.0000
     11 ****         2.7787  -2.0512  -0.7275 C.2            1 S1                 0.0000
     12 ****         2.5603  -1.5760  -1.8416 O.2            1 S1                 0.0000
     13 ****         3.3366  -3.4686  -0.5972 C.3            1 S1                 0.0000
     14 ****         4.7869  -3.4591  -0.6205 N.pl3          1 S1                 0.0000
     15 ****         5.6788  -3.2669   0.3536 C.2            1 S1                 0.0000
     16 ****         6.9211  -3.3335  -0.1003 N.2            1 S1                 0.0000
     17 ****         6.7491  -3.5843  -1.4515 N.2            1 S1                 0.0000
     18 ****         5.4849  -3.6600  -1.7660 N.2            1 S1                 0.0000
     19 ****        -2.3317   1.0732   1.1617 C.3            1 S1                 0.0000
     20 ****        -3.5595   0.0405  -1.1846 H              1 S1                 0.0000
     21 ****        -5.1822  -0.0938  -0.5148 H              1 S1                 0.0000
     22 ****        -3.8709  -1.0503   0.1591 H              1 S1                 0.0000
     23 ****        -4.4029   0.8289   1.6398 H              1 S1                 0.0000
     24 ****        -5.2852   2.4027  -0.1249 H              1 S1                 0.0000
     25 ****        -4.2578   3.1386   1.0781 H              1 S1                 0.0000
     26 ****        -3.4223   2.3560  -1.7531 H              1 S1                 0.0000
     27 ****        -3.5976   3.9745  -1.1270 H              1 S1                 0.0000
     28 ****        -1.2119   3.2589  -1.1950 H              1 S1                 0.0000
     29 ****        -1.7094   3.6374   0.4427 H              1 S1                 0.0000
     30 ****         0.5482   2.0961  -0.3267 H              1 S1                 0.0000
     31 ****         0.1805   1.9070   1.3706 H              1 S1                 0.0000
     32 ****         0.0458  -0.5939   1.0248 H              1 S1                 0.0000
     33 ****         0.2808  -0.3647  -0.6907 H              1 S1                 0.0000
     34 ****         2.5695   0.6122  -0.2239 H              1 S1                 0.0000
     35 ****         2.3062   0.3730   1.4875 H              1 S1                 0.0000
     36 ****         2.7614  -1.8515   1.2878 H              1 S1                 0.0000
     37 ****         3.0019  -3.9269   0.3343 H              1 S1                 0.0000
     38 ****         2.9659  -4.0910  -1.4132 H              1 S1                 0.0000
     39 ****         5.4204  -3.0777   1.3853 H              1 S1                 0.0000
     40 ****        -2.2041   1.7160   2.0344 H              1 S1                 0.0000
     41 ****        -2.0318   0.0726   1.4710 H              1 S1                 0.0000
     42 ****        -1.6100   0.9641  -0.7303 H              1 S1                 0.0000
     43 ****         2.1973  -0.6481  -1.9270 LP             1 S1                 0.0000
     44 ****         2.7458  -2.1177  -2.6614 LP             1 S1                 0.0000
     45 ****         7.7754  -3.2283   0.4087 LP             1 S1                 0.0000
     46 ****         7.4991  -3.6936  -2.1038 LP             1 S1                 0.0000
     47 ****         5.1047  -3.8325  -2.6747 LP             1 S1                 0.0000
@<TRIPOS>BOND
    1    1    2 1     
    2    1   20 1     
    3    1   21 1     
    4    1   22 1     
    5    2   19 1     
    6    2    3 1     
    7    2   23 1     
    8    3    4 1     
    9    3   24 1     
   10    3   25 1     
   11    4    5 1     
   12    4   26 1     
   13    4   27 1     
   14    5    6 1     
   15    5   28 1     
   16    5   29 1     
   17    6    7 1     
   18    6   19 1     
   19    6   42 1     
   20    7    8 1     
   21    7   30 1     
   22    7   31 1     
   23    8    9 1     
   24    8   32 1     
   25    8   33 1     
   26    9   10 1     
   27    9   34 1     
   28    9   35 1     
   29   10   11 am    
   30   10   36 1     
   31   11   12 2     
   32   11   13 1     
   33   13   14 1     
   34   13   37 1     
   35   13   38 1     
   36   14   18 1     
   37   14   15 1     
   38   15   16 2     
   39   15   39 1     
   40   16   17 1     
   41   17   18 2     
   42   19   40 1     
   43   19   41 1     
   44   12   43 1     
   45   12   44 1     
   46   16   45 1     
   47   17   46 1     
   48   18   47 1     
@<TRIPOS>SUBSTRUCTURE
      1 S1             1
@<TRIPOS>SET
LONE_PAIRS      STATIC     ATOMS    <user>   **** ""
5 43 44 45 46 47
DONOR_HYDROGENS      STATIC     ATOMS    <user>   **** ""
2 42 36
ATOM$BLUE        STATIC     ATOMS    COLORGROUP SYSTEM
5 43 44 45 46 47
ATOM$RED        STATIC     ATOMS    COLORGROUP SYSTEM
2 42 36
