AV-unprocessed.smi:173|AV-procd|sdf|1424|dock7
  -GOLD-   2262019193D 1   1.00000     0.00000
 Structure written by MMmdl.
 60 64  0  0  0  0  0  0  0  0  1 V2000
  148.0249  132.4645  152.3395 O   0  0  0  0  0  0  0  0  0  0  0  0
  146.7421  131.9796  152.6936 C   0  0  0  0  0  0  0  0  0  0  0  0
  146.9330  131.2779  154.0625 C   0  0  0  0  0  0  0  0  0  0  0  0
  147.0933  132.1863  155.1870 N   0  0  0  0  0  0  0  0  0  0  0  0
  146.1214  132.9856  155.7453 C   0  0  0  0  0  0  0  0  0  0  0  0
  146.5119  133.7145  156.7542 N   0  0  0  0  0  0  0  0  0  0  0  0
  147.8595  133.4048  156.8959 C   0  0  0  0  0  0  0  0  0  0  0  0
  148.8892  133.8182  157.7885 C   0  0  0  0  0  0  0  0  0  0  0  0
  148.7267  134.7073  158.7966 N   0  0  0  0  0  0  0  0  0  0  0  0
  148.6393  136.0980  158.3488 C   0  0  0  0  0  0  0  0  0  0  0  0
  150.0124  136.7769  158.2170 C   0  0  1  0  0  0  0  0  0  0  0  0
  149.9292  138.2991  158.1637 C   0  0  0  0  0  0  0  0  0  0  0  0
  151.3355  138.7177  158.5457 C   0  0  0  0  0  0  0  0  0  0  0  0
  151.8243  137.5639  159.4256 C   0  0  0  0  0  0  0  0  0  0  0  0
  150.7996  136.5762  159.3822 O   0  0  0  0  0  0  0  0  0  0  0  0
  147.9091  134.2851  159.9444 C   0  0  0  0  0  0  0  0  0  0  0  0
  147.8768  135.2261  161.1565 C   0  0  0  0  0  0  0  0  0  0  0  0
  147.2329  134.3747  162.2538 C   0  0  0  0  0  0  0  0  0  0  0  0
  147.5925  132.9154  161.9248 C   0  0  0  0  0  0  0  0  0  0  0  0
  148.2974  132.9368  160.5617 C   0  0  0  0  0  0  0  0  0  0  0  0
  150.1300  133.2994  157.6085 N   0  0  0  0  0  0  0  0  0  0  0  0
  150.3520  132.4178  156.6293 C   0  0  0  0  0  0  0  0  0  0  0  0
  149.4909  131.9307  155.7334 N   0  0  0  0  0  0  0  0  0  0  0  0
  148.2439  132.4558  155.9075 C   0  0  0  0  0  0  0  0  0  0  0  0
  145.7725  133.1798  152.7632 C   0  0  0  0  0  0  0  0  0  0  0  0
  145.5260  133.8002  151.3759 C   0  0  0  0  0  0  0  0  0  0  0  0
  145.0496  132.8068  150.4757 O   0  0  0  0  0  0  0  0  0  0  0  0
  145.9899  131.7605  150.2621 C   0  0  0  0  0  0  0  0  0  0  0  0
  146.2610  131.0198  151.5838 C   0  0  0  0  0  0  0  0  0  0  0  0
  148.3412  131.9658  151.6016 H   0  0  0  0  0  0  0  0  0  0  0  0
  146.0834  130.6266  154.2740 H   0  0  0  0  0  0  0  0  0  0  0  0
  147.8099  130.6290  154.0306 H   0  0  0  0  0  0  0  0  0  0  0  0
  145.1036  133.0038  155.3833 H   0  0  0  0  0  0  0  0  0  0  0  0
  148.1574  136.1167  157.3695 H   0  0  0  0  0  0  0  0  0  0  0  0
  147.9984  136.6725  159.0181 H   0  0  0  0  0  0  0  0  0  0  0  0
  150.5481  136.4082  157.3398 H   0  0  0  0  0  0  0  0  0  0  0  0
  149.6227  138.6759  157.1876 H   0  0  0  0  0  0  0  0  0  0  0  0
  149.2198  138.6647  158.9077 H   0  0  0  0  0  0  0  0  0  0  0  0
  151.9601  138.7979  157.6552 H   0  0  0  0  0  0  0  0  0  0  0  0
  151.3567  139.6788  159.0600 H   0  0  0  0  0  0  0  0  0  0  0  0
  152.7574  137.1507  159.0413 H   0  0  0  0  0  0  0  0  0  0  0  0
  151.9901  137.8777  160.4563 H   0  0  0  0  0  0  0  0  0  0  0  0
  146.8803  134.2075  159.5937 H   0  0  0  0  0  0  0  0  0  0  0  0
  148.8827  135.4957  161.4805 H   0  0  0  0  0  0  0  0  0  0  0  0
  147.3271  136.1473  160.9617 H   0  0  0  0  0  0  0  0  0  0  0  0
  147.5707  134.6699  163.2476 H   0  0  0  0  0  0  0  0  0  0  0  0
  146.1496  134.4989  162.2271 H   0  0  0  0  0  0  0  0  0  0  0  0
  148.2374  132.4784  162.6881 H   0  0  0  0  0  0  0  0  0  0  0  0
  146.6865  132.3098  161.8789 H   0  0  0  0  0  0  0  0  0  0  0  0
  148.0144  132.0912  159.9340 H   0  0  0  0  0  0  0  0  0  0  0  0
  149.3738  132.8853  160.7218 H   0  0  0  0  0  0  0  0  0  0  0  0
  151.3641  132.0485  156.5544 H   0  0  0  0  0  0  0  0  0  0  0  0
  144.8090  132.8566  153.1564 H   0  0  0  0  0  0  0  0  0  0  0  0
  146.1478  133.9374  153.4524 H   0  0  0  0  0  0  0  0  0  0  0  0
  144.7793  134.5910  151.4502 H   0  0  0  0  0  0  0  0  0  0  0  0
  146.4330  134.2603  150.9810 H   0  0  0  0  0  0  0  0  0  0  0  0
  145.5814  131.0685  149.5255 H   0  0  0  0  0  0  0  0  0  0  0  0
  146.9109  132.1635  149.8384 H   0  0  0  0  0  0  0  0  0  0  0  0
  146.9858  130.2202  151.4259 H   0  0  0  0  0  0  0  0  0  0  0  0
  145.3322  130.5374  151.8877 H   0  0  0  0  0  0  0  0  0  0  0  0
  1  2  1  0  0  0  0
  1 30  1  0  0  0  0
  2 29  1  0  0  0  0
  2  3  1  0  0  0  0
  2 25  1  0  0  0  0
  3  4  1  0  0  0  0
  3 31  1  0  0  0  0
  3 32  1  0  0  0  0
  4 24  1  0  0  0  0
  4  5  1  0  0  0  0
  5  6  2  0  0  0  0
  5 33  1  0  0  0  0
  6  7  1  0  0  0  0
  7 24  2  0  0  0  0
  7  8  1  0  0  0  0
  8  9  1  0  0  0  0
  8 21  2  0  0  0  0
  9 10  1  0  0  0  0
  9 16  1  0  0  0  0
 10 11  1  0  0  0  0
 10 34  1  0  0  0  0
 10 35  1  0  0  0  0
 11 15  1  0  0  0  0
 11 12  1  0  0  0  0
 11 36  1  0  0  0  0
 12 13  1  0  0  0  0
 12 37  1  0  0  0  0
 12 38  1  0  0  0  0
 13 14  1  0  0  0  0
 13 39  1  0  0  0  0
 13 40  1  0  0  0  0
 14 15  1  0  0  0  0
 14 41  1  0  0  0  0
 14 42  1  0  0  0  0
 16 20  1  0  0  0  0
 16 17  1  0  0  0  0
 16 43  1  0  0  0  0
 17 18  1  0  0  0  0
 17 44  1  0  0  0  0
 17 45  1  0  0  0  0
 18 19  1  0  0  0  0
 18 46  1  0  0  0  0
 18 47  1  0  0  0  0
 19 20  1  0  0  0  0
 19 48  1  0  0  0  0
 19 49  1  0  0  0  0
 20 50  1  0  0  0  0
 20 51  1  0  0  0  0
 21 22  1  0  0  0  0
 22 23  2  0  0  0  0
 22 52  1  0  0  0  0
 23 24  1  0  0  0  0
 25 26  1  0  0  0  0
 25 53  1  0  0  0  0
 25 54  1  0  0  0  0
 26 27  1  0  0  0  0
 26 55  1  0  0  0  0
 26 56  1  0  0  0  0
 27 28  1  0  0  0  0
 28 29  1  0  0  0  0
 28 57  1  0  0  0  0
 28 58  1  0  0  0  0
 29 59  1  0  0  0  0
 29 60  1  0  0  0  0
M  END
> <s_m_source_file>
AV-unprocessed.smi

> <i_m_source_file_index>
173

> <i_lp_mmshare_version>
43012

> <i_f3d_flags>
0

> <s_epik_input>
W0NIMl0xW0NIMl1PW0NIMl1bQ0gyXUMxKFtPSF0pW0NIMl1uKFtjSF1uMiljKGMyMyluW2NIXW5jM04oW0NIMl1bQ0BASF00W0NIMl1bQ0gyXVtDSDJdTzQpW0NIXTVbQ0gyXVtDSDJdW0NIMl1bQ0gyXTU=

> <s_epik_cmdline>
J2VwaWtfcHl0aG9uJywgJy1waCcsICc3LjAnLCAnLXRuJywgJzgnLCAnLW1hJywgJzIwMCcsICctbWV0YWxfYmluZGluZycsICctaW1hZScsICc8aW5maWxlLm1hZT4nLCAnLW9tYWUnLCAnPG91dGZpbGUubWFlPic=

> <r_lp_tautomer_probability>
1

> <r_epik_Ionization_Penalty>
0.0053129

> <r_epik_Ionization_Penalty_Charging>
0

> <r_epik_Ionization_Penalty_Neutral>
0.0053129

> <r_epik_State_Penalty>
0.00367355

> <r_epik_Charging_Adjusted_Penalty>
0.00367355

> <i_epik_Tot_Q>
0

> <i_epik_Tot_abs_Q>
0

> <r_epik_Metal_State_Penalty>
-0

> <b_epik_Metal_Only>
0

> <s_lp_Force_Field>
OPLS_2005

> <r_lp_Energy>
59.0129

> <b_lp_Chiralities_Consistent>
1

> <s_lp_Variant>
AV-unprocessed.smi:173-2

> <Gold.Version>
5.8.1

> <Gold.Id.Protein>
6NUR|6NUR_protein|mol2

> <Gold.PLP.Fitness>
45.8823

> <Gold.PLP.PLP>
-35.7187

> <Gold.PLP.part.hbond>
-3.0000

> <Gold.PLP.part.metal>
0.0000

> <Gold.PLP.part.buried>
-7.7235

> <Gold.PLP.part.nonpolar>
-25.5240

> <Gold.PLP.part.repulsive>
0.1636

> <Gold.PLP.ligand.clash>
0.0000

> <Gold.PLP.ligand.torsion>
1.3281

> <Gold.PLP.Chemscore.Hbond>
2.9833

> <Gold.PLP.Chemscore.CHOScore>
0.9085

> <Gold.PLP.Chemscore.Metal>
0.0000

> <Gold.Chemscore.Hbonds>
donor molecule, donor type, donor heavy atom, donor atom, acceptor molecule, acceptor atom, score
      L1  H     1    30       P1 10747  1.00
      P1  H  6896  6907       L1    21  1.00
      P1  H  6896  6908       L1    15  1.00
      L1  C     5    33       P1 10957  0.38

> <Gold.PLP.Chemscore.Internal.Correction>
1.1443

> <Gold.Rescore>
     Score         DG    S(hbond)    S(metal)    S(lipo)     H(rot)  DE(clash)    DE(int)     intcor
     16.49     -17.86       2.60        0.00      88.27       2.59       0.00       1.36       ----

> <Gold.Chemscore.Fitness>
16.4889

> <Gold.Chemscore.DG>
-17.8555

> <Gold.Chemscore.ZeroCoef>
-5.4800

> <Gold.Chemscore.Hbond>
2.5996

> <Gold.Chemscore.Metal>
0.0000

> <Gold.Chemscore.Lipo>
88.2682

> <Gold.Chemscore.Internal_Hbond>
0.0000

> <Gold.Chemscore.DEClash>
0.0021

> <Gold.Chemscore.DEInternal>
1.3645

> <Gold.Chemscore.Rot>
2.5916

> <Gold.Chemscore.Internal.Correction>
   9.000000E+99

> <Gold.Chemscore.Hbonds>
donor molecule, donor type, donor heavy atom, donor atom, acceptor molecule, acceptor atom, score
      L1  H     1    30       P1 10747  1.00
      P1  H  6896  6907       L1    21  0.54
      P1  H  6896  6908       L1    15  0.88

> <Gold.Chemscore.Hbond.Weighted>
-8.6827

> <Gold.Chemscore.Metal.Weighted>
-0.0000

> <Gold.Chemscore.Lipo.Weighted>
-10.3274

> <Gold.Chemscore.Internal_Hbond.Weighted>
0.0000

> <Gold.Chemscore.DEClash.Weighted>
0.0021

> <Gold.Chemscore.DEInternal.Weighted>
1.3645

> <Gold.Chemscore.Rot.Weighted>
6.6346

> <Gold.Chemscore.Internal.Correction.Weighted>
   9.000000E+99

> <Gold.Protein.RotatedTorsions>
[ 6907 6896 6895 6894 ] final -140.07 input  -60.11 | X-H torsion
[ 7974 7965 7964 7962 ] final  176.83 input  175.53 | X-H torsion
[ 8008 7997 7996 7995 ] final  130.32 input   59.86 | X-H torsion
[ 10167 10162 10161 10158 ] final    3.58 input  -65.29 | X-H torsion
[ 10718 10713 10712 10709 ] final   92.94 input   66.30 | X-H torsion
[ 10763 10752 10751 10750 ] final -178.02 input  -60.55 | X-H torsion
[ 11005 11000 10999 10996 ] final   38.30 input  -57.11 | X-H torsion

> <Gold.Protein.ActiveResidues>
 VAL166  LYS551  ARG553  GLY616  TRP617  ASP618  TYR619  PRO620  LYS621  CYS622 
 ASP623  PHE694  ASN695  SER759  ASP760  ASP761  ALA762  ILE779  LEU786  VAL792 
 PHE793  MET794  SER795  GLU796  ALA797  LYS798  CYS799  TRP800  GLU811  SER814 

> <Gold.Protein.RotatedAtoms>
  151.0560  133.5584  159.2638 H   0  0  0  0  0  0  0  0  0  0  0  0  # atno 6907 bound_to 6896
  151.2577  135.0643  159.9096 H   0  0  0  0  0  0  0  0  0  0  0  0  # atno 6908 bound_to 6896
  152.5390  134.0310  159.8078 H   0  0  0  0  0  0  0  0  0  0  0  0  # atno 6909 bound_to 6896
  144.7178  140.0156  143.6440 H   0  0  0  0  0  0  0  0  0  0  0  0  # atno 7974 bound_to 7965
  156.2952  140.2599  156.2743 H   0  0  0  0  0  0  0  0  0  0  0  0  # atno 8008 bound_to 7997
  154.9664  140.0391  157.2233 H   0  0  0  0  0  0  0  0  0  0  0  0  # atno 8009 bound_to 7997
  154.7899  140.2810  155.6004 H   0  0  0  0  0  0  0  0  0  0  0  0  # atno 8010 bound_to 7997
  140.6578  143.7381  150.7685 H   0  0  0  0  0  0  0  0  0  0  0  0  # atno 10167 bound_to 10162
  157.6957  131.0461  150.3958 H   0  0  0  0  0  0  0  0  0  0  0  0  # atno 10718 bound_to 10713
  154.5529  135.2814  155.0991 H   0  0  0  0  0  0  0  0  0  0  0  0  # atno 10763 bound_to 10752
  154.2430  135.6353  153.5217 H   0  0  0  0  0  0  0  0  0  0  0  0  # atno 10764 bound_to 10752
  153.0008  135.5564  154.6101 H   0  0  0  0  0  0  0  0  0  0  0  0  # atno 10765 bound_to 10752
  140.2140  134.3720  155.8035 H   0  0  0  0  0  0  0  0  0  0  0  0  # atno 11005 bound_to 11000
  146.0223  139.3262  143.0805 LP  0  0  0  0  0  0  0  0  0  0  0  0  # atno 17320 bound_to 7965
  145.8553  140.9506  143.0728 LP  0  0  0  0  0  0  0  0  0  0  0  0  # atno 17321 bound_to 7965
  140.1045  143.4757  152.2406 LP  0  0  0  0  0  0  0  0  0  0  0  0  # atno 17342 bound_to 10162
  139.5805  144.7508  151.3653 LP  0  0  0  0  0  0  0  0  0  0  0  0  # atno 17343 bound_to 10162
  156.4356  130.3981  149.6731 LP  0  0  0  0  0  0  0  0  0  0  0  0  # atno 17370 bound_to 10713
  156.3932  130.7638  151.2640 LP  0  0  0  0  0  0  0  0  0  0  0  0  # atno 17371 bound_to 10713
  141.2225  133.7158  156.8466 LP  0  0  0  0  0  0  0  0  0  0  0  0  # atno 17394 bound_to 11000
  140.1920  134.8959  157.3071 LP  0  0  0  0  0  0  0  0  0  0  0  0  # atno 17395 bound_to 11000

$$$$
