#       Name:                AV-unprocessed.smi:3175
#       Creating user name   scv26
#       Creation time:       Fri Mar 27 17:56:23 2020


#       File generated by GOLD software.
#

@<TRIPOS>MOLECULE
AV-unprocessed.smi:3175
    40    41     1
SMALL
NO_CHARGES


@<TRIPOS>ATOM
      1 ****         0.6318   1.8675   0.2967 O.2            1 S1                 0.0000
      2 ****         0.2828   0.7674  -0.1311 C.2            1 S1                 0.0000
      3 ****        -1.2040   0.4390  -0.2988 C.3            1 S1                 0.0000
      4 ****        -1.9938   1.5475  -1.0248 C.3            1 S1                 0.0000
      5 ****        -3.4870   1.2427  -1.1581 C.3            1 S1                 0.0000
      6 ****        -3.9791   2.1881  -2.2573 C.3            1 S1                 0.0000
      7 ****        -2.7625   2.4718  -3.1513 C.3            1 S1                 0.0000
      8 ****        -1.5606   1.8003  -2.4746 C.3            1 S1                 0.0000
      9 ****         1.1499  -0.2024  -0.4594 N.am           1 S1                 0.0000
     10 ****         2.6035  -0.0932  -0.3747 C.3            1 S1                 0.0000
     11 ****         3.1301  -0.1538   1.0730 C.3            1 S1                 0.0000
     12 ****         2.6188  -1.3510   1.8556 C.ar           1 S1                 0.0000
     13 ****         3.1835  -2.6305   1.6598 C.ar           1 S1                 0.0000
     14 ****         2.6857  -3.7261   2.3956 C.ar           1 S1                 0.0000
     15 ****         1.6340  -3.5172   3.3112 C.ar           1 S1                 0.0000
     16 ****         1.1188  -2.2785   3.4724 N.pl3          1 S1                 1.0000
     17 ****         1.5684  -1.2039   2.7880 C.ar           1 S1                 0.0000
     18 ****        -1.3156  -0.5061  -0.8328 H              1 S1                 0.0000
     19 ****        -1.6254   0.2816   0.6945 H              1 S1                 0.0000
     20 ****        -1.8964   2.4830  -0.4706 H              1 S1                 0.0000
     21 ****        -3.6306   0.2092  -1.4769 H              1 S1                 0.0000
     22 ****        -4.0274   1.3780  -0.2207 H              1 S1                 0.0000
     23 ****        -4.8111   1.7594  -2.8167 H              1 S1                 0.0000
     24 ****        -4.3303   3.1202  -1.8125 H              1 S1                 0.0000
     25 ****        -2.9065   2.0847  -4.1605 H              1 S1                 0.0000
     26 ****        -2.6038   3.5475  -3.2354 H              1 S1                 0.0000
     27 ****        -0.6578   2.4086  -2.5403 H              1 S1                 0.0000
     28 ****        -1.3527   0.8509  -2.9705 H              1 S1                 0.0000
     29 ****         0.7768  -1.0744  -0.8060 H              1 S1                 0.0000
     30 ****         3.0252  -0.9183  -0.9491 H              1 S1                 0.0000
     31 ****         2.9397   0.8231  -0.8626 H              1 S1                 0.0000
     32 ****         4.2205  -0.1778   1.0645 H              1 S1                 0.0000
     33 ****         2.8565   0.7586   1.6044 H              1 S1                 0.0000
     34 ****         3.9879  -2.7722   0.9525 H              1 S1                 0.0000
     35 ****         3.1049  -4.7122   2.2592 H              1 S1                 0.0000
     36 ****         1.1930  -4.2972   3.9146 H              1 S1                 0.0000
     37 ****         1.0739  -0.2671   3.0013 H              1 S1                 0.0000
     38 ****         0.3579  -2.1487   4.1397 H              1 S1                 0.0000
     39 ****        -0.0566   2.5520   0.5367 LP             1 S1                 0.0000
     40 ****         1.6038   2.0768   0.4043 LP             1 S1                 0.0000
@<TRIPOS>BOND
    1    1    2 2     
    2    2    3 1     
    3    2    9 am    
    4    3    4 1     
    5    3   18 1     
    6    3   19 1     
    7    4    8 1     
    8    4    5 1     
    9    4   20 1     
   10    5    6 1     
   11    5   21 1     
   12    5   22 1     
   13    6    7 1     
   14    6   23 1     
   15    6   24 1     
   16    7    8 1     
   17    7   25 1     
   18    7   26 1     
   19    8   27 1     
   20    8   28 1     
   21    9   10 1     
   22    9   29 1     
   23   10   11 1     
   24   10   30 1     
   25   10   31 1     
   26   11   12 1     
   27   11   32 1     
   28   11   33 1     
   29   12   17 ar    
   30   12   13 ar    
   31   13   14 ar    
   32   13   34 1     
   33   14   15 ar    
   34   14   35 1     
   35   15   16 ar    
   36   15   36 1     
   37   16   17 ar    
   38   16   38 1     
   39   17   37 1     
   40    1   39 1     
   41    1   40 1     
@<TRIPOS>SUBSTRUCTURE
      1 S1             1
@<TRIPOS>SET
LONE_PAIRS      STATIC     ATOMS    <user>   **** ""
2 39 40
DONOR_HYDROGENS      STATIC     ATOMS    <user>   **** ""
2 29 38
ATOM$BLUE        STATIC     ATOMS    COLORGROUP SYSTEM
2 39 40
ATOM$RED        STATIC     ATOMS    COLORGROUP SYSTEM
2 29 38
