AV-unprocessed.smi:1529|AV-procd|sdf|6153|dock1
  -GOLD-   22720 6303D 1   1.00000     0.00000
 Structure written by MMmdl.
 50 51  0  0  0  0  0  0  0  0  1 V2000
  146.2494  133.4983  150.8822 C   0  0  0  0  0  0  0  0  0  0  0  0
  146.8716  133.4299  152.2724 C   0  0  0  0  0  0  0  0  0  0  0  0
  146.2885  133.9261  153.2358 O   0  0  0  0  0  0  0  0  0  0  0  0
  148.0592  132.8123  152.3605 N   0  0  0  0  0  0  0  0  0  0  0  0
  148.8244  132.6371  153.5898 C   0  0  0  0  0  0  0  0  0  0  0  0
  149.3303  133.9799  154.1418 C   0  0  0  0  0  0  0  0  0  0  0  0
  150.0690  133.8186  155.4802 C   0  0  0  0  0  0  0  0  0  0  0  0
  150.4605  135.1076  156.0389 N   0  0  0  0  0  0  0  0  0  0  0  0
  150.1097  135.5598  157.2541 C   0  0  0  0  0  0  0  0  0  0  0  0
  149.4224  134.9156  158.0466 O   0  0  0  0  0  0  0  0  0  0  0  0
  150.6703  136.8995  157.6356 C   0  0  0  0  0  0  0  0  0  0  0  0
  151.5915  137.5830  156.8122 C   0  0  0  0  0  0  0  0  0  0  0  0
  152.0661  138.8459  157.2153 C   0  0  0  0  0  0  0  0  0  0  0  0
  151.6044  139.4017  158.4317 C   0  0  0  0  0  0  0  0  0  0  0  0
  152.0735  140.6628  158.8578 N   0  0  0  0  0  0  0  0  0  0  0  0
  151.7689  141.7808  157.9707 C   0  0  0  0  0  0  0  0  0  0  0  0
  151.9973  143.1184  158.6965 C   0  0  2  0  0  0  0  0  0  0  0  0
  151.8154  144.3153  157.7571 C   0  0  0  0  0  0  0  0  0  0  0  0
  153.3263  143.1615  159.2148 O   0  0  0  0  0  0  0  0  0  0  0  0
  153.6532  142.0988  160.1130 C   0  0  1  0  0  0  0  0  0  0  0  0
  152.9386  142.2423  161.4687 C   0  0  0  0  0  0  0  0  0  0  0  0
  153.4145  140.7360  159.4342 C   0  0  0  0  0  0  0  0  0  0  0  0
  150.7042  138.7528  159.2102 N   0  0  0  0  0  0  0  0  0  0  0  0
  150.2515  137.5427  158.8197 C   0  0  0  0  0  0  0  0  0  0  0  0
  146.9065  134.0353  150.1975 H   0  0  0  0  0  0  0  0  0  0  0  0
  145.2902  134.0162  150.9110 H   0  0  0  0  0  0  0  0  0  0  0  0
  146.0844  132.4949  150.4886 H   0  0  0  0  0  0  0  0  0  0  0  0
  148.4597  132.4323  151.5149 H   0  0  0  0  0  0  0  0  0  0  0  0
  148.2187  132.1209  154.3365 H   0  0  0  0  0  0  0  0  0  0  0  0
  149.6695  131.9843  153.3704 H   0  0  0  0  0  0  0  0  0  0  0  0
  149.9950  134.4463  153.4134 H   0  0  0  0  0  0  0  0  0  0  0  0
  148.4874  134.6605  154.2705 H   0  0  0  0  0  0  0  0  0  0  0  0
  149.4510  133.2726  156.1951 H   0  0  0  0  0  0  0  0  0  0  0  0
  150.9727  133.2261  155.3360 H   0  0  0  0  0  0  0  0  0  0  0  0
  151.0487  135.6939  155.4650 H   0  0  0  0  0  0  0  0  0  0  0  0
  151.9329  137.1583  155.8792 H   0  0  0  0  0  0  0  0  0  0  0  0
  152.7617  139.3778  156.5836 H   0  0  0  0  0  0  0  0  0  0  0  0
  152.4139  141.7145  157.0933 H   0  0  0  0  0  0  0  0  0  0  0  0
  150.7419  141.7421  157.6101 H   0  0  0  0  0  0  0  0  0  0  0  0
  151.2807  143.2193  159.5117 H   0  0  0  0  0  0  0  0  0  0  0  0
  150.8082  144.3381  157.3406 H   0  0  0  0  0  0  0  0  0  0  0  0
  152.5207  144.2761  156.9265 H   0  0  0  0  0  0  0  0  0  0  0  0
  151.9764  145.2541  158.2872 H   0  0  0  0  0  0  0  0  0  0  0  0
  154.7219  142.1864  160.3108 H   0  0  0  0  0  0  0  0  0  0  0  0
  153.3081  141.5028  162.1794 H   0  0  0  0  0  0  0  0  0  0  0  0
  151.8615  142.0995  161.3867 H   0  0  0  0  0  0  0  0  0  0  0  0
  153.1148  143.2285  161.8984 H   0  0  0  0  0  0  0  0  0  0  0  0
  153.5653  139.9346  160.1587 H   0  0  0  0  0  0  0  0  0  0  0  0
  154.1455  140.5912  158.6372 H   0  0  0  0  0  0  0  0  0  0  0  0
  149.5363  137.0767  159.4821 H   0  0  0  0  0  0  0  0  0  0  0  0
  1  2  1  0  0  0  0
  1 25  1  0  0  0  0
  1 26  1  0  0  0  0
  1 27  1  0  0  0  0
  2  3  2  0  0  0  0
  2  4  1  0  0  0  0
  4  5  1  0  0  0  0
  4 28  1  0  0  0  0
  5  6  1  0  0  0  0
  5 29  1  0  0  0  0
  5 30  1  0  0  0  0
  6  7  1  0  0  0  0
  6 31  1  0  0  0  0
  6 32  1  0  0  0  0
  7  8  1  0  0  0  0
  7 33  1  0  0  0  0
  7 34  1  0  0  0  0
  8  9  1  0  0  0  0
  8 35  1  0  0  0  0
  9 10  2  0  0  0  0
  9 11  1  0  0  0  0
 11 24  1  0  0  0  0
 11 12  2  0  0  0  0
 12 13  1  0  0  0  0
 12 36  1  0  0  0  0
 13 14  2  0  0  0  0
 13 37  1  0  0  0  0
 14 15  1  0  0  0  0
 14 23  1  0  0  0  0
 15 22  1  0  0  0  0
 15 16  1  0  0  0  0
 16 17  1  0  0  0  0
 16 38  1  0  0  0  0
 16 39  1  0  0  0  0
 17 18  1  0  0  0  0
 17 19  1  0  0  0  0
 17 40  1  0  0  0  0
 18 41  1  0  0  0  0
 18 42  1  0  0  0  0
 18 43  1  0  0  0  0
 19 20  1  0  0  0  0
 20 21  1  0  0  0  0
 20 22  1  0  0  0  0
 20 44  1  0  0  0  0
 21 45  1  0  0  0  0
 21 46  1  0  0  0  0
 21 47  1  0  0  0  0
 22 48  1  0  0  0  0
 22 49  1  0  0  0  0
 23 24  2  0  0  0  0
 24 50  1  0  0  0  0
M  END
> <s_m_source_file>
AV-unprocessed.smi

> <i_m_source_file_index>
1529

> <i_lp_mmshare_version>
43012

> <i_f3d_flags>
0

> <s_epik_input>
W0NIM11DKD1PKVtOSF1bQ0gyXVtDSDJdW0NIMl1bTkhdQyg9TyljMVtjSF1bY0hdYyhuW2NIXTEpTjJbQ0gyXVtDQEBIXShbQ0gzXSlPW0NAQEhdKFtDSDNdKVtDSDJdMg==

> <s_epik_cmdline>
J2VwaWtfcHl0aG9uJywgJy1waCcsICc3LjAnLCAnLXRuJywgJzgnLCAnLW1hJywgJzIwMCcsICctbWV0YWxfYmluZGluZycsICctaW1hZScsICc8aW5maWxlLm1hZT4nLCAnLW9tYWUnLCAnPG91dGZpbGUubWFlPic=

> <r_lp_tautomer_probability>
1

> <r_epik_Ionization_Penalty>
2.1474e-05

> <r_epik_Ionization_Penalty_Charging>
0

> <r_epik_Ionization_Penalty_Neutral>
2.1474e-05

> <r_epik_State_Penalty>
-0

> <r_epik_Charging_Adjusted_Penalty>
0

> <i_epik_Tot_Q>
0

> <i_epik_Tot_abs_Q>
0

> <r_epik_Metal_State_Penalty>
-0

> <b_epik_Metal_Only>
0

> <s_lp_Force_Field>
OPLS_2005

> <r_lp_Energy>
19.6089

> <b_lp_Chiralities_Consistent>
1

> <s_lp_Variant>
AV-unprocessed.smi:1529-2

> <Gold.Version>
5.8.1

> <Gold.Id.Protein>
6NUR|6NUR_protein|mol2

> <Gold.PLP.Fitness>
48.8575

> <Gold.PLP.PLP>
-43.0137

> <Gold.PLP.part.hbond>
-2.7814

> <Gold.PLP.part.metal>
0.0000

> <Gold.PLP.part.buried>
-7.0912

> <Gold.PLP.part.nonpolar>
-33.4615

> <Gold.PLP.part.repulsive>
0.2253

> <Gold.PLP.ligand.clash>
0.0000

> <Gold.PLP.ligand.torsion>
0.2821

> <Gold.PLP.Chemscore.Hbond>
2.0000

> <Gold.PLP.Chemscore.CHOScore>
0.0000

> <Gold.PLP.Chemscore.Metal>
0.0000

> <Gold.Chemscore.Hbonds>
donor molecule, donor type, donor heavy atom, donor atom, acceptor molecule, acceptor atom, score
      L1  H     4    28       P1 10747  0.94
      P1  H  6896  6909       L1    10  1.00

> <Gold.PLP.Chemscore.Internal.Correction>
0.4080

> <Gold.Rescore>
     Score         DG    S(hbond)    S(metal)    S(lipo)     H(rot)  DE(clash)    DE(int)     intcor
     18.35     -18.72       1.90        0.00     104.23       2.07       0.01       0.36       ----

> <Gold.Chemscore.Fitness>
18.3543

> <Gold.Chemscore.DG>
-18.7175

> <Gold.Chemscore.ZeroCoef>
-5.4800

> <Gold.Chemscore.Hbond>
1.8996

> <Gold.Chemscore.Metal>
0.0000

> <Gold.Chemscore.Lipo>
104.2323

> <Gold.Chemscore.Internal_Hbond>
0.0000

> <Gold.Chemscore.DEClash>
0.0073

> <Gold.Chemscore.DEInternal>
0.3559

> <Gold.Chemscore.Rot>
2.0713

> <Gold.Chemscore.Internal.Correction>
   9.000000E+99

> <Gold.Chemscore.Hbonds>
donor molecule, donor type, donor heavy atom, donor atom, acceptor molecule, acceptor atom, score
      L1  H     4    28       P1 10747  0.87
      P1  H  6896  6909       L1    10  0.57

> <Gold.Chemscore.Hbond.Weighted>
-6.3448

> <Gold.Chemscore.Metal.Weighted>
-0.0000

> <Gold.Chemscore.Lipo.Weighted>
-12.1952

> <Gold.Chemscore.Internal_Hbond.Weighted>
0.0000

> <Gold.Chemscore.DEClash.Weighted>
0.0073

> <Gold.Chemscore.DEInternal.Weighted>
0.3559

> <Gold.Chemscore.Rot.Weighted>
5.3025

> <Gold.Chemscore.Internal.Correction.Weighted>
   9.000000E+99

> <Gold.Protein.RotatedTorsions>
[ 6907 6896 6895 6894 ] final   19.05 input  -60.11 | X-H torsion
[ 7974 7965 7964 7962 ] final -126.30 input  175.53 | X-H torsion
[ 8008 7997 7996 7995 ] final  -53.94 input   59.86 | X-H torsion
[ 10167 10162 10161 10158 ] final -125.23 input  -65.29 | X-H torsion
[ 10718 10713 10712 10709 ] final -162.88 input   66.30 | X-H torsion
[ 10763 10752 10751 10750 ] final   72.98 input  -60.55 | X-H torsion
[ 11005 11000 10999 10996 ] final  -28.05 input  -57.11 | X-H torsion

> <Gold.Protein.ActiveResidues>
 VAL166  LYS551  ARG553  GLY616  TRP617  ASP618  TYR619  PRO620  LYS621  CYS622 
 ASP623  PHE694  ASN695  SER759  ASP760  ASP761  ALA762  ILE779  LEU786  VAL792 
 PHE793  MET794  SER795  GLU796  ALA797  LYS798  CYS799  TRP800  GLU811  SER814 

> <Gold.Protein.RotatedAtoms>
  151.8748  135.0476  160.0482 H   0  0  0  0  0  0  0  0  0  0  0  0  # atno 6907 bound_to 6896
  152.2559  133.5251  159.5361 H   0  0  0  0  0  0  0  0  0  0  0  0  # atno 6908 bound_to 6896
  150.7099  134.0812  159.3941 H   0  0  0  0  0  0  0  0  0  0  0  0  # atno 6909 bound_to 6896
  144.9887  140.7710  143.4568 H   0  0  0  0  0  0  0  0  0  0  0  0  # atno 7974 bound_to 7965
  154.4148  140.1188  156.5235 H   0  0  0  0  0  0  0  0  0  0  0  0  # atno 8008 bound_to 7997
  155.6679  140.3496  155.4788 H   0  0  0  0  0  0  0  0  0  0  0  0  # atno 8009 bound_to 7997
  155.9658  140.1132  157.0846 H   0  0  0  0  0  0  0  0  0  0  0  0  # atno 8010 bound_to 7997
  139.9843  143.5709  152.2366 H   0  0  0  0  0  0  0  0  0  0  0  0  # atno 10167 bound_to 10162
  156.6167  130.8873  151.2948 H   0  0  0  0  0  0  0  0  0  0  0  0  # atno 10718 bound_to 10713
  153.0492  135.5080  154.7825 H   0  0  0  0  0  0  0  0  0  0  0  0  # atno 10763 bound_to 10752
  154.6700  135.2951  154.9757 H   0  0  0  0  0  0  0  0  0  0  0  0  # atno 10764 bound_to 10752
  154.0578  135.6695  153.4860 H   0  0  0  0  0  0  0  0  0  0  0  0  # atno 10765 bound_to 10752
  140.9174  133.7421  156.0753 H   0  0  0  0  0  0  0  0  0  0  0  0  # atno 11005 bound_to 11000
  145.2317  139.2112  143.5039 LP  0  0  0  0  0  0  0  0  0  0  0  0  # atno 17320 bound_to 7965
  146.3426  140.2195  142.8591 LP  0  0  0  0  0  0  0  0  0  0  0  0  # atno 17321 bound_to 7965
  139.6387  144.7652  151.2384 LP  0  0  0  0  0  0  0  0  0  0  0  0  # atno 17342 bound_to 10162
  140.7478  143.6354  150.8384 LP  0  0  0  0  0  0  0  0  0  0  0  0  # atno 17343 bound_to 10162
  157.7239  130.9596  150.1552 LP  0  0  0  0  0  0  0  0  0  0  0  0  # atno 17370 bound_to 10713
  156.2345  130.3685  149.8407 LP  0  0  0  0  0  0  0  0  0  0  0  0  # atno 17371 bound_to 10713
  140.8033  134.3484  157.5433 LP  0  0  0  0  0  0  0  0  0  0  0  0  # atno 17394 bound_to 11000
  139.8768  134.9210  156.3266 LP  0  0  0  0  0  0  0  0  0  0  0  0  # atno 17395 bound_to 11000

$$$$
