AV-unprocessed.smi:1199|AV-procd|sdf|5015|dock7
  -GOLD-   22720 4 33D 1   1.00000     0.00000
 Structure written by MMmdl.
 40 41  0  0  0  0  0  0  0  0  2 V2000
  149.0171  139.7705  155.9589 C   0  0  0  0  0  0  0  0  0  0  0  0
  149.9873  140.0367  157.1234 C   0  0  1  0  0  0  0  0  0  0  0  0
  149.4667  141.1229  158.0975 C   0  0  0  0  0  0  0  0  0  0  0  0
  150.4799  141.7918  158.9173 N   0  0  0  0  0  0  0  0  0  0  0  0
  151.7546  141.0808  158.9633 C   0  0  0  0  0  0  0  0  0  0  0  0
  152.8106  141.8342  159.7918 C   0  0  0  0  0  0  0  0  0  0  0  0
  152.9745  143.1534  159.2833 O   0  0  0  0  0  0  0  0  0  0  0  0
  151.7586  143.8931  159.2879 C   0  0  0  0  0  0  0  0  0  0  0  0
  150.7079  143.1532  158.4429 C   0  0  0  0  0  0  0  0  0  0  0  0
  150.1647  138.7737  157.8350 N   0  0  0  0  0  0  0  0  0  0  0  0
  149.1997  138.1064  158.4871 C   0  0  0  0  0  0  0  0  0  0  0  0
  148.0354  138.5042  158.5553 O   0  0  0  0  0  0  0  0  0  0  0  0
  149.6370  136.7988  159.1660 C   0  0  0  0  0  0  0  0  0  0  0  0
  148.6288  136.2259  160.0699 N   0  0  0  0  0  0  0  0  0  0  0  0
  148.1421  137.1612  161.0798 N   0  5  0  0  0  0  0  0  0  0  0  0
  147.1821  136.7539  161.9519 C   0  0  0  0  0  0  0  0  0  0  0  0
  146.7082  137.4911  162.8132 O   0  0  0  0  0  0  0  0  0  0  0  0
  146.7078  135.3832  161.8560 C   0  0  0  0  0  0  0  0  0  0  0  0
  147.1969  134.5323  160.9325 C   0  0  0  0  0  0  0  0  0  0  0  0
  148.2199  134.9284  159.9722 C   0  0  0  0  0  0  0  0  0  0  0  0
  148.6779  134.1539  159.1319 O   0  0  0  0  0  0  0  0  0  0  0  0
  148.8413  140.6570  155.3530 H   0  0  0  0  0  0  0  0  0  0  0  0
  148.0475  139.4276  156.3223 H   0  0  0  0  0  0  0  0  0  0  0  0
  149.4102  139.0007  155.2938 H   0  0  0  0  0  0  0  0  0  0  0  0
  150.9523  140.3411  156.7133 H   0  0  0  0  0  0  0  0  0  0  0  0
  148.8823  141.8628  157.5482 H   0  0  0  0  0  0  0  0  0  0  0  0
  148.7565  140.6533  158.7800 H   0  0  0  0  0  0  0  0  0  0  0  0
  151.6170  140.0982  159.4115 H   0  0  0  0  0  0  0  0  0  0  0  0
  152.1294  140.9234  157.9507 H   0  0  0  0  0  0  0  0  0  0  0  0
  152.5171  141.8768  160.8419 H   0  0  0  0  0  0  0  0  0  0  0  0
  153.7675  141.3141  159.7489 H   0  0  0  0  0  0  0  0  0  0  0  0
  151.4075  144.0272  160.3124 H   0  0  0  0  0  0  0  0  0  0  0  0
  151.9434  144.8866  158.8794 H   0  0  0  0  0  0  0  0  0  0  0  0
  151.0353  143.1318  157.4021 H   0  0  0  0  0  0  0  0  0  0  0  0
  149.7730  143.7142  158.4636 H   0  0  0  0  0  0  0  0  0  0  0  0
  151.0926  138.3762  157.8343 H   0  0  0  0  0  0  0  0  0  0  0  0
  149.8929  136.0657  158.3989 H   0  0  0  0  0  0  0  0  0  0  0  0
  150.5656  136.9935  159.7053 H   0  0  0  0  0  0  0  0  0  0  0  0
  145.9484  135.0391  162.5425 H   0  0  0  0  0  0  0  0  0  0  0  0
  146.8167  133.5224  160.8987 H   0  0  0  0  0  0  0  0  0  0  0  0
  1  2  1  0  0  0  0
  1 22  1  0  0  0  0
  1 23  1  0  0  0  0
  1 24  1  0  0  0  0
  2  3  1  0  0  0  0
  2 10  1  0  0  0  0
  2 25  1  0  0  0  0
  3  4  1  0  0  0  0
  3 26  1  0  0  0  0
  3 27  1  0  0  0  0
  4  9  1  0  0  0  0
  4  5  1  0  0  0  0
  5  6  1  0  0  0  0
  5 28  1  0  0  0  0
  5 29  1  0  0  0  0
  6  7  1  0  0  0  0
  6 30  1  0  0  0  0
  6 31  1  0  0  0  0
  7  8  1  0  0  0  0
  8  9  1  0  0  0  0
  8 32  1  0  0  0  0
  8 33  1  0  0  0  0
  9 34  1  0  0  0  0
  9 35  1  0  0  0  0
 10 11  1  0  0  0  0
 10 36  1  0  0  0  0
 11 12  2  0  0  0  0
 11 13  1  0  0  0  0
 13 37  1  0  0  0  0
 13 38  1  0  0  0  0
 13 14  1  0  0  0  0
 14 15  1  0  0  0  0
 14 20  1  0  0  0  0
 15 16  1  0  0  0  0
 16 17  2  0  0  0  0
 16 18  1  0  0  0  0
 18 39  1  0  0  0  0
 18 19  2  0  0  0  0
 19 40  1  0  0  0  0
 19 20  1  0  0  0  0
 20 21  2  0  0  0  0
M  CHG  1  15  -1
M  END
> <s_m_source_file>
AV-unprocessed.smi

> <i_m_source_file_index>
1199

> <i_lp_mmshare_version>
43012

> <i_f3d_flags>
0

> <s_epik_input>
W0NIMl0xW0NIMl1PW0NIMl1bQ0gyXU4xW0NIMl1bQ0BASF0oW0NIM10pW05IXUMoPU8pW0NIMl1uMltuSF1jKD1PKVtjSF1bY0hdYzI9Tw==

> <s_epik_cmdline>
J2VwaWtfcHl0aG9uJywgJy1waCcsICc3LjAnLCAnLXRuJywgJzgnLCAnLW1hJywgJzIwMCcsICctbWV0YWxfYmluZGluZycsICctaW1hZScsICc8aW5maWxlLm1hZT4nLCAnLW9tYWUnLCAnPG91dGZpbGUubWFlPic=

> <r_lp_tautomer_probability>
1

> <r_epik_Ionization_Penalty>
0.334996

> <r_epik_Ionization_Penalty_Charging>
0.0976136

> <r_epik_Ionization_Penalty_Neutral>
0.237382

> <r_epik_State_Penalty>
0.26804

> <r_epik_Charging_Adjusted_Penalty>
0.365653

> <i_epik_Tot_Q>
-1

> <i_epik_Tot_abs_Q>
1

> <r_epik_Metal_State_Penalty>
0.26804

> <b_epik_Metal_Only>
0

> <s_lp_Force_Field>
OPLS_2005

> <r_lp_Energy>
39.9629

> <b_lp_Chiralities_Consistent>
1

> <s_lp_Variant>
AV-unprocessed.smi:1199-2

> <Gold.Version>
5.8.1

> <Gold.Id.Protein>
6NUR|6NUR_protein|mol2

> <Gold.PLP.Fitness>
41.7412

> <Gold.PLP.PLP>
-32.7793

> <Gold.PLP.part.hbond>
-5.6698

> <Gold.PLP.part.metal>
0.0000

> <Gold.PLP.part.buried>
-4.8498

> <Gold.PLP.part.nonpolar>
-23.7031

> <Gold.PLP.part.repulsive>
0.0967

> <Gold.PLP.ligand.clash>
0.0000

> <Gold.PLP.ligand.torsion>
1.0283

> <Gold.PLP.Chemscore.Hbond>
3.6560

> <Gold.PLP.Chemscore.CHOScore>
0.0000

> <Gold.PLP.Chemscore.Metal>
0.0000

> <Gold.Chemscore.Hbonds>
donor molecule, donor type, donor heavy atom, donor atom, acceptor molecule, acceptor atom, score
      P1  H  6896  6907       L1    21  1.00
      P1  H  6931  6943       L1    15  2.00
      P1  H  6934  6947       L1    15  0.55

> <Gold.PLP.Chemscore.Internal.Correction>
0.0504

> <Gold.Rescore>
     Score         DG    S(hbond)    S(metal)    S(lipo)     H(rot)  DE(clash)    DE(int)     intcor
      9.83     -13.40       1.75        0.00      67.83       2.30       0.06       3.50       ----

> <Gold.Chemscore.Fitness>
9.8332

> <Gold.Chemscore.DG>
-13.3953

> <Gold.Chemscore.ZeroCoef>
-5.4800

> <Gold.Chemscore.Hbond>
1.7533

> <Gold.Chemscore.Metal>
0.0000

> <Gold.Chemscore.Lipo>
67.8287

> <Gold.Chemscore.Internal_Hbond>
0.0000

> <Gold.Chemscore.DEClash>
0.0626

> <Gold.Chemscore.DEInternal>
3.4994

> <Gold.Chemscore.Rot>
2.2955

> <Gold.Chemscore.Internal.Correction>
   9.000000E+99

> <Gold.Chemscore.Hbonds>
donor molecule, donor type, donor heavy atom, donor atom, acceptor molecule, acceptor atom, score
      P1  H  6896  6907       L1    21  0.58
      P1  H  6931  6943       L1    15  0.52
      P1  H  6934  6947       L1    15  0.01

> <Gold.Chemscore.Hbond.Weighted>
-5.8559

> <Gold.Chemscore.Metal.Weighted>
-0.0000

> <Gold.Chemscore.Lipo.Weighted>
-7.9360

> <Gold.Chemscore.Internal_Hbond.Weighted>
0.0000

> <Gold.Chemscore.DEClash.Weighted>
0.0626

> <Gold.Chemscore.DEInternal.Weighted>
3.4994

> <Gold.Chemscore.Rot.Weighted>
5.8766

> <Gold.Chemscore.Internal.Correction.Weighted>
   9.000000E+99

> <Gold.Protein.RotatedTorsions>
[ 6907 6896 6895 6894 ] final  -98.36 input  -60.11 | X-H torsion
[ 7974 7965 7964 7962 ] final -179.94 input  175.53 | X-H torsion
[ 8008 7997 7996 7995 ] final   86.13 input   59.86 | X-H torsion
[ 10167 10162 10161 10158 ] final -124.52 input  -65.29 | X-H torsion
[ 10718 10713 10712 10709 ] final -106.65 input   66.30 | X-H torsion
[ 10763 10752 10751 10750 ] final  170.36 input  -60.55 | X-H torsion
[ 11005 11000 10999 10996 ] final   15.07 input  -57.11 | X-H torsion

> <Gold.Protein.ActiveResidues>
 VAL166  LYS551  ARG553  GLY616  TRP617  ASP618  TYR619  PRO620  LYS621  CYS622 
 ASP623  PHE694  ASN695  SER759  ASP760  ASP761  ALA762  ILE779  LEU786  VAL792 
 PHE793  MET794  SER795  GLU796  ALA797  LYS798  CYS799  TRP800  GLU811  SER814 

> <Gold.Protein.RotatedAtoms>
  150.7044  134.1207  159.4033 H   0  0  0  0  0  0  0  0  0  0  0  0  # atno 6907 bound_to 6896
  151.9193  135.0303  160.0530 H   0  0  0  0  0  0  0  0  0  0  0  0  # atno 6908 bound_to 6896
  152.2269  133.4992  159.5231 H   0  0  0  0  0  0  0  0  0  0  0  0  # atno 6909 bound_to 6896
  144.7140  140.0642  143.6431 H   0  0  0  0  0  0  0  0  0  0  0  0  # atno 7974 bound_to 7965
  155.9589  140.3395  155.6473 H   0  0  0  0  0  0  0  0  0  0  0  0  # atno 8008 bound_to 7997
  155.6824  140.0739  157.2498 H   0  0  0  0  0  0  0  0  0  0  0  0  # atno 8009 bound_to 7997
  154.4138  140.1672  156.1984 H   0  0  0  0  0  0  0  0  0  0  0  0  # atno 8010 bound_to 7997
  139.9919  143.5632  152.2338 H   0  0  0  0  0  0  0  0  0  0  0  0  # atno 10167 bound_to 10162
  156.0400  130.5623  150.7711 H   0  0  0  0  0  0  0  0  0  0  0  0  # atno 10718 bound_to 10713
  154.3964  135.2754  155.2123 H   0  0  0  0  0  0  0  0  0  0  0  0  # atno 10763 bound_to 10752
  154.4168  135.6009  153.5989 H   0  0  0  0  0  0  0  0  0  0  0  0  # atno 10764 bound_to 10752
  152.9831  135.5962  154.4226 H   0  0  0  0  0  0  0  0  0  0  0  0  # atno 10765 bound_to 10752
  140.4624  134.1114  155.7718 H   0  0  0  0  0  0  0  0  0  0  0  0  # atno 11005 bound_to 11000
  145.9838  139.2962  143.1026 LP  0  0  0  0  0  0  0  0  0  0  0  0  # atno 17320 bound_to 7965
  145.8980  140.9261  143.0517 LP  0  0  0  0  0  0  0  0  0  0  0  0  # atno 17321 bound_to 7965
  139.6334  144.7647  151.2488 LP  0  0  0  0  0  0  0  0  0  0  0  0  # atno 17342 bound_to 10162
  140.7451  143.6440  150.8309 LP  0  0  0  0  0  0  0  0  0  0  0  0  # atno 17343 bound_to 10162
  157.5204  131.0931  151.0085 LP  0  0  0  0  0  0  0  0  0  0  0  0  # atno 17370 bound_to 10713
  157.0417  130.5752  149.5357 LP  0  0  0  0  0  0  0  0  0  0  0  0  # atno 17371 bound_to 10713
  141.1615  133.8784  157.1834 LP  0  0  0  0  0  0  0  0  0  0  0  0  # atno 17394 bound_to 11000
  139.9937  135.0055  157.0033 LP  0  0  0  0  0  0  0  0  0  0  0  0  # atno 17395 bound_to 11000

$$$$
