#       Name:                AV-unprocessed.smi:2229
#       Creating user name   scv26
#       Creation time:       Fri Mar 27 12:23:30 2020


#       File generated by GOLD software.
#

@<TRIPOS>MOLECULE
AV-unprocessed.smi:2229
    49    50     1
SMALL
NO_CHARGES


@<TRIPOS>ATOM
      1 ****        -4.3477   1.0431   1.0254 C.3            1 S1                 0.0000
      2 ****        -2.8478   1.1560   0.7133 C.3            1 S1                 0.0000
      3 ****        -2.5239   2.5412   0.1277 C.3            1 S1                 0.0000
      4 ****        -2.3937   0.0002  -0.2028 C.3            1 S1                 0.0000
      5 ****        -0.8691  -0.0771  -0.3915 C.3            1 S1                 0.0000
      6 ****        -0.3966  -1.3117  -1.1953 C.3            1 S1                 0.0000
      7 ****        -0.6071  -2.6460  -0.4706 C.3            1 S1                 0.0000
      8 ****         0.3212  -3.6155  -1.1947 C.3            1 S1                 0.0000
      9 ****         1.5665  -2.7877  -1.5155 C.3            1 S1                 0.0000
     10 ****         1.0993  -1.3196  -1.6049 C.3            1 S1                 0.0000
     11 ****         1.8923  -0.4544  -0.7383 N.am           1 S1                 0.0000
     12 ****         3.1147   0.0373  -0.9913 C.2            1 S1                 0.0000
     13 ****         3.7590  -0.2569  -1.9968 O.2            1 S1                 0.0000
     14 ****         3.7044   1.0337   0.0224 C.3            1 S1                 0.0000
     15 ****         2.7642   1.4728   1.0609 N.am           1 S1                 0.0000
     16 ****         1.9662   2.5911   0.9336 C.2            1 S1                 0.0000
     17 ****         1.1738   2.7349   1.9405 N.2            1 S1                 0.0000
     18 ****         1.4921   1.6731   2.7188 N.am           1 S1                 0.0000
     19 ****         2.4461   0.8894   2.2134 C.2            1 S1                 0.0000
     20 ****         2.9041  -0.1451   2.6944 O.2            1 S1                 0.0000
     21 ****         1.0031   1.5368   3.5920 H              1 S1                 0.0000
     22 ****        -4.9486   1.1338   0.1199 H              1 S1                 0.0000
     23 ****        -4.6661   1.8247   1.7158 H              1 S1                 0.0000
     24 ****        -4.5840   0.0841   1.4874 H              1 S1                 0.0000
     25 ****        -2.3144   1.0641   1.6604 H              1 S1                 0.0000
     26 ****        -2.9821   2.6736  -0.8528 H              1 S1                 0.0000
     27 ****        -1.4503   2.6940   0.0203 H              1 S1                 0.0000
     28 ****        -2.8938   3.3357   0.7762 H              1 S1                 0.0000
     29 ****        -2.7410  -0.9385   0.2297 H              1 S1                 0.0000
     30 ****        -2.8807   0.0835  -1.1753 H              1 S1                 0.0000
     31 ****        -0.5332   0.8210  -0.9099 H              1 S1                 0.0000
     32 ****        -0.3888  -0.0663   0.5880 H              1 S1                 0.0000
     33 ****        -0.9753  -1.3509  -2.1198 H              1 S1                 0.0000
     34 ****        -0.3041  -2.5590   0.5740 H              1 S1                 0.0000
     35 ****        -1.6453  -2.9780  -0.4910 H              1 S1                 0.0000
     36 ****         0.5485  -4.5018  -0.6017 H              1 S1                 0.0000
     37 ****        -0.1482  -3.9471  -2.1217 H              1 S1                 0.0000
     38 ****         2.2960  -2.9145  -0.7137 H              1 S1                 0.0000
     39 ****         2.0449  -3.1204  -2.4371 H              1 S1                 0.0000
     40 ****         1.1850  -0.9584  -2.6315 H              1 S1                 0.0000
     41 ****         1.4480  -0.1638   0.1204 H              1 S1                 0.0000
     42 ****         4.5689   0.5677   0.4975 H              1 S1                 0.0000
     43 ****         4.0869   1.8998  -0.5204 H              1 S1                 0.0000
     44 ****         2.0563   3.2201   0.0463 H              1 S1                 0.0000
     45 ****         3.3747  -0.8889  -2.6698 LP             1 S1                 0.0000
     46 ****         4.6672   0.1359  -2.1414 LP             1 S1                 0.0000
     47 ****         0.4950   3.4505   2.1053 LP             1 S1                 0.0000
     48 ****         3.6082  -0.6565   2.2018 LP             1 S1                 0.0000
     49 ****         2.5725  -0.4751   3.5782 LP             1 S1                 0.0000
@<TRIPOS>BOND
    1    1    2 1     
    2    1   22 1     
    3    1   23 1     
    4    1   24 1     
    5    2    3 1     
    6    2    4 1     
    7    2   25 1     
    8    3   26 1     
    9    3   27 1     
   10    3   28 1     
   11    4    5 1     
   12    4   29 1     
   13    4   30 1     
   14    5    6 1     
   15    5   31 1     
   16    5   32 1     
   17    6   10 1     
   18    6    7 1     
   19    6   33 1     
   20    7    8 1     
   21    7   34 1     
   22    7   35 1     
   23    8    9 1     
   24    8   36 1     
   25    8   37 1     
   26    9   10 1     
   27    9   38 1     
   28    9   39 1     
   29   10   11 1     
   30   10   40 1     
   31   11   12 am    
   32   11   41 1     
   33   12   13 2     
   34   12   14 1     
   35   14   15 1     
   36   14   42 1     
   37   14   43 1     
   38   15   19 am    
   39   15   16 1     
   40   16   17 2     
   41   16   44 1     
   42   17   18 1     
   43   18   21 1     
   44   18   19 am    
   45   19   20 2     
   46   13   45 1     
   47   13   46 1     
   48   17   47 1     
   49   20   48 1     
   50   20   49 1     
@<TRIPOS>SUBSTRUCTURE
      1 S1             1
@<TRIPOS>SET
LONE_PAIRS      STATIC     ATOMS    <user>   **** ""
5 45 46 47 48 49
DONOR_HYDROGENS      STATIC     ATOMS    <user>   **** ""
2 41 21
ATOM$BLUE        STATIC     ATOMS    COLORGROUP SYSTEM
5 45 46 47 48 49
ATOM$RED        STATIC     ATOMS    COLORGROUP SYSTEM
2 41 21
