AV-unprocessed.smi:235|AV-procd|sdf|1808|dock4
  -GOLD-   2262020383D 1   1.00000     0.00000
 Structure written by MMmdl.
 54 58  0  0  0  0  0  0  0  0  1 V2000
  147.3182  137.2807  160.7681 O   0  0  0  0  0  0  0  0  0  0  0  0
  146.8888  136.1583  160.4974 C   0  0  0  0  0  0  0  0  0  0  0  0
  145.6886  135.7108  160.8935 N   0  0  0  0  0  0  0  0  0  0  0  0
  144.7460  136.4450  161.6733 C   0  0  0  0  0  0  0  0  0  0  0  0
  143.4553  135.7529  162.0536 C   0  0  0  0  0  0  0  0  0  0  0  0
  143.4432  136.8359  161.0104 C   0  0  0  0  0  0  0  0  0  0  0  0
  147.7285  135.1848  159.6543 C   0  0  1  0  0  0  0  0  0  0  0  0
  146.8995  133.9676  159.2130 C   0  0  0  0  0  0  0  0  0  0  0  0
  147.5623  133.5287  157.9116 C   0  0  0  0  0  0  0  0  0  0  0  0
  148.0017  134.8479  157.2789 C   0  0  0  0  0  0  0  0  0  0  0  0
  148.1748  135.7761  158.3893 N   0  0  0  0  0  0  0  0  0  0  0  0
  149.1405  136.7322  158.3255 C   0  0  0  0  0  0  0  0  0  0  0  0
  149.9640  136.9208  159.3913 N   0  0  0  0  0  0  0  0  0  0  0  0
  150.9189  137.8542  159.3561 C   0  0  0  0  0  0  0  0  0  0  0  0
  151.2202  138.7022  158.3718 N   0  0  0  0  0  0  0  0  0  0  0  0
  150.3940  138.5267  157.3016 C   0  0  0  0  0  0  0  0  0  0  0  0
  149.3402  137.5745  157.1927 C   0  0  0  0  0  0  0  0  0  0  0  0
  148.7172  137.7064  155.9558 N   0  0  0  0  0  0  0  0  0  0  0  0
  149.3674  138.6734  155.3682 C   0  0  0  0  0  0  0  0  0  0  0  0
  150.3892  139.2234  156.1071 N   0  0  0  0  0  0  0  0  0  0  0  0
  151.2680  140.3082  155.7085 C   0  0  0  0  0  0  0  0  0  0  0  0
  150.8143  141.6688  156.2714 C   0  0  1  0  0  0  0  0  0  0  0  0
  149.5093  141.9852  155.8239 O   0  0  0  0  0  0  0  0  0  0  0  0
  150.8808  141.7293  157.8107 C   0  0  1  0  0  0  0  0  0  0  0  0
  152.2277  141.3471  158.4490 C   0  0  0  0  0  0  0  0  0  0  0  0
  152.5280  142.5047  159.3877 C   0  0  0  0  0  0  0  0  0  0  0  0
  151.1690  143.1707  159.5679 C   0  0  0  0  0  0  0  0  0  0  0  0
  150.5780  143.0363  158.2867 O   0  0  0  0  0  0  0  0  0  0  0  0
  145.4229  134.7751  160.6233 H   0  0  0  0  0  0  0  0  0  0  0  0
  145.1416  137.1531  162.4004 H   0  0  0  0  0  0  0  0  0  0  0  0
  143.3094  134.7280  161.7167 H   0  0  0  0  0  0  0  0  0  0  0  0
  143.0285  135.9878  163.0265 H   0  0  0  0  0  0  0  0  0  0  0  0
  143.0090  137.7948  161.2863 H   0  0  0  0  0  0  0  0  0  0  0  0
  143.2861  136.5342  159.9764 H   0  0  0  0  0  0  0  0  0  0  0  0
  148.5987  134.8409  160.2170 H   0  0  0  0  0  0  0  0  0  0  0  0
  146.8901  133.1746  159.9614 H   0  0  0  0  0  0  0  0  0  0  0  0
  145.8634  134.2472  159.0122 H   0  0  0  0  0  0  0  0  0  0  0  0
  148.4373  132.9170  158.1353 H   0  0  0  0  0  0  0  0  0  0  0  0
  146.9000  132.9488  157.2685 H   0  0  0  0  0  0  0  0  0  0  0  0
  148.9129  134.7131  156.6942 H   0  0  0  0  0  0  0  0  0  0  0  0
  147.2247  135.2342  156.6179 H   0  0  0  0  0  0  0  0  0  0  0  0
  151.5275  137.9332  160.2449 H   0  0  0  0  0  0  0  0  0  0  0  0
  149.1175  139.0145  154.3741 H   0  0  0  0  0  0  0  0  0  0  0  0
  152.2809  140.0726  156.0374 H   0  0  0  0  0  0  0  0  0  0  0  0
  151.2944  140.3418  154.6186 H   0  0  0  0  0  0  0  0  0  0  0  0
  151.4746  142.4427  155.8775 H   0  0  0  0  0  0  0  0  0  0  0  0
  149.3634  142.9083  155.9643 H   0  0  0  0  0  0  0  0  0  0  0  0
  150.1151  141.0658  158.2164 H   0  0  0  0  0  0  0  0  0  0  0  0
  152.1266  140.4142  159.0047 H   0  0  0  0  0  0  0  0  0  0  0  0
  153.0305  141.2094  157.7241 H   0  0  0  0  0  0  0  0  0  0  0  0
  152.9732  142.1866  160.3308 H   0  0  0  0  0  0  0  0  0  0  0  0
  153.2163  143.2004  158.9056 H   0  0  0  0  0  0  0  0  0  0  0  0
  150.5672  142.6392  160.3070 H   0  0  0  0  0  0  0  0  0  0  0  0
  151.2465  144.2154  159.8702 H   0  0  0  0  0  0  0  0  0  0  0  0
  1  2  2  0  0  0  0
  2  3  1  0  0  0  0
  2  7  1  0  0  0  0
  3  4  1  0  0  0  0
  3 29  1  0  0  0  0
  4  6  1  0  0  0  0
  4  5  1  0  0  0  0
  4 30  1  0  0  0  0
  5  6  1  0  0  0  0
  5 31  1  0  0  0  0
  5 32  1  0  0  0  0
  6 33  1  0  0  0  0
  6 34  1  0  0  0  0
  7 11  1  0  0  0  0
  7  8  1  0  0  0  0
  7 35  1  0  0  0  0
  8  9  1  0  0  0  0
  8 36  1  0  0  0  0
  8 37  1  0  0  0  0
  9 10  1  0  0  0  0
  9 38  1  0  0  0  0
  9 39  1  0  0  0  0
 10 11  1  0  0  0  0
 10 40  1  0  0  0  0
 10 41  1  0  0  0  0
 11 12  1  0  0  0  0
 12 17  1  0  0  0  0
 12 13  2  0  0  0  0
 13 14  1  0  0  0  0
 14 15  2  0  0  0  0
 14 42  1  0  0  0  0
 15 16  1  0  0  0  0
 16 20  1  0  0  0  0
 16 17  2  0  0  0  0
 17 18  1  0  0  0  0
 18 19  2  0  0  0  0
 19 20  1  0  0  0  0
 19 43  1  0  0  0  0
 20 21  1  0  0  0  0
 21 22  1  0  0  0  0
 21 44  1  0  0  0  0
 21 45  1  0  0  0  0
 22 23  1  0  0  0  0
 22 24  1  0  0  0  0
 22 46  1  0  0  0  0
 23 47  1  0  0  0  0
 24 28  1  0  0  0  0
 24 25  1  0  0  0  0
 24 48  1  0  0  0  0
 25 26  1  0  0  0  0
 25 49  1  0  0  0  0
 25 50  1  0  0  0  0
 26 27  1  0  0  0  0
 26 51  1  0  0  0  0
 26 52  1  0  0  0  0
 27 28  1  0  0  0  0
 27 53  1  0  0  0  0
 27 54  1  0  0  0  0
M  END
> <s_m_source_file>
AV-unprocessed.smi

> <i_m_source_file_index>
235

> <i_lp_mmshare_version>
43012

> <i_f3d_flags>
0

> <s_epik_input>
W0NIMl0xW0NIMl1bQ0hdMVtOSF1DKD1PKVtDQEBIXTJbQ0gyXVtDSDJdW0NIMl1OMmMobltjSF1uMyljKGMzNCluW2NIXW40W0NIMl1bQ0BIXShbT0hdKVtDQEBIXTVbQ0gyXVtDSDJdW0NIMl1PNQ==

> <s_epik_cmdline>
J2VwaWtfcHl0aG9uJywgJy1waCcsICc3LjAnLCAnLXRuJywgJzgnLCAnLW1hJywgJzIwMCcsICctbWV0YWxfYmluZGluZycsICctaW1hZScsICc8aW5maWxlLm1hZT4nLCAnLW9tYWUnLCAnPG91dGZpbGUubWFlPic=

> <r_lp_tautomer_probability>
1

> <r_epik_Ionization_Penalty>
0.000526714

> <r_epik_Ionization_Penalty_Charging>
0

> <r_epik_Ionization_Penalty_Neutral>
0.000526714

> <r_epik_State_Penalty>
0.000272704

> <r_epik_Charging_Adjusted_Penalty>
0.000272704

> <i_epik_Tot_Q>
0

> <i_epik_Tot_abs_Q>
0

> <r_epik_Metal_State_Penalty>
-0

> <b_epik_Metal_Only>
0

> <s_lp_Force_Field>
OPLS_2005

> <r_lp_Energy>
60.2581

> <b_lp_Chiralities_Consistent>
1

> <s_lp_Variant>
AV-unprocessed.smi:235-8

> <Gold.Version>
5.8.1

> <Gold.Id.Protein>
6NUR|6NUR_protein|mol2

> <Gold.PLP.Fitness>
45.3340

> <Gold.PLP.PLP>
-37.2351

> <Gold.PLP.part.hbond>
-4.0000

> <Gold.PLP.part.metal>
0.0000

> <Gold.PLP.part.buried>
-5.8608

> <Gold.PLP.part.nonpolar>
-27.0473

> <Gold.PLP.part.repulsive>
0.1677

> <Gold.PLP.ligand.clash>
1.5426

> <Gold.PLP.ligand.torsion>
0.9961

> <Gold.PLP.Chemscore.Hbond>
3.7440

> <Gold.PLP.Chemscore.CHOScore>
0.0000

> <Gold.PLP.Chemscore.Metal>
0.0000

> <Gold.Chemscore.Hbonds>
donor molecule, donor type, donor heavy atom, donor atom, acceptor molecule, acceptor atom, score
      L1  H    23    47       P1  8028  1.00
      P1  H  6896  6907       L1    13  0.42
      P1  H  6931  6943       L1     1  0.30
      P1  H  6934  6947       L1     1  1.00

> <Gold.PLP.Chemscore.Internal.Correction>
0.4017

> <Gold.Rescore>
     Score         DG    S(hbond)    S(metal)    S(lipo)     H(rot)  DE(clash)    DE(int)     intcor
     17.67     -18.95       3.47        0.00      74.56       2.68       0.03       1.25       ----

> <Gold.Chemscore.Fitness>
17.6661

> <Gold.Chemscore.DG>
-18.9483

> <Gold.Chemscore.ZeroCoef>
-5.4800

> <Gold.Chemscore.Hbond>
3.4717

> <Gold.Chemscore.Metal>
0.0000

> <Gold.Chemscore.Lipo>
74.5610

> <Gold.Chemscore.Internal_Hbond>
0.0000

> <Gold.Chemscore.DEClash>
0.0314

> <Gold.Chemscore.DEInternal>
1.2508

> <Gold.Chemscore.Rot>
2.6760

> <Gold.Chemscore.Internal.Correction>
   9.000000E+99

> <Gold.Chemscore.Hbonds>
donor molecule, donor type, donor heavy atom, donor atom, acceptor molecule, acceptor atom, score
      L1  H    23    47       P1  8028  1.00
      P1  H  6896  6907       L1    13  0.08
      P1  H  6931  6943       L1     1  0.29
      P1  H  6934  6947       L1     1  0.99

> <Gold.Chemscore.Hbond.Weighted>
-11.5953

> <Gold.Chemscore.Metal.Weighted>
-0.0000

> <Gold.Chemscore.Lipo.Weighted>
-8.7236

> <Gold.Chemscore.Internal_Hbond.Weighted>
0.0000

> <Gold.Chemscore.DEClash.Weighted>
0.0314

> <Gold.Chemscore.DEInternal.Weighted>
1.2508

> <Gold.Chemscore.Rot.Weighted>
6.8506

> <Gold.Chemscore.Internal.Correction.Weighted>
   9.000000E+99

> <Gold.Protein.RotatedTorsions>
[ 6907 6896 6895 6894 ] final  -19.12 input  -60.11 | X-H torsion
[ 7974 7965 7964 7962 ] final  158.90 input  175.53 | X-H torsion
[ 8008 7997 7996 7995 ] final -171.38 input   59.86 | X-H torsion
[ 10167 10162 10161 10158 ] final -103.90 input  -65.29 | X-H torsion
[ 10718 10713 10712 10709 ] final  -64.08 input   66.30 | X-H torsion
[ 10763 10752 10751 10750 ] final   22.25 input  -60.55 | X-H torsion
[ 11005 11000 10999 10996 ] final  146.53 input  -57.11 | X-H torsion

> <Gold.Protein.ActiveResidues>
 VAL166  LYS551  ARG553  GLY616  TRP617  ASP618  TYR619  PRO620  LYS621  CYS622 
 ASP623  PHE694  ASN695  SER759  ASP760  ASP761  ALA762  ILE779  LEU786  VAL792 
 PHE793  MET794  SER795  GLU796  ALA797  LYS798  CYS799  TRP800  GLU811  SER814 

> <Gold.Protein.RotatedAtoms>
  151.2679  135.0675  159.9122 H   0  0  0  0  0  0  0  0  0  0  0  0  # atno 6907 bound_to 6896
  152.5355  134.0161  159.7971 H   0  0  0  0  0  0  0  0  0  0  0  0  # atno 6908 bound_to 6896
  151.0395  133.5669  159.2683 H   0  0  0  0  0  0  0  0  0  0  0  0  # atno 6909 bound_to 6896
  144.7820  139.7542  143.6256 H   0  0  0  0  0  0  0  0  0  0  0  0  # atno 7974 bound_to 7965
  155.9308  140.1091  157.1134 H   0  0  0  0  0  0  0  0  0  0  0  0  # atno 8008 bound_to 7997
  154.4070  140.1238  156.4866 H   0  0  0  0  0  0  0  0  0  0  0  0  # atno 8009 bound_to 7997
  155.7082  140.3471  155.4964 H   0  0  0  0  0  0  0  0  0  0  0  0  # atno 8010 bound_to 7997
  140.2150  143.3718  152.1018 H   0  0  0  0  0  0  0  0  0  0  0  0  # atno 10167 bound_to 10162
  156.0751  130.4229  150.1368 H   0  0  0  0  0  0  0  0  0  0  0  0  # atno 10718 bound_to 10713
  153.0930  135.6652  153.9817 H   0  0  0  0  0  0  0  0  0  0  0  0  # atno 10763 bound_to 10752
  153.9408  135.2994  155.3444 H   0  0  0  0  0  0  0  0  0  0  0  0  # atno 10764 bound_to 10752
  154.7346  135.5107  153.9095 H   0  0  0  0  0  0  0  0  0  0  0  0  # atno 10765 bound_to 10752
  140.0801  134.9102  157.1487 H   0  0  0  0  0  0  0  0  0  0  0  0  # atno 11005 bound_to 11000
  146.2033  139.5341  142.9729 LP  0  0  0  0  0  0  0  0  0  0  0  0  # atno 17320 bound_to 7965
  145.6024  141.0353  143.2011 LP  0  0  0  0  0  0  0  0  0  0  0  0  # atno 17321 bound_to 7965
  139.5165  144.6979  151.5579 LP  0  0  0  0  0  0  0  0  0  0  0  0  # atno 17342 bound_to 10162
  140.6296  143.9102  150.6594 LP  0  0  0  0  0  0  0  0  0  0  0  0  # atno 17343 bound_to 10162
  156.9411  130.9745  151.3516 LP  0  0  0  0  0  0  0  0  0  0  0  0  # atno 17370 bound_to 10713
  157.5842  130.8398  149.8566 LP  0  0  0  0  0  0  0  0  0  0  0  0  # atno 17371 bound_to 10713
  140.3500  134.2609  155.7200 LP  0  0  0  0  0  0  0  0  0  0  0  0  # atno 17394 bound_to 11000
  141.2043  133.7888  157.0291 LP  0  0  0  0  0  0  0  0  0  0  0  0  # atno 17395 bound_to 11000

$$$$
