AV-unprocessed.smi:3220|AV-procd|sdf|12300|dock6
  -GOLD-   2272018143D 1   1.00000     0.00000
 Structure written by MMmdl.
 33 34  0  0  0  0  0  0  0  0  1 V2000
  150.9103  140.6653  158.1916 C   0  0  0  0  0  0  0  0  0  0  0  0
  150.1288  141.8018  157.5163 C   0  0  1  0  0  0  0  0  0  0  0  0
  151.0487  142.9820  157.1485 C   0  0  0  0  0  0  0  0  0  0  0  0
  151.4690  143.7385  158.3147 N   0  0  0  0  0  0  0  0  0  0  0  0
  151.0447  144.9838  158.7284 C   0  0  0  0  0  0  0  0  0  0  0  0
  151.7148  145.2793  159.8807 C   0  0  0  0  0  0  0  0  0  0  0  0
  152.5371  144.1379  160.0953 C   0  0  0  0  0  0  0  0  0  0  0  0
  152.3876  143.2173  159.1563 N   0  0  0  0  0  0  0  0  0  0  0  0
  149.4637  141.2955  156.3173 N   0  0  0  0  0  0  0  0  0  0  0  0
  150.0540  140.6208  155.3192 C   0  0  0  0  0  0  0  0  0  0  0  0
  151.2573  140.3609  155.2945 O   0  0  0  0  0  0  0  0  0  0  0  0
  149.1339  140.1580  154.1840 C   0  0  1  0  0  0  0  0  0  0  0  0
  147.9270  139.3215  154.6495 C   0  0  0  0  0  0  0  0  0  0  0  0
  146.7453  140.2453  154.4298 C   0  0  0  0  0  0  0  0  0  0  0  0
  147.2218  141.0836  153.2526 C   0  0  0  0  0  0  0  0  0  0  0  0
  148.5878  141.3172  153.5572 O   0  0  0  0  0  0  0  0  0  0  0  0
  151.4027  141.0143  159.0997 H   0  0  0  0  0  0  0  0  0  0  0  0
  151.6784  140.2633  157.5301 H   0  0  0  0  0  0  0  0  0  0  0  0
  150.2487  139.8450  158.4722 H   0  0  0  0  0  0  0  0  0  0  0  0
  149.3838  142.1648  158.2271 H   0  0  0  0  0  0  0  0  0  0  0  0
  151.9424  142.6184  156.6389 H   0  0  0  0  0  0  0  0  0  0  0  0
  150.5488  143.6587  156.4539 H   0  0  0  0  0  0  0  0  0  0  0  0
  150.3070  145.5475  158.1765 H   0  0  0  0  0  0  0  0  0  0  0  0
  151.6297  146.1735  160.4799 H   0  0  0  0  0  0  0  0  0  0  0  0
  153.2332  143.9524  160.8997 H   0  0  0  0  0  0  0  0  0  0  0  0
  148.4694  141.4564  156.2490 H   0  0  0  0  0  0  0  0  0  0  0  0
  149.7061  139.5920  153.4467 H   0  0  0  0  0  0  0  0  0  0  0  0
  147.8301  138.4375  154.0181 H   0  0  0  0  0  0  0  0  0  0  0  0
  147.9911  138.9758  155.6822 H   0  0  0  0  0  0  0  0  0  0  0  0
  145.8156  139.7127  154.2285 H   0  0  0  0  0  0  0  0  0  0  0  0
  146.5969  140.8800  155.3045 H   0  0  0  0  0  0  0  0  0  0  0  0
  147.1456  140.5243  152.3189 H   0  0  0  0  0  0  0  0  0  0  0  0
  146.6681  142.0163  153.1448 H   0  0  0  0  0  0  0  0  0  0  0  0
  1  2  1  0  0  0  0
  1 17  1  0  0  0  0
  1 18  1  0  0  0  0
  1 19  1  0  0  0  0
  2  3  1  0  0  0  0
  2  9  1  0  0  0  0
  2 20  1  0  0  0  0
  3  4  1  0  0  0  0
  3 21  1  0  0  0  0
  3 22  1  0  0  0  0
  4  8  1  0  0  0  0
  4  5  1  0  0  0  0
  5  6  2  0  0  0  0
  5 23  1  0  0  0  0
  6  7  1  0  0  0  0
  6 24  1  0  0  0  0
  7  8  2  0  0  0  0
  7 25  1  0  0  0  0
  9 10  1  0  0  0  0
  9 26  1  0  0  0  0
 10 11  2  0  0  0  0
 10 12  1  0  0  0  0
 12 16  1  0  0  0  0
 12 13  1  0  0  0  0
 12 27  1  0  0  0  0
 13 14  1  0  0  0  0
 13 28  1  0  0  0  0
 13 29  1  0  0  0  0
 14 15  1  0  0  0  0
 14 30  1  0  0  0  0
 14 31  1  0  0  0  0
 15 16  1  0  0  0  0
 15 32  1  0  0  0  0
 15 33  1  0  0  0  0
M  END
> <s_m_source_file>
AV-unprocessed.smi

> <i_m_source_file_index>
3220

> <i_lp_mmshare_version>
43012

> <i_f3d_flags>
0

> <s_epik_input>
bjFbY0hdW2NIXVtjSF1uMVtDSDJdW0NAQEhdKFtDSDNdKVtOSF1DKD1PKVtDQEBIXTJbQ0gyXVtDSDJdW0NIMl1PMg==

> <s_epik_cmdline>
J2VwaWtfcHl0aG9uJywgJy1waCcsICc3LjAnLCAnLXRuJywgJzgnLCAnLW1hJywgJzIwMCcsICctbWV0YWxfYmluZGluZycsICctaW1hZScsICc8aW5maWxlLm1hZT4nLCAnLW9tYWUnLCAnPG91dGZpbGUubWFlPic=

> <r_lp_tautomer_probability>
1

> <r_epik_Ionization_Penalty>
0.00033363

> <r_epik_Ionization_Penalty_Charging>
0

> <r_epik_Ionization_Penalty_Neutral>
0.00033363

> <r_epik_State_Penalty>
-0

> <r_epik_Charging_Adjusted_Penalty>
0

> <i_epik_Tot_Q>
0

> <i_epik_Tot_abs_Q>
0

> <r_epik_Metal_State_Penalty>
-0

> <b_epik_Metal_Only>
0

> <s_lp_Force_Field>
OPLS_2005

> <r_lp_Energy>
17.8243

> <b_lp_Chiralities_Consistent>
1

> <s_lp_Variant>
AV-unprocessed.smi:3220-4

> <Gold.Version>
5.8.1

> <Gold.Id.Protein>
6NUR|6NUR_protein|mol2

> <Gold.PLP.Fitness>
39.0564

> <Gold.PLP.PLP>
-31.4215

> <Gold.PLP.part.hbond>
-2.0000

> <Gold.PLP.part.metal>
0.0000

> <Gold.PLP.part.buried>
-4.1533

> <Gold.PLP.part.nonpolar>
-26.6754

> <Gold.PLP.part.repulsive>
1.6966

> <Gold.PLP.ligand.clash>
0.0000

> <Gold.PLP.ligand.torsion>
0.3687

> <Gold.PLP.Chemscore.Hbond>
1.8007

> <Gold.PLP.Chemscore.CHOScore>
0.9815

> <Gold.PLP.Chemscore.Metal>
0.0000

> <Gold.Chemscore.Hbonds>
donor molecule, donor type, donor heavy atom, donor atom, acceptor molecule, acceptor atom, score
      P1  H  7989  7998       L1    11  0.94
      P1  H  8011  8017       L1    16  0.82
      L1  C     5    23       P1  8029  0.85

> <Gold.PLP.Chemscore.Internal.Correction>
0.0256

> <Gold.Rescore>
     Score         DG    S(hbond)    S(metal)    S(lipo)     H(rot)  DE(clash)    DE(int)     intcor
     13.33     -15.16       1.33        0.00      80.36       1.62       0.37       1.47       ----

> <Gold.Chemscore.Fitness>
13.3289

> <Gold.Chemscore.DG>
-15.1641

> <Gold.Chemscore.ZeroCoef>
-5.4800

> <Gold.Chemscore.Hbond>
1.3276

> <Gold.Chemscore.Metal>
0.0000

> <Gold.Chemscore.Lipo>
80.3576

> <Gold.Chemscore.Internal_Hbond>
0.0000

> <Gold.Chemscore.DEClash>
0.3691

> <Gold.Chemscore.DEInternal>
1.4661

> <Gold.Chemscore.Rot>
1.6219

> <Gold.Chemscore.Internal.Correction>
   9.000000E+99

> <Gold.Chemscore.Hbonds>
donor molecule, donor type, donor heavy atom, donor atom, acceptor molecule, acceptor atom, score
      P1  H  7989  7998       L1    11  0.20
      P1  H  8011  8017       L1    16  0.72

> <Gold.Chemscore.Hbond.Weighted>
-4.4343

> <Gold.Chemscore.Metal.Weighted>
-0.0000

> <Gold.Chemscore.Lipo.Weighted>
-9.4018

> <Gold.Chemscore.Internal_Hbond.Weighted>
0.0000

> <Gold.Chemscore.DEClash.Weighted>
0.3691

> <Gold.Chemscore.DEInternal.Weighted>
1.4661

> <Gold.Chemscore.Rot.Weighted>
4.1520

> <Gold.Chemscore.Internal.Correction.Weighted>
   9.000000E+99

> <Gold.Protein.RotatedTorsions>
[ 6907 6896 6895 6894 ] final   96.87 input  -60.11 | X-H torsion
[ 7974 7965 7964 7962 ] final  130.24 input  175.53 | X-H torsion
[ 8008 7997 7996 7995 ] final   15.07 input   59.86 | X-H torsion
[ 10167 10162 10161 10158 ] final   40.66 input  -65.29 | X-H torsion
[ 10718 10713 10712 10709 ] final -103.11 input   66.30 | X-H torsion
[ 10763 10752 10751 10750 ] final -137.02 input  -60.55 | X-H torsion
[ 11005 11000 10999 10996 ] final -157.00 input  -57.11 | X-H torsion

> <Gold.Protein.ActiveResidues>
 VAL166  LYS551  ARG553  GLY616  TRP617  ASP618  TYR619  PRO620  LYS621  CYS622 
 ASP623  PHE694  ASN695  SER759  ASP760  ASP761  ALA762  ILE779  LEU786  VAL792 
 PHE793  MET794  SER795  GLU796  ALA797  LYS798  CYS799  TRP800  GLU811  SER814 

> <Gold.Protein.RotatedAtoms>
  152.5430  134.0820  159.8239 H   0  0  0  0  0  0  0  0  0  0  0  0  # atno 6907 bound_to 6896
  151.0921  133.5300  159.2621 H   0  0  0  0  0  0  0  0  0  0  0  0  # atno 6908 bound_to 6896
  151.2088  135.0481  159.8957 H   0  0  0  0  0  0  0  0  0  0  0  0  # atno 6909 bound_to 6896
  145.0200  139.4141  143.5202 H   0  0  0  0  0  0  0  0  0  0  0  0  # atno 7974 bound_to 7965
  154.8575  140.2939  155.5560 H   0  0  0  0  0  0  0  0  0  0  0  0  # atno 8008 bound_to 7997
  156.3018  140.2484  156.3476 H   0  0  0  0  0  0  0  0  0  0  0  0  # atno 8009 bound_to 7997
  154.8955  140.0393  157.1852 H   0  0  0  0  0  0  0  0  0  0  0  0  # atno 8010 bound_to 7997
  140.3720  144.2093  150.6133 H   0  0  0  0  0  0  0  0  0  0  0  0  # atno 10167 bound_to 10162
  156.0253  130.5452  150.7205 H   0  0  0  0  0  0  0  0  0  0  0  0  # atno 10718 bound_to 10713
  154.8671  135.3655  154.5156 H   0  0  0  0  0  0  0  0  0  0  0  0  # atno 10763 bound_to 10752
  153.5789  135.7019  153.5477 H   0  0  0  0  0  0  0  0  0  0  0  0  # atno 10764 bound_to 10752
  153.3475  135.4081  155.1583 H   0  0  0  0  0  0  0  0  0  0  0  0  # atno 10765 bound_to 10752
  140.6694  134.4263  157.5232 H   0  0  0  0  0  0  0  0  0  0  0  0  # atno 11005 bound_to 11000
  146.3484  139.9692  142.8708 LP  0  0  0  0  0  0  0  0  0  0  0  0  # atno 17320 bound_to 7965
  145.1908  140.9811  143.4212 LP  0  0  0  0  0  0  0  0  0  0  0  0  # atno 17321 bound_to 7965
  140.5024  143.2314  151.8659 LP  0  0  0  0  0  0  0  0  0  0  0  0  # atno 17342 bound_to 10162
  139.4803  144.5044  151.9017 LP  0  0  0  0  0  0  0  0  0  0  0  0  # atno 17343 bound_to 10162
  157.4822  131.0903  151.0523 LP  0  0  0  0  0  0  0  0  0  0  0  0  # atno 17370 bound_to 10713
  157.0953  130.5959  149.5448 LP  0  0  0  0  0  0  0  0  0  0  0  0  # atno 17371 bound_to 10713
  139.8986  134.8609  156.1993 LP  0  0  0  0  0  0  0  0  0  0  0  0  # atno 17394 bound_to 11000
  141.0404  133.6941  156.1587 LP  0  0  0  0  0  0  0  0  0  0  0  0  # atno 17395 bound_to 11000

$$$$
