#       Name:                AV-unprocessed.smi:3052
#       Creating user name   scv26
#       Creation time:       Fri Mar 27 17:02:49 2020


#       File generated by GOLD software.
#

@<TRIPOS>MOLECULE
AV-unprocessed.smi:3052
    48    50     1
SMALL
NO_CHARGES


@<TRIPOS>ATOM
      1 ****        -2.0569   2.2623   2.2372 C.3            1 S1                 0.0000
      2 ****        -2.6066   2.1012   0.8471 C.2            1 S1                 0.0000
      3 ****        -3.6712   2.8043   0.4907 N.2            1 S1                 0.0000
      4 ****        -3.9948   2.4104  -0.8167 O.3            1 S1                 0.0000
      5 ****        -3.1123   1.4609  -1.2231 C.2            1 S1                 0.0000
      6 ****        -3.3064   0.9100  -2.5978 C.3            1 S1                 0.0000
      7 ****        -4.4162  -0.0677  -2.8936 C.3            1 S1                 0.0000
      8 ****        -2.9740  -0.5231  -2.9398 C.3            1 S1                 0.0000
      9 ****        -2.2007   1.2577  -0.2283 C.2            1 S1                 0.0000
     10 ****        -1.1319   0.3291  -0.2874 N.am           1 S1                 0.0000
     11 ****         0.1012   0.4884   0.2153 C.2            1 S1                 0.0000
     12 ****         0.4897   1.4943   0.8077 O.2            1 S1                 0.0000
     13 ****         0.8663  -0.5863  -0.0369 N.am           1 S1                 0.0000
     14 ****         2.2760  -0.8091   0.3120 C.3            1 S1                 0.0000
     15 ****         2.6307  -2.2158  -0.2301 C.3            1 S1                 0.0000
     16 ****         3.1708   0.2436  -0.3978 C.3            1 S1                 0.0000
     17 ****         3.0162   0.2316  -1.8044 O.3            1 S1                 0.0000
     18 ****         2.5193  -0.6964   1.8273 C.3            1 S1                 0.0000
     19 ****         3.6539  -1.3815   2.5547 C.3            1 S1                 0.0000
     20 ****         2.2185  -1.7931   2.8223 C.3            1 S1                 0.0000
     21 ****        -1.6341   1.3277   2.6056 H              1 S1                 0.0000
     22 ****        -2.8328   2.5662   2.9405 H              1 S1                 0.0000
     23 ****        -1.2735   3.0196   2.2632 H              1 S1                 0.0000
     24 ****        -3.0903   1.6635  -3.3527 H              1 S1                 0.0000
     25 ****        -5.0239  -0.4114  -2.0587 H              1 S1                 0.0000
     26 ****        -4.9415   0.0402  -3.8403 H              1 S1                 0.0000
     27 ****        -2.5390  -0.7169  -3.9181 H              1 S1                 0.0000
     28 ****        -2.6381  -1.1815  -2.1413 H              1 S1                 0.0000
     29 ****        -1.2859  -0.4884  -0.8592 H              1 S1                 0.0000
     30 ****         0.4268  -1.3408  -0.5431 H              1 S1                 0.0000
     31 ****         3.6875  -2.4499  -0.1049 H              1 S1                 0.0000
     32 ****         2.4206  -2.2951  -1.2973 H              1 S1                 0.0000
     33 ****         2.0516  -3.0021   0.2524 H              1 S1                 0.0000
     34 ****         2.9630   1.2512  -0.0373 H              1 S1                 0.0000
     35 ****         4.2209   0.0531  -0.1735 H              1 S1                 0.0000
     36 ****         3.5734   0.9002  -2.1726 H              1 S1                 0.0000
     37 ****         2.3179   0.3061   2.1992 H              1 S1                 0.0000
     38 ****         4.2817  -2.0885   2.0190 H              1 S1                 0.0000
     39 ****         4.1632  -0.8130   3.3302 H              1 S1                 0.0000
     40 ****         1.7817  -1.4949   3.7730 H              1 S1                 0.0000
     41 ****         1.8996  -2.7660   2.4579 H              1 S1                 0.0000
     42 ****        -4.1511   3.4838   1.0456 LP             1 S1                 0.0000
     43 ****        -3.9425   3.2004  -1.4276 LP             1 S1                 0.0000
     44 ****        -4.9220   2.0361  -0.8344 LP             1 S1                 0.0000
     45 ****        -0.1312   2.2667   0.9418 LP             1 S1                 0.0000
     46 ****         1.4263   1.5395   1.1551 LP             1 S1                 0.0000
     47 ****         2.0628   0.4191  -2.0407 LP             1 S1                 0.0000
     48 ****         3.2792  -0.6632  -2.1652 LP             1 S1                 0.0000
@<TRIPOS>BOND
    1    1    2 1     
    2    1   21 1     
    3    1   22 1     
    4    1   23 1     
    5    2    9 1     
    6    2    3 2     
    7    3    4 1     
    8    4    5 1     
    9    5    6 1     
   10    5    9 2     
   11    6    8 1     
   12    6    7 1     
   13    6   24 1     
   14    7    8 1     
   15    7   25 1     
   16    7   26 1     
   17    8   27 1     
   18    8   28 1     
   19    9   10 1     
   20   10   11 am    
   21   10   29 1     
   22   11   12 2     
   23   11   13 am    
   24   13   14 1     
   25   13   30 1     
   26   14   15 1     
   27   14   16 1     
   28   14   18 1     
   29   15   31 1     
   30   15   32 1     
   31   15   33 1     
   32   16   17 1     
   33   16   34 1     
   34   16   35 1     
   35   17   36 1     
   36   18   20 1     
   37   18   19 1     
   38   18   37 1     
   39   19   20 1     
   40   19   38 1     
   41   19   39 1     
   42   20   40 1     
   43   20   41 1     
   44    3   42 1     
   45    4   43 1     
   46    4   44 1     
   47   12   45 1     
   48   12   46 1     
   49   17   47 1     
   50   17   48 1     
@<TRIPOS>SUBSTRUCTURE
      1 S1             1
@<TRIPOS>SET
LONE_PAIRS      STATIC     ATOMS    <user>   **** ""
7 42 43 44 45 46 47 48
DONOR_HYDROGENS      STATIC     ATOMS    <user>   **** ""
3 29 30 36
ATOM$BLUE        STATIC     ATOMS    COLORGROUP SYSTEM
7 42 43 44 45 46 47 48
ATOM$RED        STATIC     ATOMS    COLORGROUP SYSTEM
3 29 30 36
