#       Name:                AV-unprocessed.smi:3104
#       Creating user name   scv26
#       Creation time:       Fri Mar 27 17:18:53 2020


#       File generated by GOLD software.
#

@<TRIPOS>MOLECULE
AV-unprocessed.smi:3104
    38    39     1
SMALL
NO_CHARGES


@<TRIPOS>ATOM
      1 ****        -2.8636  -0.0747   3.6358 C.3            1 S1                 0.0000
      2 ****        -2.5589  -0.0734   2.1655 C.2            1 S1                 0.0000
      3 ****        -2.8247  -1.0999   1.2158 C.2            1 S1                 0.0000
      4 ****        -2.4202  -0.7874  -0.0045 N.2            1 S1                 0.0000
      5 ****        -1.8990   0.4527   0.1153 N.pl3          1 S1                 0.0000
      6 ****        -1.3195   1.1081  -1.0523 C.3            1 S1                 0.0000
      7 ****        -1.9170   2.5197  -1.2064 C.3            1 S1                 0.0000
      8 ****         0.2298   1.0929  -0.9749 C.3            1 S1                 0.0000
      9 ****         0.8921   1.7442  -2.2041 C.3            1 S1                 0.0000
     10 ****         0.7099  -0.3016  -0.8252 N.4            1 S1                 1.0000
     11 ****         2.0301  -0.4499  -0.1804 C.3            1 S1                 0.0000
     12 ****         2.3884  -1.9120  -0.0168 C.3            1 S1                 0.0000
     13 ****         3.8060  -2.3120   0.3213 C.3            1 S1                 0.0000
     14 ****         3.2403  -2.6264  -1.0411 C.3            1 S1                 0.0000
     15 ****        -1.9610   0.9022   1.4195 C.2            1 S1                 0.0000
     16 ****        -3.5497  -0.8772   3.9072 H              1 S1                 0.0000
     17 ****        -3.3245   0.8610   3.9527 H              1 S1                 0.0000
     18 ****        -1.9612  -0.2075   4.2328 H              1 S1                 0.0000
     19 ****        -3.2919  -2.0604   1.3776 H              1 S1                 0.0000
     20 ****        -1.6209   0.5369  -1.9329 H              1 S1                 0.0000
     21 ****        -1.6486   2.9681  -2.1625 H              1 S1                 0.0000
     22 ****        -1.5767   3.1894  -0.4160 H              1 S1                 0.0000
     23 ****        -3.0065   2.4879  -1.1684 H              1 S1                 0.0000
     24 ****         0.5259   1.6524  -0.0859 H              1 S1                 0.0000
     25 ****         0.6321   2.7988  -2.2890 H              1 S1                 0.0000
     26 ****         0.5877   1.2496  -3.1271 H              1 S1                 0.0000
     27 ****         1.9796   1.6985  -2.1481 H              1 S1                 0.0000
     28 ****         0.0402  -0.7901  -0.2469 H              1 S1                 0.0000
     29 ****         2.8024   0.0544  -0.7616 H              1 S1                 0.0000
     30 ****         2.0059   0.0142   0.8063 H              1 S1                 0.0000
     31 ****         1.6135  -2.5039   0.4674 H              1 S1                 0.0000
     32 ****         4.5557  -1.5256   0.3827 H              1 S1                 0.0000
     33 ****         3.9433  -3.1415   1.0119 H              1 S1                 0.0000
     34 ****         2.9990  -3.6651  -1.2581 H              1 S1                 0.0000
     35 ****         3.6140  -2.0493  -1.8846 H              1 S1                 0.0000
     36 ****        -1.5766   1.8695   1.7083 H              1 S1                 0.0000
     37 ****         0.7253  -0.7436  -1.7333 H              1 S1                 0.0000
     38 ****        -2.4858  -1.3454  -0.8317 LP             1 S1                 0.0000
@<TRIPOS>BOND
    1    1    2 1     
    2    1   16 1     
    3    1   17 1     
    4    1   18 1     
    5    2   15 2     
    6    2    3 1     
    7    3    4 2     
    8    3   19 1     
    9    4    5 1     
   10    5    6 1     
   11    5   15 1     
   12    6    7 1     
   13    6    8 1     
   14    6   20 1     
   15    7   21 1     
   16    7   22 1     
   17    7   23 1     
   18    8    9 1     
   19    8   10 1     
   20    8   24 1     
   21    9   25 1     
   22    9   26 1     
   23    9   27 1     
   24   10   11 1     
   25   10   28 1     
   26   10   37 1     
   27   11   12 1     
   28   11   29 1     
   29   11   30 1     
   30   12   14 1     
   31   12   13 1     
   32   12   31 1     
   33   13   14 1     
   34   13   32 1     
   35   13   33 1     
   36   14   34 1     
   37   14   35 1     
   38   15   36 1     
   39    4   38 1     
@<TRIPOS>SUBSTRUCTURE
      1 S1             1
@<TRIPOS>SET
LONE_PAIRS      STATIC     ATOMS    <user>   **** ""
1 38
DONOR_HYDROGENS      STATIC     ATOMS    <user>   **** ""
2 28 37
ATOM$BLUE        STATIC     ATOMS    COLORGROUP SYSTEM
1 38
ATOM$RED        STATIC     ATOMS    COLORGROUP SYSTEM
2 28 37
