AV-unprocessed.smi:430|AV-procd|sdf|2546|dock8
  -GOLD-   2262022513D 1   1.00000     0.00000
 Structure written by MMmdl.
 37 38  0  0  0  0  0  0  0  0  1 V2000
  150.0460  133.7543  154.9646 C   0  0  0  0  0  0  0  0  0  0  0  0
  149.4553  135.1172  155.3586 C   0  0  0  0  0  0  0  0  0  0  0  0
  150.4093  136.2938  155.1281 C   0  0  0  0  0  0  0  0  0  0  0  0
  151.4742  136.3789  155.7408 O   0  0  0  0  0  0  0  0  0  0  0  0
  150.0055  137.2047  154.2297 N   0  0  0  0  0  0  0  0  0  0  0  0
  150.7580  138.3954  153.8455 C   0  0  0  0  0  0  0  0  0  0  0  0
  151.0809  139.3516  154.9867 C   0  0  0  0  0  0  0  0  0  0  0  0
  150.2702  140.4823  155.2024 C   0  0  0  0  0  0  0  0  0  0  0  0
  150.5704  141.3525  156.2676 C   0  0  0  0  0  0  0  0  0  0  0  0
  151.6835  141.0702  157.0992 C   0  0  0  0  0  0  0  0  0  0  0  0
  152.0368  141.8961  158.1906 N   0  0  0  0  0  0  0  0  0  0  0  0
  152.1440  141.2959  159.5178 C   0  0  0  0  0  0  0  0  0  0  0  0
  152.8505  142.2561  160.4897 C   0  0  0  0  0  0  0  0  0  0  0  0
  152.1787  143.5105  160.4998 O   0  0  0  0  0  0  0  0  0  0  0  0
  152.2086  144.1322  159.2200 C   0  0  0  0  0  0  0  0  0  0  0  0
  151.4802  143.2488  158.1927 C   0  0  0  0  0  0  0  0  0  0  0  0
  152.4569  139.9772  156.8904 N   0  0  0  0  0  0  0  0  0  0  0  0
  152.1630  139.1456  155.8692 C   0  0  0  0  0  0  0  0  0  0  0  0
  149.3212  132.9580  155.1335 H   0  0  0  0  0  0  0  0  0  0  0  0
  150.9344  133.5203  155.5522 H   0  0  0  0  0  0  0  0  0  0  0  0
  150.3215  133.7287  153.9097 H   0  0  0  0  0  0  0  0  0  0  0  0
  148.5422  135.2952  154.7898 H   0  0  0  0  0  0  0  0  0  0  0  0
  149.1704  135.0994  156.4114 H   0  0  0  0  0  0  0  0  0  0  0  0
  149.1170  137.0592  153.7723 H   0  0  0  0  0  0  0  0  0  0  0  0
  151.6824  138.0987  153.3471 H   0  0  0  0  0  0  0  0  0  0  0  0
  150.1715  138.9390  153.1049 H   0  0  0  0  0  0  0  0  0  0  0  0
  149.4263  140.6840  154.5590 H   0  0  0  0  0  0  0  0  0  0  0  0
  149.9464  142.2206  156.4154 H   0  0  0  0  0  0  0  0  0  0  0  0
  151.1460  141.0562  159.8867 H   0  0  0  0  0  0  0  0  0  0  0  0
  152.7118  140.3661  159.4691 H   0  0  0  0  0  0  0  0  0  0  0  0
  152.8438  141.8408  161.4975 H   0  0  0  0  0  0  0  0  0  0  0  0
  153.8963  142.3934  160.2098 H   0  0  0  0  0  0  0  0  0  0  0  0
  151.7228  145.1056  159.2874 H   0  0  0  0  0  0  0  0  0  0  0  0
  153.2406  144.3130  158.9146 H   0  0  0  0  0  0  0  0  0  0  0  0
  151.5575  143.7183  157.2121 H   0  0  0  0  0  0  0  0  0  0  0  0
  150.4186  143.1906  158.4356 H   0  0  0  0  0  0  0  0  0  0  0  0
  152.8149  138.2910  155.7649 H   0  0  0  0  0  0  0  0  0  0  0  0
  1  2  1  0  0  0  0
  1 19  1  0  0  0  0
  1 20  1  0  0  0  0
  1 21  1  0  0  0  0
  2  3  1  0  0  0  0
  2 22  1  0  0  0  0
  2 23  1  0  0  0  0
  3  4  2  0  0  0  0
  3  5  1  0  0  0  0
  5  6  1  0  0  0  0
  5 24  1  0  0  0  0
  6  7  1  0  0  0  0
  6 25  1  0  0  0  0
  6 26  1  0  0  0  0
  7 18  1  0  0  0  0
  7  8  2  0  0  0  0
  8  9  1  0  0  0  0
  8 27  1  0  0  0  0
  9 10  2  0  0  0  0
  9 28  1  0  0  0  0
 10 11  1  0  0  0  0
 10 17  1  0  0  0  0
 11 16  1  0  0  0  0
 11 12  1  0  0  0  0
 12 13  1  0  0  0  0
 12 29  1  0  0  0  0
 12 30  1  0  0  0  0
 13 14  1  0  0  0  0
 13 31  1  0  0  0  0
 13 32  1  0  0  0  0
 14 15  1  0  0  0  0
 15 16  1  0  0  0  0
 15 33  1  0  0  0  0
 15 34  1  0  0  0  0
 16 35  1  0  0  0  0
 16 36  1  0  0  0  0
 17 18  2  0  0  0  0
 18 37  1  0  0  0  0
M  END
> <s_m_source_file>
AV-unprocessed.smi

> <i_m_source_file_index>
430

> <i_lp_mmshare_version>
43012

> <i_f3d_flags>
0

> <s_epik_input>
W0NIM11bQ0gyXUMoPU8pW05IXVtDSDJdYzFbY0hdW2NIXWMobltjSF0xKU4yW0NIMl1bQ0gyXU9bQ0gyXVtDSDJdMg==

> <s_epik_cmdline>
J2VwaWtfcHl0aG9uJywgJy1waCcsICc3LjAnLCAnLXRuJywgJzgnLCAnLW1hJywgJzIwMCcsICctbWV0YWxfYmluZGluZycsICctaW1hZScsICc8aW5maWxlLm1hZT4nLCAnLW9tYWUnLCAnPG91dGZpbGUubWFlPic=

> <r_lp_tautomer_probability>
1

> <r_epik_Ionization_Penalty>
0.00505548

> <r_epik_Ionization_Penalty_Charging>
0

> <r_epik_Ionization_Penalty_Neutral>
0.00505548

> <r_epik_State_Penalty>
0.00367784

> <r_epik_Charging_Adjusted_Penalty>
0.00367784

> <i_epik_Tot_Q>
0

> <i_epik_Tot_abs_Q>
0

> <r_epik_Metal_State_Penalty>
-0

> <b_epik_Metal_Only>
0

> <s_lp_Force_Field>
OPLS_2005

> <r_lp_Energy>
16.0515

> <b_lp_Chiralities_Consistent>
1

> <s_lp_Variant>
AV-unprocessed.smi:430-1

> <Gold.Version>
5.8.1

> <Gold.Id.Protein>
6NUR|6NUR_protein|mol2

> <Gold.PLP.Fitness>
43.9590

> <Gold.PLP.PLP>
-37.1864

> <Gold.PLP.part.hbond>
-3.5636

> <Gold.PLP.part.metal>
0.0000

> <Gold.PLP.part.buried>
-3.6588

> <Gold.PLP.part.nonpolar>
-29.6782

> <Gold.PLP.part.repulsive>
0.1500

> <Gold.PLP.ligand.clash>
0.0000

> <Gold.PLP.ligand.torsion>
0.5817

> <Gold.PLP.Chemscore.Hbond>
2.4909

> <Gold.PLP.Chemscore.CHOScore>
0.0000

> <Gold.PLP.Chemscore.Metal>
0.0000

> <Gold.Chemscore.Hbonds>
donor molecule, donor type, donor heavy atom, donor atom, acceptor molecule, acceptor atom, score
      L1  H     5    24       P1  7948  0.39
      P1  H  7997  8009       L1    17  1.00
      P1  H 10752 10764       L1     4  1.00

> <Gold.PLP.Chemscore.Internal.Correction>
0.4635

> <Gold.Rescore>
     Score         DG    S(hbond)    S(metal)    S(lipo)     H(rot)  DE(clash)    DE(int)     intcor
     16.73     -18.65       2.02        0.00      90.36       1.62       0.06       1.86       ----

> <Gold.Chemscore.Fitness>
16.7297

> <Gold.Chemscore.DG>
-18.6486

> <Gold.Chemscore.ZeroCoef>
-5.4800

> <Gold.Chemscore.Hbond>
2.0176

> <Gold.Chemscore.Metal>
0.0000

> <Gold.Chemscore.Lipo>
90.3551

> <Gold.Chemscore.Internal_Hbond>
0.0000

> <Gold.Chemscore.DEClash>
0.0579

> <Gold.Chemscore.DEInternal>
1.8609

> <Gold.Chemscore.Rot>
1.6178

> <Gold.Chemscore.Internal.Correction>
   9.000000E+99

> <Gold.Chemscore.Hbonds>
donor molecule, donor type, donor heavy atom, donor atom, acceptor molecule, acceptor atom, score
      L1  H     5    24       P1  7948  0.36
      P1  H  7997  8009       L1    17  0.29
      P1  H 10752 10764       L1     4  0.84

> <Gold.Chemscore.Hbond.Weighted>
-6.7386

> <Gold.Chemscore.Metal.Weighted>
-0.0000

> <Gold.Chemscore.Lipo.Weighted>
-10.5715

> <Gold.Chemscore.Internal_Hbond.Weighted>
0.0000

> <Gold.Chemscore.DEClash.Weighted>
0.0579

> <Gold.Chemscore.DEInternal.Weighted>
1.8609

> <Gold.Chemscore.Rot.Weighted>
4.1416

> <Gold.Chemscore.Internal.Correction.Weighted>
   9.000000E+99

> <Gold.Protein.RotatedTorsions>
[ 6907 6896 6895 6894 ] final  -14.65 input  -60.11 | X-H torsion
[ 7974 7965 7964 7962 ] final -163.81 input  175.53 | X-H torsion
[ 8008 7997 7996 7995 ] final  174.37 input   59.86 | X-H torsion
[ 10167 10162 10161 10158 ] final  -97.88 input  -65.29 | X-H torsion
[ 10718 10713 10712 10709 ] final -100.60 input   66.30 | X-H torsion
[ 10763 10752 10751 10750 ] final  -49.78 input  -60.55 | X-H torsion
[ 11005 11000 10999 10996 ] final  128.93 input  -57.11 | X-H torsion

> <Gold.Protein.ActiveResidues>
 VAL166  LYS551  ARG553  GLY616  TRP617  ASP618  TYR619  PRO620  LYS621  CYS622 
 ASP623  PHE694  ASN695  SER759  ASP760  ASP761  ALA762  ILE779  LEU786  VAL792 
 PHE793  MET794  SER795  GLU796  ALA797  LYS798  CYS799  TRP800  GLU811  SER814 

> <Gold.Protein.RotatedAtoms>
  151.3361  135.0853  159.9354 H   0  0  0  0  0  0  0  0  0  0  0  0  # atno 6907 bound_to 6896
  152.5223  133.9494  159.7675 H   0  0  0  0  0  0  0  0  0  0  0  0  # atno 6908 bound_to 6896
  150.9842  133.6161  159.2748 H   0  0  0  0  0  0  0  0  0  0  0  0  # atno 6909 bound_to 6896
  144.7315  140.3053  143.6197 H   0  0  0  0  0  0  0  0  0  0  0  0  # atno 7974 bound_to 7965
  156.0981  140.1436  156.9503 H   0  0  0  0  0  0  0  0  0  0  0  0  # atno 8008 bound_to 7997
  154.4685  140.0918  156.7128 H   0  0  0  0  0  0  0  0  0  0  0  0  # atno 8009 bound_to 7997
  155.4806  140.3445  155.4341 H   0  0  0  0  0  0  0  0  0  0  0  0  # atno 8010 bound_to 7997
  140.2788  143.3296  152.0462 H   0  0  0  0  0  0  0  0  0  0  0  0  # atno 10167 bound_to 10162
  156.0168  130.5335  150.6841 H   0  0  0  0  0  0  0  0  0  0  0  0  # atno 10718 bound_to 10713
  154.0996  135.6565  153.4866 H   0  0  0  0  0  0  0  0  0  0  0  0  # atno 10763 bound_to 10752
  153.0293  135.5222  154.7299 H   0  0  0  0  0  0  0  0  0  0  0  0  # atno 10764 bound_to 10752
  154.6447  135.2993  155.0029 H   0  0  0  0  0  0  0  0  0  0  0  0  # atno 10765 bound_to 10752
  139.9587  134.9607  156.9074 H   0  0  0  0  0  0  0  0  0  0  0  0  # atno 11005 bound_to 11000
  145.7719  139.1860  143.2207 LP  0  0  0  0  0  0  0  0  0  0  0  0  # atno 17320 bound_to 7965
  146.0903  140.7663  142.9598 LP  0  0  0  0  0  0  0  0  0  0  0  0  # atno 17321 bound_to 7965
  139.4968  144.6606  151.6473 LP  0  0  0  0  0  0  0  0  0  0  0  0  # atno 17342 bound_to 10162
  140.5829  143.9914  150.6279 LP  0  0  0  0  0  0  0  0  0  0  0  0  # atno 17343 bound_to 10162
  157.4537  131.0875  151.0819 LP  0  0  0  0  0  0  0  0  0  0  0  0  # atno 17370 bound_to 10713
  157.1328  130.6109  149.5534 LP  0  0  0  0  0  0  0  0  0  0  0  0  # atno 17371 bound_to 10713
  140.5549  134.0591  155.7380 LP  0  0  0  0  0  0  0  0  0  0  0  0  # atno 17394 bound_to 11000
  141.1262  133.9379  157.2630 LP  0  0  0  0  0  0  0  0  0  0  0  0  # atno 17395 bound_to 11000

$$$$
