AV-unprocessed.smi:2432|AV-procd|sdf|9588|dock8
  -GOLD-   2272013223D 1   1.00000     0.00000
 Structure written by MMmdl.
 33 34  0  0  0  0  0  0  0  0  1 V2000
  147.5041  139.4149  153.4960 C   0  0  0  0  0  0  0  0  0  0  0  0
  148.6436  139.5639  154.3877 N   0  0  0  0  0  0  0  0  0  0  0  0
  149.3985  140.6693  154.4743 C   0  0  0  0  0  0  0  0  0  0  0  0
  149.1921  141.6740  153.7922 O   0  0  0  0  0  0  0  0  0  0  0  0
  150.5723  140.6190  155.4626 C   0  0  1  0  0  0  0  0  0  0  0  0
  150.4782  141.7064  156.5568 C   0  0  0  0  0  0  0  0  0  0  0  0
  151.5645  141.5591  157.5171 N   0  0  0  0  0  0  0  0  0  0  0  0
  151.7733  142.6117  158.3880 C   0  0  0  0  0  0  0  0  0  0  0  0
  151.6590  143.8523  157.8985 N   0  0  0  0  0  0  0  0  0  0  0  0
  151.8666  144.8709  158.7610 C   0  0  0  0  0  0  0  0  0  0  0  0
  152.1889  144.6443  160.1143 C   0  0  0  0  0  0  0  0  0  0  0  0
  152.2813  143.2946  160.5141 C   0  0  0  0  0  0  0  0  0  0  0  0
  152.6218  142.9112  161.9386 C   0  0  0  0  0  0  0  0  0  0  0  0
  152.0710  142.2797  159.6472 N   0  0  0  0  0  0  0  0  0  0  0  0
  151.6302  140.2192  158.0836 C   0  0  0  0  0  0  0  0  0  0  0  0
  151.7033  139.1721  156.9610 C   0  0  0  0  0  0  0  0  0  0  0  0
  150.5918  139.3339  156.0858 O   0  0  0  0  0  0  0  0  0  0  0  0
  147.1166  138.3980  153.5546 H   0  0  0  0  0  0  0  0  0  0  0  0
  147.7899  139.6112  152.4618 H   0  0  0  0  0  0  0  0  0  0  0  0
  146.7041  140.1024  153.7730 H   0  0  0  0  0  0  0  0  0  0  0  0
  148.8748  138.7805  154.9815 H   0  0  0  0  0  0  0  0  0  0  0  0
  151.4909  140.7530  154.8882 H   0  0  0  0  0  0  0  0  0  0  0  0
  150.5294  142.6992  156.1070 H   0  0  0  0  0  0  0  0  0  0  0  0
  149.5233  141.6391  157.0806 H   0  0  0  0  0  0  0  0  0  0  0  0
  151.7750  145.8731  158.3692 H   0  0  0  0  0  0  0  0  0  0  0  0
  152.3552  145.4611  160.8012 H   0  0  0  0  0  0  0  0  0  0  0  0
  152.8102  143.7942  162.5500 H   0  0  0  0  0  0  0  0  0  0  0  0
  153.5146  142.2856  161.9603 H   0  0  0  0  0  0  0  0  0  0  0  0
  151.7996  142.3540  162.3883 H   0  0  0  0  0  0  0  0  0  0  0  0
  152.5027  140.1350  158.7324 H   0  0  0  0  0  0  0  0  0  0  0  0
  150.7495  140.0447  158.7030 H   0  0  0  0  0  0  0  0  0  0  0  0
  152.6364  139.2635  156.4024 H   0  0  0  0  0  0  0  0  0  0  0  0
  151.6804  138.1668  157.3819 H   0  0  0  0  0  0  0  0  0  0  0  0
  1  2  1  0  0  0  0
  1 18  1  0  0  0  0
  1 19  1  0  0  0  0
  1 20  1  0  0  0  0
  2  3  1  0  0  0  0
  2 21  1  0  0  0  0
  3  4  2  0  0  0  0
  3  5  1  0  0  0  0
  5 17  1  0  0  0  0
  5  6  1  0  0  0  0
  5 22  1  0  0  0  0
  6  7  1  0  0  0  0
  6 23  1  0  0  0  0
  6 24  1  0  0  0  0
  7  8  1  0  0  0  0
  7 15  1  0  0  0  0
  8 14  1  0  0  0  0
  8  9  2  0  0  0  0
  9 10  1  0  0  0  0
 10 11  2  0  0  0  0
 10 25  1  0  0  0  0
 11 12  1  0  0  0  0
 11 26  1  0  0  0  0
 12 13  1  0  0  0  0
 12 14  2  0  0  0  0
 13 27  1  0  0  0  0
 13 28  1  0  0  0  0
 13 29  1  0  0  0  0
 15 16  1  0  0  0  0
 15 30  1  0  0  0  0
 15 31  1  0  0  0  0
 16 17  1  0  0  0  0
 16 32  1  0  0  0  0
 16 33  1  0  0  0  0
M  END
> <s_m_source_file>
AV-unprocessed.smi

> <i_m_source_file_index>
2432

> <i_lp_mmshare_version>
43012

> <i_f3d_flags>
0

> <s_epik_input>
W0NIM11bTkhdQyg9TylbQ0BASF0xW0NIMl1OKFtDSDJdW0NIMl1PMSljMm5bY0hdW2NIXWMobjIpW0NIM10=

> <s_epik_cmdline>
J2VwaWtfcHl0aG9uJywgJy1waCcsICc3LjAnLCAnLXRuJywgJzgnLCAnLW1hJywgJzIwMCcsICctbWV0YWxfYmluZGluZycsICctaW1hZScsICc8aW5maWxlLm1hZT4nLCAnLW9tYWUnLCAnPG91dGZpbGUubWFlPic=

> <r_lp_tautomer_probability>
1

> <r_epik_Ionization_Penalty>
3.16085e-05

> <r_epik_Ionization_Penalty_Charging>
0

> <r_epik_Ionization_Penalty_Neutral>
3.16085e-05

> <r_epik_State_Penalty>
-0

> <r_epik_Charging_Adjusted_Penalty>
0

> <i_epik_Tot_Q>
0

> <i_epik_Tot_abs_Q>
0

> <r_epik_Metal_State_Penalty>
-0

> <b_epik_Metal_Only>
0

> <s_lp_Force_Field>
OPLS_2005

> <r_lp_Energy>
12.5177

> <b_lp_Chiralities_Consistent>
1

> <s_lp_Variant>
AV-unprocessed.smi:2432-2

> <Gold.Version>
5.8.1

> <Gold.Id.Protein>
6NUR|6NUR_protein|mol2

> <Gold.PLP.Fitness>
37.4768

> <Gold.PLP.PLP>
-35.8045

> <Gold.PLP.part.hbond>
-2.0000

> <Gold.PLP.part.metal>
0.0000

> <Gold.PLP.part.buried>
-3.3365

> <Gold.PLP.part.nonpolar>
-29.3428

> <Gold.PLP.part.repulsive>
0.4112

> <Gold.PLP.ligand.clash>
0.0000

> <Gold.PLP.ligand.torsion>
0.2913

> <Gold.PLP.Chemscore.Hbond>
0.6560

> <Gold.PLP.Chemscore.CHOScore>
0.0000

> <Gold.PLP.Chemscore.Metal>
0.0000

> <Gold.Chemscore.Hbonds>
donor molecule, donor type, donor heavy atom, donor atom, acceptor molecule, acceptor atom, score
      P1  H  8011  8017       L1     4  0.66

> <Gold.PLP.Chemscore.Internal.Correction>
0.2870

> <Gold.Rescore>
     Score         DG    S(hbond)    S(metal)    S(lipo)     H(rot)  DE(clash)    DE(int)     intcor
     13.75     -14.13       0.76        0.00      80.91       1.31       0.16       0.21       ----

> <Gold.Chemscore.Fitness>
13.7501

> <Gold.Chemscore.DG>
-14.1267

> <Gold.Chemscore.ZeroCoef>
-5.4800

> <Gold.Chemscore.Hbond>
0.7578

> <Gold.Chemscore.Metal>
0.0000

> <Gold.Chemscore.Lipo>
80.9095

> <Gold.Chemscore.Internal_Hbond>
0.0000

> <Gold.Chemscore.DEClash>
0.1641

> <Gold.Chemscore.DEInternal>
0.2126

> <Gold.Chemscore.Rot>
1.3089

> <Gold.Chemscore.Internal.Correction>
   9.000000E+99

> <Gold.Chemscore.Hbonds>
donor molecule, donor type, donor heavy atom, donor atom, acceptor molecule, acceptor atom, score
      P1  H  8011  8017       L1     4  0.66

> <Gold.Chemscore.Hbond.Weighted>
-2.5311

> <Gold.Chemscore.Metal.Weighted>
-0.0000

> <Gold.Chemscore.Lipo.Weighted>
-9.4664

> <Gold.Chemscore.Internal_Hbond.Weighted>
0.0000

> <Gold.Chemscore.DEClash.Weighted>
0.1641

> <Gold.Chemscore.DEInternal.Weighted>
0.2126

> <Gold.Chemscore.Rot.Weighted>
3.3509

> <Gold.Chemscore.Internal.Correction.Weighted>
   9.000000E+99

> <Gold.Protein.RotatedTorsions>
[ 6907 6896 6895 6894 ] final -136.73 input  -60.11 | X-H torsion
[ 7974 7965 7964 7962 ] final   77.71 input  175.53 | X-H torsion
[ 8008 7997 7996 7995 ] final -123.91 input   59.86 | X-H torsion
[ 10167 10162 10161 10158 ] final   72.94 input  -65.29 | X-H torsion
[ 10718 10713 10712 10709 ] final  173.63 input   66.30 | X-H torsion
[ 10763 10752 10751 10750 ] final    1.52 input  -60.55 | X-H torsion
[ 11005 11000 10999 10996 ] final  -27.40 input  -57.11 | X-H torsion

> <Gold.Protein.ActiveResidues>
 VAL166  LYS551  ARG553  GLY616  TRP617  ASP618  TYR619  PRO620  LYS621  CYS622 
 ASP623  PHE694  ASN695  SER759  ASP760  ASP761  ALA762  ILE779  LEU786  VAL792 
 PHE793  MET794  SER795  GLU796  ALA797  LYS798  CYS799  TRP800  GLU811  SER814 

> <Gold.Protein.RotatedAtoms>
  151.0137  133.5941  159.2679 H   0  0  0  0  0  0  0  0  0  0  0  0  # atno 6907 bound_to 6896
  151.3083  135.0786  159.9273 H   0  0  0  0  0  0  0  0  0  0  0  0  # atno 6908 bound_to 6896
  152.5306  133.9807  159.7859 H   0  0  0  0  0  0  0  0  0  0  0  0  # atno 6909 bound_to 6896
  145.6865  139.2539  143.1784 H   0  0  0  0  0  0  0  0  0  0  0  0  # atno 7974 bound_to 7965
  155.1883  140.0412  157.2895 H   0  0  0  0  0  0  0  0  0  0  0  0  # atno 8008 bound_to 7997
  154.6156  140.2488  155.7585 H   0  0  0  0  0  0  0  0  0  0  0  0  # atno 8009 bound_to 7997
  156.2404  140.2905  156.0440 H   0  0  0  0  0  0  0  0  0  0  0  0  # atno 8010 bound_to 7997
  140.0298  144.5474  150.7515 H   0  0  0  0  0  0  0  0  0  0  0  0  # atno 10167 bound_to 10162
  156.9615  131.0062  151.2926 H   0  0  0  0  0  0  0  0  0  0  0  0  # atno 10718 bound_to 10713
  153.3070  135.6960  153.7151 H   0  0  0  0  0  0  0  0  0  0  0  0  # atno 10763 bound_to 10752
  153.6043  135.3456  155.2957 H   0  0  0  0  0  0  0  0  0  0  0  0  # atno 10764 bound_to 10752
  154.8565  135.4348  154.2197 H   0  0  0  0  0  0  0  0  0  0  0  0  # atno 10765 bound_to 10752
  140.9116  133.7457  156.0678 H   0  0  0  0  0  0  0  0  0  0  0  0  # atno 11005 bound_to 11000
  146.0919  140.7645  142.9591 LP  0  0  0  0  0  0  0  0  0  0  0  0  # atno 17320 bound_to 7965
  144.7010  140.3651  143.7156 LP  0  0  0  0  0  0  0  0  0  0  0  0  # atno 17321 bound_to 7965
  140.7307  143.2686  151.3963 LP  0  0  0  0  0  0  0  0  0  0  0  0  # atno 17342 bound_to 10162
  139.6083  144.1151  152.2272 LP  0  0  0  0  0  0  0  0  0  0  0  0  # atno 17343 bound_to 10162
  157.5654  130.8274  149.8321 LP  0  0  0  0  0  0  0  0  0  0  0  0  # atno 17370 bound_to 10713
  156.0320  130.3762  150.1662 LP  0  0  0  0  0  0  0  0  0  0  0  0  # atno 17371 bound_to 10713
  140.8103  134.3407  157.5414 LP  0  0  0  0  0  0  0  0  0  0  0  0  # atno 17394 bound_to 11000
  139.8758  134.9250  156.3363 LP  0  0  0  0  0  0  0  0  0  0  0  0  # atno 17395 bound_to 11000

$$$$
