AV-unprocessed.smi:48|AV-procd|sdf|462|dock7
  -GOLD-   2262016333D 1   1.00000     0.00000
 Structure written by MMmdl.
 30 32  0  0  0  0  0  0  0  0  1 V2000
  151.0686  135.9759  154.4089 O   0  0  0  0  0  0  0  0  0  0  0  0
  151.1780  136.9407  155.4334 C   0  0  0  0  0  0  0  0  0  0  0  0
  151.0306  138.3528  154.8467 C   0  0  2  0  0  0  0  0  0  0  0  0
  151.8060  139.2725  155.6054 O   0  0  0  0  0  0  0  0  0  0  0  0
  151.3047  140.5607  155.4274 C   0  0  2  0  0  0  0  0  0  0  0  0
  151.3628  141.2603  156.7462 N   0  0  0  0  0  0  0  0  0  0  0  0
  150.6580  142.3440  157.1308 C   0  0  0  0  0  0  0  0  0  0  0  0
  150.8729  142.8118  158.3597 N   0  0  0  0  0  0  0  0  0  0  0  0
  151.8375  141.9333  158.8248 C   0  0  0  0  0  0  0  0  0  0  0  0
  152.5314  141.8334  160.0552 C   0  0  0  0  0  0  0  0  0  0  0  0
  152.2304  142.9481  161.3375 Cl  0  0  0  0  0  0  0  0  0  0  0  0
  153.4397  140.8400  160.2048 N   0  0  0  0  0  0  0  0  0  0  0  0
  153.6534  139.9892  159.1937 C   0  0  0  0  0  0  0  0  0  0  0  0
  153.0779  139.9577  157.9863 N   0  0  0  0  0  0  0  0  0  0  0  0
  152.1621  140.9600  157.8374 C   0  0  0  0  0  0  0  0  0  0  0  0
  149.8555  140.4383  154.9258 C   0  0  1  0  0  0  0  0  0  0  0  0
  149.7344  140.9490  153.6105 O   0  0  0  0  0  0  0  0  0  0  0  0
  149.6206  138.9290  154.9860 C   0  0  1  0  0  0  0  0  0  0  0  0
  148.7302  138.4537  153.9933 O   0  0  0  0  0  0  0  0  0  0  0  0
  151.3437  138.3871  153.8011 H   0  0  0  0  0  0  0  0  0  0  0  0
  151.9524  141.1413  154.7683 H   0  0  0  0  0  0  0  0  0  0  0  0
  149.1632  140.9767  155.5749 H   0  0  0  0  0  0  0  0  0  0  0  0
  149.2151  138.6687  155.9638 H   0  0  0  0  0  0  0  0  0  0  0  0
  150.4511  135.3153  154.6830 H   0  0  0  0  0  0  0  0  0  0  0  0
  150.3796  136.7473  156.1504 H   0  0  0  0  0  0  0  0  0  0  0  0
  152.1241  136.8280  155.9640 H   0  0  0  0  0  0  0  0  0  0  0  0
  149.9438  142.8163  156.4722 H   0  0  0  0  0  0  0  0  0  0  0  0
  154.3901  139.2214  159.3782 H   0  0  0  0  0  0  0  0  0  0  0  0
  149.4891  140.2420  153.0337 H   0  0  0  0  0  0  0  0  0  0  0  0
  149.1112  137.6883  153.5913 H   0  0  0  0  0  0  0  0  0  0  0  0
  1  2  1  0  0  0  0
  1 24  1  0  0  0  0
  2  3  1  0  0  0  0
  2 25  1  0  0  0  0
  2 26  1  0  0  0  0
  3 20  1  0  0  0  0
  3 18  1  0  0  0  0
  3  4  1  0  0  0  0
  4  5  1  0  0  0  0
  5 21  1  0  0  0  0
  5  6  1  0  0  0  0
  5 16  1  0  0  0  0
  6 15  1  0  0  0  0
  6  7  1  0  0  0  0
  7  8  2  0  0  0  0
  7 27  1  0  0  0  0
  8  9  1  0  0  0  0
  9 15  2  0  0  0  0
  9 10  1  0  0  0  0
 10 11  1  0  0  0  0
 10 12  2  0  0  0  0
 12 13  1  0  0  0  0
 13 14  2  0  0  0  0
 13 28  1  0  0  0  0
 14 15  1  0  0  0  0
 16 22  1  0  0  0  0
 16 17  1  0  0  0  0
 16 18  1  0  0  0  0
 17 29  1  0  0  0  0
 18 23  1  0  0  0  0
 18 19  1  0  0  0  0
 19 30  1  0  0  0  0
M  END
> <s_m_source_file>
AV-unprocessed.smi

> <i_m_source_file_index>
48

> <i_lp_mmshare_version>
43012

> <i_f3d_flags>
0

> <s_epik_input>
W09IXVtDSDJdW0NASF0xT1tDQEhdKFtDQEhdKFtPSF0pW0NAQEhdMVtPSF0pbihbY0hdbjIpYyhjMjMpbltjSF1uYzNDbA==

> <s_epik_cmdline>
J2VwaWtfcHl0aG9uJywgJy1waCcsICc3LjAnLCAnLXRuJywgJzgnLCAnLW1hJywgJzIwMCcsICctbWV0YWxfYmluZGluZycsICctaW1hZScsICc8aW5maWxlLm1hZT4nLCAnLW9tYWUnLCAnPG91dGZpbGUubWFlPic=

> <r_lp_tautomer_probability>
1

> <r_epik_Ionization_Penalty>
3.45505e-06

> <r_epik_Ionization_Penalty_Charging>
0

> <r_epik_Ionization_Penalty_Neutral>
3.45505e-06

> <r_epik_State_Penalty>
-0

> <r_epik_Charging_Adjusted_Penalty>
0

> <i_epik_Tot_Q>
0

> <i_epik_Tot_abs_Q>
0

> <r_epik_Metal_State_Penalty>
-0

> <b_epik_Metal_Only>
0

> <s_epik_Chemistry_Notes>
This compound contains an acetal/aminal-like group ( X-CH(R)-Y where X, Y are N, S, or O) that may be acid/base labile, releasing an aldehyde.

> <s_lp_Force_Field>
OPLS_2005

> <r_lp_Energy>
36.5243

> <b_lp_Chiralities_Consistent>
1

> <s_lp_Variant>
AV-unprocessed.smi:48-16

> <Gold.Version>
5.8.1

> <Gold.Id.Protein>
6NUR|6NUR_protein|mol2

> <Gold.PLP.Fitness>
47.5066

> <Gold.PLP.PLP>
-34.0038

> <Gold.PLP.part.hbond>
-6.9657

> <Gold.PLP.part.metal>
0.0000

> <Gold.PLP.part.buried>
-0.7021

> <Gold.PLP.part.nonpolar>
-24.6019

> <Gold.PLP.part.repulsive>
0.0873

> <Gold.PLP.ligand.clash>
0.0000

> <Gold.PLP.ligand.torsion>
1.0239

> <Gold.PLP.Chemscore.Hbond>
4.1782

> <Gold.PLP.Chemscore.CHOScore>
1.0000

> <Gold.PLP.Chemscore.Metal>
0.0000

> <Gold.Chemscore.Hbonds>
donor molecule, donor type, donor heavy atom, donor atom, acceptor molecule, acceptor atom, score
      L1  H    17    29       P1  7957  0.64
      L1  H    19    30       P1  7948  0.43
      P1  H  7989  7998       L1    17  0.14
      P1  H  7997  8010       L1    14  1.00
      P1  H  8011  8017       L1    17  1.00
      P1  H 10752 10764       L1     1  0.89
      L1  C     7    27       P1  8028  1.00

> <Gold.PLP.Chemscore.Internal.Correction>
0.0159

> <Gold.Rescore>
     Score         DG    S(hbond)    S(metal)    S(lipo)     H(rot)  DE(clash)    DE(int)     intcor
      5.46      -8.19       1.89        0.00      52.45       3.80       0.52       2.22       ----

> <Gold.Chemscore.Fitness>
5.4554

> <Gold.Chemscore.DG>
-8.1924

> <Gold.Chemscore.ZeroCoef>
-5.4800

> <Gold.Chemscore.Hbond>
1.8886

> <Gold.Chemscore.Metal>
0.0000

> <Gold.Chemscore.Lipo>
52.4517

> <Gold.Chemscore.Internal_Hbond>
0.0000

> <Gold.Chemscore.DEClash>
0.5175

> <Gold.Chemscore.DEInternal>
2.2194

> <Gold.Chemscore.Rot>
3.8017

> <Gold.Chemscore.Internal.Correction>
   9.000000E+99

> <Gold.Chemscore.Hbonds>
donor molecule, donor type, donor heavy atom, donor atom, acceptor molecule, acceptor atom, score
      L1  H    17    29       P1  7957  0.64
      L1  H    19    30       P1  7948  0.40
      P1  H  7997  8010       L1    14  0.43
      P1  H  8011  8017       L1    17  0.24
      P1  H 10752 10764       L1     1  0.16

> <Gold.Chemscore.Hbond.Weighted>
-6.3079

> <Gold.Chemscore.Metal.Weighted>
-0.0000

> <Gold.Chemscore.Lipo.Weighted>
-6.1368

> <Gold.Chemscore.Internal_Hbond.Weighted>
0.0000

> <Gold.Chemscore.DEClash.Weighted>
0.5175

> <Gold.Chemscore.DEInternal.Weighted>
2.2194

> <Gold.Chemscore.Rot.Weighted>
9.7324

> <Gold.Chemscore.Internal.Correction.Weighted>
   9.000000E+99

> <Gold.Protein.RotatedTorsions>
[ 6907 6896 6895 6894 ] final  -90.87 input  -60.11 | X-H torsion
[ 7974 7965 7964 7962 ] final -132.68 input  175.53 | X-H torsion
[ 8008 7997 7996 7995 ] final   51.50 input   59.86 | X-H torsion
[ 10167 10162 10161 10158 ] final  -82.75 input  -65.29 | X-H torsion
[ 10718 10713 10712 10709 ] final  141.02 input   66.30 | X-H torsion
[ 10763 10752 10751 10750 ] final  -89.52 input  -60.55 | X-H torsion
[ 11005 11000 10999 10996 ] final  -15.46 input  -57.11 | X-H torsion

> <Gold.Protein.ActiveResidues>
 VAL166  LYS551  ARG553  GLY616  TRP617  ASP618  TYR619  PRO620  LYS621  CYS622 
 ASP623  PHE694  ASN695  SER759  ASP760  ASP761  ALA762  ILE779  LEU786  VAL792 
 PHE793  MET794  SER795  GLU796  ALA797  LYS798  CYS799  TRP800  GLU811  SER814 

> <Gold.Protein.RotatedAtoms>
  150.6886  134.2365  159.4455 H   0  0  0  0  0  0  0  0  0  0  0  0  # atno 6907 bound_to 6896
  152.0312  134.9764  160.0582 H   0  0  0  0  0  0  0  0  0  0  0  0  # atno 6908 bound_to 6896
  152.1302  133.4369  159.4754 H   0  0  0  0  0  0  0  0  0  0  0  0  # atno 6909 bound_to 6896
  144.9263  140.7074  143.4934 H   0  0  0  0  0  0  0  0  0  0  0  0  # atno 7974 bound_to 7965
  155.4364  140.3452  155.4285 H   0  0  0  0  0  0  0  0  0  0  0  0  # atno 8008 bound_to 7997
  156.1305  140.1513  156.9102 H   0  0  0  0  0  0  0  0  0  0  0  0  # atno 8009 bound_to 7997
  154.4891  140.0846  156.7534 H   0  0  0  0  0  0  0  0  0  0  0  0  # atno 8010 bound_to 7997
  140.4291  143.2555  151.8784 H   0  0  0  0  0  0  0  0  0  0  0  0  # atno 10167 bound_to 10162
  157.3967  131.1011  151.0592 H   0  0  0  0  0  0  0  0  0  0  0  0  # atno 10718 bound_to 10713
  154.6561  135.5338  153.7961 H   0  0  0  0  0  0  0  0  0  0  0  0  # atno 10763 bound_to 10752
  153.0414  135.6494  154.0943 H   0  0  0  0  0  0  0  0  0  0  0  0  # atno 10764 bound_to 10752
  154.0856  135.2944  155.3262 H   0  0  0  0  0  0  0  0  0  0  0  0  # atno 10765 bound_to 10752
  140.7969  133.8244  155.9432 H   0  0  0  0  0  0  0  0  0  0  0  0  # atno 11005 bound_to 11000
  145.3215  139.1787  143.4585 LP  0  0  0  0  0  0  0  0  0  0  0  0  # atno 17320 bound_to 7965
  146.3227  140.3232  142.8635 LP  0  0  0  0  0  0  0  0  0  0  0  0  # atno 17321 bound_to 7965
  139.4784  144.5354  151.8606 LP  0  0  0  0  0  0  0  0  0  0  0  0  # atno 17342 bound_to 10162
  140.4447  144.1937  150.5893 LP  0  0  0  0  0  0  0  0  0  0  0  0  # atno 17343 bound_to 10162
  157.1606  130.6224  149.5610 LP  0  0  0  0  0  0  0  0  0  0  0  0  # atno 17370 bound_to 10713
  155.9812  130.4818  150.6816 LP  0  0  0  0  0  0  0  0  0  0  0  0  # atno 17371 bound_to 10713
  140.9334  134.1993  157.4848 LP  0  0  0  0  0  0  0  0  0  0  0  0  # atno 17394 bound_to 11000
  139.8725  134.9842  156.5230 LP  0  0  0  0  0  0  0  0  0  0  0  0  # atno 17395 bound_to 11000

$$$$
