AV-unprocessed.smi:1377|AV-procd|sdf|5595|dock2
  -GOLD-   22720 5203D 1   1.00000     0.00000
 Structure written by MMmdl.
 28 29  0  0  0  0  0  0  0  0  2 V2000
  149.2917  142.0776  154.4504 N   0  0  0  0  0  0  0  0  0  0  0  0
  148.5073  141.0047  154.5803 C   0  0  0  0  0  0  0  0  0  0  0  0
  147.4014  141.0712  155.1152 O   0  0  0  0  0  0  0  0  0  0  0  0
  149.0632  139.6844  154.0295 C   0  0  0  0  0  0  0  0  0  0  0  0
  150.3776  139.3095  154.6565 C   0  0  0  0  0  0  0  0  0  0  0  0
  151.2430  138.3298  154.2410 C   0  0  0  0  0  0  0  0  0  0  0  0
  152.6521  138.2410  155.2579 S   0  0  0  0  0  0  0  0  0  0  0  0
  152.0259  139.5790  156.2233 C   0  0  0  0  0  0  0  0  0  0  0  0
  152.6411  140.1118  157.2905 N   0  5  0  0  0  0  0  0  0  0  0  0
  152.1209  141.2138  157.8815 C   0  0  0  0  0  0  0  0  0  0  0  0
  150.9796  141.6701  157.7903 O   0  0  0  0  0  0  0  0  0  0  0  0
  153.1627  141.9090  158.7722 C   0  0  0  0  0  0  0  0  0  0  0  0
  153.4481  141.2375  160.1297 C   0  0  0  0  0  0  0  0  0  0  0  0
  153.4261  142.6292  160.7698 C   0  0  0  0  0  0  0  0  0  0  0  0
  152.6258  143.1176  159.5588 C   0  0  0  0  0  0  0  0  0  0  0  0
  150.8388  140.0048  155.7783 N   0  0  0  0  0  0  0  0  0  0  0  0
  148.9771  142.9715  154.7987 H   0  0  0  0  0  0  0  0  0  0  0  0
  150.1955  141.9916  154.0092 H   0  0  0  0  0  0  0  0  0  0  0  0
  148.3317  138.8938  154.2001 H   0  0  0  0  0  0  0  0  0  0  0  0
  149.1664  139.7794  152.9478 H   0  0  0  0  0  0  0  0  0  0  0  0
  151.1342  137.6531  153.4071 H   0  0  0  0  0  0  0  0  0  0  0  0
  154.0839  142.1445  158.2357 H   0  0  0  0  0  0  0  0  0  0  0  0
  152.6429  140.6009  160.5002 H   0  0  0  0  0  0  0  0  0  0  0  0
  154.4137  140.7353  160.1899 H   0  0  0  0  0  0  0  0  0  0  0  0
  152.8946  142.6863  161.7199 H   0  0  0  0  0  0  0  0  0  0  0  0
  154.4173  143.0810  160.8304 H   0  0  0  0  0  0  0  0  0  0  0  0
  152.9462  144.0851  159.1720 H   0  0  0  0  0  0  0  0  0  0  0  0
  151.5469  143.0894  159.7233 H   0  0  0  0  0  0  0  0  0  0  0  0
  1  2  1  0  0  0  0
  1 17  1  0  0  0  0
  1 18  1  0  0  0  0
  2  3  2  0  0  0  0
  2  4  1  0  0  0  0
  4  5  1  0  0  0  0
  4 19  1  0  0  0  0
  4 20  1  0  0  0  0
  5 16  1  0  0  0  0
  5  6  2  0  0  0  0
  6  7  1  0  0  0  0
  6 21  1  0  0  0  0
  7  8  1  0  0  0  0
  8  9  1  0  0  0  0
  8 16  2  0  0  0  0
  9 10  1  0  0  0  0
 10 11  2  0  0  0  0
 10 12  1  0  0  0  0
 12 15  1  0  0  0  0
 12 13  1  0  0  0  0
 12 22  1  0  0  0  0
 13 14  1  0  0  0  0
 13 23  1  0  0  0  0
 13 24  1  0  0  0  0
 14 15  1  0  0  0  0
 14 25  1  0  0  0  0
 14 26  1  0  0  0  0
 15 27  1  0  0  0  0
 15 28  1  0  0  0  0
M  CHG  1   9  -1
M  END
> <s_m_source_file>
AV-unprocessed.smi

> <i_m_source_file_index>
1377

> <i_lp_mmshare_version>
43012

> <i_f3d_flags>
0

> <s_epik_input>
W05IMl1DKD1PKVtDSDJdYzFbY0hdc2MobjEpW05IXUMoPU8pW0NIXTJbQ0gyXVtDSDJdW0NIMl0y

> <s_epik_cmdline>
J2VwaWtfcHl0aG9uJywgJy1waCcsICc3LjAnLCAnLXRuJywgJzgnLCAnLW1hJywgJzIwMCcsICctbWV0YWxfYmluZGluZycsICctaW1hZScsICc8aW5maWxlLm1hZT4nLCAnLW9tYWUnLCAnPG91dGZpbGUubWFlPic=

> <r_lp_tautomer_probability>
1

> <r_epik_Ionization_Penalty>
5.13356

> <r_epik_Ionization_Penalty_Charging>
4.74096

> <r_epik_Ionization_Penalty_Neutral>
0.392596

> <r_epik_State_Penalty>
4.74076

> <r_epik_Charging_Adjusted_Penalty>
9.48173

> <i_epik_Tot_Q>
-1

> <i_epik_Tot_abs_Q>
1

> <r_epik_Metal_State_Penalty>
0.951691

> <b_epik_Metal_Only>
1

> <s_lp_Force_Field>
OPLS_2005

> <r_lp_Energy>
7.89776

> <b_lp_Chiralities_Consistent>
1

> <s_lp_Variant>
AV-unprocessed.smi:1377-2

> <Gold.Version>
5.8.1

> <Gold.Id.Protein>
6NUR|6NUR_protein|mol2

> <Gold.PLP.Fitness>
43.7911

> <Gold.PLP.PLP>
-32.3679

> <Gold.PLP.part.hbond>
-2.0000

> <Gold.PLP.part.metal>
0.0000

> <Gold.PLP.part.buried>
-3.4561

> <Gold.PLP.part.nonpolar>
-26.8563

> <Gold.PLP.part.repulsive>
0.5499

> <Gold.PLP.ligand.clash>
0.0000

> <Gold.PLP.ligand.torsion>
0.4345

> <Gold.PLP.Chemscore.Hbond>
3.0000

> <Gold.PLP.Chemscore.CHOScore>
0.9641

> <Gold.PLP.Chemscore.Metal>
0.0000

> <Gold.Chemscore.Hbonds>
donor molecule, donor type, donor heavy atom, donor atom, acceptor molecule, acceptor atom, score
      L1  H     1    17       P1  8028  1.00
      P1  H  7997  8010       L1     9  2.00
      L1  C     6    21       P1  7949  0.98

> <Gold.PLP.Chemscore.Internal.Correction>
0.4000

> <Gold.Rescore>
     Score         DG    S(hbond)    S(metal)    S(lipo)     H(rot)  DE(clash)    DE(int)     intcor
     11.89     -14.41       1.65        0.00      70.55       1.89       0.30       2.22       ----

> <Gold.Chemscore.Fitness>
11.8862

> <Gold.Chemscore.DG>
-14.4051

> <Gold.Chemscore.ZeroCoef>
-5.4800

> <Gold.Chemscore.Hbond>
1.6523

> <Gold.Chemscore.Metal>
0.0000

> <Gold.Chemscore.Lipo>
70.5469

> <Gold.Chemscore.Internal_Hbond>
0.0000

> <Gold.Chemscore.DEClash>
0.2985

> <Gold.Chemscore.DEInternal>
2.2205

> <Gold.Chemscore.Rot>
1.8935

> <Gold.Chemscore.Internal.Correction>
   9.000000E+99

> <Gold.Chemscore.Hbonds>
donor molecule, donor type, donor heavy atom, donor atom, acceptor molecule, acceptor atom, score
      L1  H     1    17       P1  8028  0.99
      P1  H  7997  8010       L1     9  0.25

> <Gold.Chemscore.Hbond.Weighted>
-5.5186

> <Gold.Chemscore.Metal.Weighted>
-0.0000

> <Gold.Chemscore.Lipo.Weighted>
-8.2540

> <Gold.Chemscore.Internal_Hbond.Weighted>
0.0000

> <Gold.Chemscore.DEClash.Weighted>
0.2985

> <Gold.Chemscore.DEInternal.Weighted>
2.2205

> <Gold.Chemscore.Rot.Weighted>
4.8475

> <Gold.Chemscore.Internal.Correction.Weighted>
   9.000000E+99

> <Gold.Protein.RotatedTorsions>
[ 6907 6896 6895 6894 ] final  -79.98 input  -60.11 | X-H torsion
[ 7974 7965 7964 7962 ] final -151.11 input  175.53 | X-H torsion
[ 8008 7997 7996 7995 ] final   55.95 input   59.86 | X-H torsion
[ 10167 10162 10161 10158 ] final  -86.35 input  -65.29 | X-H torsion
[ 10718 10713 10712 10709 ] final   14.86 input   66.30 | X-H torsion
[ 10763 10752 10751 10750 ] final  -73.70 input  -60.55 | X-H torsion
[ 11005 11000 10999 10996 ] final -160.63 input  -57.11 | X-H torsion

> <Gold.Protein.ActiveResidues>
 VAL166  LYS551  ARG553  GLY616  TRP617  ASP618  TYR619  PRO620  LYS621  CYS622 
 ASP623  PHE694  ASN695  SER759  ASP760  ASP761  ALA762  ILE779  LEU786  VAL792 
 PHE793  MET794  SER795  GLU796  ALA797  LYS798  CYS799  TRP800  GLU811  SER814 

> <Gold.Protein.RotatedAtoms>
  150.6938  134.4039  159.5131 H   0  0  0  0  0  0  0  0  0  0  0  0  # atno 6907 bound_to 6896
  152.1809  134.8752  160.0535 H   0  0  0  0  0  0  0  0  0  0  0  0  # atno 6908 bound_to 6896
  151.9743  133.3701  159.4120 H   0  0  0  0  0  0  0  0  0  0  0  0  # atno 6909 bound_to 6896
  144.7869  140.4842  143.5800 H   0  0  0  0  0  0  0  0  0  0  0  0  # atno 7974 bound_to 7965
  155.5095  140.3476  155.4386 H   0  0  0  0  0  0  0  0  0  0  0  0  # atno 8008 bound_to 7997
  156.0859  140.1398  156.9681 H   0  0  0  0  0  0  0  0  0  0  0  0  # atno 8009 bound_to 7997
  154.4606  140.0936  156.6859 H   0  0  0  0  0  0  0  0  0  0  0  0  # atno 8010 bound_to 7997
  140.3949  143.2688  151.9217 H   0  0  0  0  0  0  0  0  0  0  0  0  # atno 10167 bound_to 10162
  157.0453  130.6247  149.5758 H   0  0  0  0  0  0  0  0  0  0  0  0  # atno 10718 bound_to 10713
  154.4631  135.5888  153.6269 H   0  0  0  0  0  0  0  0  0  0  0  0  # atno 10763 bound_to 10752
  152.9825  135.6048  154.3461 H   0  0  0  0  0  0  0  0  0  0  0  0  # atno 10764 bound_to 10752
  154.3335  135.2842  155.2438 H   0  0  0  0  0  0  0  0  0  0  0  0  # atno 10765 bound_to 10752
  140.6294  134.4667  157.5228 H   0  0  0  0  0  0  0  0  0  0  0  0  # atno 11005 bound_to 11000
  145.5898  139.1495  143.3188 LP  0  0  0  0  0  0  0  0  0  0  0  0  # atno 17320 bound_to 7965
  146.2104  140.6025  142.9062 LP  0  0  0  0  0  0  0  0  0  0  0  0  # atno 17321 bound_to 7965
  139.4787  144.5691  151.8117 LP  0  0  0  0  0  0  0  0  0  0  0  0  # atno 17342 bound_to 10162
  140.4801  144.1462  150.5931 LP  0  0  0  0  0  0  0  0  0  0  0  0  # atno 17343 bound_to 10162
  156.0025  130.5106  150.7714 LP  0  0  0  0  0  0  0  0  0  0  0  0  # atno 17370 bound_to 10713
  157.5073  131.0923  151.0241 LP  0  0  0  0  0  0  0  0  0  0  0  0  # atno 17371 bound_to 10713
  139.9122  134.8321  156.1488 LP  0  0  0  0  0  0  0  0  0  0  0  0  # atno 17394 bound_to 11000
  141.0686  133.6807  156.2095 LP  0  0  0  0  0  0  0  0  0  0  0  0  # atno 17395 bound_to 11000

$$$$
