AV-unprocessed.smi:326|AV-procd|sdf|2345|dock10
  -GOLD-   2262022253D 1   1.00000     0.00000
 Structure written by MMmdl.
 44 45  0  0  0  0  0  0  0  0  1 V2000
  152.7127  136.3812  156.9478 C   0  0  0  0  0  0  0  0  0  0  0  0
  151.9986  135.6054  156.0020 O   0  0  0  0  0  0  0  0  0  0  0  0
  150.7797  136.2147  155.6076 C   0  0  0  0  0  0  0  0  0  0  0  0
  151.0586  137.2479  154.5043 C   0  0  0  0  0  0  0  0  0  0  0  0
  150.0228  138.2855  154.4547 N   0  0  0  0  0  0  0  0  0  0  0  0
  148.7507  137.7977  154.2092 N   0  0  0  0  0  0  0  0  0  0  0  0
  147.7452  138.6088  154.1361 C   0  0  0  0  0  0  0  0  0  0  0  0
  146.3632  138.1214  153.8745 C   0  0  0  0  0  0  0  0  0  0  0  0
  145.3829  138.6038  154.4442 O   0  0  0  0  0  0  0  0  0  0  0  0
  146.2717  137.1175  152.9845 N   0  0  0  0  0  0  0  0  0  0  0  0
  145.0448  136.4286  152.5914 C   0  0  2  0  0  0  0  0  0  0  0  0
  144.7961  135.1960  153.4848 C   0  0  0  0  0  0  0  0  0  0  0  0
  145.8246  134.0788  153.2312 C   0  0  0  0  0  0  0  0  0  0  0  0
  145.8699  133.6737  151.7451 C   0  0  2  0  0  0  0  0  0  0  0  0
  146.9008  132.5640  151.4956 C   0  0  0  0  0  0  0  0  0  0  0  0
  146.1433  134.9035  150.8583 C   0  0  0  0  0  0  0  0  0  0  0  0
  145.1162  136.0227  151.1072 C   0  0  0  0  0  0  0  0  0  0  0  0
  147.9291  140.0394  154.3124 C   0  0  0  0  0  0  0  0  0  0  0  0
  149.1773  140.5015  154.5444 C   0  0  0  0  0  0  0  0  0  0  0  0
  150.3328  139.6062  154.6238 C   0  0  0  0  0  0  0  0  0  0  0  0
  151.4804  140.0040  154.8223 O   0  0  0  0  0  0  0  0  0  0  0  0
  153.6375  135.8704  157.2165 H   0  0  0  0  0  0  0  0  0  0  0  0
  152.1306  136.5263  157.8587 H   0  0  0  0  0  0  0  0  0  0  0  0
  152.9745  137.3585  156.5396 H   0  0  0  0  0  0  0  0  0  0  0  0
  150.0990  135.4519  155.2272 H   0  0  0  0  0  0  0  0  0  0  0  0
  150.2922  136.6859  156.4628 H   0  0  0  0  0  0  0  0  0  0  0  0
  152.0400  137.6985  154.6644 H   0  0  0  0  0  0  0  0  0  0  0  0
  151.1283  136.7443  153.5387 H   0  0  0  0  0  0  0  0  0  0  0  0
  147.1283  136.7882  152.5627 H   0  0  0  0  0  0  0  0  0  0  0  0
  144.2070  137.1186  152.7073 H   0  0  0  0  0  0  0  0  0  0  0  0
  144.8066  135.4813  154.5375 H   0  0  0  0  0  0  0  0  0  0  0  0
  143.7956  134.8091  153.2880 H   0  0  0  0  0  0  0  0  0  0  0  0
  146.8125  134.4102  153.5544 H   0  0  0  0  0  0  0  0  0  0  0  0
  145.5774  133.2124  153.8456 H   0  0  0  0  0  0  0  0  0  0  0  0
  144.8897  133.2771  151.4760 H   0  0  0  0  0  0  0  0  0  0  0  0
  147.9091  132.8959  151.7446 H   0  0  0  0  0  0  0  0  0  0  0  0
  146.9003  132.2564  150.4496 H   0  0  0  0  0  0  0  0  0  0  0  0
  146.6820  131.6817  152.0978 H   0  0  0  0  0  0  0  0  0  0  0  0
  147.1497  135.2793  151.0479 H   0  0  0  0  0  0  0  0  0  0  0  0
  146.1183  134.6161  149.8067 H   0  0  0  0  0  0  0  0  0  0  0  0
  144.1327  135.6797  150.7836 H   0  0  0  0  0  0  0  0  0  0  0  0
  145.3519  136.8903  150.4895 H   0  0  0  0  0  0  0  0  0  0  0  0
  147.0940  140.7229  154.2580 H   0  0  0  0  0  0  0  0  0  0  0  0
  149.3291  141.5628  154.6752 H   0  0  0  0  0  0  0  0  0  0  0  0
  1  2  1  0  0  0  0
  1 22  1  0  0  0  0
  1 23  1  0  0  0  0
  1 24  1  0  0  0  0
  2  3  1  0  0  0  0
  3  4  1  0  0  0  0
  3 25  1  0  0  0  0
  3 26  1  0  0  0  0
  4  5  1  0  0  0  0
  4 27  1  0  0  0  0
  4 28  1  0  0  0  0
  5 20  1  0  0  0  0
  5  6  1  0  0  0  0
  6  7  2  0  0  0  0
  7  8  1  0  0  0  0
  7 18  1  0  0  0  0
  8  9  2  0  0  0  0
  8 10  1  0  0  0  0
 10 11  1  0  0  0  0
 10 29  1  0  0  0  0
 11 17  1  0  0  0  0
 11 12  1  0  0  0  0
 11 30  1  0  0  0  0
 12 13  1  0  0  0  0
 12 31  1  0  0  0  0
 12 32  1  0  0  0  0
 13 14  1  0  0  0  0
 13 33  1  0  0  0  0
 13 34  1  0  0  0  0
 14 15  1  0  0  0  0
 14 16  1  0  0  0  0
 14 35  1  0  0  0  0
 15 36  1  0  0  0  0
 15 37  1  0  0  0  0
 15 38  1  0  0  0  0
 16 17  1  0  0  0  0
 16 39  1  0  0  0  0
 16 40  1  0  0  0  0
 17 41  1  0  0  0  0
 17 42  1  0  0  0  0
 18 19  2  0  0  0  0
 18 43  1  0  0  0  0
 19 20  1  0  0  0  0
 19 44  1  0  0  0  0
 20 21  2  0  0  0  0
M  END
> <s_m_source_file>
AV-unprocessed.smi

> <i_m_source_file_index>
326

> <i_lp_mmshare_version>
43012

> <i_f3d_flags>
0

> <s_epik_input>
W0NIM11PW0NIMl1bQ0gyXW4xbmMoW2NIXVtjSF1jMT1PKUMoPU8pW05IXVtDQEBIXTJbQ0gyXVtDSDJdW0NAQEhdKFtDSDNdKVtDSDJdW0NIMl0y

> <s_epik_cmdline>
J2VwaWtfcHl0aG9uJywgJy1waCcsICc3LjAnLCAnLXRuJywgJzgnLCAnLW1hJywgJzIwMCcsICctbWV0YWxfYmluZGluZycsICctaW1hZScsICc8aW5maWxlLm1hZT4nLCAnLW9tYWUnLCAnPG91dGZpbGUubWFlPic=

> <r_lp_tautomer_probability>
1

> <r_epik_Ionization_Penalty>
6.47102e-07

> <r_epik_Ionization_Penalty_Charging>
6.8576e-09

> <r_epik_Ionization_Penalty_Neutral>
6.40245e-07

> <r_epik_State_Penalty>
-0

> <r_epik_Charging_Adjusted_Penalty>
6.8576e-09

> <i_epik_Tot_Q>
0

> <i_epik_Tot_abs_Q>
0

> <r_epik_Metal_State_Penalty>
-0

> <b_epik_Metal_Only>
0

> <s_lp_Force_Field>
OPLS_2005

> <r_lp_Energy>
28.5252

> <b_lp_Chiralities_Consistent>
1

> <s_lp_Variant>
AV-unprocessed.smi:326-2

> <Gold.Version>
5.8.1

> <Gold.Id.Protein>
6NUR|6NUR_protein|mol2

> <Gold.PLP.Fitness>
33.8665

> <Gold.PLP.PLP>
-27.4957

> <Gold.PLP.part.hbond>
-2.8559

> <Gold.PLP.part.metal>
0.0000

> <Gold.PLP.part.buried>
-3.5553

> <Gold.PLP.part.nonpolar>
-23.3733

> <Gold.PLP.part.repulsive>
1.8550

> <Gold.PLP.ligand.clash>
0.0000

> <Gold.PLP.ligand.torsion>
1.2099

> <Gold.PLP.Chemscore.Hbond>
2.9250

> <Gold.PLP.Chemscore.CHOScore>
0.0000

> <Gold.PLP.Chemscore.Metal>
0.0000

> <Gold.Chemscore.Hbonds>
donor molecule, donor type, donor heavy atom, donor atom, acceptor molecule, acceptor atom, score
      L1  H    10    29       P1  7948  1.00
      P1  H  7989  7998       L1    21  0.90
      P1  H 10752 10763       L1     2  0.63

> <Gold.PLP.Chemscore.Internal.Correction>
0.0157

> <Gold.Rescore>
     Score         DG    S(hbond)    S(metal)    S(lipo)     H(rot)  DE(clash)    DE(int)     intcor
     14.24     -17.88       2.69        0.00      63.03       1.55       2.46       1.17       ----

> <Gold.Chemscore.Fitness>
14.2407

> <Gold.Chemscore.DG>
-17.8760

> <Gold.Chemscore.ZeroCoef>
-5.4800

> <Gold.Chemscore.Hbond>
2.6896

> <Gold.Chemscore.Metal>
0.0000

> <Gold.Chemscore.Lipo>
63.0341

> <Gold.Chemscore.Internal_Hbond>
0.0000

> <Gold.Chemscore.DEClash>
2.4618

> <Gold.Chemscore.DEInternal>
1.1736

> <Gold.Chemscore.Rot>
1.5478

> <Gold.Chemscore.Internal.Correction>
   9.000000E+99

> <Gold.Chemscore.Hbonds>
donor molecule, donor type, donor heavy atom, donor atom, acceptor molecule, acceptor atom, score
      L1  H    10    29       P1  7948  0.93
      P1  H  7989  7998       L1    21  0.17
      P1  H 10752 10763       L1     2  0.06

> <Gold.Chemscore.Hbond.Weighted>
-8.9833

> <Gold.Chemscore.Metal.Weighted>
-0.0000

> <Gold.Chemscore.Lipo.Weighted>
-7.3750

> <Gold.Chemscore.Internal_Hbond.Weighted>
0.0000

> <Gold.Chemscore.DEClash.Weighted>
2.4618

> <Gold.Chemscore.DEInternal.Weighted>
1.1736

> <Gold.Chemscore.Rot.Weighted>
3.9623

> <Gold.Chemscore.Internal.Correction.Weighted>
   9.000000E+99

> <Gold.Protein.RotatedTorsions>
[ 6907 6896 6895 6894 ] final  177.70 input  -60.11 | X-H torsion
[ 7974 7965 7964 7962 ] final  -68.66 input  175.53 | X-H torsion
[ 8008 7997 7996 7995 ] final -164.84 input   59.86 | X-H torsion
[ 10167 10162 10161 10158 ] final -155.76 input  -65.29 | X-H torsion
[ 10718 10713 10712 10709 ] final   82.70 input   66.30 | X-H torsion
[ 10763 10752 10751 10750 ] final   92.71 input  -60.55 | X-H torsion
[ 11005 11000 10999 10996 ] final  -51.64 input  -57.11 | X-H torsion

> <Gold.Protein.ActiveResidues>
 VAL166  LYS551  ARG553  GLY616  TRP617  ASP618  TYR619  PRO620  LYS621  CYS622 
 ASP623  PHE694  ASN695  SER759  ASP760  ASP761  ALA762  ILE779  LEU786  VAL792 
 PHE793  MET794  SER795  GLU796  ALA797  LYS798  CYS799  TRP800  GLU811  SER814 

> <Gold.Protein.RotatedAtoms>
  151.6997  133.3311  159.3263 H   0  0  0  0  0  0  0  0  0  0  0  0  # atno 6907 bound_to 6896
  150.7741  134.6626  159.6357 H   0  0  0  0  0  0  0  0  0  0  0  0  # atno 6908 bound_to 6896
  152.3777  134.6641  160.0206 H   0  0  0  0  0  0  0  0  0  0  0  0  # atno 6909 bound_to 6896
  145.7137  140.9068  143.0667 H   0  0  0  0  0  0  0  0  0  0  0  0  # atno 7974 bound_to 7965
  155.8413  140.0949  157.1732 H   0  0  0  0  0  0  0  0  0  0  0  0  # atno 8008 bound_to 7997
  154.3982  140.1400  156.3794 H   0  0  0  0  0  0  0  0  0  0  0  0  # atno 8009 bound_to 7997
  155.8061  140.3451  155.5433 H   0  0  0  0  0  0  0  0  0  0  0  0  # atno 8010 bound_to 7997
  139.6905  143.9428  152.2382 H   0  0  0  0  0  0  0  0  0  0  0  0  # atno 10167 bound_to 10162
  157.6863  131.0059  150.2413 H   0  0  0  0  0  0  0  0  0  0  0  0  # atno 10718 bound_to 10713
  153.2222  135.4351  155.0502 H   0  0  0  0  0  0  0  0  0  0  0  0  # atno 10763 bound_to 10752
  154.8255  135.3359  154.6910 H   0  0  0  0  0  0  0  0  0  0  0  0  # atno 10764 bound_to 10752
  153.7342  135.7009  153.5038 H   0  0  0  0  0  0  0  0  0  0  0  0  # atno 10765 bound_to 10752
  141.0882  133.6638  156.3907 H   0  0  0  0  0  0  0  0  0  0  0  0  # atno 11005 bound_to 11000
  144.6935  139.9109  143.7463 LP  0  0  0  0  0  0  0  0  0  0  0  0  # atno 17320 bound_to 7965
  146.0689  139.3679  143.0535 LP  0  0  0  0  0  0  0  0  0  0  0  0  # atno 17321 bound_to 7965
  139.9243  144.6780  150.8429 LP  0  0  0  0  0  0  0  0  0  0  0  0  # atno 17342 bound_to 10162
  140.7681  143.3353  151.2323 LP  0  0  0  0  0  0  0  0  0  0  0  0  # atno 17343 bound_to 10162
  156.3027  130.3761  149.7735 LP  0  0  0  0  0  0  0  0  0  0  0  0  # atno 17370 bound_to 10713
  156.5360  130.8279  151.3253 LP  0  0  0  0  0  0  0  0  0  0  0  0  # atno 17371 bound_to 10713
  140.5314  134.6208  157.5351 LP  0  0  0  0  0  0  0  0  0  0  0  0  # atno 17394 bound_to 11000
  139.9703  134.7304  156.0055 LP  0  0  0  0  0  0  0  0  0  0  0  0  # atno 17395 bound_to 11000

$$$$
