AV-unprocessed.smi:3137|AV-procd|sdf|11952|dock10
  -GOLD-   2272017353D 1   1.00000     0.00000
 Structure written by MMmdl.
 40 40  0  0  0  0  0  0  0  0  2 V2000
  147.6617  144.3625  162.0855 C   0  0  0  0  0  0  0  0  0  0  0  0
  146.8242  144.9713  160.9530 C   0  0  0  0  0  0  0  0  0  0  0  0
  147.0073  144.2489  159.6993 N   0  0  0  0  0  0  0  0  0  0  0  0
  146.8050  142.9333  159.5297 C   0  0  0  0  0  0  0  0  0  0  0  0
  146.4460  142.1828  160.4372 O   0  0  0  0  0  0  0  0  0  0  0  0
  147.0496  142.3850  158.1202 C   0  0  0  0  0  0  0  0  0  0  0  0
  148.4881  141.8782  157.9182 C   0  0  0  0  0  0  0  0  0  0  0  0
  148.8078  141.7573  156.4800 N   0  3  0  0  0  0  0  0  0  0  0  0
  150.1591  141.2378  156.1700 C   0  0  2  0  0  0  0  0  0  0  0  0
  150.4435  140.0096  157.0517 C   0  0  0  0  0  0  0  0  0  0  0  0
  151.2316  142.3418  156.3281 C   0  0  0  0  0  0  0  0  0  0  0  0
  151.4859  142.6992  157.7121 N   0  0  0  0  0  0  0  0  0  0  0  0
  151.2537  143.9018  158.3453 C   0  0  0  0  0  0  0  0  0  0  0  0
  151.6652  143.7699  159.6412 C   0  0  0  0  0  0  0  0  0  0  0  0
  151.6254  144.7859  160.7461 C   0  0  0  0  0  0  0  0  0  0  0  0
  152.1469  142.4313  159.7010 C   0  0  0  0  0  0  0  0  0  0  0  0
  152.0433  141.7954  158.5453 N   0  0  0  0  0  0  0  0  0  0  0  0
  147.5415  144.9353  163.0052 H   0  0  0  0  0  0  0  0  0  0  0  0
  148.7226  144.3579  161.8337 H   0  0  0  0  0  0  0  0  0  0  0  0
  147.3621  143.3354  162.2952 H   0  0  0  0  0  0  0  0  0  0  0  0
  145.7686  144.9905  161.2287 H   0  0  0  0  0  0  0  0  0  0  0  0
  147.1217  146.0079  160.7940 H   0  0  0  0  0  0  0  0  0  0  0  0
  147.3032  144.7927  158.9014 H   0  0  0  0  0  0  0  0  0  0  0  0
  146.3469  141.5722  157.9289 H   0  0  0  0  0  0  0  0  0  0  0  0
  146.8245  143.1718  157.3994 H   0  0  0  0  0  0  0  0  0  0  0  0
  149.1980  142.5641  158.3830 H   0  0  0  0  0  0  0  0  0  0  0  0
  148.6071  140.9098  158.4044 H   0  0  0  0  0  0  0  0  0  0  0  0
  148.1210  141.1660  156.0343 H   0  0  0  0  0  0  0  0  0  0  0  0
  150.1535  140.8962  155.1337 H   0  0  0  0  0  0  0  0  0  0  0  0
  151.3857  139.5310  156.7838 H   0  0  0  0  0  0  0  0  0  0  0  0
  149.6612  139.2581  156.9413 H   0  0  0  0  0  0  0  0  0  0  0  0
  150.4969  140.2821  158.1063 H   0  0  0  0  0  0  0  0  0  0  0  0
  152.1800  142.0320  155.8894 H   0  0  0  0  0  0  0  0  0  0  0  0
  150.9223  143.2421  155.7954 H   0  0  0  0  0  0  0  0  0  0  0  0
  150.8180  144.7440  157.8279 H   0  0  0  0  0  0  0  0  0  0  0  0
  152.3969  144.6009  161.4938 H   0  0  0  0  0  0  0  0  0  0  0  0
  150.6663  144.7776  161.2641 H   0  0  0  0  0  0  0  0  0  0  0  0
  151.7798  145.7976  160.3706 H   0  0  0  0  0  0  0  0  0  0  0  0
  152.5691  141.9067  160.5458 H   0  0  0  0  0  0  0  0  0  0  0  0
  148.7395  142.6825  156.0809 H   0  0  0  0  0  0  0  0  0  0  0  0
  1  2  1  0  0  0  0
  1 18  1  0  0  0  0
  1 19  1  0  0  0  0
  1 20  1  0  0  0  0
  2  3  1  0  0  0  0
  2 21  1  0  0  0  0
  2 22  1  0  0  0  0
  3  4  1  0  0  0  0
  3 23  1  0  0  0  0
  4  5  2  0  0  0  0
  4  6  1  0  0  0  0
  6  7  1  0  0  0  0
  6 24  1  0  0  0  0
  6 25  1  0  0  0  0
  7  8  1  0  0  0  0
  7 26  1  0  0  0  0
  7 27  1  0  0  0  0
  8  9  1  0  0  0  0
  8 28  1  0  0  0  0
  8 40  1  0  0  0  0
  9 10  1  0  0  0  0
  9 11  1  0  0  0  0
  9 29  1  0  0  0  0
 10 30  1  0  0  0  0
 10 31  1  0  0  0  0
 10 32  1  0  0  0  0
 11 12  1  0  0  0  0
 11 33  1  0  0  0  0
 11 34  1  0  0  0  0
 12 17  1  0  0  0  0
 12 13  1  0  0  0  0
 13 14  2  0  0  0  0
 13 35  1  0  0  0  0
 14 15  1  0  0  0  0
 14 16  1  0  0  0  0
 15 36  1  0  0  0  0
 15 37  1  0  0  0  0
 15 38  1  0  0  0  0
 16 17  2  0  0  0  0
 16 39  1  0  0  0  0
M  CHG  1   8   1
M  END
> <s_m_source_file>
AV-unprocessed.smi

> <i_m_source_file_index>
3137

> <i_lp_mmshare_version>
43012

> <i_f3d_flags>
0

> <s_epik_input>
W0NIM11bQ0gyXVtOSF1DKD1PKVtDSDJdW0NIMl1bTkhdW0NASF0oW0NIM10pW0NIMl1uMVtjSF1jKFtDSDNdKVtjSF1uMQ==

> <s_epik_cmdline>
J2VwaWtfcHl0aG9uJywgJy1waCcsICc3LjAnLCAnLXRuJywgJzgnLCAnLW1hJywgJzIwMCcsICctbWV0YWxfYmluZGluZycsICctaW1hZScsICc8aW5maWxlLm1hZT4nLCAnLW9tYWUnLCAnPG91dGZpbGUubWFlPic=

> <r_lp_tautomer_probability>
1

> <r_epik_Ionization_Penalty>
0.00598586

> <r_epik_Ionization_Penalty_Charging>
0.00597743

> <r_epik_Ionization_Penalty_Neutral>
8.43172e-06

> <r_epik_State_Penalty>
0.00439883

> <r_epik_Charging_Adjusted_Penalty>
0.0103763

> <i_epik_Tot_Q>
1

> <i_epik_Tot_abs_Q>
1

> <r_epik_Metal_State_Penalty>
-0

> <b_epik_Metal_Only>
0

> <s_lp_Force_Field>
OPLS_2005

> <r_lp_Energy>
5.54244

> <b_lp_Chiralities_Consistent>
1

> <s_lp_Variant>
AV-unprocessed.smi:3137-1

> <Gold.Version>
5.8.1

> <Gold.Id.Protein>
6NUR|6NUR_protein|mol2

> <Gold.PLP.Fitness>
52.2550

> <Gold.PLP.PLP>
-35.9726

> <Gold.PLP.part.hbond>
-4.0000

> <Gold.PLP.part.metal>
0.0000

> <Gold.PLP.part.buried>
-4.3502

> <Gold.PLP.part.nonpolar>
-27.5799

> <Gold.PLP.part.repulsive>
0.1146

> <Gold.PLP.ligand.clash>
0.0000

> <Gold.PLP.ligand.torsion>
0.6723

> <Gold.PLP.Chemscore.Hbond>
4.8560

> <Gold.PLP.Chemscore.CHOScore>
0.9653

> <Gold.PLP.Chemscore.Metal>
0.0000

> <Gold.Chemscore.Hbonds>
donor molecule, donor type, donor heavy atom, donor atom, acceptor molecule, acceptor atom, score
      L1  H     3    23       P1  8029  0.91
      L1  H     8    40       P1  8028  1.76
      P1  H  6933  6944       L1     5  0.13
      P1  H  6934  6946       L1     5  0.73
      L1  C    13    35       P1  8028  0.17

> <Gold.PLP.Chemscore.Internal.Correction>
0.1630

> <Gold.Rescore>
     Score         DG    S(hbond)    S(metal)    S(lipo)     H(rot)  DE(clash)    DE(int)     intcor
     18.65     -21.46       3.65        0.00      82.75       2.30       0.74       2.08       ----

> <Gold.Chemscore.Fitness>
18.6477

> <Gold.Chemscore.DG>
-21.4622

> <Gold.Chemscore.ZeroCoef>
-5.4800

> <Gold.Chemscore.Hbond>
3.6464

> <Gold.Chemscore.Metal>
0.0000

> <Gold.Chemscore.Lipo>
82.7510

> <Gold.Chemscore.Internal_Hbond>
0.0000

> <Gold.Chemscore.DEClash>
0.7377

> <Gold.Chemscore.DEInternal>
2.0768

> <Gold.Chemscore.Rot>
2.2963

> <Gold.Chemscore.Internal.Correction>
   9.000000E+99

> <Gold.Chemscore.Hbonds>
donor molecule, donor type, donor heavy atom, donor atom, acceptor molecule, acceptor atom, score
      L1  H     3    23       P1  8029  0.87
      L1  H     8    40       P1  8028  0.85
      P1  H  6933  6944       L1     5  0.01
      P1  H  6934  6946       L1     5  0.73

> <Gold.Chemscore.Hbond.Weighted>
-12.1789

> <Gold.Chemscore.Metal.Weighted>
-0.0000

> <Gold.Chemscore.Lipo.Weighted>
-9.6819

> <Gold.Chemscore.Internal_Hbond.Weighted>
0.0000

> <Gold.Chemscore.DEClash.Weighted>
0.7377

> <Gold.Chemscore.DEInternal.Weighted>
2.0768

> <Gold.Chemscore.Rot.Weighted>
5.8786

> <Gold.Chemscore.Internal.Correction.Weighted>
   9.000000E+99

> <Gold.Protein.RotatedTorsions>
[ 6907 6896 6895 6894 ] final  -31.71 input  -60.11 | X-H torsion
[ 7974 7965 7964 7962 ] final -135.78 input  175.53 | X-H torsion
[ 8008 7997 7996 7995 ] final   32.81 input   59.86 | X-H torsion
[ 10167 10162 10161 10158 ] final   88.32 input  -65.29 | X-H torsion
[ 10718 10713 10712 10709 ] final   69.34 input   66.30 | X-H torsion
[ 10763 10752 10751 10750 ] final -120.08 input  -60.55 | X-H torsion
[ 11005 11000 10999 10996 ] final -136.98 input  -57.11 | X-H torsion

> <Gold.Protein.ActiveResidues>
 VAL166  LYS551  ARG553  GLY616  TRP617  ASP618  TYR619  PRO620  LYS621  CYS622 
 ASP623  PHE694  ASN695  SER759  ASP760  ASP761  ALA762  ILE779  LEU786  VAL792 
 PHE793  MET794  SER795  GLU796  ALA797  LYS798  CYS799  TRP800  GLU811  SER814 

> <Gold.Protein.RotatedAtoms>
  151.0885  134.9902  159.8390 H   0  0  0  0  0  0  0  0  0  0  0  0  # atno 6907 bound_to 6896
  152.5427  134.2095  159.8754 H   0  0  0  0  0  0  0  0  0  0  0  0  # atno 6908 bound_to 6896
  151.2129  133.4502  159.2632 H   0  0  0  0  0  0  0  0  0  0  0  0  # atno 6909 bound_to 6896
  144.8984  140.6738  143.5100 H   0  0  0  0  0  0  0  0  0  0  0  0  # atno 7974 bound_to 7965
  155.1285  140.3255  155.4480 H   0  0  0  0  0  0  0  0  0  0  0  0  # atno 8008 bound_to 7997
  156.2641  140.2014  156.6353 H   0  0  0  0  0  0  0  0  0  0  0  0  # atno 8009 bound_to 7997
  154.6630  140.0545  157.0070 H   0  0  0  0  0  0  0  0  0  0  0  0  # atno 8010 bound_to 7997
  139.8684  144.6506  150.8977 H   0  0  0  0  0  0  0  0  0  0  0  0  # atno 10167 bound_to 10162
  157.6340  130.9420  150.0500 H   0  0  0  0  0  0  0  0  0  0  0  0  # atno 10718 bound_to 10713
  154.8634  135.4216  154.2401 H   0  0  0  0  0  0  0  0  0  0  0  0  # atno 10763 bound_to 10752
  153.3368  135.6991  153.6906 H   0  0  0  0  0  0  0  0  0  0  0  0  # atno 10764 bound_to 10752
  153.5900  135.3556  155.2880 H   0  0  0  0  0  0  0  0  0  0  0  0  # atno 10765 bound_to 10752
  140.8754  134.1998  157.4625 H   0  0  0  0  0  0  0  0  0  0  0  0  # atno 11005 bound_to 11000
  145.3659  139.1670  143.4358 LP  0  0  0  0  0  0  0  0  0  0  0  0  # atno 17320 bound_to 7965
  146.3095  140.3726  142.8675 LP  0  0  0  0  0  0  0  0  0  0  0  0  # atno 17321 bound_to 7965
  140.7764  143.3684  151.1695 LP  0  0  0  0  0  0  0  0  0  0  0  0  # atno 17342 bound_to 10162
  139.7307  143.9078  152.3018 LP  0  0  0  0  0  0  0  0  0  0  0  0  # atno 17343 bound_to 10162
  156.1565  130.3643  149.9361 LP  0  0  0  0  0  0  0  0  0  0  0  0  # atno 17370 bound_to 10713
  156.7369  130.9065  151.3629 LP  0  0  0  0  0  0  0  0  0  0  0  0  # atno 17371 bound_to 10713
  139.8715  134.9793  156.5032 LP  0  0  0  0  0  0  0  0  0  0  0  0  # atno 17394 bound_to 11000
  140.8524  133.8122  155.9182 LP  0  0  0  0  0  0  0  0  0  0  0  0  # atno 17395 bound_to 11000

$$$$
