#       Name:                AV-unprocessed.smi:1395
#       Creating user name   scv26
#       Creation time:       Fri Mar 27 05:29:25 2020


#       File generated by GOLD software.
#

@<TRIPOS>MOLECULE
AV-unprocessed.smi:1395
    48    49     1
SMALL
NO_CHARGES


@<TRIPOS>ATOM
      1 ****        -5.2580  -0.5570  -0.7249 C.3            1 S1                 0.0000
      2 ****        -5.1038   0.9537  -0.6541 C.ar           1 S1                 0.0000
      3 ****        -6.2586   1.7647  -0.6346 C.ar           1 S1                 0.0000
      4 ****        -6.1155   3.1612  -0.5702 C.ar           1 S1                 0.0000
      5 ****        -4.8147   3.6911  -0.5275 C.ar           1 S1                 0.0000
      6 ****        -3.7059   2.9237  -0.5449 N.ar           1 S1                 0.0000
      7 ****        -3.8262   1.5738  -0.6075 C.ar           1 S1                 0.0000
      8 ****        -2.6996   0.7031  -0.6271 N.am           1 S1                 0.0000
      9 ****        -1.3942   1.0257  -0.5929 C.2            1 S1                 0.0000
     10 ****        -0.9423   2.1706  -0.5599 O.2            1 S1                 0.0000
     11 ****        -0.6209  -0.0704  -0.5972 N.am           1 S1                 0.0000
     12 ****         0.8388  -0.0638  -0.5601 C.3            1 S1                 0.0000
     13 ****         1.3843  -1.4022  -1.0842 C.3            1 S1                 0.0000
     14 ****         2.9179  -1.4595  -0.9762 C.3            1 S1                 0.0000
     15 ****         3.3663  -1.2232   0.4200 N.4            1 S1                 1.0000
     16 ****         4.8300  -1.4133   0.5886 C.3            1 S1                 0.0000
     17 ****         5.2245  -1.7777   2.0239 C.2            1 S1                 0.0000
     18 ****         6.5042  -1.6020   2.3597 N.am           1 S1                 0.0000
     19 ****         4.3952  -2.2247   2.8144 O.2            1 S1                 0.0000
     20 ****         2.8856   0.0876   0.9325 C.3            1 S1                 0.0000
     21 ****         1.3526   0.1756   0.8721 C.3            1 S1                 0.0000
     22 ****        -6.3087  -0.8481  -0.7482 H              1 S1                 0.0000
     23 ****        -4.7990  -1.0290   0.1443 H              1 S1                 0.0000
     24 ****        -4.7821  -0.9476  -1.6249 H              1 S1                 0.0000
     25 ****        -7.2445   1.3248  -0.6684 H              1 S1                 0.0000
     26 ****        -6.9796   3.8089  -0.5538 H              1 S1                 0.0000
     27 ****        -4.6593   4.7586  -0.4774 H              1 S1                 0.0000
     28 ****        -2.9174  -0.2815  -0.6616 H              1 S1                 0.0000
     29 ****        -1.0738  -0.9722  -0.6278 H              1 S1                 0.0000
     30 ****         1.2066   0.7332  -1.2098 H              1 S1                 0.0000
     31 ****         0.9513  -2.2283  -0.5177 H              1 S1                 0.0000
     32 ****         1.0832  -1.5483  -2.1224 H              1 S1                 0.0000
     33 ****         3.2622  -2.4379  -1.3134 H              1 S1                 0.0000
     34 ****         3.3717  -0.7180  -1.6358 H              1 S1                 0.0000
     35 ****         5.1699  -2.2338  -0.0449 H              1 S1                 0.0000
     36 ****         5.3645  -0.5208   0.2586 H              1 S1                 0.0000
     37 ****         6.8209  -1.8208   3.2934 H              1 S1                 0.0000
     38 ****         7.1560  -1.2439   1.6759 H              1 S1                 0.0000
     39 ****         3.2103   0.2317   1.9632 H              1 S1                 0.0000
     40 ****         3.3298   0.8943   0.3472 H              1 S1                 0.0000
     41 ****         1.0304   1.1534   1.2323 H              1 S1                 0.0000
     42 ****         0.9205  -0.5611   1.5511 H              1 S1                 0.0000
     43 ****         2.9266  -1.9375   0.9835 H              1 S1                 0.0000
     44 ****        -2.8005   3.3471  -0.5119 LP             1 S1                 0.0000
     45 ****        -1.5641   2.9537  -0.5570 LP             1 S1                 0.0000
     46 ****         0.0466   2.3173  -0.5360 LP             1 S1                 0.0000
     47 ****         3.4473  -2.3553   2.5239 LP             1 S1                 0.0000
     48 ****         4.6688  -2.4576   3.7476 LP             1 S1                 0.0000
@<TRIPOS>BOND
    1    1    2 1     
    2    1   22 1     
    3    1   23 1     
    4    1   24 1     
    5    2    7 ar    
    6    2    3 ar    
    7    3    4 ar    
    8    3   25 1     
    9    4    5 ar    
   10    4   26 1     
   11    5    6 ar    
   12    5   27 1     
   13    6    7 ar    
   14    7    8 1     
   15    8    9 am    
   16    8   28 1     
   17    9   10 2     
   18    9   11 am    
   19   11   12 1     
   20   11   29 1     
   21   12   21 1     
   22   12   13 1     
   23   12   30 1     
   24   13   14 1     
   25   13   31 1     
   26   13   32 1     
   27   14   15 1     
   28   14   33 1     
   29   14   34 1     
   30   15   16 1     
   31   15   20 1     
   32   15   43 1     
   33   16   17 1     
   34   16   35 1     
   35   16   36 1     
   36   17   18 am    
   37   17   19 2     
   38   18   37 1     
   39   18   38 1     
   40   20   21 1     
   41   20   39 1     
   42   20   40 1     
   43   21   41 1     
   44   21   42 1     
   45    6   44 1     
   46   10   45 1     
   47   10   46 1     
   48   19   47 1     
   49   19   48 1     
@<TRIPOS>SUBSTRUCTURE
      1 S1             1
@<TRIPOS>SET
LONE_PAIRS      STATIC     ATOMS    <user>   **** ""
5 44 45 46 47 48
DONOR_HYDROGENS      STATIC     ATOMS    <user>   **** ""
5 28 29 43 37 38
ATOM$BLUE        STATIC     ATOMS    COLORGROUP SYSTEM
5 44 45 46 47 48
ATOM$RED        STATIC     ATOMS    COLORGROUP SYSTEM
5 28 29 43 37 38
