AV-unprocessed.smi:3199|AV-procd|sdf|12234|dock7
  -GOLD-   2272018 63D 1   1.00000     0.00000
 Structure written by MMmdl.
 36 37  0  0  0  0  0  0  0  0  2 V2000
  153.1012  143.1148  163.4654 C   0  0  0  0  0  0  0  0  0  0  0  0
  152.6047  143.2292  162.0395 C   0  0  0  0  0  0  0  0  0  0  0  0
  152.7804  142.1961  161.0940 C   0  0  0  0  0  0  0  0  0  0  0  0
  152.2974  142.3744  159.7810 C   0  0  0  0  0  0  0  0  0  0  0  0
  151.6505  143.5820  159.4388 C   0  0  0  0  0  0  0  0  0  0  0  0
  151.1289  143.8068  158.0328 C   0  0  0  0  0  0  0  0  0  0  0  0
  151.3913  142.6067  157.1135 C   0  0  0  0  0  0  0  0  0  0  0  0
  150.2238  142.3359  156.2871 N   0  0  0  0  0  0  0  0  0  0  0  0
  150.1119  141.2998  155.4439 C   0  0  0  0  0  0  0  0  0  0  0  0
  151.0017  140.4635  155.2851 O   0  0  0  0  0  0  0  0  0  0  0  0
  148.7847  141.1932  154.6826 C   0  0  1  0  0  0  0  0  0  0  0  0
  147.5268  141.1420  155.5724 C   0  0  0  0  0  0  0  0  0  0  0  0
  146.8243  142.4538  155.2790 C   0  0  0  0  0  0  0  0  0  0  0  0
  147.2771  142.7427  153.8549 C   0  0  0  0  0  0  0  0  0  0  0  0
  148.6426  142.3597  153.8749 O   0  0  0  0  0  0  0  0  0  0  0  0
  151.4998  144.5786  160.4268 C   0  0  0  0  0  0  0  0  0  0  0  0
  151.9760  144.3690  161.6739 N   0  3  0  0  0  0  0  0  0  0  0  0
  153.5151  142.1246  163.6589 H   0  0  0  0  0  0  0  0  0  0  0  0
  152.2858  143.2857  164.1689 H   0  0  0  0  0  0  0  0  0  0  0  0
  153.8815  143.8524  163.6551 H   0  0  0  0  0  0  0  0  0  0  0  0
  153.2799  141.2778  161.3676 H   0  0  0  0  0  0  0  0  0  0  0  0
  152.4249  141.5927  159.0461 H   0  0  0  0  0  0  0  0  0  0  0  0
  150.0586  144.0124  158.0823 H   0  0  0  0  0  0  0  0  0  0  0  0
  151.5951  144.7029  157.6203 H   0  0  0  0  0  0  0  0  0  0  0  0
  152.2493  142.8046  156.4687 H   0  0  0  0  0  0  0  0  0  0  0  0
  151.6300  141.7236  157.7089 H   0  0  0  0  0  0  0  0  0  0  0  0
  149.4435  142.9720  156.3649 H   0  0  0  0  0  0  0  0  0  0  0  0
  148.8027  140.3160  154.0332 H   0  0  0  0  0  0  0  0  0  0  0  0
  146.8963  140.3069  155.2649 H   0  0  0  0  0  0  0  0  0  0  0  0
  147.7288  141.0174  156.6369 H   0  0  0  0  0  0  0  0  0  0  0  0
  145.7404  142.3916  155.3795 H   0  0  0  0  0  0  0  0  0  0  0  0
  147.1880  143.2325  155.9507 H   0  0  0  0  0  0  0  0  0  0  0  0
  146.7332  142.1259  153.1376 H   0  0  0  0  0  0  0  0  0  0  0  0
  147.1556  143.7896  153.5759 H   0  0  0  0  0  0  0  0  0  0  0  0
  151.0185  145.5313  160.2589 H   0  0  0  0  0  0  0  0  0  0  0  0
  151.8573  145.1050  162.3706 H   0  0  0  0  0  0  0  0  0  0  0  0
  1  2  1  0  0  0  0
  1 18  1  0  0  0  0
  1 19  1  0  0  0  0
  1 20  1  0  0  0  0
  2 17  1  0  0  0  0
  2  3  2  0  0  0  0
  3  4  1  0  0  0  0
  3 21  1  0  0  0  0
  4  5  2  0  0  0  0
  4 22  1  0  0  0  0
  5  6  1  0  0  0  0
  5 16  1  0  0  0  0
  6  7  1  0  0  0  0
  6 23  1  0  0  0  0
  6 24  1  0  0  0  0
  7  8  1  0  0  0  0
  7 25  1  0  0  0  0
  7 26  1  0  0  0  0
  8  9  1  0  0  0  0
  8 27  1  0  0  0  0
  9 10  2  0  0  0  0
  9 11  1  0  0  0  0
 11 15  1  0  0  0  0
 11 12  1  0  0  0  0
 11 28  1  0  0  0  0
 12 13  1  0  0  0  0
 12 29  1  0  0  0  0
 12 30  1  0  0  0  0
 13 14  1  0  0  0  0
 13 31  1  0  0  0  0
 13 32  1  0  0  0  0
 14 15  1  0  0  0  0
 14 33  1  0  0  0  0
 14 34  1  0  0  0  0
 16 17  2  0  0  0  0
 16 35  1  0  0  0  0
 17 36  1  0  0  0  0
M  CHG  1  17   1
M  END
> <s_m_source_file>
AV-unprocessed.smi

> <i_m_source_file_index>
3199

> <i_lp_mmshare_version>
43012

> <i_f3d_flags>
0

> <s_epik_input>
W0NIM11jMVtjSF1bY0hdYyhbY0hdbjEpW0NIMl1bQ0gyXVtOSF1DKD1PKVtDQEBIXTJbQ0gyXVtDSDJdW0NIMl1PMg==

> <s_epik_cmdline>
J2VwaWtfcHl0aG9uJywgJy1waCcsICc3LjAnLCAnLXRuJywgJzgnLCAnLW1hJywgJzIwMCcsICctbWV0YWxfYmluZGluZycsICctaW1hZScsICc8aW5maWxlLm1hZT4nLCAnLW9tYWUnLCAnPG91dGZpbGUubWFlPic=

> <r_epik_Ionization_Penalty>
1.4683

> <r_epik_Ionization_Penalty_Charging>
1.4683

> <r_epik_Ionization_Penalty_Neutral>
5.71603e-08

> <r_epik_State_Penalty>
1.5559

> <r_epik_Charging_Adjusted_Penalty>
3.0242

> <i_epik_Tot_Q>
1

> <i_epik_Tot_abs_Q>
1

> <r_epik_Metal_State_Penalty>
1.60421

> <b_epik_Metal_Only>
0

> <s_lp_Force_Field>
OPLS_2005

> <r_lp_Energy>
24.4706

> <b_lp_Chiralities_Consistent>
1

> <s_lp_Variant>
AV-unprocessed.smi:3199-4

> <Gold.Version>
5.8.1

> <Gold.Id.Protein>
6NUR|6NUR_protein|mol2

> <Gold.PLP.Fitness>
48.1317

> <Gold.PLP.PLP>
-43.0439

> <Gold.PLP.part.hbond>
-3.8636

> <Gold.PLP.part.metal>
0.0000

> <Gold.PLP.part.buried>
-5.3309

> <Gold.PLP.part.nonpolar>
-32.9497

> <Gold.PLP.part.repulsive>
1.4047

> <Gold.PLP.ligand.clash>
0.0000

> <Gold.PLP.ligand.torsion>
0.3229

> <Gold.PLP.Chemscore.Hbond>
1.9082

> <Gold.PLP.Chemscore.CHOScore>
0.0000

> <Gold.PLP.Chemscore.Metal>
0.0000

> <Gold.Chemscore.Hbonds>
donor molecule, donor type, donor heavy atom, donor atom, acceptor molecule, acceptor atom, score
      L1  H     8    27       P1  8028  0.78
      P1  H  7989  7998       L1    10  0.99
      P1  H  8011  8017       L1    15  0.22

> <Gold.PLP.Chemscore.Internal.Correction>
0.0089

> <Gold.Rescore>
     Score         DG    S(hbond)    S(metal)    S(lipo)     H(rot)  DE(clash)    DE(int)     intcor
     17.93     -18.85       1.39        0.00     108.68       1.56       0.59       0.33       ----

> <Gold.Chemscore.Fitness>
17.9289

> <Gold.Chemscore.DG>
-18.8489

> <Gold.Chemscore.ZeroCoef>
-5.4800

> <Gold.Chemscore.Hbond>
1.3924

> <Gold.Chemscore.Metal>
0.0000

> <Gold.Chemscore.Lipo>
108.6772

> <Gold.Chemscore.Internal_Hbond>
0.0000

> <Gold.Chemscore.DEClash>
0.5945

> <Gold.Chemscore.DEInternal>
0.3254

> <Gold.Chemscore.Rot>
1.5613

> <Gold.Chemscore.Internal.Correction>
   9.000000E+99

> <Gold.Chemscore.Hbonds>
donor molecule, donor type, donor heavy atom, donor atom, acceptor molecule, acceptor atom, score
      L1  H     8    27       P1  8028  0.76
      P1  H  7989  7998       L1    10  0.32
      P1  H  8011  8017       L1    15  0.20

> <Gold.Chemscore.Hbond.Weighted>
-4.6505

> <Gold.Chemscore.Metal.Weighted>
-0.0000

> <Gold.Chemscore.Lipo.Weighted>
-12.7152

> <Gold.Chemscore.Internal_Hbond.Weighted>
0.0000

> <Gold.Chemscore.DEClash.Weighted>
0.5945

> <Gold.Chemscore.DEInternal.Weighted>
0.3254

> <Gold.Chemscore.Rot.Weighted>
3.9969

> <Gold.Chemscore.Internal.Correction.Weighted>
   9.000000E+99

> <Gold.Protein.RotatedTorsions>
[ 6907 6896 6895 6894 ] final   81.05 input  -60.11 | X-H torsion
[ 7974 7965 7964 7962 ] final   87.70 input  175.53 | X-H torsion
[ 8008 7997 7996 7995 ] final  128.55 input   59.86 | X-H torsion
[ 10167 10162 10161 10158 ] final  106.16 input  -65.29 | X-H torsion
[ 10718 10713 10712 10709 ] final  141.04 input   66.30 | X-H torsion
[ 10763 10752 10751 10750 ] final -115.78 input  -60.55 | X-H torsion
[ 11005 11000 10999 10996 ] final  -50.65 input  -57.11 | X-H torsion

> <Gold.Protein.ActiveResidues>
 VAL166  LYS551  ARG553  GLY616  TRP617  ASP618  TYR619  PRO620  LYS621  CYS622 
 ASP623  PHE694  ASN695  SER759  ASP760  ASP761  ALA762  ILE779  LEU786  VAL792 
 PHE793  MET794  SER795  GLU796  ALA797  LYS798  CYS799  TRP800  GLU811  SER814 

> <Gold.Protein.RotatedAtoms>
  152.5256  134.3263  159.9166 H   0  0  0  0  0  0  0  0  0  0  0  0  # atno 6907 bound_to 6896
  151.3212  133.4033  159.2662 H   0  0  0  0  0  0  0  0  0  0  0  0  # atno 6908 bound_to 6896
  150.9957  134.9299  159.7983 H   0  0  0  0  0  0  0  0  0  0  0  0  # atno 6909 bound_to 6896
  145.5555  139.2299  143.2488 H   0  0  0  0  0  0  0  0  0  0  0  0  # atno 7974 bound_to 7965
  156.2917  140.2642  156.2454 H   0  0  0  0  0  0  0  0  0  0  0  0  # atno 8008 bound_to 7997
  154.9936  140.0388  157.2348 H   0  0  0  0  0  0  0  0  0  0  0  0  # atno 8009 bound_to 7997
  154.7664  140.2770  155.6177 H   0  0  0  0  0  0  0  0  0  0  0  0  # atno 8010 bound_to 7997
  139.7032  144.7091  151.1150 H   0  0  0  0  0  0  0  0  0  0  0  0  # atno 10167 bound_to 10162
  157.3965  131.1011  151.0594 H   0  0  0  0  0  0  0  0  0  0  0  0  # atno 10718 bound_to 10713
  154.8494  135.4369  154.1717 H   0  0  0  0  0  0  0  0  0  0  0  0  # atno 10763 bound_to 10752
  153.2829  135.6955  153.7374 H   0  0  0  0  0  0  0  0  0  0  0  0  # atno 10764 bound_to 10752
  153.6571  135.3441  155.3091 H   0  0  0  0  0  0  0  0  0  0  0  0  # atno 10765 bound_to 10752
  141.0828  133.6649  156.3763 H   0  0  0  0  0  0  0  0  0  0  0  0  # atno 11005 bound_to 11000
  146.1887  140.6379  142.9155 LP  0  0  0  0  0  0  0  0  0  0  0  0  # atno 17320 bound_to 7965
  144.7508  140.5186  143.6803 LP  0  0  0  0  0  0  0  0  0  0  0  0  # atno 17321 bound_to 7965
  140.7715  143.5395  150.9330 LP  0  0  0  0  0  0  0  0  0  0  0  0  # atno 17342 bound_to 10162
  139.9077  143.6758  152.3120 LP  0  0  0  0  0  0  0  0  0  0  0  0  # atno 17343 bound_to 10162
  157.1609  130.6225  149.5610 LP  0  0  0  0  0  0  0  0  0  0  0  0  # atno 17370 bound_to 10713
  155.9812  130.4817  150.6813 LP  0  0  0  0  0  0  0  0  0  0  0  0  # atno 17371 bound_to 10713
  140.5431  134.6101  157.5385 LP  0  0  0  0  0  0  0  0  0  0  0  0  # atno 17394 bound_to 11000
  139.9643  134.7399  156.0171 LP  0  0  0  0  0  0  0  0  0  0  0  0  # atno 17395 bound_to 11000

$$$$
