AV-unprocessed.smi:1093|AV-procd|sdf|4741|dock10
  -GOLD-   22720 3273D 1   1.00000     0.00000
 Structure written by MMmdl.
 48 49  0  0  0  0  0  0  0  0  3 V2000
  142.5508  136.2299  154.2992 C   0  0  0  0  0  0  0  0  0  0  0  0
  142.6168  137.4535  153.3739 C   0  0  0  0  0  0  0  0  0  0  0  0
  143.7162  137.3590  152.3802 N   0  3  2  0  0  0  0  0  0  0  0  0
  143.7635  136.0269  151.7230 C   0  0  0  0  0  0  0  0  0  0  0  0
  144.8133  135.9977  150.6003 C   0  0  0  0  0  0  0  0  0  0  0  0
  146.1981  136.3929  151.1285 C   0  0  0  0  0  0  0  0  0  0  0  0
  146.1231  137.7582  151.8346 C   0  0  2  0  0  0  0  0  0  0  0  0
  147.4165  138.1113  152.4146 N   0  0  0  0  0  0  0  0  0  0  0  0
  147.6310  139.1323  153.2572 C   0  0  0  0  0  0  0  0  0  0  0  0
  146.7436  139.8974  153.6335 O   0  0  0  0  0  0  0  0  0  0  0  0
  148.9263  139.2123  153.6087 N   0  0  0  0  0  0  0  0  0  0  0  0
  149.5455  140.1282  154.5029 C   0  0  0  0  0  0  0  0  0  0  0  0
  150.5909  139.6483  155.3191 C   0  0  0  0  0  0  0  0  0  0  0  0
  151.2235  140.5153  156.2335 C   0  0  0  0  0  0  0  0  0  0  0  0
  150.8004  141.8634  156.3353 C   0  0  0  0  0  0  0  0  0  0  0  0
  151.3815  142.7913  157.2266 N   0  0  0  0  0  0  0  0  0  0  0  0
  152.1726  142.3140  158.3535 C   0  0  0  0  0  0  0  0  0  0  0  0
  151.2995  144.2191  156.9390 C   0  0  0  0  0  0  0  0  0  0  0  0
  149.7833  142.2747  155.5391 N   0  3  0  0  0  0  0  0  0  0  0  0
  149.1514  141.4796  154.6491 C   0  0  0  0  0  0  0  0  0  0  0  0
  145.0437  137.7399  152.9340 C   0  0  0  0  0  0  0  0  0  0  0  0
  141.7985  136.3772  155.0745 H   0  0  0  0  0  0  0  0  0  0  0  0
  143.5062  136.0598  154.7962 H   0  0  0  0  0  0  0  0  0  0  0  0
  142.2834  135.3213  153.7610 H   0  0  0  0  0  0  0  0  0  0  0  0
  141.6634  137.6053  152.8659 H   0  0  0  0  0  0  0  0  0  0  0  0
  142.7751  138.3319  154.0011 H   0  0  0  0  0  0  0  0  0  0  0  0
  143.9852  135.2600  152.4669 H   0  0  0  0  0  0  0  0  0  0  0  0
  142.7862  135.7872  151.3018 H   0  0  0  0  0  0  0  0  0  0  0  0
  144.8548  135.0034  150.1545 H   0  0  0  0  0  0  0  0  0  0  0  0
  144.5167  136.6815  149.8037 H   0  0  0  0  0  0  0  0  0  0  0  0
  146.5557  135.6312  151.8232 H   0  0  0  0  0  0  0  0  0  0  0  0
  146.9132  136.4259  150.3056 H   0  0  0  0  0  0  0  0  0  0  0  0
  145.8417  138.5182  151.1028 H   0  0  0  0  0  0  0  0  0  0  0  0
  148.2052  137.5380  152.1522 H   0  0  0  0  0  0  0  0  0  0  0  0
  149.5510  138.5628  153.1536 H   0  0  0  0  0  0  0  0  0  0  0  0
  150.9138  138.6198  155.2459 H   0  0  0  0  0  0  0  0  0  0  0  0
  152.0246  140.1282  156.8451 H   0  0  0  0  0  0  0  0  0  0  0  0
  151.5623  141.7050  159.0215 H   0  0  0  0  0  0  0  0  0  0  0  0
  152.5744  143.1434  158.9358 H   0  0  0  0  0  0  0  0  0  0  0  0
  153.0133  141.7138  158.0040 H   0  0  0  0  0  0  0  0  0  0  0  0
  150.2589  144.5393  156.8772 H   0  0  0  0  0  0  0  0  0  0  0  0
  151.7902  144.4475  155.9924 H   0  0  0  0  0  0  0  0  0  0  0  0
  151.7830  144.8099  157.7173 H   0  0  0  0  0  0  0  0  0  0  0  0
  148.3516  141.9584  154.1049 H   0  0  0  0  0  0  0  0  0  0  0  0
  144.9888  138.7281  153.3901 H   0  0  0  0  0  0  0  0  0  0  0  0
  145.3192  137.0415  153.7262 H   0  0  0  0  0  0  0  0  0  0  0  0
  143.4989  138.0235  151.6510 H   0  0  0  0  0  0  0  0  0  0  0  0
  149.4733  143.2434  155.6177 H   0  0  0  0  0  0  0  0  0  0  0  0
  1  2  1  0  0  0  0
  1 22  1  0  0  0  0
  1 23  1  0  0  0  0
  1 24  1  0  0  0  0
  2  3  1  0  0  0  0
  2 25  1  0  0  0  0
  2 26  1  0  0  0  0
  3 21  1  0  0  0  0
  3  4  1  0  0  0  0
  3 47  1  0  0  0  0
  4  5  1  0  0  0  0
  4 27  1  0  0  0  0
  4 28  1  0  0  0  0
  5  6  1  0  0  0  0
  5 29  1  0  0  0  0
  5 30  1  0  0  0  0
  6  7  1  0  0  0  0
  6 31  1  0  0  0  0
  6 32  1  0  0  0  0
  7  8  1  0  0  0  0
  7 21  1  0  0  0  0
  7 33  1  0  0  0  0
  8  9  1  0  0  0  0
  8 34  1  0  0  0  0
  9 10  2  0  0  0  0
  9 11  1  0  0  0  0
 11 12  1  0  0  0  0
 11 35  1  0  0  0  0
 12 20  1  0  0  0  0
 12 13  2  0  0  0  0
 13 14  1  0  0  0  0
 13 36  1  0  0  0  0
 14 15  2  0  0  0  0
 14 37  1  0  0  0  0
 15 16  1  0  0  0  0
 15 19  1  0  0  0  0
 16 17  1  0  0  0  0
 16 18  1  0  0  0  0
 17 38  1  0  0  0  0
 17 39  1  0  0  0  0
 17 40  1  0  0  0  0
 18 41  1  0  0  0  0
 18 42  1  0  0  0  0
 18 43  1  0  0  0  0
 19 20  2  0  0  0  0
 19 48  1  0  0  0  0
 20 44  1  0  0  0  0
 21 45  1  0  0  0  0
 21 46  1  0  0  0  0
M  CHG  1   3   1
M  CHG  1  19   1
M  END
> <s_m_source_file>
AV-unprocessed.smi

> <i_m_source_file_index>
1093

> <i_lp_mmshare_version>
43012

> <i_f3d_flags>
0

> <s_epik_input>
W0NIM11bQ0gyXU4xW0NIMl1bQ0gyXVtDSDJdW0NASF0oW0NIMl0xKVtOSF1DKD1PKVtOSF1jMltjSF1bY0hdYyhOKFtDSDNdKVtDSDNdKW5bY0hdMg==

> <s_epik_cmdline>
J2VwaWtfcHl0aG9uJywgJy1waCcsICc3LjAnLCAnLXRuJywgJzgnLCAnLW1hJywgJzIwMCcsICctbWV0YWxfYmluZGluZycsICctaW1hZScsICc8aW5maWxlLm1hZT4nLCAnLW9tYWUnLCAnPG91dGZpbGUubWFlPic=

> <r_lp_tautomer_probability>
0.999994

> <r_epik_Ionization_Penalty>
0.346711

> <r_epik_Ionization_Penalty_Charging>
0.346691

> <r_epik_Ionization_Penalty_Neutral>
1.93006e-05

> <r_epik_State_Penalty>
0.339838

> <r_epik_Charging_Adjusted_Penalty>
0.68653

> <i_epik_Tot_Q>
2

> <i_epik_Tot_abs_Q>
2

> <r_epik_Metal_State_Penalty>
0.600835

> <b_epik_Metal_Only>
0

> <s_lp_Force_Field>
OPLS_2005

> <r_lp_Energy>
27.882

> <b_lp_Chiralities_Consistent>
1

> <s_lp_Variant>
AV-unprocessed.smi:1093-4

> <Gold.Version>
5.8.1

> <Gold.Id.Protein>
6NUR|6NUR_protein|mol2

> <Gold.PLP.Fitness>
45.6617

> <Gold.PLP.PLP>
-35.3426

> <Gold.PLP.part.hbond>
-5.1526

> <Gold.PLP.part.metal>
0.0000

> <Gold.PLP.part.buried>
6.0180

> <Gold.PLP.part.nonpolar>
-37.1437

> <Gold.PLP.part.repulsive>
0.5379

> <Gold.PLP.ligand.clash>
0.0000

> <Gold.PLP.ligand.torsion>
0.7319

> <Gold.PLP.Chemscore.Hbond>
3.9190

> <Gold.PLP.Chemscore.CHOScore>
0.0000

> <Gold.PLP.Chemscore.Metal>
0.0000

> <Gold.Chemscore.Hbonds>
donor molecule, donor type, donor heavy atom, donor atom, acceptor molecule, acceptor atom, score
      L1  H     3    47       P1 10171  0.94
      L1  H     8    34       P1  7948  0.94
      L1  H    19    48       P1  8028  2.00

> <Gold.PLP.Chemscore.Internal.Correction>
0.0258

> <Gold.Rescore>
     Score         DG    S(hbond)    S(metal)    S(lipo)     H(rot)  DE(clash)    DE(int)     intcor
     16.22     -21.47       2.74        0.00      84.68       1.19       2.48       2.77       ----

> <Gold.Chemscore.Fitness>
16.2201

> <Gold.Chemscore.DG>
-21.4681

> <Gold.Chemscore.ZeroCoef>
-5.4800

> <Gold.Chemscore.Hbond>
2.7364

> <Gold.Chemscore.Metal>
0.0000

> <Gold.Chemscore.Lipo>
84.6806

> <Gold.Chemscore.Internal_Hbond>
0.0000

> <Gold.Chemscore.DEClash>
2.4766

> <Gold.Chemscore.DEInternal>
2.7715

> <Gold.Chemscore.Rot>
1.1949

> <Gold.Chemscore.Internal.Correction>
   9.000000E+99

> <Gold.Chemscore.Hbonds>
donor molecule, donor type, donor heavy atom, donor atom, acceptor molecule, acceptor atom, score
      L1  H     3    47       P1 10171  0.80
      L1  H     8    34       P1  7948  0.89
      L1  H    19    48       P1  8028  0.98

> <Gold.Chemscore.Hbond.Weighted>
-9.1394

> <Gold.Chemscore.Metal.Weighted>
-0.0000

> <Gold.Chemscore.Lipo.Weighted>
-9.9076

> <Gold.Chemscore.Internal_Hbond.Weighted>
0.0000

> <Gold.Chemscore.DEClash.Weighted>
2.4766

> <Gold.Chemscore.DEInternal.Weighted>
2.7715

> <Gold.Chemscore.Rot.Weighted>
3.0590

> <Gold.Chemscore.Internal.Correction.Weighted>
   9.000000E+99

> <Gold.Protein.RotatedTorsions>
[ 6907 6896 6895 6894 ] final  -98.13 input  -60.11 | X-H torsion
[ 7974 7965 7964 7962 ] final   99.32 input  175.53 | X-H torsion
[ 8008 7997 7996 7995 ] final  108.51 input   59.86 | X-H torsion
[ 10167 10162 10161 10158 ] final -128.67 input  -65.29 | X-H torsion
[ 10718 10713 10712 10709 ] final  -71.65 input   66.30 | X-H torsion
[ 10763 10752 10751 10750 ] final  -21.94 input  -60.55 | X-H torsion
[ 11005 11000 10999 10996 ] final -122.83 input  -57.11 | X-H torsion

> <Gold.Protein.ActiveResidues>
 VAL166  LYS551  ARG553  GLY616  TRP617  ASP618  TYR619  PRO620  LYS621  CYS622 
 ASP623  PHE694  ASN695  SER759  ASP760  ASP761  ALA762  ILE779  LEU786  VAL792 
 PHE793  MET794  SER795  GLU796  ALA797  LYS798  CYS799  TRP800  GLU811  SER814 

> <Gold.Protein.RotatedAtoms>
  150.7037  134.1242  159.4045 H   0  0  0  0  0  0  0  0  0  0  0  0  # atno 6907 bound_to 6896
  151.9228  135.0288  160.0532 H   0  0  0  0  0  0  0  0  0  0  0  0  # atno 6908 bound_to 6896
  152.2241  133.4971  159.5216 H   0  0  0  0  0  0  0  0  0  0  0  0  # atno 6909 bound_to 6896
  145.4004  139.2348  143.3303 H   0  0  0  0  0  0  0  0  0  0  0  0  # atno 7974 bound_to 7965
  156.1909  140.3075  155.9330 H   0  0  0  0  0  0  0  0  0  0  0  0  # atno 8008 bound_to 7997
  155.3176  140.0454  157.3055 H   0  0  0  0  0  0  0  0  0  0  0  0  # atno 8009 bound_to 7997
  154.5451  140.2274  155.8586 H   0  0  0  0  0  0  0  0  0  0  0  0  # atno 8010 bound_to 7997
  139.9479  143.6089  152.2484 H   0  0  0  0  0  0  0  0  0  0  0  0  # atno 10167 bound_to 10162
  156.0354  130.4356  150.2475 H   0  0  0  0  0  0  0  0  0  0  0  0  # atno 10718 bound_to 10713
  153.6441  135.6984  153.5231 H   0  0  0  0  0  0  0  0  0  0  0  0  # atno 10763 bound_to 10752
  153.2758  135.4201  155.1031 H   0  0  0  0  0  0  0  0  0  0  0  0  # atno 10764 bound_to 10752
  154.8492  135.3590  154.5986 H   0  0  0  0  0  0  0  0  0  0  0  0  # atno 10765 bound_to 10752
  140.9965  134.0464  157.3591 H   0  0  0  0  0  0  0  0  0  0  0  0  # atno 11005 bound_to 11000
  146.2755  140.4700  142.8797 LP  0  0  0  0  0  0  0  0  0  0  0  0  # atno 17320 bound_to 7965
  144.8378  140.6809  143.6249 LP  0  0  0  0  0  0  0  0  0  0  0  0  # atno 17321 bound_to 7965
  139.6652  144.7662  151.1887 LP  0  0  0  0  0  0  0  0  0  0  0  0  # atno 17342 bound_to 10162
  140.7592  143.5949  150.8758 LP  0  0  0  0  0  0  0  0  0  0  0  0  # atno 17343 bound_to 10162
  157.0575  131.0080  151.3233 LP  0  0  0  0  0  0  0  0  0  0  0  0  # atno 17370 bound_to 10713
  157.5095  130.7930  149.7690 LP  0  0  0  0  0  0  0  0  0  0  0  0  # atno 17371 bound_to 10713
  139.9017  135.0167  156.7300 LP  0  0  0  0  0  0  0  0  0  0  0  0  # atno 17394 bound_to 11000
  140.6957  133.9350  155.7993 LP  0  0  0  0  0  0  0  0  0  0  0  0  # atno 17395 bound_to 11000

$$$$
