AV-unprocessed.smi:3089|AV-procd|sdf|11773|dock5
  -GOLD-   2272017153D 1   1.00000     0.00000
 Structure written by MMmdl.
 24 24  0  0  0  0  0  0  0  0  1 V2000
  148.9142  131.9725  153.5294 C   0  0  0  0  0  0  0  0  0  0  0  0
  147.5132  132.2848  153.3453 N   0  0  0  0  0  0  0  0  0  0  0  0
  146.8272  132.5004  152.1701 C   0  0  0  0  0  0  0  0  0  0  0  0
  145.5249  132.7676  152.4923 C   0  0  0  0  0  0  0  0  0  0  0  0
  144.3679  133.0761  151.5651 C   0  0  2  0  0  0  0  0  0  0  0  0
  144.6997  134.3142  150.7137 C   0  0  0  0  0  0  0  0  0  0  0  0
  143.1880  133.4118  152.2704 O   0  0  0  0  0  0  0  0  0  0  0  0
  144.0257  131.8806  150.6483 C   0  0  0  0  0  0  0  0  0  0  0  0
  143.0142  132.1911  149.6236 N   0  0  0  0  0  0  0  0  0  0  0  0
  145.5215  132.6833  153.9160 C   0  0  0  0  0  0  0  0  0  0  0  0
  146.7100  132.3964  154.4220 N   0  0  0  0  0  0  0  0  0  0  0  0
  149.4182  131.9318  152.5636 H   0  0  0  0  0  0  0  0  0  0  0  0
  149.0157  131.0057  154.0232 H   0  0  0  0  0  0  0  0  0  0  0  0
  149.3860  132.7410  154.1426 H   0  0  0  0  0  0  0  0  0  0  0  0
  147.3162  132.4485  151.2085 H   0  0  0  0  0  0  0  0  0  0  0  0
  145.5820  134.1466  150.0949 H   0  0  0  0  0  0  0  0  0  0  0  0
  144.8999  135.1848  151.3398 H   0  0  0  0  0  0  0  0  0  0  0  0
  143.8778  134.5716  150.0443 H   0  0  0  0  0  0  0  0  0  0  0  0
  143.1050  132.8294  153.0099 H   0  0  0  0  0  0  0  0  0  0  0  0
  144.9330  131.5058  150.1731 H   0  0  0  0  0  0  0  0  0  0  0  0
  143.6517  131.0603  151.2619 H   0  0  0  0  0  0  0  0  0  0  0  0
  142.3178  131.4483  149.5776 H   0  0  0  0  0  0  0  0  0  0  0  0
  142.5203  133.0509  149.8581 H   0  0  0  0  0  0  0  0  0  0  0  0
  144.6924  132.8228  154.5941 H   0  0  0  0  0  0  0  0  0  0  0  0
  1  2  1  0  0  0  0
  1 12  1  0  0  0  0
  1 13  1  0  0  0  0
  1 14  1  0  0  0  0
  2 11  1  0  0  0  0
  2  3  1  0  0  0  0
  3  4  2  0  0  0  0
  3 15  1  0  0  0  0
  4  5  1  0  0  0  0
  4 10  1  0  0  0  0
  5  6  1  0  0  0  0
  5  7  1  0  0  0  0
  5  8  1  0  0  0  0
  6 16  1  0  0  0  0
  6 17  1  0  0  0  0
  6 18  1  0  0  0  0
  7 19  1  0  0  0  0
  8  9  1  0  0  0  0
  8 20  1  0  0  0  0
  8 21  1  0  0  0  0
  9 22  1  0  0  0  0
  9 23  1  0  0  0  0
 10 11  2  0  0  0  0
 10 24  1  0  0  0  0
M  END
> <s_m_source_file>
AV-unprocessed.smi

> <i_m_source_file_index>
3089

> <i_lp_mmshare_version>
43012

> <i_f3d_flags>
0

> <s_epik_input>
W0NIM11uMVtjSF1jKFtjSF1uMSlbQ0BAXShbQ0gzXSkoW09IXSlbQ0gyXVtOSDJd

> <s_epik_cmdline>
J2VwaWtfcHl0aG9uJywgJy1waCcsICc3LjAnLCAnLXRuJywgJzgnLCAnLW1hJywgJzIwMCcsICctbWV0YWxfYmluZGluZycsICctaW1hZScsICc8aW5maWxlLm1hZT4nLCAnLW9tYWUnLCAnPG91dGZpbGUubWFlPic=

> <r_lp_tautomer_probability>
1

> <r_epik_Ionization_Penalty>
2.22427

> <r_epik_Ionization_Penalty_Charging>
0

> <r_epik_Ionization_Penalty_Neutral>
2.22427

> <r_epik_State_Penalty>
2.36938

> <r_epik_Charging_Adjusted_Penalty>
2.36938

> <i_epik_Tot_Q>
0

> <i_epik_Tot_abs_Q>
0

> <r_epik_Metal_State_Penalty>
2.36933

> <b_epik_Metal_Only>
0

> <s_lp_Force_Field>
OPLS_2005

> <r_lp_Energy>
8.30456

> <b_lp_Chiralities_Consistent>
1

> <s_lp_Variant>
AV-unprocessed.smi:3089-4

> <Gold.Version>
5.8.1

> <Gold.Id.Protein>
6NUR|6NUR_protein|mol2

> <Gold.PLP.Fitness>
33.7283

> <Gold.PLP.PLP>
-18.9521

> <Gold.PLP.part.hbond>
-3.2714

> <Gold.PLP.part.metal>
0.0000

> <Gold.PLP.part.buried>
-3.0667

> <Gold.PLP.part.nonpolar>
-14.6779

> <Gold.PLP.part.repulsive>
0.0691

> <Gold.PLP.ligand.clash>
0.0000

> <Gold.PLP.ligand.torsion>
0.0848

> <Gold.PLP.Chemscore.Hbond>
2.9750

> <Gold.PLP.Chemscore.CHOScore>
2.0000

> <Gold.PLP.Chemscore.Metal>
0.0000

> <Gold.Chemscore.Hbonds>
donor molecule, donor type, donor heavy atom, donor atom, acceptor molecule, acceptor atom, score
      L1  H     7    19       P1 10957  0.83
      L1  H     9    22       P1 10952  1.00
      L1  H     9    23       P1 10186  0.93
      L1  C     3    15       P1 10747  1.00
      L1  C    10    24       P1 10957  1.00

> <Gold.PLP.Chemscore.Internal.Correction>
0.0207

> <Gold.Rescore>
     Score         DG    S(hbond)    S(metal)    S(lipo)     H(rot)  DE(clash)    DE(int)     intcor
     14.31     -14.44       2.69        0.00      40.04       1.84       0.01       0.12       ----

> <Gold.Chemscore.Fitness>
14.3062

> <Gold.Chemscore.DG>
-14.4387

> <Gold.Chemscore.ZeroCoef>
-5.4800

> <Gold.Chemscore.Hbond>
2.6887

> <Gold.Chemscore.Metal>
0.0000

> <Gold.Chemscore.Lipo>
40.0444

> <Gold.Chemscore.Internal_Hbond>
0.0000

> <Gold.Chemscore.DEClash>
0.0089

> <Gold.Chemscore.DEInternal>
0.1236

> <Gold.Chemscore.Rot>
1.8386

> <Gold.Chemscore.Internal.Correction>
   9.000000E+99

> <Gold.Chemscore.Hbonds>
donor molecule, donor type, donor heavy atom, donor atom, acceptor molecule, acceptor atom, score
      L1  H     7    19       P1 10957  0.29
      L1  H     9    22       P1 10952  1.00
      L1  H     9    23       P1 10186  0.84

> <Gold.Chemscore.Hbond.Weighted>
-8.9804

> <Gold.Chemscore.Metal.Weighted>
-0.0000

> <Gold.Chemscore.Lipo.Weighted>
-4.6852

> <Gold.Chemscore.Internal_Hbond.Weighted>
0.0000

> <Gold.Chemscore.DEClash.Weighted>
0.0089

> <Gold.Chemscore.DEInternal.Weighted>
0.1236

> <Gold.Chemscore.Rot.Weighted>
4.7069

> <Gold.Chemscore.Internal.Correction.Weighted>
   9.000000E+99

> <Gold.Protein.RotatedTorsions>
[ 6907 6896 6895 6894 ] final   59.85 input  -60.11 | X-H torsion
[ 7974 7965 7964 7962 ] final  171.62 input  175.53 | X-H torsion
[ 8008 7997 7996 7995 ] final  169.28 input   59.86 | X-H torsion
[ 10167 10162 10161 10158 ] final  138.26 input  -65.29 | X-H torsion
[ 10718 10713 10712 10709 ] final  -95.73 input   66.30 | X-H torsion
[ 10763 10752 10751 10750 ] final  -88.91 input  -60.55 | X-H torsion
[ 11005 11000 10999 10996 ] final  148.38 input  -57.11 | X-H torsion

> <Gold.Protein.ActiveResidues>
 VAL166  LYS551  ARG553  GLY616  TRP617  ASP618  TYR619  PRO620  LYS621  CYS622 
 ASP623  PHE694  ASN695  SER759  ASP760  ASP761  ALA762  ILE779  LEU786  VAL792 
 PHE793  MET794  SER795  GLU796  ALA797  LYS798  CYS799  TRP800  GLU811  SER814 

> <Gold.Protein.RotatedAtoms>
  152.3951  134.6378  160.0092 H   0  0  0  0  0  0  0  0  0  0  0  0  # atno 6907 bound_to 6896
  151.6601  133.3312  159.3180 H   0  0  0  0  0  0  0  0  0  0  0  0  # atno 6908 bound_to 6896
  150.7860  134.6888  159.6530 H   0  0  0  0  0  0  0  0  0  0  0  0  # atno 6909 bound_to 6896
  144.7290  139.9377  143.6427 H   0  0  0  0  0  0  0  0  0  0  0  0  # atno 7974 bound_to 7965
  156.1471  140.1568  156.8829 H   0  0  0  0  0  0  0  0  0  0  0  0  # atno 8008 bound_to 7997
  154.5038  140.0818  156.7890 H   0  0  0  0  0  0  0  0  0  0  0  0  # atno 8009 bound_to 7997
  155.3967  140.3412  155.4257 H   0  0  0  0  0  0  0  0  0  0  0  0  # atno 8010 bound_to 7997
  139.5116  144.6363  151.5687 H   0  0  0  0  0  0  0  0  0  0  0  0  # atno 10167 bound_to 10162
  156.0049  130.5121  150.6120 H   0  0  0  0  0  0  0  0  0  0  0  0  # atno 10718 bound_to 10713
  154.6496  135.5360  153.7886 H   0  0  0  0  0  0  0  0  0  0  0  0  # atno 10763 bound_to 10752
  153.0379  135.6479  154.1036 H   0  0  0  0  0  0  0  0  0  0  0  0  # atno 10764 bound_to 10752
  154.0954  135.2937  155.3242 H   0  0  0  0  0  0  0  0  0  0  0  0  # atno 10765 bound_to 10752
  140.0955  134.9015  157.1716 H   0  0  0  0  0  0  0  0  0  0  0  0  # atno 11005 bound_to 11000
  146.0809  139.3796  143.0465 LP  0  0  0  0  0  0  0  0  0  0  0  0  # atno 17320 bound_to 7965
  145.7842  140.9843  143.1083 LP  0  0  0  0  0  0  0  0  0  0  0  0  # atno 17321 bound_to 7965
  140.6114  143.9430  150.6456 LP  0  0  0  0  0  0  0  0  0  0  0  0  # atno 17342 bound_to 10162
  140.2673  143.3481  152.1269 LP  0  0  0  0  0  0  0  0  0  0  0  0  # atno 17343 bound_to 10162
  157.3951  131.0801  151.1359 LP  0  0  0  0  0  0  0  0  0  0  0  0  # atno 17370 bound_to 10713
  157.2038  130.6407  149.5748 LP  0  0  0  0  0  0  0  0  0  0  0  0  # atno 17371 bound_to 10713
  140.3293  134.2828  155.7231 LP  0  0  0  0  0  0  0  0  0  0  0  0  # atno 17394 bound_to 11000
  141.2090  133.7760  157.0020 LP  0  0  0  0  0  0  0  0  0  0  0  0  # atno 17395 bound_to 11000

$$$$
