AV-unprocessed.smi:2217|AV-procd|sdf|8968|dock2
  -GOLD-   2272012183D 1   1.00000     0.00000
 Structure written by MMmdl.
 45 48  0  0  0  0  0  0  0  0  1 V2000
  150.9790  142.1217  156.4905 C   0  0  0  0  0  0  0  0  0  0  0  0
  150.2217  141.1012  155.6669 C   0  0  0  0  0  0  0  0  0  0  0  0
  150.8160  139.8798  155.2990 C   0  0  0  0  0  0  0  0  0  0  0  0
  150.0676  138.9638  154.5351 C   0  0  0  0  0  0  0  0  0  0  0  0
  148.7450  139.2853  154.1551 C   0  0  0  0  0  0  0  0  0  0  0  0
  148.0894  138.2760  153.3895 N   0  0  0  0  0  0  0  0  0  0  0  0
  146.7801  138.0148  153.1880 C   0  0  0  0  0  0  0  0  0  0  0  0
  145.9074  138.7090  153.7065 O   0  0  0  0  0  0  0  0  0  0  0  0
  146.4987  136.9691  152.3960 N   0  0  0  0  0  0  0  0  0  0  0  0
  145.1606  136.5623  151.9878 C   0  0  2  0  0  0  0  0  0  0  0  0
  144.1908  136.4840  153.1666 C   0  0  1  0  0  0  0  0  0  0  0  0
  142.9907  137.2597  153.5780 C   0  0  0  0  0  0  0  0  0  0  0  0
  142.0565  136.0617  153.8916 C   0  0  0  0  0  0  0  0  0  0  0  0
  142.7359  134.8857  153.3898 O   0  0  0  0  0  0  0  0  0  0  0  0
  143.5496  135.3825  152.3464 C   0  0  2  0  0  0  0  0  0  0  0  0
  144.9747  134.9994  151.8978 C   0  0  0  0  0  0  0  0  0  0  0  0
  145.1190  134.3703  150.5051 C   0  0  0  0  0  0  0  0  0  0  0  0
  145.9640  133.1002  150.6285 C   0  0  0  0  0  0  0  0  0  0  0  0
  146.7510  133.2830  151.9181 C   0  0  0  0  0  0  0  0  0  0  0  0
  145.7998  134.0702  152.8131 C   0  0  0  0  0  0  0  0  0  0  0  0
  148.1816  140.4654  154.5202 N   0  0  0  0  0  0  0  0  0  0  0  0
  148.8985  141.3438  155.2521 C   0  0  0  0  0  0  0  0  0  0  0  0
  152.0541  142.0274  156.3348 H   0  0  0  0  0  0  0  0  0  0  0  0
  150.7703  141.9782  157.5507 H   0  0  0  0  0  0  0  0  0  0  0  0
  150.6848  143.1351  156.2159 H   0  0  0  0  0  0  0  0  0  0  0  0
  151.8279  139.6448  155.5956 H   0  0  0  0  0  0  0  0  0  0  0  0
  150.5107  138.0216  154.2458 H   0  0  0  0  0  0  0  0  0  0  0  0
  148.7154  137.6151  152.9533 H   0  0  0  0  0  0  0  0  0  0  0  0
  147.2738  136.4456  152.0132 H   0  0  0  0  0  0  0  0  0  0  0  0
  144.7626  137.1171  151.1328 H   0  0  0  0  0  0  0  0  0  0  0  0
  144.7008  136.1011  154.0561 H   0  0  0  0  0  0  0  0  0  0  0  0
  143.1716  137.8895  154.4495 H   0  0  0  0  0  0  0  0  0  0  0  0
  142.6053  137.8766  152.7651 H   0  0  0  0  0  0  0  0  0  0  0  0
  141.8795  135.9520  154.9619 H   0  0  0  0  0  0  0  0  0  0  0  0
  141.0911  136.1832  153.3986 H   0  0  0  0  0  0  0  0  0  0  0  0
  142.9347  135.7453  151.5146 H   0  0  0  0  0  0  0  0  0  0  0  0
  144.1514  134.1424  150.0570 H   0  0  0  0  0  0  0  0  0  0  0  0
  145.6141  135.0668  149.8282 H   0  0  0  0  0  0  0  0  0  0  0  0
  145.3077  132.2342  150.7238 H   0  0  0  0  0  0  0  0  0  0  0  0
  146.6068  132.9361  149.7631 H   0  0  0  0  0  0  0  0  0  0  0  0
  147.0656  132.3379  152.3607 H   0  0  0  0  0  0  0  0  0  0  0  0
  147.6449  133.8769  151.7225 H   0  0  0  0  0  0  0  0  0  0  0  0
  146.3549  134.5981  153.5887 H   0  0  0  0  0  0  0  0  0  0  0  0
  145.1351  133.3746  153.3270 H   0  0  0  0  0  0  0  0  0  0  0  0
  148.3992  142.2654  155.5133 H   0  0  0  0  0  0  0  0  0  0  0  0
  1  2  1  0  0  0  0
  1 23  1  0  0  0  0
  1 24  1  0  0  0  0
  1 25  1  0  0  0  0
  2 22  1  0  0  0  0
  2  3  2  0  0  0  0
  3  4  1  0  0  0  0
  3 26  1  0  0  0  0
  4  5  2  0  0  0  0
  4 27  1  0  0  0  0
  5  6  1  0  0  0  0
  5 21  1  0  0  0  0
  6  7  1  0  0  0  0
  6 28  1  0  0  0  0
  7  8  2  0  0  0  0
  7  9  1  0  0  0  0
  9 10  1  0  0  0  0
  9 29  1  0  0  0  0
 10 16  1  0  0  0  0
 10 11  1  0  0  0  0
 10 30  1  0  0  0  0
 11 15  1  0  0  0  0
 11 12  1  0  0  0  0
 11 31  1  0  0  0  0
 12 13  1  0  0  0  0
 12 32  1  0  0  0  0
 12 33  1  0  0  0  0
 13 14  1  0  0  0  0
 13 34  1  0  0  0  0
 13 35  1  0  0  0  0
 14 15  1  0  0  0  0
 15 16  1  0  0  0  0
 15 36  1  0  0  0  0
 16 20  1  0  0  0  0
 16 17  1  0  0  0  0
 17 18  1  0  0  0  0
 17 37  1  0  0  0  0
 17 38  1  0  0  0  0
 18 19  1  0  0  0  0
 18 39  1  0  0  0  0
 18 40  1  0  0  0  0
 19 20  1  0  0  0  0
 19 41  1  0  0  0  0
 19 42  1  0  0  0  0
 20 43  1  0  0  0  0
 20 44  1  0  0  0  0
 21 22  2  0  0  0  0
 22 45  1  0  0  0  0
M  END
> <s_m_source_file>
AV-unprocessed.smi

> <i_m_source_file_index>
2217

> <i_lp_mmshare_version>
43012

> <i_f3d_flags>
0

> <s_epik_input>
W0NIM11jMVtjSF1bY0hdYyhuW2NIXTEpW05IXUMoPU8pW05IXVtDQEBIXTJbQ0BASF0oW0NIMl1bQ0gyXU8zKVtDQEhdM0MyNFtDSDJdW0NIMl1bQ0gyXVtDSDJdNA==

> <s_epik_cmdline>
J2VwaWtfcHl0aG9uJywgJy1waCcsICc3LjAnLCAnLXRuJywgJzgnLCAnLW1hJywgJzIwMCcsICctbWV0YWxfYmluZGluZycsICctaW1hZScsICc8aW5maWxlLm1hZT4nLCAnLW9tYWUnLCAnPG91dGZpbGUubWFlPic=

> <r_lp_tautomer_probability>
1

> <r_epik_Ionization_Penalty>
6.14796e-05

> <r_epik_Ionization_Penalty_Charging>
0

> <r_epik_Ionization_Penalty_Neutral>
6.14796e-05

> <r_epik_State_Penalty>
-0

> <r_epik_Charging_Adjusted_Penalty>
0

> <i_epik_Tot_Q>
0

> <i_epik_Tot_abs_Q>
0

> <r_epik_Metal_State_Penalty>
-0

> <b_epik_Metal_Only>
0

> <s_lp_Force_Field>
OPLS_2005

> <r_lp_Energy>
79.4862

> <b_lp_Chiralities_Consistent>
1

> <s_lp_Variant>
AV-unprocessed.smi:2217-1

> <Gold.Version>
5.8.1

> <Gold.Id.Protein>
6NUR|6NUR_protein|mol2

> <Gold.PLP.Fitness>
44.7547

> <Gold.PLP.PLP>
-36.1644

> <Gold.PLP.part.hbond>
-2.5179

> <Gold.PLP.part.metal>
0.0000

> <Gold.PLP.part.buried>
-3.1014

> <Gold.PLP.part.nonpolar>
-31.3612

> <Gold.PLP.part.repulsive>
1.0126

> <Gold.PLP.ligand.clash>
0.0000

> <Gold.PLP.ligand.torsion>
0.3336

> <Gold.PLP.Chemscore.Hbond>
1.9920

> <Gold.PLP.Chemscore.CHOScore>
1.0000

> <Gold.PLP.Chemscore.Metal>
0.0000

> <Gold.Chemscore.Hbonds>
donor molecule, donor type, donor heavy atom, donor atom, acceptor molecule, acceptor atom, score
      L1  H     6    28       P1  7948  1.00
      L1  H     9    29       P1  7948  1.00
      L1  C    22    45       P1  8028  1.00

> <Gold.PLP.Chemscore.Internal.Correction>
0.2814

> <Gold.Rescore>
     Score         DG    S(hbond)    S(metal)    S(lipo)     H(rot)  DE(clash)    DE(int)     intcor
     15.88     -18.75       1.93        0.00      80.31       1.00       0.13       2.74       ----

> <Gold.Chemscore.Fitness>
15.8768

> <Gold.Chemscore.DG>
-18.7477

> <Gold.Chemscore.ZeroCoef>
-5.4800

> <Gold.Chemscore.Hbond>
1.9257

> <Gold.Chemscore.Metal>
0.0000

> <Gold.Chemscore.Lipo>
80.3050

> <Gold.Chemscore.Internal_Hbond>
0.0000

> <Gold.Chemscore.DEClash>
0.1281

> <Gold.Chemscore.DEInternal>
2.7428

> <Gold.Chemscore.Rot>
1.0000

> <Gold.Chemscore.Internal.Correction>
   9.000000E+99

> <Gold.Chemscore.Hbonds>
donor molecule, donor type, donor heavy atom, donor atom, acceptor molecule, acceptor atom, score
      L1  H     6    28       P1  7948  0.94
      L1  H     9    29       P1  7948  0.94

> <Gold.Chemscore.Hbond.Weighted>
-6.4320

> <Gold.Chemscore.Metal.Weighted>
-0.0000

> <Gold.Chemscore.Lipo.Weighted>
-9.3957

> <Gold.Chemscore.Internal_Hbond.Weighted>
0.0000

> <Gold.Chemscore.DEClash.Weighted>
0.1281

> <Gold.Chemscore.DEInternal.Weighted>
2.7428

> <Gold.Chemscore.Rot.Weighted>
2.5600

> <Gold.Chemscore.Internal.Correction.Weighted>
   9.000000E+99

> <Gold.Protein.RotatedTorsions>
[ 6907 6896 6895 6894 ] final   16.52 input  -60.11 | X-H torsion
[ 7974 7965 7964 7962 ] final   54.97 input  175.53 | X-H torsion
[ 8008 7997 7996 7995 ] final   10.37 input   59.86 | X-H torsion
[ 10167 10162 10161 10158 ] final  147.42 input  -65.29 | X-H torsion
[ 10718 10713 10712 10709 ] final   52.44 input   66.30 | X-H torsion
[ 10763 10752 10751 10750 ] final -115.27 input  -60.55 | X-H torsion
[ 11005 11000 10999 10996 ] final   45.39 input  -57.11 | X-H torsion

> <Gold.Protein.ActiveResidues>
 VAL166  LYS551  ARG553  GLY616  TRP617  ASP618  TYR619  PRO620  LYS621  CYS622 
 ASP623  PHE694  ASN695  SER759  ASP760  ASP761  ALA762  ILE779  LEU786  VAL792 
 PHE793  MET794  SER795  GLU796  ALA797  LYS798  CYS799  TRP800  GLU811  SER814 

> <Gold.Protein.RotatedAtoms>
  151.8352  135.0608  160.0441 H   0  0  0  0  0  0  0  0  0  0  0  0  # atno 6907 bound_to 6896
  152.2850  133.5502  159.5530 H   0  0  0  0  0  0  0  0  0  0  0  0  # atno 6908 bound_to 6896
  150.7205  134.0426  159.3813 H   0  0  0  0  0  0  0  0  0  0  0  0  # atno 6909 bound_to 6896
  145.9553  139.4009  143.0281 H   0  0  0  0  0  0  0  0  0  0  0  0  # atno 7974 bound_to 7965
  154.7925  140.2838  155.5981 H   0  0  0  0  0  0  0  0  0  0  0  0  # atno 8008 bound_to 7997
  156.2966  140.2602  156.2704 H   0  0  0  0  0  0  0  0  0  0  0  0  # atno 8009 bound_to 7997
  154.9653  140.0377  157.2199 H   0  0  0  0  0  0  0  0  0  0  0  0  # atno 8010 bound_to 7997
  139.4890  144.5756  151.6971 H   0  0  0  0  0  0  0  0  0  0  0  0  # atno 10167 bound_to 10162
  157.5075  130.8479  149.8393 H   0  0  0  0  0  0  0  0  0  0  0  0  # atno 10718 bound_to 10713
  154.8474  135.4387  154.1637 H   0  0  0  0  0  0  0  0  0  0  0  0  # atno 10763 bound_to 10752
  153.2767  135.6950  153.7432 H   0  0  0  0  0  0  0  0  0  0  0  0  # atno 10764 bound_to 10752
  153.6651  135.3428  155.3113 H   0  0  0  0  0  0  0  0  0  0  0  0  # atno 10765 bound_to 10752
  140.1464  134.4518  155.8413 H   0  0  0  0  0  0  0  0  0  0  0  0  # atno 11005 bound_to 11000
  145.8115  140.9723  143.0946 LP  0  0  0  0  0  0  0  0  0  0  0  0  # atno 17320 bound_to 7965
  144.6804  139.9927  143.7484 LP  0  0  0  0  0  0  0  0  0  0  0  0  # atno 17321 bound_to 7965
  140.5352  144.0667  150.6068 LP  0  0  0  0  0  0  0  0  0  0  0  0  # atno 17342 bound_to 10162
  140.3671  143.2875  152.0320 LP  0  0  0  0  0  0  0  0  0  0  0  0  # atno 17343 bound_to 10162
  156.0268  130.3777  150.1801 LP  0  0  0  0  0  0  0  0  0  0  0  0  # atno 17370 bound_to 10713
  156.9991  130.9917  151.3395 LP  0  0  0  0  0  0  0  0  0  0  0  0  # atno 17371 bound_to 10713
  141.2193  133.6854  156.7341 LP  0  0  0  0  0  0  0  0  0  0  0  0  # atno 17394 bound_to 11000
  140.2659  134.8430  157.3802 LP  0  0  0  0  0  0  0  0  0  0  0  0  # atno 17395 bound_to 11000

$$$$
