AV-unprocessed.smi:1703|AV-procd|sdf|6858|dock9
  -GOLD-   22720 8 43D 1   1.00000     0.00000
 Structure written by MMmdl.
 48 50  0  0  0  0  0  0  0  0  1 V2000
  146.2264  138.5091  152.6094 C   0  0  0  0  0  0  0  0  0  0  0  0
  147.0486  139.1029  153.7579 C   0  0  1  0  0  0  0  0  0  0  0  0
  148.3998  138.3866  153.9335 C   0  0  0  0  0  0  0  0  0  0  0  0
  149.2156  139.0043  154.9716 N   0  0  0  0  0  0  0  0  0  0  0  0
  150.4742  138.2775  155.1442 C   0  0  0  0  0  0  0  0  0  0  0  0
  151.4702  138.9024  156.1460 C   0  0  1  0  0  0  0  0  0  0  0  0
  152.3399  139.7583  155.4342 O   0  0  0  0  0  0  0  0  0  0  0  0
  150.7929  139.7443  157.2469 C   0  0  0  0  0  0  0  0  0  0  0  0
  151.6684  140.0179  158.3791 N   0  0  0  0  0  0  0  0  0  0  0  0
  152.4393  139.1425  159.0728 C   0  0  0  0  0  0  0  0  0  0  0  0
  152.5013  137.6849  158.7325 C   0  0  0  0  0  0  0  0  0  0  0  0
  152.3122  136.8548  159.8584 O   0  0  0  0  0  0  0  0  0  0  0  0
  153.1506  139.6621  160.0740 N   0  0  0  0  0  0  0  0  0  0  0  0
  152.8183  141.0016  160.0198 C   0  0  0  0  0  0  0  0  0  0  0  0
  153.2448  142.0864  160.8188 C   0  0  0  0  0  0  0  0  0  0  0  0
  152.7617  143.3883  160.5724 C   0  0  0  0  0  0  0  0  0  0  0  0
  151.8471  143.6238  159.5257 C   0  0  0  0  0  0  0  0  0  0  0  0
  151.4100  142.5572  158.7169 C   0  0  0  0  0  0  0  0  0  0  0  0
  151.8946  141.2590  158.9674 C   0  0  0  0  0  0  0  0  0  0  0  0
  149.4204  140.4122  154.6342 C   0  0  0  0  0  0  0  0  0  0  0  0
  148.0960  141.1716  154.4164 C   0  0  2  0  0  0  0  0  0  0  0  0
  147.3384  141.4602  155.7238 C   0  0  0  0  0  0  0  0  0  0  0  0
  147.2773  140.4813  153.4713 O   0  0  0  0  0  0  0  0  0  0  0  0
  146.0142  137.4539  152.7826 H   0  0  0  0  0  0  0  0  0  0  0  0
  146.7565  138.5936  151.6603 H   0  0  0  0  0  0  0  0  0  0  0  0
  145.2726  139.0271  152.5054 H   0  0  0  0  0  0  0  0  0  0  0  0
  146.4675  139.0155  154.6764 H   0  0  0  0  0  0  0  0  0  0  0  0
  148.2184  137.3401  154.1819 H   0  0  0  0  0  0  0  0  0  0  0  0
  148.9427  138.3918  152.9867 H   0  0  0  0  0  0  0  0  0  0  0  0
  150.2607  137.2602  155.4764 H   0  0  0  0  0  0  0  0  0  0  0  0
  150.9493  138.1751  154.1683 H   0  0  0  0  0  0  0  0  0  0  0  0
  152.0721  138.1304  156.6213 H   0  0  0  0  0  0  0  0  0  0  0  0
  151.8959  140.5808  155.2923 H   0  0  0  0  0  0  0  0  0  0  0  0
  150.4426  140.6924  156.8377 H   0  0  0  0  0  0  0  0  0  0  0  0
  149.9035  139.2326  157.6168 H   0  0  0  0  0  0  0  0  0  0  0  0
  151.7301  137.4539  157.9968 H   0  0  0  0  0  0  0  0  0  0  0  0
  153.4570  137.4502  158.2657 H   0  0  0  0  0  0  0  0  0  0  0  0
  153.0054  137.0261  160.4771 H   0  0  0  0  0  0  0  0  0  0  0  0
  153.9456  141.9164  161.6227 H   0  0  0  0  0  0  0  0  0  0  0  0
  153.0947  144.2100  161.1894 H   0  0  0  0  0  0  0  0  0  0  0  0
  151.4812  144.6238  159.3439 H   0  0  0  0  0  0  0  0  0  0  0  0
  150.7081  142.7350  157.9157 H   0  0  0  0  0  0  0  0  0  0  0  0
  149.9879  140.9185  155.4135 H   0  0  0  0  0  0  0  0  0  0  0  0
  150.0189  140.4817  153.7243 H   0  0  0  0  0  0  0  0  0  0  0  0
  148.3337  142.1363  153.9677 H   0  0  0  0  0  0  0  0  0  0  0  0
  147.9328  142.0927  156.3835 H   0  0  0  0  0  0  0  0  0  0  0  0
  147.1044  140.5480  156.2725 H   0  0  0  0  0  0  0  0  0  0  0  0
  146.4014  141.9804  155.5239 H   0  0  0  0  0  0  0  0  0  0  0  0
  1  2  1  0  0  0  0
  1 24  1  0  0  0  0
  1 25  1  0  0  0  0
  1 26  1  0  0  0  0
  2 23  1  0  0  0  0
  2  3  1  0  0  0  0
  2 27  1  0  0  0  0
  3  4  1  0  0  0  0
  3 28  1  0  0  0  0
  3 29  1  0  0  0  0
  4  5  1  0  0  0  0
  4 20  1  0  0  0  0
  5  6  1  0  0  0  0
  5 30  1  0  0  0  0
  5 31  1  0  0  0  0
  6  7  1  0  0  0  0
  6  8  1  0  0  0  0
  6 32  1  0  0  0  0
  7 33  1  0  0  0  0
  8  9  1  0  0  0  0
  8 34  1  0  0  0  0
  8 35  1  0  0  0  0
  9 19  1  0  0  0  0
  9 10  1  0  0  0  0
 10 11  1  0  0  0  0
 10 13  2  0  0  0  0
 11 12  1  0  0  0  0
 11 36  1  0  0  0  0
 11 37  1  0  0  0  0
 12 38  1  0  0  0  0
 13 14  1  0  0  0  0
 14 19  2  0  0  0  0
 14 15  1  0  0  0  0
 15 16  2  0  0  0  0
 15 39  1  0  0  0  0
 16 17  1  0  0  0  0
 16 40  1  0  0  0  0
 17 18  2  0  0  0  0
 17 41  1  0  0  0  0
 18 19  1  0  0  0  0
 18 42  1  0  0  0  0
 20 21  1  0  0  0  0
 20 43  1  0  0  0  0
 20 44  1  0  0  0  0
 21 22  1  0  0  0  0
 21 23  1  0  0  0  0
 21 45  1  0  0  0  0
 22 46  1  0  0  0  0
 22 47  1  0  0  0  0
 22 48  1  0  0  0  0
M  END
> <s_m_source_file>
AV-unprocessed.smi

> <i_m_source_file_index>
1703

> <i_lp_mmshare_version>
43012

> <i_f3d_flags>
0

> <s_epik_input>
W0NIM11bQ0BASF0xW0NIMl1OKFtDSDJdW0NASF0oTzEpW0NIM10pW0NIMl1bQ0BIXShbT0hdKVtDSDJdbihjKG4yKVtDSDJdW09IXSljKGMyMylbY0hdW2NIXVtjSF1bY0hdMw==

> <s_epik_cmdline>
J2VwaWtfcHl0aG9uJywgJy1waCcsICc3LjAnLCAnLXRuJywgJzgnLCAnLW1hJywgJzIwMCcsICctbWV0YWxfYmluZGluZycsICctaW1hZScsICc8aW5maWxlLm1hZT4nLCAnLW9tYWUnLCAnPG91dGZpbGUubWFlPic=

> <r_epik_Ionization_Penalty>
0.307685

> <r_epik_Ionization_Penalty_Charging>
0

> <r_epik_Ionization_Penalty_Neutral>
0.307685

> <r_epik_State_Penalty>
0.277856

> <r_epik_Charging_Adjusted_Penalty>
0.277856

> <i_epik_Tot_Q>
0

> <i_epik_Tot_abs_Q>
0

> <r_epik_Metal_State_Penalty>
0.238959

> <b_epik_Metal_Only>
0

> <s_lp_Force_Field>
OPLS_2005

> <r_lp_Energy>
33.4596

> <b_lp_Chiralities_Consistent>
1

> <s_lp_Variant>
AV-unprocessed.smi:1703-6

> <Gold.Version>
5.8.1

> <Gold.Id.Protein>
6NUR|6NUR_protein|mol2

> <Gold.PLP.Fitness>
47.2824

> <Gold.PLP.PLP>
-42.7697

> <Gold.PLP.part.hbond>
-3.0000

> <Gold.PLP.part.metal>
0.0000

> <Gold.PLP.part.buried>
-1.3943

> <Gold.PLP.part.nonpolar>
-39.6057

> <Gold.PLP.part.repulsive>
1.2155

> <Gold.PLP.ligand.clash>
0.0000

> <Gold.PLP.ligand.torsion>
0.7748

> <Gold.PLP.Chemscore.Hbond>
2.0000

> <Gold.PLP.Chemscore.CHOScore>
0.0000

> <Gold.PLP.Chemscore.Metal>
0.0000

> <Gold.Chemscore.Hbonds>
donor molecule, donor type, donor heavy atom, donor atom, acceptor molecule, acceptor atom, score
      P1  H  6896  6908       L1    12  1.00
      P1  H  7997  8008       L1     7  0.55

> <Gold.PLP.Chemscore.Internal.Correction>
0.0624

> <Gold.Rescore>
     Score         DG    S(hbond)    S(metal)    S(lipo)     H(rot)  DE(clash)    DE(int)     intcor
     14.99     -17.31       1.70        0.00     115.53       2.88       0.48       1.84       ----

> <Gold.Chemscore.Fitness>
14.9942

> <Gold.Chemscore.DG>
-17.3133

> <Gold.Chemscore.ZeroCoef>
-5.4800

> <Gold.Chemscore.Hbond>
1.7016

> <Gold.Chemscore.Metal>
0.0000

> <Gold.Chemscore.Lipo>
115.5290

> <Gold.Chemscore.Internal_Hbond>
0.0000

> <Gold.Chemscore.DEClash>
0.4782

> <Gold.Chemscore.DEInternal>
1.8410

> <Gold.Chemscore.Rot>
2.8778

> <Gold.Chemscore.Internal.Correction>
   9.000000E+99

> <Gold.Chemscore.Hbonds>
donor molecule, donor type, donor heavy atom, donor atom, acceptor molecule, acceptor atom, score
      P1  H  6896  6908       L1    12  0.60
      P1  H  7997  8008       L1     7  0.36

> <Gold.Chemscore.Hbond.Weighted>
-5.6835

> <Gold.Chemscore.Metal.Weighted>
-0.0000

> <Gold.Chemscore.Lipo.Weighted>
-13.5169

> <Gold.Chemscore.Internal_Hbond.Weighted>
0.0000

> <Gold.Chemscore.DEClash.Weighted>
0.4782

> <Gold.Chemscore.DEInternal.Weighted>
1.8410

> <Gold.Chemscore.Rot.Weighted>
7.3671

> <Gold.Chemscore.Internal.Correction.Weighted>
   9.000000E+99

> <Gold.Protein.RotatedTorsions>
[ 6907 6896 6895 6894 ] final -103.93 input  -60.11 | X-H torsion
[ 7974 7965 7964 7962 ] final  108.77 input  175.53 | X-H torsion
[ 8008 7997 7996 7995 ] final  -14.58 input   59.86 | X-H torsion
[ 10167 10162 10161 10158 ] final  173.47 input  -65.29 | X-H torsion
[ 10718 10713 10712 10709 ] final   87.37 input   66.30 | X-H torsion
[ 10763 10752 10751 10750 ] final  166.16 input  -60.55 | X-H torsion
[ 11005 11000 10999 10996 ] final  150.36 input  -57.11 | X-H torsion

> <Gold.Protein.ActiveResidues>
 VAL166  LYS551  ARG553  GLY616  TRP617  ASP618  TYR619  PRO620  LYS621  CYS622 
 ASP623  PHE694  ASN695  SER759  ASP760  ASP761  ALA762  ILE779  LEU786  VAL792 
 PHE793  MET794  SER795  GLU796  ALA797  LYS798  CYS799  TRP800  GLU811  SER814 

> <Gold.Protein.RotatedAtoms>
  150.7263  134.0354  159.3747 H   0  0  0  0  0  0  0  0  0  0  0  0  # atno 6907 bound_to 6896
  151.8325  135.0614  160.0448 H   0  0  0  0  0  0  0  0  0  0  0  0  # atno 6908 bound_to 6896
  152.2923  133.5537  159.5601 H   0  0  0  0  0  0  0  0  0  0  0  0  # atno 6909 bound_to 6896
  145.2764  139.2648  143.3939 H   0  0  0  0  0  0  0  0  0  0  0  0  # atno 7974 bound_to 7965
  154.5199  140.2219  155.8996 H   0  0  0  0  0  0  0  0  0  0  0  0  # atno 8008 bound_to 7997
  156.1650  140.3134  155.8837 H   0  0  0  0  0  0  0  0  0  0  0  0  # atno 8009 bound_to 7997
  155.3675  140.0464  157.3036 H   0  0  0  0  0  0  0  0  0  0  0  0  # atno 8010 bound_to 7997
  139.5109  144.3257  152.0159 H   0  0  0  0  0  0  0  0  0  0  0  0  # atno 10167 bound_to 10162
  157.6939  131.0253  150.3113 H   0  0  0  0  0  0  0  0  0  0  0  0  # atno 10718 bound_to 10713
  154.3348  135.2754  155.2453 H   0  0  0  0  0  0  0  0  0  0  0  0  # atno 10763 bound_to 10752
  154.4749  135.5873  153.6351 H   0  0  0  0  0  0  0  0  0  0  0  0  # atno 10764 bound_to 10752
  152.9863  135.6097  154.3544 H   0  0  0  0  0  0  0  0  0  0  0  0  # atno 10765 bound_to 10752
  140.1124  134.8915  157.1956 H   0  0  0  0  0  0  0  0  0  0  0  0  # atno 11005 bound_to 11000
  146.3230  140.3220  142.8634 LP  0  0  0  0  0  0  0  0  0  0  0  0  # atno 17320 bound_to 7965
  144.9291  140.7954  143.5700 LP  0  0  0  0  0  0  0  0  0  0  0  0  # atno 17321 bound_to 7965
  140.2698  144.3976  150.6155 LP  0  0  0  0  0  0  0  0  0  0  0  0  # atno 17342 bound_to 10162
  140.6096  143.2169  151.6911 LP  0  0  0  0  0  0  0  0  0  0  0  0  # atno 17343 bound_to 10162
  156.3614  130.3847  149.7248 LP  0  0  0  0  0  0  0  0  0  0  0  0  # atno 17370 bound_to 10713
  156.4694  130.7989  151.3007 LP  0  0  0  0  0  0  0  0  0  0  0  0  # atno 17371 bound_to 10713
  140.3073  134.3064  155.7275 LP  0  0  0  0  0  0  0  0  0  0  0  0  # atno 17394 bound_to 11000
  141.2133  133.7628  156.9726 LP  0  0  0  0  0  0  0  0  0  0  0  0  # atno 17395 bound_to 11000

$$$$
