AV-unprocessed.smi:2981|AV-procd|sdf|11374|dock8
  -GOLD-   2272016293D 1   1.00000     0.00000
 Structure written by MMmdl.
 31 32  0  0  0  0  0  0  0  0  1 V2000
  152.0081  141.1989  157.7520 O   0  0  0  0  0  0  0  0  0  0  0  0
  151.2536  142.0245  158.2683 C   0  0  0  0  0  0  0  0  0  0  0  0
  151.7737  143.0173  159.3184 C   0  0  0  0  0  0  0  0  0  0  0  0
  152.6387  142.3951  160.3322 N   0  0  0  0  0  0  0  0  0  0  0  0
  153.2969  141.2599  159.8924 N   0  0  0  0  0  0  0  0  0  0  0  0
  154.0943  140.6392  160.6919 C   0  0  0  0  0  0  0  0  0  0  0  0
  154.3274  141.0853  162.0477 C   0  0  0  0  0  0  0  0  0  0  0  0
  155.4090  140.2115  163.0745 Cl  0  0  0  0  0  0  0  0  0  0  0  0
  153.6723  142.1956  162.4710 C   0  0  0  0  0  0  0  0  0  0  0  0
  153.8985  142.7896  164.0805 Cl  0  0  0  0  0  0  0  0  0  0  0  0
  152.7554  142.9289  161.5872 C   0  0  0  0  0  0  0  0  0  0  0  0
  152.1406  143.9384  161.9339 O   0  0  0  0  0  0  0  0  0  0  0  0
  149.9465  142.1066  157.9776 N   0  0  0  0  0  0  0  0  0  0  0  0
  149.2484  141.2653  157.0109 C   0  0  2  0  0  0  0  0  0  0  0  0
  149.4093  139.7728  157.3538 C   0  0  0  0  0  0  0  0  0  0  0  0
  148.9753  138.9397  156.1413 C   0  0  0  0  0  0  0  0  0  0  0  0
  149.3570  139.9542  154.6626 S   0  0  0  0  0  0  0  0  0  0  0  0
  150.5703  139.4388  154.0101 O   0  0  0  0  0  0  0  0  0  0  0  0
  148.1182  140.1652  153.8985 O   0  0  0  0  0  0  0  0  0  0  0  0
  149.7743  141.4823  155.5833 C   0  0  0  0  0  0  0  0  0  0  0  0
  152.3091  143.8290  158.8218 H   0  0  0  0  0  0  0  0  0  0  0  0
  150.9103  143.4856  159.7943 H   0  0  0  0  0  0  0  0  0  0  0  0
  154.6362  139.7432  160.3887 H   0  0  0  0  0  0  0  0  0  0  0  0
  149.3983  142.8099  158.4516 H   0  0  0  0  0  0  0  0  0  0  0  0
  148.1813  141.4961  157.0282 H   0  0  0  0  0  0  0  0  0  0  0  0
  150.4598  139.5632  157.5611 H   0  0  0  0  0  0  0  0  0  0  0  0
  148.8482  139.4991  158.2480 H   0  0  0  0  0  0  0  0  0  0  0  0
  149.4844  137.9776  156.0813 H   0  0  0  0  0  0  0  0  0  0  0  0
  147.8995  138.7641  156.1586 H   0  0  0  0  0  0  0  0  0  0  0  0
  149.3322  142.3499  155.0929 H   0  0  0  0  0  0  0  0  0  0  0  0
  150.8593  141.5910  155.5727 H   0  0  0  0  0  0  0  0  0  0  0  0
  1  2  2  0  0  0  0
  2  3  1  0  0  0  0
  2 13  1  0  0  0  0
  3  4  1  0  0  0  0
  3 21  1  0  0  0  0
  3 22  1  0  0  0  0
  4 11  1  0  0  0  0
  4  5  1  0  0  0  0
  5  6  2  0  0  0  0
  6  7  1  0  0  0  0
  6 23  1  0  0  0  0
  7  8  1  0  0  0  0
  7  9  2  0  0  0  0
  9 10  1  0  0  0  0
  9 11  1  0  0  0  0
 11 12  2  0  0  0  0
 13 14  1  0  0  0  0
 13 24  1  0  0  0  0
 14 20  1  0  0  0  0
 14 15  1  0  0  0  0
 14 25  1  0  0  0  0
 15 16  1  0  0  0  0
 15 26  1  0  0  0  0
 15 27  1  0  0  0  0
 16 17  1  0  0  0  0
 16 28  1  0  0  0  0
 16 29  1  0  0  0  0
 17 18  2  0  0  0  0
 17 19  2  0  0  0  0
 17 20  1  0  0  0  0
 20 30  1  0  0  0  0
 20 31  1  0  0  0  0
M  END
> <s_m_source_file>
AV-unprocessed.smi

> <i_m_source_file_index>
2981

> <i_lp_mmshare_version>
43012

> <i_f3d_flags>
0

> <s_epik_input>
Tz1TMSg9TylbQ0gyXVtDSDJdW0NASF0oW0NIMl0xKVtOSF1DKD1PKVtDSDJdbjJuW2NIXWMoQ2wpYyhDbCljMj1P

> <s_epik_cmdline>
J2VwaWtfcHl0aG9uJywgJy1waCcsICc3LjAnLCAnLXRuJywgJzgnLCAnLW1hJywgJzIwMCcsICctbWV0YWxfYmluZGluZycsICctaW1hZScsICc8aW5maWxlLm1hZT4nLCAnLW9tYWUnLCAnPG91dGZpbGUubWFlPic=

> <r_lp_tautomer_probability>
1

> <r_epik_Ionization_Penalty>
1.07216e-07

> <r_epik_Ionization_Penalty_Charging>
2.33395e-11

> <r_epik_Ionization_Penalty_Neutral>
1.07193e-07

> <r_epik_State_Penalty>
-0

> <r_epik_Charging_Adjusted_Penalty>
2.33395e-11

> <i_epik_Tot_Q>
0

> <i_epik_Tot_abs_Q>
0

> <r_epik_Metal_State_Penalty>
-0

> <b_epik_Metal_Only>
0

> <s_lp_Force_Field>
OPLS_2005

> <r_lp_Energy>
19.0616

> <b_lp_Chiralities_Consistent>
1

> <s_lp_Variant>
AV-unprocessed.smi:2981-1

> <Gold.Version>
5.8.1

> <Gold.Id.Protein>
6NUR|6NUR_protein|mol2

> <Gold.PLP.Fitness>
38.9809

> <Gold.PLP.PLP>
-37.1150

> <Gold.PLP.part.hbond>
-1.0000

> <Gold.PLP.part.metal>
0.0000

> <Gold.PLP.part.buried>
-3.5953

> <Gold.PLP.part.nonpolar>
-31.9456

> <Gold.PLP.part.repulsive>
0.5986

> <Gold.PLP.ligand.clash>
0.0288

> <Gold.PLP.ligand.torsion>
0.5533

> <Gold.PLP.Chemscore.Hbond>
1.0000

> <Gold.PLP.Chemscore.CHOScore>
0.0000

> <Gold.PLP.Chemscore.Metal>
0.0000

> <Gold.Chemscore.Hbonds>
donor molecule, donor type, donor heavy atom, donor atom, acceptor molecule, acceptor atom, score
      P1  H  7989  7998       L1    18  1.00

> <Gold.PLP.Chemscore.Internal.Correction>
0.0014

> <Gold.Rescore>
     Score         DG    S(hbond)    S(metal)    S(lipo)     H(rot)  DE(clash)    DE(int)     intcor
      8.99     -12.59       0.96        0.00      70.79       1.70       0.02       3.58       ----

> <Gold.Chemscore.Fitness>
8.9867

> <Gold.Chemscore.DG>
-12.5930

> <Gold.Chemscore.ZeroCoef>
-5.4800

> <Gold.Chemscore.Hbond>
0.9566

> <Gold.Chemscore.Metal>
0.0000

> <Gold.Chemscore.Lipo>
70.7913

> <Gold.Chemscore.Internal_Hbond>
0.0000

> <Gold.Chemscore.DEClash>
0.0233

> <Gold.Chemscore.DEInternal>
3.5831

> <Gold.Chemscore.Rot>
1.7049

> <Gold.Chemscore.Internal.Correction>
   9.000000E+99

> <Gold.Chemscore.Hbonds>
donor molecule, donor type, donor heavy atom, donor atom, acceptor molecule, acceptor atom, score
      P1  H  7989  7998       L1    18  0.69

> <Gold.Chemscore.Hbond.Weighted>
-3.1951

> <Gold.Chemscore.Metal.Weighted>
-0.0000

> <Gold.Chemscore.Lipo.Weighted>
-8.2826

> <Gold.Chemscore.Internal_Hbond.Weighted>
0.0000

> <Gold.Chemscore.DEClash.Weighted>
0.0233

> <Gold.Chemscore.DEInternal.Weighted>
3.5831

> <Gold.Chemscore.Rot.Weighted>
4.3646

> <Gold.Chemscore.Internal.Correction.Weighted>
   9.000000E+99

> <Gold.Protein.RotatedTorsions>
[ 6907 6896 6895 6894 ] final   72.96 input  -60.11 | X-H torsion
[ 7974 7965 7964 7962 ] final  -54.76 input  175.53 | X-H torsion
[ 8008 7997 7996 7995 ] final   43.41 input   59.86 | X-H torsion
[ 10167 10162 10161 10158 ] final  -23.67 input  -65.29 | X-H torsion
[ 10718 10713 10712 10709 ] final   -5.03 input   66.30 | X-H torsion
[ 10763 10752 10751 10750 ] final   -0.01 input  -60.55 | X-H torsion
[ 11005 11000 10999 10996 ] final   92.85 input  -57.11 | X-H torsion

> <Gold.Protein.ActiveResidues>
 VAL166  LYS551  ARG553  GLY616  TRP617  ASP618  TYR619  PRO620  LYS621  CYS622 
 ASP623  PHE694  ASN695  SER759  ASP760  ASP761  ALA762  ILE779  LEU786  VAL792 
 PHE793  MET794  SER795  GLU796  ALA797  LYS798  CYS799  TRP800  GLU811  SER814 

> <Gold.Protein.RotatedAtoms>
  152.4897  134.4493  159.9568 H   0  0  0  0  0  0  0  0  0  0  0  0  # atno 6907 bound_to 6896
  151.4482  133.3618  159.2799 H   0  0  0  0  0  0  0  0  0  0  0  0  # atno 6908 bound_to 6896
  150.9040  134.8478  159.7440 H   0  0  0  0  0  0  0  0  0  0  0  0  # atno 6909 bound_to 6896
  145.8819  140.8138  142.9835 H   0  0  0  0  0  0  0  0  0  0  0  0  # atno 7974 bound_to 7965
  155.3023  140.3386  155.4247 H   0  0  0  0  0  0  0  0  0  0  0  0  # atno 8008 bound_to 7997
  156.1995  140.1727  156.7967 H   0  0  0  0  0  0  0  0  0  0  0  0  # atno 8009 bound_to 7997
  154.5541  140.0700  156.8699 H   0  0  0  0  0  0  0  0  0  0  0  0  # atno 8010 bound_to 7997
  140.7288  143.4422  151.0640 H   0  0  0  0  0  0  0  0  0  0  0  0  # atno 10167 bound_to 10162
  156.7526  130.5244  149.5801 H   0  0  0  0  0  0  0  0  0  0  0  0  # atno 10718 bound_to 10713
  153.3264  135.6972  153.6985 H   0  0  0  0  0  0  0  0  0  0  0  0  # atno 10763 bound_to 10752
  153.5805  135.3499  155.2873 H   0  0  0  0  0  0  0  0  0  0  0  0  # atno 10764 bound_to 10752
  154.8609  135.4294  154.2442 H   0  0  0  0  0  0  0  0  0  0  0  0  # atno 10765 bound_to 10752
  139.8818  134.8757  156.3633 H   0  0  0  0  0  0  0  0  0  0  0  0  # atno 11005 bound_to 11000
  144.6727  140.1397  143.7438 LP  0  0  0  0  0  0  0  0  0  0  0  0  # atno 17320 bound_to 7965
  145.9013  139.2432  143.1492 LP  0  0  0  0  0  0  0  0  0  0  0  0  # atno 17321 bound_to 7965
  139.8090  143.7978  152.3169 LP  0  0  0  0  0  0  0  0  0  0  0  0  # atno 17342 bound_to 10162
  139.8021  144.7370  150.9811 LP  0  0  0  0  0  0  0  0  0  0  0  0  # atno 17343 bound_to 10162
  156.1391  130.6232  151.0442 LP  0  0  0  0  0  0  0  0  0  0  0  0  # atno 17370 bound_to 10713
  157.6770  131.0848  150.7468 LP  0  0  0  0  0  0  0  0  0  0  0  0  # atno 17371 bound_to 10713
  140.9514  133.7448  156.0278 LP  0  0  0  0  0  0  0  0  0  0  0  0  # atno 17394 bound_to 11000
  140.8100  134.3410  157.5414 LP  0  0  0  0  0  0  0  0  0  0  0  0  # atno 17395 bound_to 11000

$$$$
