AV-unprocessed.smi:1964|AV-procd|sdf|7930|dock3
  -GOLD-   2272010103D 1   1.00000     0.00000
 Structure written by MMmdl.
 46 48  0  0  0  0  0  0  0  0  1 V2000
  147.0231  131.9074  160.8272 C   0  0  0  0  0  0  0  0  0  0  0  0
  146.5692  133.1049  161.6802 C   0  0  2  0  0  0  0  0  0  0  0  0
  145.1148  133.5075  161.3592 C   0  0  0  0  0  0  0  0  0  0  0  0
  144.6362  134.6611  162.2552 C   0  0  0  0  0  0  0  0  0  0  0  0
  145.5718  135.8746  162.1514 C   0  0  0  0  0  0  0  0  0  0  0  0
  147.0267  135.4860  162.4672 C   0  0  0  0  0  0  0  0  0  0  0  0
  147.5258  134.3223  161.5870 C   0  0  2  0  0  0  0  0  0  0  0  0
  147.6907  134.7803  160.2061 N   0  0  0  0  0  0  0  0  0  0  0  0
  148.1794  135.9682  159.8180 C   0  0  0  0  0  0  0  0  0  0  0  0
  148.5310  136.8478  160.6054 O   0  0  0  0  0  0  0  0  0  0  0  0
  148.2823  136.1839  158.3011 C   0  0  0  0  0  0  0  0  0  0  0  0
  148.9559  137.4503  157.9404 N   0  0  0  0  0  0  0  0  0  0  0  0
  150.3495  137.5628  158.1797 C   0  0  0  0  0  0  0  0  0  0  0  0
  150.9905  136.6211  158.6502 O   0  0  0  0  0  0  0  0  0  0  0  0
  150.9425  138.8558  157.8474 C   0  0  0  0  0  0  0  0  0  0  0  0
  152.3347  139.0191  158.1062 C   0  0  0  0  0  0  0  0  0  0  0  0
  153.4690  139.1289  158.3090 N   0  0  0  0  0  0  0  0  0  0  0  0
  150.1947  139.8494  157.3248 C   0  0  0  0  0  0  0  0  0  0  0  0
  148.8498  139.7058  157.0624 N   0  0  0  0  0  0  0  0  0  0  0  0
  148.0440  140.8214  156.6531 C   0  0  0  0  0  0  0  0  0  0  0  0
  147.1213  140.7016  155.4558 C   0  0  0  0  0  0  0  0  0  0  0  0
  148.3781  141.5316  155.3594 C   0  0  0  0  0  0  0  0  0  0  0  0
  148.1811  138.5131  157.4159 C   0  0  0  0  0  0  0  0  0  0  0  0
  146.9598  138.4031  157.2830 O   0  0  0  0  0  0  0  0  0  0  0  0
  146.9697  132.1261  159.7602 H   0  0  0  0  0  0  0  0  0  0  0  0
  146.3954  131.0359  161.0135 H   0  0  0  0  0  0  0  0  0  0  0  0
  148.0510  131.6275  161.0593 H   0  0  0  0  0  0  0  0  0  0  0  0
  146.5864  132.7688  162.7181 H   0  0  0  0  0  0  0  0  0  0  0  0
  145.0311  133.7994  160.3116 H   0  0  0  0  0  0  0  0  0  0  0  0
  144.4543  132.6499  161.4909 H   0  0  0  0  0  0  0  0  0  0  0  0
  143.6215  134.9493  161.9793 H   0  0  0  0  0  0  0  0  0  0  0  0
  144.5903  134.3236  163.2915 H   0  0  0  0  0  0  0  0  0  0  0  0
  145.5110  136.2991  161.1486 H   0  0  0  0  0  0  0  0  0  0  0  0
  145.2408  136.6567  162.8353 H   0  0  0  0  0  0  0  0  0  0  0  0
  147.6782  136.3531  162.3515 H   0  0  0  0  0  0  0  0  0  0  0  0
  147.0963  135.1948  163.5161 H   0  0  0  0  0  0  0  0  0  0  0  0
  148.4976  134.0190  161.9806 H   0  0  0  0  0  0  0  0  0  0  0  0
  147.4264  134.1258  159.4839 H   0  0  0  0  0  0  0  0  0  0  0  0
  148.8056  135.3377  157.8520 H   0  0  0  0  0  0  0  0  0  0  0  0
  147.2774  136.1265  157.8808 H   0  0  0  0  0  0  0  0  0  0  0  0
  150.6671  140.7943  157.0972 H   0  0  0  0  0  0  0  0  0  0  0  0
  147.6874  141.4561  157.4626 H   0  0  0  0  0  0  0  0  0  0  0  0
  147.1052  139.7610  154.9085 H   0  0  0  0  0  0  0  0  0  0  0  0
  146.1708  141.2292  155.5021 H   0  0  0  0  0  0  0  0  0  0  0  0
  148.2668  142.6137  155.3393 H   0  0  0  0  0  0  0  0  0  0  0  0
  149.1893  141.1360  154.7511 H   0  0  0  0  0  0  0  0  0  0  0  0
  1  2  1  0  0  0  0
  1 25  1  0  0  0  0
  1 26  1  0  0  0  0
  1 27  1  0  0  0  0
  2  7  1  0  0  0  0
  2  3  1  0  0  0  0
  2 28  1  0  0  0  0
  3  4  1  0  0  0  0
  3 29  1  0  0  0  0
  3 30  1  0  0  0  0
  4  5  1  0  0  0  0
  4 31  1  0  0  0  0
  4 32  1  0  0  0  0
  5  6  1  0  0  0  0
  5 33  1  0  0  0  0
  5 34  1  0  0  0  0
  6  7  1  0  0  0  0
  6 35  1  0  0  0  0
  6 36  1  0  0  0  0
  7  8  1  0  0  0  0
  7 37  1  0  0  0  0
  8  9  1  0  0  0  0
  8 38  1  0  0  0  0
  9 10  2  0  0  0  0
  9 11  1  0  0  0  0
 11 12  1  0  0  0  0
 11 39  1  0  0  0  0
 11 40  1  0  0  0  0
 12 23  1  0  0  0  0
 12 13  1  0  0  0  0
 13 14  2  0  0  0  0
 13 15  1  0  0  0  0
 15 16  1  0  0  0  0
 15 18  2  0  0  0  0
 16 17  3  0  0  0  0
 18 19  1  0  0  0  0
 18 41  1  0  0  0  0
 19 20  1  0  0  0  0
 19 23  1  0  0  0  0
 20 22  1  0  0  0  0
 20 21  1  0  0  0  0
 20 42  1  0  0  0  0
 21 22  1  0  0  0  0
 21 43  1  0  0  0  0
 21 44  1  0  0  0  0
 22 45  1  0  0  0  0
 22 46  1  0  0  0  0
 23 24  2  0  0  0  0
M  END
> <s_m_source_file>
AV-unprocessed.smi

> <i_m_source_file_index>
1964

> <i_lp_mmshare_version>
43012

> <i_f3d_flags>
0

> <s_epik_input>
W0NIM11bQ0BASF0xW0NIMl1bQ0gyXVtDSDJdW0NIMl1bQ0BIXTFbTkhdQyg9TylbQ0gyXW4yYyg9TyljKEMjTilbY0hdbihjMj1PKVtDSF0zW0NIMl1bQ0gyXTM=

> <s_epik_cmdline>
J2VwaWtfcHl0aG9uJywgJy1waCcsICc3LjAnLCAnLXRuJywgJzgnLCAnLW1hJywgJzIwMCcsICctbWV0YWxfYmluZGluZycsICctaW1hZScsICc8aW5maWxlLm1hZT4nLCAnLW9tYWUnLCAnPG91dGZpbGUubWFlPic=

> <r_lp_tautomer_probability>
1

> <r_epik_Ionization_Penalty>
1.91372e-08

> <r_epik_Ionization_Penalty_Charging>
9.0283e-11

> <r_epik_Ionization_Penalty_Neutral>
1.90469e-08

> <r_epik_State_Penalty>
-0

> <r_epik_Charging_Adjusted_Penalty>
9.0283e-11

> <i_epik_Tot_Q>
0

> <i_epik_Tot_abs_Q>
0

> <r_epik_Metal_State_Penalty>
-0

> <b_epik_Metal_Only>
0

> <s_lp_Force_Field>
OPLS_2005

> <r_lp_Energy>
35.1398

> <b_lp_Chiralities_Consistent>
1

> <s_lp_Variant>
AV-unprocessed.smi:1964-3

> <Gold.Version>
5.8.1

> <Gold.Id.Protein>
6NUR|6NUR_protein|mol2

> <Gold.PLP.Fitness>
44.8065

> <Gold.PLP.PLP>
-36.5865

> <Gold.PLP.part.hbond>
-3.6186

> <Gold.PLP.part.metal>
0.0000

> <Gold.PLP.part.buried>
-6.0009

> <Gold.PLP.part.nonpolar>
-27.2147

> <Gold.PLP.part.repulsive>
0.0846

> <Gold.PLP.ligand.clash>
0.0000

> <Gold.PLP.ligand.torsion>
0.5076

> <Gold.PLP.Chemscore.Hbond>
2.9997

> <Gold.PLP.Chemscore.CHOScore>
0.0000

> <Gold.PLP.Chemscore.Metal>
0.0000

> <Gold.Chemscore.Hbonds>
donor molecule, donor type, donor heavy atom, donor atom, acceptor molecule, acceptor atom, score
      P1  H  6896  6907       L1    14  0.90
      P1  H  6931  6943       L1    10  0.90
      P1  H  7997  8008       L1    17  1.00

> <Gold.PLP.Chemscore.Internal.Correction>
0.2361

> <Gold.Rescore>
     Score         DG    S(hbond)    S(metal)    S(lipo)     H(rot)  DE(clash)    DE(int)     intcor
     18.50     -20.40       3.10        0.00      76.40       1.70       0.10       1.79       ----

> <Gold.Chemscore.Fitness>
18.5028

> <Gold.Chemscore.DG>
-20.3983

> <Gold.Chemscore.ZeroCoef>
-5.4800

> <Gold.Chemscore.Hbond>
3.0960

> <Gold.Chemscore.Metal>
0.0000

> <Gold.Chemscore.Lipo>
76.4039

> <Gold.Chemscore.Internal_Hbond>
0.0000

> <Gold.Chemscore.DEClash>
0.1013

> <Gold.Chemscore.DEInternal>
1.7941

> <Gold.Chemscore.Rot>
1.7038

> <Gold.Chemscore.Internal.Correction>
   9.000000E+99

> <Gold.Chemscore.Hbonds>
donor molecule, donor type, donor heavy atom, donor atom, acceptor molecule, acceptor atom, score
      P1  H  6896  6907       L1    14  0.87
      P1  H  6931  6943       L1    10  0.87
      P1  H  7997  8008       L1    17  0.98

> <Gold.Chemscore.Hbond.Weighted>
-10.3408

> <Gold.Chemscore.Metal.Weighted>
-0.0000

> <Gold.Chemscore.Lipo.Weighted>
-8.9393

> <Gold.Chemscore.Internal_Hbond.Weighted>
0.0000

> <Gold.Chemscore.DEClash.Weighted>
0.1013

> <Gold.Chemscore.DEInternal.Weighted>
1.7941

> <Gold.Chemscore.Rot.Weighted>
4.3618

> <Gold.Chemscore.Internal.Correction.Weighted>
   9.000000E+99

> <Gold.Protein.RotatedTorsions>
[ 6907 6896 6895 6894 ] final  -24.02 input  -60.11 | X-H torsion
[ 7974 7965 7964 7962 ] final -173.67 input  175.53 | X-H torsion
[ 8008 7997 7996 7995 ] final  -90.27 input   59.86 | X-H torsion
[ 10167 10162 10161 10158 ] final  160.05 input  -65.29 | X-H torsion
[ 10718 10713 10712 10709 ] final   51.18 input   66.30 | X-H torsion
[ 10763 10752 10751 10750 ] final -149.94 input  -60.55 | X-H torsion
[ 11005 11000 10999 10996 ] final -117.56 input  -57.11 | X-H torsion

> <Gold.Protein.ActiveResidues>
 VAL166  LYS551  ARG553  GLY616  TRP617  ASP618  TYR619  PRO620  LYS621  CYS622 
 ASP623  PHE694  ASN695  SER759  ASP760  ASP761  ALA762  ILE779  LEU786  VAL792 
 PHE793  MET794  SER795  GLU796  ALA797  LYS798  CYS799  TRP800  GLU811  SER814 

> <Gold.Protein.RotatedAtoms>
  151.1955  135.0420  159.8850 H   0  0  0  0  0  0  0  0  0  0  0  0  # atno 6907 bound_to 6896
  152.5436  134.0908  159.8286 H   0  0  0  0  0  0  0  0  0  0  0  0  # atno 6908 bound_to 6896
  151.1042  133.5173  159.2640 H   0  0  0  0  0  0  0  0  0  0  0  0  # atno 6909 bound_to 6896
  144.7136  140.1586  143.6378 H   0  0  0  0  0  0  0  0  0  0  0  0  # atno 7974 bound_to 7965
  154.6965  140.0532  157.0416 H   0  0  0  0  0  0  0  0  0  0  0  0  # atno 8008 bound_to 7997
  155.0744  140.3203  155.4602 H   0  0  0  0  0  0  0  0  0  0  0  0  # atno 8009 bound_to 7997
  156.2746  140.2076  156.5872 H   0  0  0  0  0  0  0  0  0  0  0  0  # atno 8010 bound_to 7997
  139.4837  144.4671  151.8626 H   0  0  0  0  0  0  0  0  0  0  0  0  # atno 10167 bound_to 10162
  157.4956  130.8404  149.8255 H   0  0  0  0  0  0  0  0  0  0  0  0  # atno 10718 bound_to 10713
  154.8148  135.3296  154.7207 H   0  0  0  0  0  0  0  0  0  0  0  0  # atno 10763 bound_to 10752
  153.7849  135.6915  153.4886 H   0  0  0  0  0  0  0  0  0  0  0  0  # atno 10764 bound_to 10752
  153.1955  135.4535  155.0149 H   0  0  0  0  0  0  0  0  0  0  0  0  # atno 10765 bound_to 10752
  141.0346  133.9929  157.3091 H   0  0  0  0  0  0  0  0  0  0  0  0  # atno 11005 bound_to 11000
  145.9051  139.2453  143.1471 LP  0  0  0  0  0  0  0  0  0  0  0  0  # atno 17320 bound_to 7965
  145.9772  140.8712  143.0132 LP  0  0  0  0  0  0  0  0  0  0  0  0  # atno 17321 bound_to 7965
  140.4138  144.2334  150.5888 LP  0  0  0  0  0  0  0  0  0  0  0  0  # atno 17342 bound_to 10162
  140.4941  143.2338  151.8776 LP  0  0  0  0  0  0  0  0  0  0  0  0  # atno 17343 bound_to 10162
  156.0199  130.3799  150.1995 LP  0  0  0  0  0  0  0  0  0  0  0  0  # atno 17370 bound_to 10713
  157.0184  130.9972  151.3346 LP  0  0  0  0  0  0  0  0  0  0  0  0  # atno 17371 bound_to 10713
  139.9231  135.0201  156.8138 LP  0  0  0  0  0  0  0  0  0  0  0  0  # atno 17394 bound_to 11000
  140.6345  133.9875  155.7678 LP  0  0  0  0  0  0  0  0  0  0  0  0  # atno 17395 bound_to 11000

$$$$
