AV-unprocessed.smi:532|AV-procd|sdf|2849|dock3
  -GOLD-   2262023343D 1   1.00000     0.00000
 Structure written by MMmdl.
 49 51  0  0  0  0  0  0  0  0  1 V2000
  153.6168  137.7457  159.1494 C   0  0  0  0  0  0  0  0  0  0  0  0
  153.5718  138.6595  158.0680 O   0  0  0  0  0  0  0  0  0  0  0  0
  152.2529  138.8782  157.5984 C   0  0  0  0  0  0  0  0  0  0  0  0
  152.3052  139.8543  156.4179 C   0  0  0  0  0  0  0  0  0  0  0  0
  150.9976  140.4425  156.1553 N   0  0  0  0  0  0  0  0  0  0  0  0
  150.3719  141.4641  156.8037 C   0  0  0  0  0  0  0  0  0  0  0  0
  150.9561  142.1612  157.8660 N   0  0  0  0  0  0  0  0  0  0  0  0
  151.6007  141.4619  158.9784 C   0  0  0  0  0  0  0  0  0  0  0  0
  152.8648  142.1829  159.4803 C   0  0  2  0  0  0  0  0  0  0  0  0
  153.5443  141.3972  160.6099 C   0  0  0  0  0  0  0  0  0  0  0  0
  152.5038  143.6081  159.9269 C   0  0  0  0  0  0  0  0  0  0  0  0
  151.7534  144.3608  158.8161 C   0  0  1  0  0  0  0  0  0  0  0  0
  152.6945  144.8539  157.7046 C   0  0  0  0  0  0  0  0  0  0  0  0
  150.5710  143.5106  158.2944 C   0  0  0  0  0  0  0  0  0  0  0  0
  149.1369  141.7221  156.3612 N   0  0  0  0  0  0  0  0  0  0  0  0
  148.9658  140.8045  155.3373 C   0  0  0  0  0  0  0  0  0  0  0  0
  150.0654  140.0210  155.2050 C   0  0  0  0  0  0  0  0  0  0  0  0
  150.1406  138.9313  154.2216 C   0  0  0  0  0  0  0  0  0  0  0  0
  151.1168  138.1956  154.0957 O   0  0  0  0  0  0  0  0  0  0  0  0
  149.0177  138.8129  153.4721 N   0  0  0  0  0  0  0  0  0  0  0  0
  147.8818  139.5711  153.5502 C   0  0  0  0  0  0  0  0  0  0  0  0
  146.9339  139.3381  152.8003 O   0  0  0  0  0  0  0  0  0  0  0  0
  147.8498  140.5763  154.4827 N   0  0  0  0  0  0  0  0  0  0  0  0
  146.6589  141.4179  154.6125 C   0  0  0  0  0  0  0  0  0  0  0  0
  149.0172  138.0777  152.7803 H   0  0  0  0  0  0  0  0  0  0  0  0
  154.6495  137.6076  159.4694 H   0  0  0  0  0  0  0  0  0  0  0  0
  153.2204  136.7715  158.8600 H   0  0  0  0  0  0  0  0  0  0  0  0
  153.0473  138.1169  160.0026 H   0  0  0  0  0  0  0  0  0  0  0  0
  151.8025  137.9338  157.2891 H   0  0  0  0  0  0  0  0  0  0  0  0
  151.6352  139.2907  158.3980 H   0  0  0  0  0  0  0  0  0  0  0  0
  153.0292  140.6364  156.6130 H   0  0  0  0  0  0  0  0  0  0  0  0
  152.6681  139.3555  155.5207 H   0  0  0  0  0  0  0  0  0  0  0  0
  150.8815  141.3454  159.7906 H   0  0  0  0  0  0  0  0  0  0  0  0
  151.8686  140.4544  158.6576 H   0  0  0  0  0  0  0  0  0  0  0  0
  153.5737  142.2428  158.6537 H   0  0  0  0  0  0  0  0  0  0  0  0
  152.8846  141.2906  161.4715 H   0  0  0  0  0  0  0  0  0  0  0  0
  154.4525  141.8986  160.9451 H   0  0  0  0  0  0  0  0  0  0  0  0
  153.8236  140.3967  160.2787 H   0  0  0  0  0  0  0  0  0  0  0  0
  151.8680  143.5561  160.8121 H   0  0  0  0  0  0  0  0  0  0  0  0
  153.3978  144.1569  160.2251 H   0  0  0  0  0  0  0  0  0  0  0  0
  151.3281  145.2577  159.2677 H   0  0  0  0  0  0  0  0  0  0  0  0
  153.1566  144.0275  157.1669 H   0  0  0  0  0  0  0  0  0  0  0  0
  153.4968  145.4667  158.1159 H   0  0  0  0  0  0  0  0  0  0  0  0
  152.1595  145.4681  156.9805 H   0  0  0  0  0  0  0  0  0  0  0  0
  150.0424  144.0342  157.4994 H   0  0  0  0  0  0  0  0  0  0  0  0
  149.8378  143.4013  159.0948 H   0  0  0  0  0  0  0  0  0  0  0  0
  146.3838  141.8517  153.6502 H   0  0  0  0  0  0  0  0  0  0  0  0
  146.8049  142.2449  155.3071 H   0  0  0  0  0  0  0  0  0  0  0  0
  145.8159  140.8284  154.9748 H   0  0  0  0  0  0  0  0  0  0  0  0
  1  2  1  0  0  0  0
  1 26  1  0  0  0  0
  1 27  1  0  0  0  0
  1 28  1  0  0  0  0
  2  3  1  0  0  0  0
  3  4  1  0  0  0  0
  3 29  1  0  0  0  0
  3 30  1  0  0  0  0
  4  5  1  0  0  0  0
  4 31  1  0  0  0  0
  4 32  1  0  0  0  0
  5 17  1  0  0  0  0
  5  6  1  0  0  0  0
  6  7  1  0  0  0  0
  6 15  2  0  0  0  0
  7 14  1  0  0  0  0
  7  8  1  0  0  0  0
  8  9  1  0  0  0  0
  8 33  1  0  0  0  0
  8 34  1  0  0  0  0
  9 10  1  0  0  0  0
  9 11  1  0  0  0  0
  9 35  1  0  0  0  0
 10 36  1  0  0  0  0
 10 37  1  0  0  0  0
 10 38  1  0  0  0  0
 11 12  1  0  0  0  0
 11 39  1  0  0  0  0
 11 40  1  0  0  0  0
 12 13  1  0  0  0  0
 12 14  1  0  0  0  0
 12 41  1  0  0  0  0
 13 42  1  0  0  0  0
 13 43  1  0  0  0  0
 13 44  1  0  0  0  0
 14 45  1  0  0  0  0
 14 46  1  0  0  0  0
 15 16  1  0  0  0  0
 16 23  1  0  0  0  0
 16 17  2  0  0  0  0
 17 18  1  0  0  0  0
 18 19  2  0  0  0  0
 18 20  1  0  0  0  0
 20 25  1  0  0  0  0
 20 21  1  0  0  0  0
 21 22  2  0  0  0  0
 21 23  1  0  0  0  0
 23 24  1  0  0  0  0
 24 47  1  0  0  0  0
 24 48  1  0  0  0  0
 24 49  1  0  0  0  0
M  END
> <s_m_source_file>
AV-unprocessed.smi

> <i_m_source_file_index>
532

> <i_lp_mmshare_version>
43012

> <i_f3d_flags>
0

> <s_epik_input>
W0NIM11uMWMoPU8pW25IXWMoPU8pYyhjMTIpbihbQ0gyXVtDSDJdT1tDSDNdKWMobjIpTjNbQ0gyXVtDQEBIXShbQ0gzXSlbQ0gyXVtDQEBIXShbQ0gzXSlbQ0gyXTM=

> <s_epik_cmdline>
J2VwaWtfcHl0aG9uJywgJy1waCcsICc3LjAnLCAnLXRuJywgJzgnLCAnLW1hJywgJzIwMCcsICctbWV0YWxfYmluZGluZycsICctaW1hZScsICc8aW5maWxlLm1hZT4nLCAnLW9tYWUnLCAnPG91dGZpbGUubWFlPic=

> <r_lp_tautomer_probability>
1

> <r_epik_Ionization_Penalty>
0.000642525

> <r_epik_Ionization_Penalty_Charging>
0.000121571

> <r_epik_Ionization_Penalty_Neutral>
0.000520954

> <r_epik_State_Penalty>
-0

> <r_epik_Charging_Adjusted_Penalty>
0.000121571

> <i_epik_Tot_Q>
0

> <i_epik_Tot_abs_Q>
0

> <r_epik_Metal_State_Penalty>
0.0931709

> <b_epik_Metal_Only>
0

> <s_lp_Force_Field>
OPLS_2005

> <r_lp_Energy>
41.4845

> <b_lp_Chiralities_Consistent>
1

> <s_lp_Variant>
AV-unprocessed.smi:532-2

> <Gold.Version>
5.8.1

> <Gold.Id.Protein>
6NUR|6NUR_protein|mol2

> <Gold.PLP.Fitness>
51.7774

> <Gold.PLP.PLP>
-47.2011

> <Gold.PLP.part.hbond>
-3.0000

> <Gold.PLP.part.metal>
0.0000

> <Gold.PLP.part.buried>
-4.2818

> <Gold.PLP.part.nonpolar>
-41.7129

> <Gold.PLP.part.repulsive>
0.9732

> <Gold.PLP.ligand.clash>
0.0000

> <Gold.PLP.ligand.torsion>
0.9097

> <Gold.PLP.Chemscore.Hbond>
2.0000

> <Gold.PLP.Chemscore.CHOScore>
0.0000

> <Gold.PLP.Chemscore.Metal>
0.0000

> <Gold.Chemscore.Hbonds>
donor molecule, donor type, donor heavy atom, donor atom, acceptor molecule, acceptor atom, score
      L1  H    20    25       P1  7948  1.00
      P1  H  7997  8010       L1     2  1.00

> <Gold.PLP.Chemscore.Internal.Correction>
0.3956

> <Gold.Rescore>
     Score         DG    S(hbond)    S(metal)    S(lipo)     H(rot)  DE(clash)    DE(int)     intcor
     17.75     -20.33       1.87        0.00     104.85       1.43       1.41       1.17       ----

> <Gold.Chemscore.Fitness>
17.7516

> <Gold.Chemscore.DG>
-20.3317

> <Gold.Chemscore.ZeroCoef>
-5.4800

> <Gold.Chemscore.Hbond>
1.8717

> <Gold.Chemscore.Metal>
0.0000

> <Gold.Chemscore.Lipo>
104.8477

> <Gold.Chemscore.Internal_Hbond>
0.0000

> <Gold.Chemscore.DEClash>
1.4096

> <Gold.Chemscore.DEInternal>
1.1706

> <Gold.Chemscore.Rot>
1.4324

> <Gold.Chemscore.Internal.Correction>
   9.000000E+99

> <Gold.Chemscore.Hbonds>
donor molecule, donor type, donor heavy atom, donor atom, acceptor molecule, acceptor atom, score
      L1  H    20    25       P1  7948  0.93
      P1  H  7997  8010       L1     2  0.66

> <Gold.Chemscore.Hbond.Weighted>
-6.2514

> <Gold.Chemscore.Metal.Weighted>
-0.0000

> <Gold.Chemscore.Lipo.Weighted>
-12.2672

> <Gold.Chemscore.Internal_Hbond.Weighted>
0.0000

> <Gold.Chemscore.DEClash.Weighted>
1.4096

> <Gold.Chemscore.DEInternal.Weighted>
1.1706

> <Gold.Chemscore.Rot.Weighted>
3.6669

> <Gold.Chemscore.Internal.Correction.Weighted>
   9.000000E+99

> <Gold.Protein.RotatedTorsions>
[ 6907 6896 6895 6894 ] final  -98.00 input  -60.11 | X-H torsion
[ 7974 7965 7964 7962 ] final  178.12 input  175.53 | X-H torsion
[ 8008 7997 7996 7995 ] final   18.98 input   59.86 | X-H torsion
[ 10167 10162 10161 10158 ] final  -25.12 input  -65.29 | X-H torsion
[ 10718 10713 10712 10709 ] final  172.19 input   66.30 | X-H torsion
[ 10763 10752 10751 10750 ] final   43.61 input  -60.55 | X-H torsion
[ 11005 11000 10999 10996 ] final   35.59 input  -57.11 | X-H torsion

> <Gold.Protein.ActiveResidues>
 VAL166  LYS551  ARG553  GLY616  TRP617  ASP618  TYR619  PRO620  LYS621  CYS622 
 ASP623  PHE694  ASN695  SER759  ASP760  ASP761  ALA762  ILE779  LEU786  VAL792 
 PHE793  MET794  SER795  GLU796  ALA797  LYS798  CYS799  TRP800  GLU811  SER814 

> <Gold.Protein.RotatedAtoms>
  150.7033  134.1261  159.4052 H   0  0  0  0  0  0  0  0  0  0  0  0  # atno 6907 bound_to 6896
  151.9247  135.0280  160.0534 H   0  0  0  0  0  0  0  0  0  0  0  0  # atno 6908 bound_to 6896
  152.2226  133.4960  159.5208 H   0  0  0  0  0  0  0  0  0  0  0  0  # atno 6909 bound_to 6896
  144.7160  140.0350  143.6438 H   0  0  0  0  0  0  0  0  0  0  0  0  # atno 7974 bound_to 7965
  154.9140  140.3018  155.5251 H   0  0  0  0  0  0  0  0  0  0  0  0  # atno 8008 bound_to 7997
  156.3013  140.2384  156.4118 H   0  0  0  0  0  0  0  0  0  0  0  0  # atno 8009 bound_to 7997
  154.8397  140.0414  157.1522 H   0  0  0  0  0  0  0  0  0  0  0  0  # atno 8010 bound_to 7997
  140.7287  143.4293  151.0827 H   0  0  0  0  0  0  0  0  0  0  0  0  # atno 10167 bound_to 10162
  156.9826  131.0123  151.2877 H   0  0  0  0  0  0  0  0  0  0  0  0  # atno 10718 bound_to 10713
  152.9857  135.6096  154.3139 H   0  0  0  0  0  0  0  0  0  0  0  0  # atno 10763 bound_to 10752
  154.2853  135.2776  155.2681 H   0  0  0  0  0  0  0  0  0  0  0  0  # atno 10764 bound_to 10752
  154.5001  135.5869  153.6581 H   0  0  0  0  0  0  0  0  0  0  0  0  # atno 10765 bound_to 10752
  140.2411  134.3414  155.7925 H   0  0  0  0  0  0  0  0  0  0  0  0  # atno 11005 bound_to 11000
  146.0071  139.3138  143.0893 LP  0  0  0  0  0  0  0  0  0  0  0  0  # atno 17320 bound_to 7965
  145.8726  140.9411  143.0643 LP  0  0  0  0  0  0  0  0  0  0  0  0  # atno 17321 bound_to 7965
  139.7948  143.8168  152.3156 LP  0  0  0  0  0  0  0  0  0  0  0  0  # atno 17342 bound_to 10162
  139.8164  144.7314  150.9630 LP  0  0  0  0  0  0  0  0  0  0  0  0  # atno 17343 bound_to 10162
  157.5515  130.8185  149.8151 LP  0  0  0  0  0  0  0  0  0  0  0  0  # atno 17370 bound_to 10713
  156.0238  130.3786  150.1882 LP  0  0  0  0  0  0  0  0  0  0  0  0  # atno 17371 bound_to 10713
  141.2210  133.7299  156.8887 LP  0  0  0  0  0  0  0  0  0  0  0  0  # atno 17394 bound_to 11000
  140.1652  134.9138  157.2765 LP  0  0  0  0  0  0  0  0  0  0  0  0  # atno 17395 bound_to 11000

$$$$
