#       Name:                AV-unprocessed.smi:1492
#       Creating user name   scv26
#       Creation time:       Fri Mar 27 06:16:17 2020


#       File generated by GOLD software.
#

@<TRIPOS>MOLECULE
AV-unprocessed.smi:1492
    60    61     1
SMALL
NO_CHARGES


@<TRIPOS>ATOM
      1 ****        -0.9566  -2.2793  -0.8502 C.3            1 S1                 0.0000
      2 ****        -0.1707  -1.1870  -0.1038 C.3            1 S1                 0.0000
      3 ****        -1.0313  -0.1830   0.7267 C.3            1 S1                 0.0000
      4 ****        -1.8824   0.6329  -0.2821 C.3            1 S1                 0.0000
      5 ****        -0.0859   0.7833   1.5079 C.3            1 S1                 0.0000
      6 ****         0.8411   1.4878   0.6288 N.am           1 S1                 0.0000
      7 ****         0.7391   2.7601   0.2140 C.2            1 S1                 0.0000
      8 ****        -0.0854   3.5561   0.6615 O.2            1 S1                 0.0000
      9 ****         1.6905   3.1877  -0.9080 C.3            1 S1                 0.0000
     10 ****         2.0693   2.0841  -1.8986 C.2            1 S1                 0.0000
     11 ****         3.1922   1.3185  -1.7824 C.2            1 S1                 0.0000
     12 ****         4.2150   1.5114  -0.6766 C.3            1 S1                 0.0000
     13 ****         3.4576   0.2770  -2.6873 N.2            1 S1                 0.0000
     14 ****         2.6250   0.0305  -3.6257 C.2            1 S1                 0.0000
     15 ****         2.9118  -1.0970  -4.5940 C.3            1 S1                 0.0000
     16 ****         1.4589   0.7349  -3.8226 N.pl3          1 S1                -1.0000
     17 ****         1.1399   1.7729  -2.9991 C.2            1 S1                 0.0000
     18 ****         0.1096   2.4298  -3.1428 O.2            1 S1                 0.0000
     19 ****        -1.9386  -0.9245   1.6762 N.4            1 S1                 1.0000
     20 ****        -1.2645  -1.8340   2.6459 C.3            1 S1                 0.0000
     21 ****        -2.3034  -2.6757   3.4039 C.3            1 S1                 0.0000
     22 ****        -3.2112  -1.8161   4.0785 O.3            1 S1                 0.0000
     23 ****        -3.9295  -0.9938   3.1698 C.3            1 S1                 0.0000
     24 ****        -2.9500  -0.0969   2.3937 C.3            1 S1                 0.0000
     25 ****        -0.2737  -2.9317  -1.3944 H              1 S1                 0.0000
     26 ****        -1.6443  -1.8543  -1.5809 H              1 S1                 0.0000
     27 ****        -1.5317  -2.9067  -0.1697 H              1 S1                 0.0000
     28 ****         0.5825  -1.6582   0.5270 H              1 S1                 0.0000
     29 ****         0.4090  -0.6439  -0.8517 H              1 S1                 0.0000
     30 ****        -1.2864   0.9777  -1.1272 H              1 S1                 0.0000
     31 ****        -2.3131   1.5259   0.1712 H              1 S1                 0.0000
     32 ****        -2.7024   0.0427  -0.6914 H              1 S1                 0.0000
     33 ****        -0.6558   1.5005   2.0986 H              1 S1                 0.0000
     34 ****         0.5300   0.2315   2.2166 H              1 S1                 0.0000
     35 ****         1.5649   0.9261   0.2031 H              1 S1                 0.0000
     36 ****         1.2490   4.0254  -1.4498 H              1 S1                 0.0000
     37 ****         2.5874   3.5964  -0.4438 H              1 S1                 0.0000
     38 ****         4.7007   2.4825  -0.7738 H              1 S1                 0.0000
     39 ****         4.9890   0.7440  -0.7162 H              1 S1                 0.0000
     40 ****         3.7404   1.4561   0.3029 H              1 S1                 0.0000
     41 ****         3.0188  -0.7060  -5.6062 H              1 S1                 0.0000
     42 ****         2.0951  -1.8199  -4.5861 H              1 S1                 0.0000
     43 ****         3.8326  -1.6188  -4.3297 H              1 S1                 0.0000
     44 ****        -0.5802  -2.5179   2.1482 H              1 S1                 0.0000
     45 ****        -0.6788  -1.2583   3.3628 H              1 S1                 0.0000
     46 ****        -2.8422  -3.3374   2.7236 H              1 S1                 0.0000
     47 ****        -1.8078  -3.3100   4.1391 H              1 S1                 0.0000
     48 ****        -4.5184  -1.6096   2.4880 H              1 S1                 0.0000
     49 ****        -4.6336  -0.3805   3.7323 H              1 S1                 0.0000
     50 ****        -2.4571   0.5840   3.0879 H              1 S1                 0.0000
     51 ****        -3.5341   0.5118   1.7061 H              1 S1                 0.0000
     52 ****        -2.4779  -1.5335   1.0775 H              1 S1                 0.0000
     53 ****        -0.7257   3.2660   1.3728 LP             1 S1                 0.0000
     54 ****        -0.1154   4.4933   0.3140 LP             1 S1                 0.0000
     55 ****         4.2916  -0.2674  -2.5980 LP             1 S1                 0.0000
     56 ****         0.8448   0.4846  -4.5711 LP             1 S1                 0.0000
     57 ****        -0.0990   3.1772  -2.5119 LP             1 S1                 0.0000
     58 ****        -0.5193   2.2164  -3.8904 LP             1 S1                 0.0000
     59 ****        -2.6981  -1.2324   4.7078 LP             1 S1                 0.0000
     60 ****        -3.8615  -2.3728   4.5955 LP             1 S1                 0.0000
@<TRIPOS>BOND
    1    1    2 1     
    2    1   25 1     
    3    1   26 1     
    4    1   27 1     
    5    2    3 1     
    6    2   28 1     
    7    2   29 1     
    8    3    4 1     
    9    3    5 1     
   10    3   19 1     
   11    4   30 1     
   12    4   31 1     
   13    4   32 1     
   14    5    6 1     
   15    5   33 1     
   16    5   34 1     
   17    6    7 am    
   18    6   35 1     
   19    7    8 2     
   20    7    9 1     
   21    9   10 1     
   22    9   36 1     
   23    9   37 1     
   24   10   17 1     
   25   10   11 2     
   26   11   12 1     
   27   11   13 1     
   28   12   38 1     
   29   12   39 1     
   30   12   40 1     
   31   13   14 2     
   32   14   15 1     
   33   14   16 1     
   34   15   41 1     
   35   15   42 1     
   36   15   43 1     
   37   16   17 1     
   38   17   18 2     
   39   19   24 1     
   40   19   20 1     
   41   19   52 1     
   42   20   21 1     
   43   20   44 1     
   44   20   45 1     
   45   21   22 1     
   46   21   46 1     
   47   21   47 1     
   48   22   23 1     
   49   23   24 1     
   50   23   48 1     
   51   23   49 1     
   52   24   50 1     
   53   24   51 1     
   54    8   53 1     
   55    8   54 1     
   56   13   55 1     
   57   16   56 1     
   58   18   57 1     
   59   18   58 1     
   60   22   59 1     
   61   22   60 1     
@<TRIPOS>SUBSTRUCTURE
      1 S1             1
@<TRIPOS>SET
LONE_PAIRS      STATIC     ATOMS    <user>   **** ""
8 53 54 55 56 57 58 59 60
DONOR_HYDROGENS      STATIC     ATOMS    <user>   **** ""
2 35 52
ATOM$BLUE        STATIC     ATOMS    COLORGROUP SYSTEM
8 53 54 55 56 57 58 59 60
ATOM$RED        STATIC     ATOMS    COLORGROUP SYSTEM
2 35 52
