AV-unprocessed.smi:276|AV-procd|sdf|2083|dock1
  -GOLD-   2262021353D 1   1.00000     0.00000
 Structure written by MMmdl.
 57 61  0  0  0  0  0  0  0  0  1 V2000
  144.2169  134.3262  162.6432 C   0  0  0  0  0  0  0  0  0  0  0  0
  145.4184  133.7068  162.2186 O   0  0  0  0  0  0  0  0  0  0  0  0
  146.5500  134.1207  162.9719 C   0  0  1  0  0  0  0  0  0  0  0  0
  147.8316  133.3794  162.5648 C   0  0  0  0  0  0  0  0  0  0  0  0
  148.1283  134.4988  161.5468 C   0  0  1  0  0  0  0  0  0  0  0  0
  147.6419  134.1519  160.2046 N   0  0  0  0  0  0  0  0  0  0  0  0
  147.9020  132.7917  159.7402 C   0  0  0  0  0  0  0  0  0  0  0  0
  147.8591  135.0480  159.2145 C   0  0  0  0  0  0  0  0  0  0  0  0
  147.1385  134.8897  158.0762 N   0  0  0  0  0  0  0  0  0  0  0  0
  147.3018  135.7367  157.0561 C   0  0  0  0  0  0  0  0  0  0  0  0
  148.1252  136.7825  156.9634 N   0  0  0  0  0  0  0  0  0  0  0  0
  148.8647  136.9346  158.0990 C   0  0  0  0  0  0  0  0  0  0  0  0
  148.7969  136.1202  159.2648 C   0  0  0  0  0  0  0  0  0  0  0  0
  149.6976  136.5853  160.2160 N   0  0  0  0  0  0  0  0  0  0  0  0
  150.2556  137.6202  159.6509 C   0  0  0  0  0  0  0  0  0  0  0  0
  149.8327  137.8865  158.3685 N   0  0  0  0  0  0  0  0  0  0  0  0
  150.2896  138.9655  157.5103 C   0  0  0  0  0  0  0  0  0  0  0  0
  151.4760  139.7749  158.0866 C   0  0  1  0  0  0  0  0  0  0  0  0
  152.2146  140.2120  156.9635 O   0  0  0  0  0  0  0  0  0  0  0  0
  151.0966  141.0343  158.9006 C   0  0  1  0  0  0  0  0  0  0  0  0
  152.2530  141.7705  159.5863 C   0  0  0  0  0  0  0  0  0  0  0  0
  151.7899  143.2171  159.6630 C   0  0  0  0  0  0  0  0  0  0  0  0
  150.5703  143.2609  158.7437 C   0  0  0  0  0  0  0  0  0  0  0  0
  150.6319  142.0443  158.0160 O   0  0  0  0  0  0  0  0  0  0  0  0
  147.1829  135.3965  162.3890 C   0  0  0  0  0  0  0  0  0  0  0  0
  147.7878  136.4195  163.3660 C   0  0  0  0  0  0  0  0  0  0  0  0
  146.5130  137.2510  163.2061 C   0  0  0  0  0  0  0  0  0  0  0  0
  146.3109  136.5541  161.8597 C   0  0  0  0  0  0  0  0  0  0  0  0
  143.3874  133.9688  162.0335 H   0  0  0  0  0  0  0  0  0  0  0  0
  144.2741  135.4096  162.5316 H   0  0  0  0  0  0  0  0  0  0  0  0
  143.9913  134.0941  163.6844 H   0  0  0  0  0  0  0  0  0  0  0  0
  146.3692  134.1698  164.0469 H   0  0  0  0  0  0  0  0  0  0  0  0
  148.5648  133.3546  163.3725 H   0  0  0  0  0  0  0  0  0  0  0  0
  147.6772  132.3819  162.1534 H   0  0  0  0  0  0  0  0  0  0  0  0
  149.1730  134.8081  161.5763 H   0  0  0  0  0  0  0  0  0  0  0  0
  148.1898  132.7476  158.6879 H   0  0  0  0  0  0  0  0  0  0  0  0
  147.0044  132.1856  159.8638 H   0  0  0  0  0  0  0  0  0  0  0  0
  148.7032  132.3307  160.3188 H   0  0  0  0  0  0  0  0  0  0  0  0
  146.6851  135.5487  156.1896 H   0  0  0  0  0  0  0  0  0  0  0  0
  151.0090  138.2103  160.1518 H   0  0  0  0  0  0  0  0  0  0  0  0
  150.5754  138.5149  156.5586 H   0  0  0  0  0  0  0  0  0  0  0  0
  149.4482  139.6267  157.2978 H   0  0  0  0  0  0  0  0  0  0  0  0
  152.1187  139.1263  158.6824 H   0  0  0  0  0  0  0  0  0  0  0  0
  151.6087  140.4866  156.2924 H   0  0  0  0  0  0  0  0  0  0  0  0
  150.3200  140.8047  159.6332 H   0  0  0  0  0  0  0  0  0  0  0  0
  152.4844  141.3626  160.5696 H   0  0  0  0  0  0  0  0  0  0  0  0
  153.1540  141.7156  158.9739 H   0  0  0  0  0  0  0  0  0  0  0  0
  151.5215  143.5052  160.6797 H   0  0  0  0  0  0  0  0  0  0  0  0
  152.5753  143.8904  159.3182 H   0  0  0  0  0  0  0  0  0  0  0  0
  149.6482  143.2851  159.3265 H   0  0  0  0  0  0  0  0  0  0  0  0
  150.5762  144.1232  158.0765 H   0  0  0  0  0  0  0  0  0  0  0  0
  147.9681  136.0476  164.3750 H   0  0  0  0  0  0  0  0  0  0  0  0
  148.6690  136.9194  162.9598 H   0  0  0  0  0  0  0  0  0  0  0  0
  145.7439  136.9931  163.9361 H   0  0  0  0  0  0  0  0  0  0  0  0
  146.6728  138.3278  163.1453 H   0  0  0  0  0  0  0  0  0  0  0  0
  146.7659  137.1250  161.0516 H   0  0  0  0  0  0  0  0  0  0  0  0
  145.2774  136.2925  161.6316 H   0  0  0  0  0  0  0  0  0  0  0  0
  1  2  1  0  0  0  0
  1 29  1  0  0  0  0
  1 30  1  0  0  0  0
  1 31  1  0  0  0  0
  2  3  1  0  0  0  0
  3 25  1  0  0  0  0
  3  4  1  0  0  0  0
  3 32  1  0  0  0  0
  4  5  1  0  0  0  0
  4 33  1  0  0  0  0
  4 34  1  0  0  0  0
  5  6  1  0  0  0  0
  5 25  1  0  0  0  0
  5 35  1  0  0  0  0
  6  7  1  0  0  0  0
  6  8  1  0  0  0  0
  7 36  1  0  0  0  0
  7 37  1  0  0  0  0
  7 38  1  0  0  0  0
  8 13  1  0  0  0  0
  8  9  2  0  0  0  0
  9 10  1  0  0  0  0
 10 11  2  0  0  0  0
 10 39  1  0  0  0  0
 11 12  1  0  0  0  0
 12 16  1  0  0  0  0
 12 13  2  0  0  0  0
 13 14  1  0  0  0  0
 14 15  2  0  0  0  0
 15 16  1  0  0  0  0
 15 40  1  0  0  0  0
 16 17  1  0  0  0  0
 17 18  1  0  0  0  0
 17 41  1  0  0  0  0
 17 42  1  0  0  0  0
 18 19  1  0  0  0  0
 18 20  1  0  0  0  0
 18 43  1  0  0  0  0
 19 44  1  0  0  0  0
 20 24  1  0  0  0  0
 20 21  1  0  0  0  0
 20 45  1  0  0  0  0
 21 22  1  0  0  0  0
 21 46  1  0  0  0  0
 21 47  1  0  0  0  0
 22 23  1  0  0  0  0
 22 48  1  0  0  0  0
 22 49  1  0  0  0  0
 23 24  1  0  0  0  0
 23 50  1  0  0  0  0
 23 51  1  0  0  0  0
 25 28  1  0  0  0  0
 25 26  1  0  0  0  0
 26 27  1  0  0  0  0
 26 52  1  0  0  0  0
 26 53  1  0  0  0  0
 27 28  1  0  0  0  0
 27 54  1  0  0  0  0
 27 55  1  0  0  0  0
 28 56  1  0  0  0  0
 28 57  1  0  0  0  0
M  END
> <s_m_source_file>
AV-unprocessed.smi

> <i_m_source_file_index>
276

> <i_lp_mmshare_version>
43012

> <i_f3d_flags>
0

> <s_epik_input>
W0NIMl0xW0NIMl1bQ0gyXUMxMltDQEhdKE9bQ0gzXSlbQ0gyXVtDQEhdMk4oW0NIM10pYyhuW2NIXW4zKWMoYzM0KW5bY0hdbjRbQ0gyXVtDQEhdKFtPSF0pW0NAQEhdNVtDSDJdW0NIMl1bQ0gyXU81

> <s_epik_cmdline>
J2VwaWtfcHl0aG9uJywgJy1waCcsICc3LjAnLCAnLXRuJywgJzgnLCAnLW1hJywgJzIwMCcsICctbWV0YWxfYmluZGluZycsICctaW1hZScsICc8aW5maWxlLm1hZT4nLCAnLW9tYWUnLCAnPG91dGZpbGUubWFlPic=

> <r_lp_tautomer_probability>
1

> <r_epik_Ionization_Penalty>
0.00204117

> <r_epik_Ionization_Penalty_Charging>
0

> <r_epik_Ionization_Penalty_Neutral>
0.00204117

> <r_epik_State_Penalty>
0.00127401

> <r_epik_Charging_Adjusted_Penalty>
0.00127401

> <i_epik_Tot_Q>
0

> <i_epik_Tot_abs_Q>
0

> <r_epik_Metal_State_Penalty>
-0

> <b_epik_Metal_Only>
0

> <s_lp_Force_Field>
OPLS_2005

> <r_lp_Energy>
58.3472

> <b_lp_Chiralities_Consistent>
1

> <s_lp_Variant>
AV-unprocessed.smi:276-14

> <Gold.Version>
5.8.1

> <Gold.Id.Protein>
6NUR|6NUR_protein|mol2

> <Gold.PLP.Fitness>
47.5071

> <Gold.PLP.PLP>
-43.2380

> <Gold.PLP.part.hbond>
-2.0000

> <Gold.PLP.part.metal>
0.0000

> <Gold.PLP.part.buried>
-5.6330

> <Gold.PLP.part.nonpolar>
-36.1706

> <Gold.PLP.part.repulsive>
0.0578

> <Gold.PLP.ligand.clash>
0.0000

> <Gold.PLP.ligand.torsion>
1.4142

> <Gold.PLP.Chemscore.Hbond>
2.0000

> <Gold.PLP.Chemscore.CHOScore>
0.0000

> <Gold.PLP.Chemscore.Metal>
0.0000

> <Gold.Chemscore.Hbonds>
donor molecule, donor type, donor heavy atom, donor atom, acceptor molecule, acceptor atom, score
      P1  H  6896  6907       L1    14  0.34
      P1  H  7997  8009       L1    19  0.63

> <Gold.PLP.Chemscore.Internal.Correction>
1.0976

> <Gold.Rescore>
     Score         DG    S(hbond)    S(metal)    S(lipo)     H(rot)  DE(clash)    DE(int)     intcor
     13.81     -16.63       1.28        0.00     118.09       2.72       0.34       2.47       ----

> <Gold.Chemscore.Fitness>
13.8124

> <Gold.Chemscore.DG>
-16.6282

> <Gold.Chemscore.ZeroCoef>
-5.4800

> <Gold.Chemscore.Hbond>
1.2838

> <Gold.Chemscore.Metal>
0.0000

> <Gold.Chemscore.Lipo>
118.0889

> <Gold.Chemscore.Internal_Hbond>
0.0000

> <Gold.Chemscore.DEClash>
0.3432

> <Gold.Chemscore.DEInternal>
2.4726

> <Gold.Chemscore.Rot>
2.7172

> <Gold.Chemscore.Internal.Correction>
   9.000000E+99

> <Gold.Chemscore.Hbonds>
donor molecule, donor type, donor heavy atom, donor atom, acceptor molecule, acceptor atom, score
      P1  H  6896  6907       L1    14  0.01
      P1  H  7997  8009       L1    19  0.61

> <Gold.Chemscore.Hbond.Weighted>
-4.2878

> <Gold.Chemscore.Metal.Weighted>
-0.0000

> <Gold.Chemscore.Lipo.Weighted>
-13.8164

> <Gold.Chemscore.Internal_Hbond.Weighted>
0.0000

> <Gold.Chemscore.DEClash.Weighted>
0.3432

> <Gold.Chemscore.DEInternal.Weighted>
2.4726

> <Gold.Chemscore.Rot.Weighted>
6.9560

> <Gold.Chemscore.Internal.Correction.Weighted>
   9.000000E+99

> <Gold.Protein.RotatedTorsions>
[ 6907 6896 6895 6894 ] final  -44.86 input  -60.11 | X-H torsion
[ 7974 7965 7964 7962 ] final  -77.16 input  175.53 | X-H torsion
[ 8008 7997 7996 7995 ] final -174.11 input   59.86 | X-H torsion
[ 10167 10162 10161 10158 ] final  138.76 input  -65.29 | X-H torsion
[ 10718 10713 10712 10709 ] final -177.08 input   66.30 | X-H torsion
[ 10763 10752 10751 10750 ] final  167.80 input  -60.55 | X-H torsion
[ 11005 11000 10999 10996 ] final  175.23 input  -57.11 | X-H torsion

> <Gold.Protein.ActiveResidues>
 VAL166  LYS551  ARG553  GLY616  TRP617  ASP618  TYR619  PRO620  LYS621  CYS622 
 ASP623  PHE694  ASN695  SER759  ASP760  ASP761  ALA762  ILE779  LEU786  VAL792 
 PHE793  MET794  SER795  GLU796  ALA797  LYS798  CYS799  TRP800  GLU811  SER814 

> <Gold.Protein.RotatedAtoms>
  150.9282  134.8698  159.7533 H   0  0  0  0  0  0  0  0  0  0  0  0  # atno 6907 bound_to 6896
  152.5025  134.4118  159.9461 H   0  0  0  0  0  0  0  0  0  0  0  0  # atno 6908 bound_to 6896
  151.4147  133.3677  159.2783 H   0  0  0  0  0  0  0  0  0  0  0  0  # atno 6909 bound_to 6896
  145.6033  140.9403  143.1229 H   0  0  0  0  0  0  0  0  0  0  0  0  # atno 7974 bound_to 7965
  155.9660  140.1153  157.0854 H   0  0  0  0  0  0  0  0  0  0  0  0  # atno 8008 bound_to 7997
  154.4144  140.1172  156.5309 H   0  0  0  0  0  0  0  0  0  0  0  0  # atno 8009 bound_to 7997
  155.6659  140.3473  155.4802 H   0  0  0  0  0  0  0  0  0  0  0  0  # atno 8010 bound_to 7997
  139.5100  144.6334  151.5758 H   0  0  0  0  0  0  0  0  0  0  0  0  # atno 10167 bound_to 10162
  156.8242  130.9630  151.3110 H   0  0  0  0  0  0  0  0  0  0  0  0  # atno 10718 bound_to 10713
  154.3591  135.2753  155.2330 H   0  0  0  0  0  0  0  0  0  0  0  0  # atno 10763 bound_to 10752
  154.4526  135.5927  153.6205 H   0  0  0  0  0  0  0  0  0  0  0  0  # atno 10764 bound_to 10752
  152.9844  135.6045  154.3810 H   0  0  0  0  0  0  0  0  0  0  0  0  # atno 10765 bound_to 10752
  140.3599  134.7121  157.4324 H   0  0  0  0  0  0  0  0  0  0  0  0  # atno 11005 bound_to 11000
  144.7300  139.7754  143.7350 LP  0  0  0  0  0  0  0  0  0  0  0  0  # atno 17320 bound_to 7965
  146.1559  139.4657  143.0019 LP  0  0  0  0  0  0  0  0  0  0  0  0  # atno 17321 bound_to 7965
  140.6075  143.9497  150.6429 LP  0  0  0  0  0  0  0  0  0  0  0  0  # atno 17342 bound_to 10162
  140.2729  143.3443  152.1221 LP  0  0  0  0  0  0  0  0  0  0  0  0  # atno 17343 bound_to 10162
  157.6441  130.8829  149.9504 LP  0  0  0  0  0  0  0  0  0  0  0  0  # atno 17370 bound_to 10713
  156.0971  130.3658  150.0286 LP  0  0  0  0  0  0  0  0  0  0  0  0  # atno 17371 bound_to 10713
  140.0635  134.5963  155.8722 LP  0  0  0  0  0  0  0  0  0  0  0  0  # atno 17394 bound_to 11000
  141.1987  133.6603  156.5806 LP  0  0  0  0  0  0  0  0  0  0  0  0  # atno 17395 bound_to 11000

$$$$
