AV-unprocessed.smi:2656|AV-procd|sdf|10305|dock3
  -GOLD-   2272014323D 1   1.00000     0.00000
 Structure written by MMmdl.
 43 44  0  0  0  0  0  0  0  0  1 V2000
  145.2868  140.4144  156.8272 C   0  0  0  0  0  0  0  0  0  0  0  0
  145.7558  140.4022  155.4367 N   0  0  0  0  0  0  0  0  0  0  0  0
  144.8793  141.1376  154.5213 C   0  0  0  0  0  0  0  0  0  0  0  0
  146.9001  139.7382  155.1187 C   0  0  0  0  0  0  0  0  0  0  0  0
  147.4908  139.0918  155.9876 O   0  0  0  0  0  0  0  0  0  0  0  0
  147.5241  139.7800  153.6793 C   0  0  0  0  0  0  0  0  0  0  0  0
  146.5624  139.2565  152.5653 C   0  0  0  0  0  0  0  0  0  0  0  0
  146.8070  137.8658  152.1801 N   0  0  0  0  0  0  0  0  0  0  0  0
  145.8665  136.9417  151.9371 C   0  0  0  0  0  0  0  0  0  0  0  0
  144.6590  137.1703  151.9978 O   0  0  0  0  0  0  0  0  0  0  0  0
  146.4236  135.7538  151.6443 N   0  0  0  0  0  0  0  0  0  0  0  0
  145.7903  134.5197  151.3323 C   0  0  0  0  0  0  0  0  0  0  0  0
  146.6077  133.3747  151.2338 C   0  0  0  0  0  0  0  0  0  0  0  0
  146.0116  132.1390  150.9125 C   0  0  0  0  0  0  0  0  0  0  0  0
  144.6898  131.9900  150.6852 N   0  0  0  0  0  0  0  0  0  0  0  0
  143.9102  133.0889  150.7670 C   0  0  0  0  0  0  0  0  0  0  0  0
  144.4048  134.3708  151.0802 C   0  0  0  0  0  0  0  0  0  0  0  0
  147.9666  141.2251  153.3112 C   0  0  0  0  0  0  0  0  0  0  0  0
  149.3404  141.4670  153.9497 C   0  0  0  0  0  0  0  0  0  0  0  0
  149.9247  140.0770  154.2110 C   0  0  0  0  0  0  0  0  0  0  0  0
  148.9021  139.0778  153.6560 C   0  0  0  0  0  0  0  0  0  0  0  0
  144.9002  139.4332  157.1049 H   0  0  0  0  0  0  0  0  0  0  0  0
  144.4939  141.1443  156.9950 H   0  0  0  0  0  0  0  0  0  0  0  0
  146.0941  140.6704  157.5153 H   0  0  0  0  0  0  0  0  0  0  0  0
  144.8599  140.7328  153.5136 H   0  0  0  0  0  0  0  0  0  0  0  0
  145.1842  142.1830  154.4696 H   0  0  0  0  0  0  0  0  0  0  0  0
  143.8441  141.1155  154.8634 H   0  0  0  0  0  0  0  0  0  0  0  0
  145.5233  139.3689  152.8796 H   0  0  0  0  0  0  0  0  0  0  0  0
  146.6178  139.8667  151.6676 H   0  0  0  0  0  0  0  0  0  0  0  0
  147.7735  137.5841  152.1052 H   0  0  0  0  0  0  0  0  0  0  0  0
  147.4306  135.7150  151.7013 H   0  0  0  0  0  0  0  0  0  0  0  0
  147.6725  133.4358  151.4052 H   0  0  0  0  0  0  0  0  0  0  0  0
  146.6140  131.2462  150.8350 H   0  0  0  0  0  0  0  0  0  0  0  0
  142.8582  132.9437  150.5710 H   0  0  0  0  0  0  0  0  0  0  0  0
  143.7175  135.2016  151.1091 H   0  0  0  0  0  0  0  0  0  0  0  0
  148.0843  141.3158  152.2306 H   0  0  0  0  0  0  0  0  0  0  0  0
  147.2434  141.9916  153.5935 H   0  0  0  0  0  0  0  0  0  0  0  0
  149.9797  142.0605  153.2954 H   0  0  0  0  0  0  0  0  0  0  0  0
  149.2393  142.0135  154.8882 H   0  0  0  0  0  0  0  0  0  0  0  0
  150.9035  139.9488  153.7479 H   0  0  0  0  0  0  0  0  0  0  0  0
  150.0495  139.9273  155.2843 H   0  0  0  0  0  0  0  0  0  0  0  0
  148.9421  138.1480  154.2202 H   0  0  0  0  0  0  0  0  0  0  0  0
  149.1686  138.8306  152.6271 H   0  0  0  0  0  0  0  0  0  0  0  0
  1  2  1  0  0  0  0
  1 22  1  0  0  0  0
  1 23  1  0  0  0  0
  1 24  1  0  0  0  0
  2  3  1  0  0  0  0
  2  4  1  0  0  0  0
  3 25  1  0  0  0  0
  3 26  1  0  0  0  0
  3 27  1  0  0  0  0
  4  5  2  0  0  0  0
  4  6  1  0  0  0  0
  6 21  1  0  0  0  0
  6  7  1  0  0  0  0
  6 18  1  0  0  0  0
  7  8  1  0  0  0  0
  7 28  1  0  0  0  0
  7 29  1  0  0  0  0
  8  9  1  0  0  0  0
  8 30  1  0  0  0  0
  9 10  2  0  0  0  0
  9 11  1  0  0  0  0
 11 12  1  0  0  0  0
 11 31  1  0  0  0  0
 12 17  1  0  0  0  0
 12 13  2  0  0  0  0
 13 14  1  0  0  0  0
 13 32  1  0  0  0  0
 14 15  2  0  0  0  0
 14 33  1  0  0  0  0
 15 16  1  0  0  0  0
 16 17  2  0  0  0  0
 16 34  1  0  0  0  0
 17 35  1  0  0  0  0
 18 19  1  0  0  0  0
 18 36  1  0  0  0  0
 18 37  1  0  0  0  0
 19 20  1  0  0  0  0
 19 38  1  0  0  0  0
 19 39  1  0  0  0  0
 20 21  1  0  0  0  0
 20 40  1  0  0  0  0
 20 41  1  0  0  0  0
 21 42  1  0  0  0  0
 21 43  1  0  0  0  0
M  END
> <s_m_source_file>
AV-unprocessed.smi

> <i_m_source_file_index>
2656

> <i_lp_mmshare_version>
43012

> <i_f3d_flags>
0

> <s_epik_input>
W0NIMl0xW0NIMl1bQ0gyXVtDSDJdQzEoQyg9TylOKFtDSDNdKVtDSDNdKVtDSDJdW05IXUMoPU8pW05IXWMyW2NIXVtjSF1uW2NIXVtjSF0y

> <s_epik_cmdline>
J2VwaWtfcHl0aG9uJywgJy1waCcsICc3LjAnLCAnLXRuJywgJzgnLCAnLW1hJywgJzIwMCcsICctbWV0YWxfYmluZGluZycsICctaW1hZScsICc8aW5maWxlLm1hZT4nLCAnLW9tYWUnLCAnPG91dGZpbGUubWFlPic=

> <r_epik_Ionization_Penalty>
0.108834

> <r_epik_Ionization_Penalty_Charging>
0

> <r_epik_Ionization_Penalty_Neutral>
0.108834

> <r_epik_State_Penalty>
0.0985887

> <r_epik_Charging_Adjusted_Penalty>
0.0985887

> <i_epik_Tot_Q>
0

> <i_epik_Tot_abs_Q>
0

> <r_epik_Metal_State_Penalty>
0.0831677

> <b_epik_Metal_Only>
0

> <s_lp_Force_Field>
OPLS_2005

> <r_lp_Energy>
40.4263

> <b_lp_Chiralities_Consistent>
1

> <s_lp_Variant>
AV-unprocessed.smi:2656-1

> <Gold.Version>
5.8.1

> <Gold.Id.Protein>
6NUR|6NUR_protein|mol2

> <Gold.PLP.Fitness>
40.3070

> <Gold.PLP.PLP>
-30.1129

> <Gold.PLP.part.hbond>
-2.0000

> <Gold.PLP.part.metal>
0.0000

> <Gold.PLP.part.buried>
-4.7466

> <Gold.PLP.part.nonpolar>
-24.7881

> <Gold.PLP.part.repulsive>
0.4434

> <Gold.PLP.ligand.clash>
0.0000

> <Gold.PLP.ligand.torsion>
0.9824

> <Gold.PLP.Chemscore.Hbond>
1.9920

> <Gold.PLP.Chemscore.CHOScore>
2.0000

> <Gold.PLP.Chemscore.Metal>
0.0000

> <Gold.Chemscore.Hbonds>
donor molecule, donor type, donor heavy atom, donor atom, acceptor molecule, acceptor atom, score
      L1  H     8    30       P1  7948  0.96
      L1  H    11    31       P1  7948  1.00
      L1  C    14    33       P1 10747  1.00
      L1  C    16    34       P1 10186  0.89

> <Gold.PLP.Chemscore.Internal.Correction>
0.1830

> <Gold.Rescore>
     Score         DG    S(hbond)    S(metal)    S(lipo)     H(rot)  DE(clash)    DE(int)     intcor
     15.67     -16.94       1.92        0.00      76.27       1.51       0.06       1.21       ----

> <Gold.Chemscore.Fitness>
15.6736

> <Gold.Chemscore.DG>
-16.9406

> <Gold.Chemscore.ZeroCoef>
-5.4800

> <Gold.Chemscore.Hbond>
1.9177

> <Gold.Chemscore.Metal>
0.0000

> <Gold.Chemscore.Lipo>
76.2745

> <Gold.Chemscore.Internal_Hbond>
0.0000

> <Gold.Chemscore.DEClash>
0.0601

> <Gold.Chemscore.DEInternal>
1.2069

> <Gold.Chemscore.Rot>
1.5112

> <Gold.Chemscore.Internal.Correction>
   9.000000E+99

> <Gold.Chemscore.Hbonds>
donor molecule, donor type, donor heavy atom, donor atom, acceptor molecule, acceptor atom, score
      L1  H     8    30       P1  7948  0.92
      L1  H    11    31       P1  7948  0.97

> <Gold.Chemscore.Hbond.Weighted>
-6.4050

> <Gold.Chemscore.Metal.Weighted>
-0.0000

> <Gold.Chemscore.Lipo.Weighted>
-8.9241

> <Gold.Chemscore.Internal_Hbond.Weighted>
0.0000

> <Gold.Chemscore.DEClash.Weighted>
0.0601

> <Gold.Chemscore.DEInternal.Weighted>
1.2069

> <Gold.Chemscore.Rot.Weighted>
3.8686

> <Gold.Chemscore.Internal.Correction.Weighted>
   9.000000E+99

> <Gold.Protein.RotatedTorsions>
[ 6907 6896 6895 6894 ] final  113.04 input  -60.11 | X-H torsion
[ 7974 7965 7964 7962 ] final   45.75 input  175.53 | X-H torsion
[ 8008 7997 7996 7995 ] final  121.40 input   59.86 | X-H torsion
[ 10167 10162 10161 10158 ] final  -97.18 input  -65.29 | X-H torsion
[ 10718 10713 10712 10709 ] final   94.05 input   66.30 | X-H torsion
[ 10763 10752 10751 10750 ] final  -47.26 input  -60.55 | X-H torsion
[ 11005 11000 10999 10996 ] final   44.28 input  -57.11 | X-H torsion

> <Gold.Protein.ActiveResidues>
 VAL166  LYS551  ARG553  GLY616  TRP617  ASP618  TYR619  PRO620  LYS621  CYS622 
 ASP623  PHE694  ASN695  SER759  ASP760  ASP761  ALA762  ILE779  LEU786  VAL792 
 PHE793  MET794  SER795  GLU796  ALA797  LYS798  CYS799  TRP800  GLU811  SER814 

> <Gold.Protein.RotatedAtoms>
  152.4883  133.8431  159.7162 H   0  0  0  0  0  0  0  0  0  0  0  0  # atno 6907 bound_to 6896
  150.8989  133.7135  159.2891 H   0  0  0  0  0  0  0  0  0  0  0  0  # atno 6908 bound_to 6896
  151.4583  135.1040  159.9770 H   0  0  0  0  0  0  0  0  0  0  0  0  # atno 6909 bound_to 6896
  146.0452  139.4930  142.9753 H   0  0  0  0  0  0  0  0  0  0  0  0  # atno 7974 bound_to 7965
  156.2684  140.2809  156.1301 H   0  0  0  0  0  0  0  0  0  0  0  0  # atno 8008 bound_to 7997
  155.1063  140.0390  157.2729 H   0  0  0  0  0  0  0  0  0  0  0  0  # atno 8009 bound_to 7997
  154.6777  140.2602  155.6947 H   0  0  0  0  0  0  0  0  0  0  0  0  # atno 8010 bound_to 7997
  140.2861  143.3251  152.0392 H   0  0  0  0  0  0  0  0  0  0  0  0  # atno 10167 bound_to 10162
  157.6951  131.0499  150.4127 H   0  0  0  0  0  0  0  0  0  0  0  0  # atno 10718 bound_to 10713
  154.0586  135.6621  153.4809 H   0  0  0  0  0  0  0  0  0  0  0  0  # atno 10763 bound_to 10752
  153.0436  135.5129  154.7682 H   0  0  0  0  0  0  0  0  0  0  0  0  # atno 10764 bound_to 10752
  154.6710  135.3029  154.9708 H   0  0  0  0  0  0  0  0  0  0  0  0  # atno 10765 bound_to 10752
  140.1566  134.4394  155.8345 H   0  0  0  0  0  0  0  0  0  0  0  0  # atno 11005 bound_to 11000
  145.6818  141.0189  143.1602 LP  0  0  0  0  0  0  0  0  0  0  0  0  # atno 17320 bound_to 7965
  144.7094  139.8430  143.7419 LP  0  0  0  0  0  0  0  0  0  0  0  0  # atno 17321 bound_to 7965
  139.4950  144.6557  151.6576 LP  0  0  0  0  0  0  0  0  0  0  0  0  # atno 17342 bound_to 10162
  140.5771  144.0010  150.6247 LP  0  0  0  0  0  0  0  0  0  0  0  0  # atno 17343 bound_to 10162
  156.4510  130.4011  149.6636 LP  0  0  0  0  0  0  0  0  0  0  0  0  # atno 17370 bound_to 10713
  156.3785  130.7567  151.2558 LP  0  0  0  0  0  0  0  0  0  0  0  0  # atno 17371 bound_to 10713
  141.2205  133.6895  156.7518 LP  0  0  0  0  0  0  0  0  0  0  0  0  # atno 17394 bound_to 11000
  140.2540  134.8518  157.3695 LP  0  0  0  0  0  0  0  0  0  0  0  0  # atno 17395 bound_to 11000

$$$$
