AV-unprocessed.smi:3057|AV-procd|sdf|11668|dock7
  -GOLD-   2272017 73D 1   1.00000     0.00000
 Structure written by MMmdl.
 41 43  0  0  0  0  0  0  0  0  2 V2000
  147.4905  137.5354  156.6442 C   0  0  0  0  0  0  0  0  0  0  0  0
  147.9349  137.0425  155.2537 C   0  0  2  0  0  0  0  0  0  0  0  0
  147.8966  135.5065  155.1595 C   0  0  0  0  0  0  0  0  0  0  0  0
  149.3333  135.0662  155.4776 C   0  0  0  0  0  0  0  0  0  0  0  0
  150.1394  136.3077  155.1313 C   0  0  0  0  0  0  0  0  0  0  0  0
  151.3546  136.2951  154.9415 O   0  0  0  0  0  0  0  0  0  0  0  0
  149.3267  137.3641  155.0032 N   0  0  0  0  0  0  0  0  0  0  0  0
  149.6326  138.6389  154.3484 C   0  0  2  0  0  0  0  0  0  0  0  0
  150.3579  139.5982  155.3078 C   0  0  0  0  0  0  0  0  0  0  0  0
  151.5425  139.8915  155.1422 O   0  0  0  0  0  0  0  0  0  0  0  0
  149.6254  140.0623  156.3314 N   0  0  0  0  0  0  0  0  0  0  0  0
  150.1029  140.9722  157.3689 C   0  0  0  0  0  0  0  0  0  0  0  0
  150.9388  142.1459  156.8173 C   0  0  0  0  0  0  0  0  0  0  0  0
  151.4899  143.0662  157.8928 C   0  0  0  0  0  0  0  0  0  0  0  0
  152.4150  142.6175  158.8606 C   0  0  0  0  0  0  0  0  0  0  0  0
  152.8824  143.5193  159.8387 C   0  0  0  0  0  0  0  0  0  0  0  0
  152.4177  144.8506  159.8271 C   0  0  0  0  0  0  0  0  0  0  0  0
  151.4962  145.2466  158.8362 C   0  0  0  0  0  0  0  0  0  0  0  0
  151.0711  144.3523  157.9165 N   0  3  0  0  0  0  0  0  0  0  0  0
  148.2737  139.2524  153.9269 C   0  0  0  0  0  0  0  0  0  0  0  0
  147.0580  137.9065  153.9394 S   0  0  0  0  0  0  0  0  0  0  0  0
  148.0863  137.0827  157.4375 H   0  0  0  0  0  0  0  0  0  0  0  0
  146.4467  137.2819  156.8310 H   0  0  0  0  0  0  0  0  0  0  0  0
  147.5841  138.6172  156.7394 H   0  0  0  0  0  0  0  0  0  0  0  0
  147.1671  135.0602  155.8364 H   0  0  0  0  0  0  0  0  0  0  0  0
  147.6367  135.1899  154.1483 H   0  0  0  0  0  0  0  0  0  0  0  0
  149.4574  134.8405  156.5372 H   0  0  0  0  0  0  0  0  0  0  0  0
  149.6430  134.2003  154.8919 H   0  0  0  0  0  0  0  0  0  0  0  0
  150.2452  138.4463  153.4656 H   0  0  0  0  0  0  0  0  0  0  0  0
  148.6596  139.7730  156.3892 H   0  0  0  0  0  0  0  0  0  0  0  0
  149.2624  141.3461  157.9556 H   0  0  0  0  0  0  0  0  0  0  0  0
  150.7155  140.3836  158.0521 H   0  0  0  0  0  0  0  0  0  0  0  0
  151.7720  141.7583  156.2297 H   0  0  0  0  0  0  0  0  0  0  0  0
  150.3349  142.7321  156.1235 H   0  0  0  0  0  0  0  0  0  0  0  0
  152.7585  141.5929  158.8584 H   0  0  0  0  0  0  0  0  0  0  0  0
  153.5883  143.1934  160.5887 H   0  0  0  0  0  0  0  0  0  0  0  0
  152.7638  145.5578  160.5668 H   0  0  0  0  0  0  0  0  0  0  0  0
  151.0898  146.2440  158.7527 H   0  0  0  0  0  0  0  0  0  0  0  0
  147.9274  140.0073  154.6344 H   0  0  0  0  0  0  0  0  0  0  0  0
  148.3209  139.7211  152.9437 H   0  0  0  0  0  0  0  0  0  0  0  0
  150.4041  144.6613  157.2090 H   0  0  0  0  0  0  0  0  0  0  0  0
  1  2  1  0  0  0  0
  1 22  1  0  0  0  0
  1 23  1  0  0  0  0
  1 24  1  0  0  0  0
  2  7  1  0  0  0  0
  2 21  1  0  0  0  0
  2  3  1  0  0  0  0
  3  4  1  0  0  0  0
  3 25  1  0  0  0  0
  3 26  1  0  0  0  0
  4  5  1  0  0  0  0
  4 27  1  0  0  0  0
  4 28  1  0  0  0  0
  5  6  2  0  0  0  0
  5  7  1  0  0  0  0
  7  8  1  0  0  0  0
  8  9  1  0  0  0  0
  8 20  1  0  0  0  0
  8 29  1  0  0  0  0
  9 10  2  0  0  0  0
  9 11  1  0  0  0  0
 11 12  1  0  0  0  0
 11 30  1  0  0  0  0
 12 13  1  0  0  0  0
 12 31  1  0  0  0  0
 12 32  1  0  0  0  0
 13 14  1  0  0  0  0
 13 33  1  0  0  0  0
 13 34  1  0  0  0  0
 14 19  1  0  0  0  0
 14 15  2  0  0  0  0
 15 16  1  0  0  0  0
 15 35  1  0  0  0  0
 16 17  2  0  0  0  0
 16 36  1  0  0  0  0
 17 18  1  0  0  0  0
 17 37  1  0  0  0  0
 18 19  2  0  0  0  0
 18 38  1  0  0  0  0
 19 41  1  0  0  0  0
 20 21  1  0  0  0  0
 20 39  1  0  0  0  0
 20 40  1  0  0  0  0
M  CHG  1  19   1
M  END
> <s_m_source_file>
AV-unprocessed.smi

> <i_m_source_file_index>
3057

> <i_lp_mmshare_version>
43012

> <i_f3d_flags>
0

> <s_epik_input>
W0NIMl0xW0NIMl1DKD1PKU4oW0NAQF0xMltDSDNdKVtDQEhdKFtDSDJdUzIpQyg9TylbTkhdW0NIMl1bQ0gyXWMzW2NIXVtjSF1bY0hdW2NIXW4z

> <s_epik_cmdline>
J2VwaWtfcHl0aG9uJywgJy1waCcsICc3LjAnLCAnLXRuJywgJzgnLCAnLW1hJywgJzIwMCcsICctbWV0YWxfYmluZGluZycsICctaW1hZScsICc8aW5maWxlLm1hZT4nLCAnLW9tYWUnLCAnPG91dGZpbGUubWFlPic=

> <r_epik_Ionization_Penalty>
1.8888

> <r_epik_Ionization_Penalty_Charging>
1.8888

> <r_epik_Ionization_Penalty_Neutral>
1.66252e-07

> <r_epik_State_Penalty>
2.00916

> <r_epik_Charging_Adjusted_Penalty>
3.89796

> <i_epik_Tot_Q>
1

> <i_epik_Tot_abs_Q>
1

> <r_epik_Metal_State_Penalty>
2.03343

> <b_epik_Metal_Only>
0

> <s_lp_Force_Field>
OPLS_2005

> <r_lp_Energy>
33.0381

> <b_lp_Chiralities_Consistent>
1

> <s_lp_Variant>
AV-unprocessed.smi:3057-8

> <Gold.Version>
5.8.1

> <Gold.Id.Protein>
6NUR|6NUR_protein|mol2

> <Gold.PLP.Fitness>
48.2816

> <Gold.PLP.PLP>
-36.8761

> <Gold.PLP.part.hbond>
-3.0000

> <Gold.PLP.part.metal>
0.0000

> <Gold.PLP.part.buried>
-5.6736

> <Gold.PLP.part.nonpolar>
-29.5325

> <Gold.PLP.part.repulsive>
0.2832

> <Gold.PLP.ligand.clash>
0.0000

> <Gold.PLP.ligand.torsion>
0.3061

> <Gold.PLP.Chemscore.Hbond>
4.0000

> <Gold.PLP.Chemscore.CHOScore>
0.0000

> <Gold.PLP.Chemscore.Metal>
0.0000

> <Gold.Chemscore.Hbonds>
donor molecule, donor type, donor heavy atom, donor atom, acceptor molecule, acceptor atom, score
      L1  H    19    41       P1  8028  1.50
      P1  H  7989  7998       L1    10  1.00
      P1  H 10752 10763       L1     6  1.00

> <Gold.PLP.Chemscore.Internal.Correction>
0.0177

> <Gold.Rescore>
     Score         DG    S(hbond)    S(metal)    S(lipo)     H(rot)  DE(clash)    DE(int)     intcor
     20.10     -21.82       2.94        0.00      91.43       1.62       0.02       1.70       ----

> <Gold.Chemscore.Fitness>
20.1015

> <Gold.Chemscore.DG>
-21.8242

> <Gold.Chemscore.ZeroCoef>
-5.4800

> <Gold.Chemscore.Hbond>
2.9350

> <Gold.Chemscore.Metal>
0.0000

> <Gold.Chemscore.Lipo>
91.4276

> <Gold.Chemscore.Internal_Hbond>
0.0000

> <Gold.Chemscore.DEClash>
0.0208

> <Gold.Chemscore.DEInternal>
1.7018

> <Gold.Chemscore.Rot>
1.6234

> <Gold.Chemscore.Internal.Correction>
   9.000000E+99

> <Gold.Chemscore.Hbonds>
donor molecule, donor type, donor heavy atom, donor atom, acceptor molecule, acceptor atom, score
      L1  H    19    41       P1  8028  0.41
      P1  H  7989  7998       L1    10  0.59
      P1  H 10752 10763       L1     6  1.00

> <Gold.Chemscore.Hbond.Weighted>
-9.8030

> <Gold.Chemscore.Metal.Weighted>
-0.0000

> <Gold.Chemscore.Lipo.Weighted>
-10.6970

> <Gold.Chemscore.Internal_Hbond.Weighted>
0.0000

> <Gold.Chemscore.DEClash.Weighted>
0.0208

> <Gold.Chemscore.DEInternal.Weighted>
1.7018

> <Gold.Chemscore.Rot.Weighted>
4.1558

> <Gold.Chemscore.Internal.Correction.Weighted>
   9.000000E+99

> <Gold.Protein.RotatedTorsions>
[ 6907 6896 6895 6894 ] final  -55.72 input  -60.11 | X-H torsion
[ 7974 7965 7964 7962 ] final  156.46 input  175.53 | X-H torsion
[ 8008 7997 7996 7995 ] final   34.43 input   59.86 | X-H torsion
[ 10167 10162 10161 10158 ] final  -39.22 input  -65.29 | X-H torsion
[ 10718 10713 10712 10709 ] final   44.16 input   66.30 | X-H torsion
[ 10763 10752 10751 10750 ] final   71.77 input  -60.55 | X-H torsion
[ 11005 11000 10999 10996 ] final  143.42 input  -57.11 | X-H torsion

> <Gold.Protein.ActiveResidues>
 VAL166  LYS551  ARG553  GLY616  TRP617  ASP618  TYR619  PRO620  LYS621  CYS622 
 ASP623  PHE694  ASN695  SER759  ASP760  ASP761  ALA762  ILE779  LEU786  VAL792 
 PHE793  MET794  SER795  GLU796  ALA797  LYS798  CYS799  TRP800  GLU811  SER814 

> <Gold.Protein.RotatedAtoms>
  150.8227  134.7443  159.6786 H   0  0  0  0  0  0  0  0  0  0  0  0  # atno 6907 bound_to 6896
  152.4341  134.5717  159.9933 H   0  0  0  0  0  0  0  0  0  0  0  0  # atno 6908 bound_to 6896
  151.5897  133.3330  159.3061 H   0  0  0  0  0  0  0  0  0  0  0  0  # atno 6909 bound_to 6896
  144.7962  139.7206  143.6201 H   0  0  0  0  0  0  0  0  0  0  0  0  # atno 7974 bound_to 7965
  155.1547  140.3278  155.4424 H   0  0  0  0  0  0  0  0  0  0  0  0  # atno 8008 bound_to 7997
  156.2562  140.1970  156.6608 H   0  0  0  0  0  0  0  0  0  0  0  0  # atno 8009 bound_to 7997
  154.6448  140.0566  156.9873 H   0  0  0  0  0  0  0  0  0  0  0  0  # atno 8010 bound_to 7997
  140.7070  143.3228  151.2751 H   0  0  0  0  0  0  0  0  0  0  0  0  # atno 10167 bound_to 10162
  157.4238  130.7984  149.7539 H   0  0  0  0  0  0  0  0  0  0  0  0  # atno 10718 bound_to 10713
  153.0419  135.5124  154.7643 H   0  0  0  0  0  0  0  0  0  0  0  0  # atno 10763 bound_to 10752
  154.6574  135.2934  154.9912 H   0  0  0  0  0  0  0  0  0  0  0  0  # atno 10764 bound_to 10752
  154.0775  135.6669  153.4885 H   0  0  0  0  0  0  0  0  0  0  0  0  # atno 10765 bound_to 10752
  140.0553  134.9234  157.1088 H   0  0  0  0  0  0  0  0  0  0  0  0  # atno 11005 bound_to 11000
  146.2231  139.5672  142.9605 LP  0  0  0  0  0  0  0  0  0  0  0  0  # atno 17320 bound_to 7965
  145.5668  141.0398  143.2196 LP  0  0  0  0  0  0  0  0  0  0  0  0  # atno 17321 bound_to 7965
  139.6687  144.0059  152.2739 LP  0  0  0  0  0  0  0  0  0  0  0  0  # atno 17342 bound_to 10162
  139.9650  144.6532  150.8043 LP  0  0  0  0  0  0  0  0  0  0  0  0  # atno 17343 bound_to 10162
  155.9889  130.3955  150.3096 LP  0  0  0  0  0  0  0  0  0  0  0  0  # atno 17370 bound_to 10713
  157.1246  131.0256  151.2995 LP  0  0  0  0  0  0  0  0  0  0  0  0  # atno 17371 bound_to 10713
  140.3854  134.2241  155.7168 LP  0  0  0  0  0  0  0  0  0  0  0  0  # atno 17394 bound_to 11000
  141.1949  133.8118  157.0738 LP  0  0  0  0  0  0  0  0  0  0  0  0  # atno 17395 bound_to 11000

$$$$
