#       Name:                AV-unprocessed.smi:51
#       Creating user name   scv26
#       Creation time:       Thu Mar 26 16:37:52 2020


#       File generated by GOLD software.
#

@<TRIPOS>MOLECULE
AV-unprocessed.smi:51
    33    34     1
SMALL
NO_CHARGES


@<TRIPOS>ATOM
      1 ****        -3.3607  -0.0837  -0.2442 O.co2          1 S1                 0.0000
      2 ****        -2.3286  -0.7871  -0.1994 C.2            1 S1                 0.0000
      3 ****        -2.2047  -1.8560   0.4386 O.co2          1 S1                -1.0000
      4 ****        -1.1082  -0.2692  -0.9756 C.3            1 S1                 0.0000
      5 ****        -0.7865  -1.1528  -2.1958 C.3            1 S1                 0.0000
      6 ****         0.7392  -1.0987  -2.2885 C.3            1 S1                 0.0000
      7 ****         1.2861  -2.2178  -2.9528 O.3            1 S1                 0.0000
      8 ****         1.1834  -1.0130  -0.8281 C.3            1 S1                 0.0000
      9 ****         0.1127  -0.2779  -0.1713 N.pl3          1 S1                 0.0000
     10 ****         0.3277   0.5302   0.9634 C.ar           1 S1                 0.0000
     11 ****        -0.5817   1.5357   1.3554 C.ar           1 S1                 0.0000
     12 ****        -0.2720   2.2708   2.5137 C.ar           1 S1                 0.0000
     13 ****         0.8632   2.0127   3.2059 N.pl3          1 S1                 1.0000
     14 ****         1.6912   1.0491   2.7780 C.ar           1 S1                 0.0000
     15 ****         1.4513   0.3156   1.6854 N.ar           1 S1                 0.0000
     16 ****        -1.2889   0.7533  -1.3097 H              1 S1                 0.0000
     17 ****        -1.1070  -2.1834  -2.0297 H              1 S1                 0.0000
     18 ****        -1.2716  -0.7997  -3.1061 H              1 S1                 0.0000
     19 ****         1.0355  -0.1893  -2.8135 H              1 S1                 0.0000
     20 ****         0.9342  -2.2470  -3.8293 H              1 S1                 0.0000
     21 ****         1.2534  -2.0023  -0.3730 H              1 S1                 0.0000
     22 ****         2.1545  -0.5238  -0.7430 H              1 S1                 0.0000
     23 ****        -1.4878   1.7429   0.8054 H              1 S1                 0.0000
     24 ****        -0.8968   3.0583   2.9089 H              1 S1                 0.0000
     25 ****         2.5850   0.8813   3.3607 H              1 S1                 0.0000
     26 ****         1.0778   2.5517   4.0449 H              1 S1                 0.0000
     27 ****        -4.1788  -0.3635   0.2582 LP             1 S1                 0.0000
     28 ****        -3.3685   0.7589  -0.7827 LP             1 S1                 0.0000
     29 ****        -2.9727  -2.2126   0.9707 LP             1 S1                 0.0000
     30 ****        -1.3377  -2.3538   0.4166 LP             1 S1                 0.0000
     31 ****         1.0409  -3.0543  -2.4627 LP             1 S1                 0.0000
     32 ****         2.2818  -2.1339  -2.9916 LP             1 S1                 0.0000
     33 ****         2.1012  -0.3899   1.4029 LP             1 S1                 0.0000
@<TRIPOS>BOND
    1    1    2 ar    
    2    2    3 ar    
    3    2    4 1     
    4    4    9 1     
    5    4    5 1     
    6    4   16 1     
    7    5    6 1     
    8    5   17 1     
    9    5   18 1     
   10    6    7 1     
   11    6    8 1     
   12    6   19 1     
   13    7   20 1     
   14    8    9 1     
   15    8   21 1     
   16    8   22 1     
   17    9   10 1     
   18   10   15 ar    
   19   10   11 ar    
   20   11   12 ar    
   21   11   23 1     
   22   12   13 ar    
   23   12   24 1     
   24   13   14 ar    
   25   13   26 1     
   26   14   15 ar    
   27   14   25 1     
   28    1   27 1     
   29    1   28 1     
   30    3   29 1     
   31    3   30 1     
   32    7   31 1     
   33    7   32 1     
   34   15   33 1     
@<TRIPOS>SUBSTRUCTURE
      1 S1             1
@<TRIPOS>SET
LONE_PAIRS      STATIC     ATOMS    <user>   **** ""
7 27 28 29 30 31 32 33
DONOR_HYDROGENS      STATIC     ATOMS    <user>   **** ""
2 20 26
ATOM$BLUE        STATIC     ATOMS    COLORGROUP SYSTEM
7 27 28 29 30 31 32 33
ATOM$RED        STATIC     ATOMS    COLORGROUP SYSTEM
2 20 26
