#       Name:                AV-unprocessed.smi:652
#       Creating user name   scv26
#       Creation time:       Fri Mar 27 00:11:49 2020


#       File generated by GOLD software.
#

@<TRIPOS>MOLECULE
AV-unprocessed.smi:652
    54    55     1
SMALL
NO_CHARGES


@<TRIPOS>ATOM
      1 ****        -3.8476   5.1610   0.5635 C.3            1 S1                 0.0000
      2 ****        -3.4602   4.7343  -0.8586 C.3            1 S1                 0.0000
      3 ****        -4.6903   4.6136  -1.7717 C.3            1 S1                 0.0000
      4 ****        -2.7378   3.4662  -0.8053 N.am           1 S1                 0.0000
      5 ****        -1.8048   3.0637  -1.6828 C.2            1 S1                 0.0000
      6 ****        -1.4617   3.7298  -2.6595 O.2            1 S1                 0.0000
      7 ****        -1.1666   1.6970  -1.4208 C.3            1 S1                 0.0000
      8 ****         0.3736   1.7436  -1.4959 C.3            1 S1                 0.0000
      9 ****         0.9902   0.3940  -1.4452 N.4            1 S1                 1.0000
     10 ****         2.3988   0.4027  -1.9074 C.3            1 S1                 0.0000
     11 ****         2.9865  -1.0175  -1.8762 C.3            1 S1                 0.0000
     12 ****         2.8699  -1.5507  -0.5634 O.3            1 S1                 0.0000
     13 ****         1.5127  -1.6658  -0.1485 C.3            1 S1                 0.0000
     14 ****         1.4808  -2.3241   1.2375 C.3            1 S1                 0.0000
     15 ****         1.8844  -3.7226   1.1832 N.pl3          1 S1                 0.0000
     16 ****         1.8743  -4.5089   2.3433 C.ar           1 S1                 0.0000
     17 ****         2.3945  -5.8173   2.2871 C.ar           1 S1                 0.0000
     18 ****         2.3651  -6.5820   3.4663 C.ar           1 S1                 0.0000
     19 ****         1.8163  -5.9796   4.6131 C.ar           1 S1                 0.0000
     20 ****         1.3305  -4.7179   4.6105 N.ar           1 S1                 0.0000
     21 ****         1.3596  -3.9915   3.4875 N.ar           1 S1                 0.0000
     22 ****         0.8888  -0.2570  -0.1156 C.3            1 S1                 0.0000
     23 ****        -4.3623   6.1223   0.5569 H              1 S1                 0.0000
     24 ****        -2.9658   5.2659   1.1968 H              1 S1                 0.0000
     25 ****        -4.5107   4.4328   1.0320 H              1 S1                 0.0000
     26 ****        -2.8015   5.5039  -1.2654 H              1 S1                 0.0000
     27 ****        -5.2288   5.5600  -1.8285 H              1 S1                 0.0000
     28 ****        -5.3854   3.8575  -1.4052 H              1 S1                 0.0000
     29 ****        -4.4043   4.3393  -2.7876 H              1 S1                 0.0000
     30 ****        -2.9621   2.8504  -0.0369 H              1 S1                 0.0000
     31 ****        -1.4937   1.3287  -0.4482 H              1 S1                 0.0000
     32 ****        -1.5535   1.0009  -2.1659 H              1 S1                 0.0000
     33 ****         0.6688   2.2152  -2.4349 H              1 S1                 0.0000
     34 ****         0.7792   2.3664  -0.6968 H              1 S1                 0.0000
     35 ****         2.4552   0.7999  -2.9216 H              1 S1                 0.0000
     36 ****         2.9881   1.0642  -1.2701 H              1 S1                 0.0000
     37 ****         2.4810  -1.6662  -2.5932 H              1 S1                 0.0000
     38 ****         4.0399  -0.9941  -2.1560 H              1 S1                 0.0000
     39 ****         0.9615  -2.2900  -0.8547 H              1 S1                 0.0000
     40 ****         2.1262  -1.7812   1.9296 H              1 S1                 0.0000
     41 ****         0.4667  -2.2730   1.6358 H              1 S1                 0.0000
     42 ****         2.3121  -4.0789   0.3406 H              1 S1                 0.0000
     43 ****         2.8026  -6.2238   1.3733 H              1 S1                 0.0000
     44 ****         2.7477  -7.5915   3.4921 H              1 S1                 0.0000
     45 ****         1.7651  -6.5171   5.5483 H              1 S1                 0.0000
     46 ****         1.3904   0.3599   0.6320 H              1 S1                 0.0000
     47 ****        -0.1547  -0.3391   0.1860 H              1 S1                 0.0000
     48 ****         0.4801  -0.1835  -2.0984 H              1 S1                 0.0000
     49 ****        -1.8840   4.6199  -2.8310 LP             1 S1                 0.0000
     50 ****        -0.7607   3.3808  -3.2814 LP             1 S1                 0.0000
     51 ****         3.3513  -0.9479   0.0730 LP             1 S1                 0.0000
     52 ****         3.2902  -2.4579  -0.5458 LP             1 S1                 0.0000
     53 ****         0.9493  -4.3275   5.4485 LP             1 S1                 0.0000
     54 ****         0.9989  -3.0588   3.4912 LP             1 S1                 0.0000
@<TRIPOS>BOND
    1    1    2 1     
    2    1   23 1     
    3    1   24 1     
    4    1   25 1     
    5    2    3 1     
    6    2    4 1     
    7    2   26 1     
    8    3   27 1     
    9    3   28 1     
   10    3   29 1     
   11    4    5 am    
   12    4   30 1     
   13    5    6 2     
   14    5    7 1     
   15    7    8 1     
   16    7   31 1     
   17    7   32 1     
   18    8    9 1     
   19    8   33 1     
   20    8   34 1     
   21    9   22 1     
   22    9   10 1     
   23    9   48 1     
   24   10   11 1     
   25   10   35 1     
   26   10   36 1     
   27   11   12 1     
   28   11   37 1     
   29   11   38 1     
   30   12   13 1     
   31   13   14 1     
   32   13   22 1     
   33   13   39 1     
   34   14   15 1     
   35   14   40 1     
   36   14   41 1     
   37   15   16 1     
   38   15   42 1     
   39   16   21 ar    
   40   16   17 ar    
   41   17   18 ar    
   42   17   43 1     
   43   18   19 ar    
   44   18   44 1     
   45   19   20 ar    
   46   19   45 1     
   47   20   21 ar    
   48   22   46 1     
   49   22   47 1     
   50    6   49 1     
   51    6   50 1     
   52   12   51 1     
   53   12   52 1     
   54   20   53 1     
   55   21   54 1     
@<TRIPOS>SUBSTRUCTURE
      1 S1             1
@<TRIPOS>SET
LONE_PAIRS      STATIC     ATOMS    <user>   **** ""
6 49 50 51 52 53 54
DONOR_HYDROGENS      STATIC     ATOMS    <user>   **** ""
3 30 48 42
ATOM$BLUE        STATIC     ATOMS    COLORGROUP SYSTEM
6 49 50 51 52 53 54
ATOM$RED        STATIC     ATOMS    COLORGROUP SYSTEM
3 30 48 42
