AV-unprocessed.smi:1830|AV-procd|sdf|7432|dock4
  -GOLD-   22720 9113D 1   1.00000     0.00000
 Structure written by MMmdl.
 53 56  0  0  0  0  0  0  0  0  2 V2000
  151.1577  135.3523  155.5782 O   0  0  0  0  0  0  0  0  0  0  0  0
  150.2940  135.5956  154.7354 C   0  0  0  0  0  0  0  0  0  0  0  0
  149.4453  134.6793  154.2501 N   0  0  0  0  0  0  0  0  0  0  0  0
  149.2912  133.3237  154.7712 C   0  0  0  0  0  0  0  0  0  0  0  0
  148.6934  132.3622  153.7218 C   0  0  2  0  0  0  0  0  0  0  0  0
  147.5547  133.0029  152.8842 C   0  0  0  0  0  0  0  0  0  0  0  0
  146.9616  131.9670  152.0198 N   0  3  2  0  0  0  0  0  0  0  0  0
  145.8480  132.3533  151.1349 C   0  0  0  0  0  0  0  0  0  0  0  0
  145.0442  131.0562  150.9124 C   0  0  0  0  0  0  0  0  0  0  0  0
  145.7248  129.9895  151.7870 C   0  0  0  0  0  0  0  0  0  0  0  0
  146.4854  130.8281  152.8076 C   0  0  1  0  0  0  0  0  0  0  0  0
  147.6786  130.1900  153.5273 C   0  0  0  0  0  0  0  0  0  0  0  0
  148.2353  131.1808  154.3911 O   0  0  0  0  0  0  0  0  0  0  0  0
  150.0445  136.8100  154.2224 N   0  0  0  0  0  0  0  0  0  0  0  0
  150.5206  138.0382  154.7500 C   0  0  0  0  0  0  0  0  0  0  0  0
  151.7731  138.0906  155.4050 C   0  0  0  0  0  0  0  0  0  0  0  0
  152.2584  139.3275  155.8625 C   0  0  0  0  0  0  0  0  0  0  0  0
  151.4763  140.4720  155.6335 C   0  0  0  0  0  0  0  0  0  0  0  0
  150.2849  140.4374  155.0028 N   0  0  0  0  0  0  0  0  0  0  0  0
  149.7933  139.2502  154.5692 C   0  0  0  0  0  0  0  0  0  0  0  0
  148.5244  139.2786  153.9422 N   0  0  0  0  0  0  0  0  0  0  0  0
  147.9358  140.5435  153.5139 C   0  0  0  0  0  0  0  0  0  0  0  0
  146.4637  140.2321  153.2554 C   0  0  0  0  0  0  0  0  0  0  0  0
  146.1580  139.1849  154.3211 C   0  0  0  0  0  0  0  0  0  0  0  0
  147.4680  138.4014  154.4375 C   0  0  0  0  0  0  0  0  0  0  0  0
  148.7896  134.9704  153.5400 H   0  0  0  0  0  0  0  0  0  0  0  0
  150.2786  132.9697  155.0679 H   0  0  0  0  0  0  0  0  0  0  0  0
  148.6830  133.3267  155.6773 H   0  0  0  0  0  0  0  0  0  0  0  0
  149.4961  132.0622  153.0461 H   0  0  0  0  0  0  0  0  0  0  0  0
  146.7764  133.4192  153.5235 H   0  0  0  0  0  0  0  0  0  0  0  0
  147.9408  133.8181  152.2717 H   0  0  0  0  0  0  0  0  0  0  0  0
  145.2229  133.1047  151.6193 H   0  0  0  0  0  0  0  0  0  0  0  0
  146.2250  132.7754  150.2031 H   0  0  0  0  0  0  0  0  0  0  0  0
  144.0096  131.2033  151.2250 H   0  0  0  0  0  0  0  0  0  0  0  0
  145.0315  130.7581  149.8637 H   0  0  0  0  0  0  0  0  0  0  0  0
  145.0144  129.3028  152.2486 H   0  0  0  0  0  0  0  0  0  0  0  0
  146.4208  129.4029  151.1856 H   0  0  0  0  0  0  0  0  0  0  0  0
  145.7716  131.1880  153.5519 H   0  0  0  0  0  0  0  0  0  0  0  0
  147.3563  129.3361  154.1232 H   0  0  0  0  0  0  0  0  0  0  0  0
  148.4304  129.8336  152.8214 H   0  0  0  0  0  0  0  0  0  0  0  0
  149.2585  136.8783  153.5925 H   0  0  0  0  0  0  0  0  0  0  0  0
  152.3670  137.1992  155.5443 H   0  0  0  0  0  0  0  0  0  0  0  0
  153.2111  139.3979  156.3661 H   0  0  0  0  0  0  0  0  0  0  0  0
  151.8165  141.4425  155.9634 H   0  0  0  0  0  0  0  0  0  0  0  0
  148.0149  141.2907  154.3046 H   0  0  0  0  0  0  0  0  0  0  0  0
  148.4305  140.9314  152.6232 H   0  0  0  0  0  0  0  0  0  0  0  0
  145.8246  141.1126  153.3241 H   0  0  0  0  0  0  0  0  0  0  0  0
  146.3422  139.7991  152.2615 H   0  0  0  0  0  0  0  0  0  0  0  0
  145.9394  139.6785  155.2688 H   0  0  0  0  0  0  0  0  0  0  0  0
  145.3069  138.5529  154.0667 H   0  0  0  0  0  0  0  0  0  0  0  0
  147.4279  137.5189  153.7995 H   0  0  0  0  0  0  0  0  0  0  0  0
  147.6473  138.0756  155.4628 H   0  0  0  0  0  0  0  0  0  0  0  0
  147.6947  131.6137  151.4218 H   0  0  0  0  0  0  0  0  0  0  0  0
  1  2  2  0  0  0  0
  2  3  1  0  0  0  0
  2 14  1  0  0  0  0
  3  4  1  0  0  0  0
  3 26  1  0  0  0  0
  4  5  1  0  0  0  0
  4 27  1  0  0  0  0
  4 28  1  0  0  0  0
  5 13  1  0  0  0  0
  5  6  1  0  0  0  0
  5 29  1  0  0  0  0
  6  7  1  0  0  0  0
  6 30  1  0  0  0  0
  6 31  1  0  0  0  0
  7 11  1  0  0  0  0
  7  8  1  0  0  0  0
  7 53  1  0  0  0  0
  8  9  1  0  0  0  0
  8 32  1  0  0  0  0
  8 33  1  0  0  0  0
  9 10  1  0  0  0  0
  9 34  1  0  0  0  0
  9 35  1  0  0  0  0
 10 11  1  0  0  0  0
 10 36  1  0  0  0  0
 10 37  1  0  0  0  0
 11 12  1  0  0  0  0
 11 38  1  0  0  0  0
 12 13  1  0  0  0  0
 12 39  1  0  0  0  0
 12 40  1  0  0  0  0
 14 15  1  0  0  0  0
 14 41  1  0  0  0  0
 15 20  1  0  0  0  0
 15 16  2  0  0  0  0
 16 17  1  0  0  0  0
 16 42  1  0  0  0  0
 17 18  2  0  0  0  0
 17 43  1  0  0  0  0
 18 19  1  0  0  0  0
 18 44  1  0  0  0  0
 19 20  2  0  0  0  0
 20 21  1  0  0  0  0
 21 25  1  0  0  0  0
 21 22  1  0  0  0  0
 22 23  1  0  0  0  0
 22 45  1  0  0  0  0
 22 46  1  0  0  0  0
 23 24  1  0  0  0  0
 23 47  1  0  0  0  0
 23 48  1  0  0  0  0
 24 25  1  0  0  0  0
 24 49  1  0  0  0  0
 24 50  1  0  0  0  0
 25 51  1  0  0  0  0
 25 52  1  0  0  0  0
M  CHG  1   7   1
M  END
> <s_m_source_file>
AV-unprocessed.smi

> <i_m_source_file_index>
1830

> <i_lp_mmshare_version>
43012

> <i_f3d_flags>
0

> <s_epik_input>
W0NIMl0xW0NIMl1bQ0gyXVtDQEhdKE4xMilbQ0gyXU9bQ0BASF0oW0NIMl0yKVtDSDJdW05IXUMoPU8pW05IXWMzW2NIXVtjSF1bY0hdbmMzTjRbQ0gyXVtDSDJdW0NIMl1bQ0gyXTQ=

> <s_epik_cmdline>
J2VwaWtfcHl0aG9uJywgJy1waCcsICc3LjAnLCAnLXRuJywgJzgnLCAnLW1hJywgJzIwMCcsICctbWV0YWxfYmluZGluZycsICctaW1hZScsICc8aW5maWxlLm1hZT4nLCAnLW9tYWUnLCAnPG91dGZpbGUubWFlPic=

> <r_lp_tautomer_probability>
1

> <r_epik_Ionization_Penalty>
0.193547

> <r_epik_Ionization_Penalty_Charging>
0.10673

> <r_epik_Ionization_Penalty_Neutral>
0.0868166

> <r_epik_State_Penalty>
0.173595

> <r_epik_Charging_Adjusted_Penalty>
0.280326

> <i_epik_Tot_Q>
1

> <i_epik_Tot_abs_Q>
1

> <r_epik_Metal_State_Penalty>
0.164683

> <b_epik_Metal_Only>
0

> <s_lp_Force_Field>
OPLS_2005

> <r_lp_Energy>
64.1667

> <b_lp_Chiralities_Consistent>
1

> <s_lp_Variant>
AV-unprocessed.smi:1830-1

> <Gold.Version>
5.8.1

> <Gold.Id.Protein>
6NUR|6NUR_protein|mol2

> <Gold.PLP.Fitness>
54.5859

> <Gold.PLP.PLP>
-42.9015

> <Gold.PLP.part.hbond>
-5.8589

> <Gold.PLP.part.metal>
0.0000

> <Gold.PLP.part.buried>
-1.0739

> <Gold.PLP.part.nonpolar>
-37.3625

> <Gold.PLP.part.repulsive>
1.5496

> <Gold.PLP.ligand.clash>
0.0000

> <Gold.PLP.ligand.torsion>
0.6955

> <Gold.PLP.Chemscore.Hbond>
4.1995

> <Gold.PLP.Chemscore.CHOScore>
0.0000

> <Gold.PLP.Chemscore.Metal>
0.0000

> <Gold.Chemscore.Hbonds>
donor molecule, donor type, donor heavy atom, donor atom, acceptor molecule, acceptor atom, score
      L1  H     3    26       P1  7948  0.57
      L1  H     7    53       P1 10747  1.00
      L1  H    14    41       P1  7948  0.62
      P1  H 10752 10764       L1     1  1.00

> <Gold.PLP.Chemscore.Internal.Correction>
0.4769

> <Gold.Rescore>
     Score         DG    S(hbond)    S(metal)    S(lipo)     H(rot)  DE(clash)    DE(int)     intcor
     20.16     -23.40       2.80        0.00     104.00       1.41       0.40       2.83       ----

> <Gold.Chemscore.Fitness>
20.1618

> <Gold.Chemscore.DG>
-23.3957

> <Gold.Chemscore.ZeroCoef>
-5.4800

> <Gold.Chemscore.Hbond>
2.7989

> <Gold.Chemscore.Metal>
0.0000

> <Gold.Chemscore.Lipo>
104.0032

> <Gold.Chemscore.Internal_Hbond>
0.0000

> <Gold.Chemscore.DEClash>
0.4045

> <Gold.Chemscore.DEInternal>
2.8294

> <Gold.Chemscore.Rot>
1.4067

> <Gold.Chemscore.Internal.Correction>
   9.000000E+99

> <Gold.Chemscore.Hbonds>
donor molecule, donor type, donor heavy atom, donor atom, acceptor molecule, acceptor atom, score
      L1  H     3    26       P1  7948  0.31
      L1  H     7    53       P1 10747  1.00
      L1  H    14    41       P1  7948  0.61
      P1  H 10752 10764       L1     1  0.84

> <Gold.Chemscore.Hbond.Weighted>
-9.3485

> <Gold.Chemscore.Metal.Weighted>
-0.0000

> <Gold.Chemscore.Lipo.Weighted>
-12.1684

> <Gold.Chemscore.Internal_Hbond.Weighted>
0.0000

> <Gold.Chemscore.DEClash.Weighted>
0.4045

> <Gold.Chemscore.DEInternal.Weighted>
2.8294

> <Gold.Chemscore.Rot.Weighted>
3.6011

> <Gold.Chemscore.Internal.Correction.Weighted>
   9.000000E+99

> <Gold.Protein.RotatedTorsions>
[ 6907 6896 6895 6894 ] final  131.90 input  -60.11 | X-H torsion
[ 7974 7965 7964 7962 ] final -172.91 input  175.53 | X-H torsion
[ 8008 7997 7996 7995 ] final  -44.44 input   59.86 | X-H torsion
[ 10167 10162 10161 10158 ] final -136.78 input  -65.29 | X-H torsion
[ 10718 10713 10712 10709 ] final  147.38 input   66.30 | X-H torsion
[ 10763 10752 10751 10750 ] final  -35.43 input  -60.55 | X-H torsion
[ 11005 11000 10999 10996 ] final  -41.91 input  -57.11 | X-H torsion

> <Gold.Protein.ActiveResidues>
 VAL166  LYS551  ARG553  GLY616  TRP617  ASP618  TYR619  PRO620  LYS621  CYS622 
 ASP623  PHE694  ASN695  SER759  ASP760  ASP761  ALA762  ILE779  LEU786  VAL792 
 PHE793  MET794  SER795  GLU796  ALA797  LYS798  CYS799  TRP800  GLU811  SER814 

> <Gold.Protein.RotatedAtoms>
  152.3379  133.6033  159.5855 H   0  0  0  0  0  0  0  0  0  0  0  0  # atno 6907 bound_to 6896
  150.7461  133.9767  159.3572 H   0  0  0  0  0  0  0  0  0  0  0  0  # atno 6908 bound_to 6896
  151.7634  135.0805  160.0400 H   0  0  0  0  0  0  0  0  0  0  0  0  # atno 6909 bound_to 6896
  144.7142  140.1701  143.6368 H   0  0  0  0  0  0  0  0  0  0  0  0  # atno 7974 bound_to 7965
  154.3997  140.1422  156.3684 H   0  0  0  0  0  0  0  0  0  0  0  0  # atno 8008 bound_to 7997
  155.8116  140.3472  155.5440 H   0  0  0  0  0  0  0  0  0  0  0  0  # atno 8009 bound_to 7997
  155.8381  140.0922  157.1742 H   0  0  0  0  0  0  0  0  0  0  0  0  # atno 8010 bound_to 7997
  139.8644  143.7036  152.2647 H   0  0  0  0  0  0  0  0  0  0  0  0  # atno 10167 bound_to 10162
  157.3217  131.0905  151.1235 H   0  0  0  0  0  0  0  0  0  0  0  0  # atno 10718 bound_to 10713
  153.8631  135.6838  153.4781 H   0  0  0  0  0  0  0  0  0  0  0  0  # atno 10763 bound_to 10752
  153.1330  135.4690  154.9376 H   0  0  0  0  0  0  0  0  0  0  0  0  # atno 10764 bound_to 10752
  154.7749  135.3250  154.8062 H   0  0  0  0  0  0  0  0  0  0  0  0  # atno 10765 bound_to 10752
  141.0279  133.6833  156.2522 H   0  0  0  0  0  0  0  0  0  0  0  0  # atno 11005 bound_to 11000
  145.8951  139.2398  143.1526 LP  0  0  0  0  0  0  0  0  0  0  0  0  # atno 17320 bound_to 7965
  145.9865  140.8638  143.0088 LP  0  0  0  0  0  0  0  0  0  0  0  0  # atno 17321 bound_to 7965
  139.7343  144.7575  151.0752 LP  0  0  0  0  0  0  0  0  0  0  0  0  # atno 17342 bound_to 10162
  140.7770  143.5050  150.9724 LP  0  0  0  0  0  0  0  0  0  0  0  0  # atno 17343 bound_to 10162
  157.2517  130.6617  149.5934 LP  0  0  0  0  0  0  0  0  0  0  0  0  # atno 17370 bound_to 10713
  155.9686  130.4536  150.5818 LP  0  0  0  0  0  0  0  0  0  0  0  0  # atno 17371 bound_to 10713
  140.6459  134.5117  157.5573 LP  0  0  0  0  0  0  0  0  0  0  0  0  # atno 17394 bound_to 11000
  139.9188  134.8191  156.1278 LP  0  0  0  0  0  0  0  0  0  0  0  0  # atno 17395 bound_to 11000

$$$$
