AV-unprocessed.smi:3031|AV-procd|sdf|11551|dock7
  -GOLD-   2272016513D 1   1.00000     0.00000
 Structure written by MMmdl.
 48 49  0  0  0  0  0  0  0  0  3 V2000
  152.1989  143.5087  159.0320 C   0  0  0  0  0  0  0  0  0  0  0  0
  151.5378  142.5816  158.0529 C   0  0  0  0  0  0  0  0  0  0  0  0
  151.4942  141.1597  158.0940 C   0  0  0  0  0  0  0  0  0  0  0  0
  150.8351  140.6372  157.0732 N   0  0  0  0  0  0  0  0  0  0  0  0
  150.4254  141.7028  156.3499 N   0  0  0  0  0  0  0  0  0  0  0  0
  149.6835  141.5126  155.1118 C   0  0  0  0  0  0  0  0  0  0  0  0
  149.1813  140.0671  154.9100 C   0  0  2  0  0  0  0  0  0  0  0  0
  150.3547  139.0992  154.6929 C   0  0  0  0  0  0  0  0  0  0  0  0
  148.2397  140.0099  153.7694 N   0  3  0  0  0  0  0  0  0  0  0  0
  147.5359  138.7209  153.6048 C   0  0  0  0  0  0  0  0  0  0  0  0
  146.5988  138.7496  152.3834 C   0  0  1  0  0  0  0  0  0  0  0  0
  147.3998  138.7590  151.2192 O   0  0  0  0  0  0  0  0  0  0  0  0
  145.6735  137.5158  152.3076 C   0  0  0  0  0  0  0  0  0  0  0  0
  144.3671  137.7194  152.9870 N   0  3  0  0  0  0  0  0  0  0  0  0
  143.3459  136.7003  152.6366 C   0  0  0  0  0  0  0  0  0  0  0  0
  142.0189  136.9962  153.3564 C   0  0  0  0  0  0  0  0  0  0  0  0
  142.2374  137.0477  154.7603 O   0  0  0  0  0  0  0  0  0  0  0  0
  143.1444  138.0819  155.1192 C   0  0  0  0  0  0  0  0  0  0  0  0
  144.5094  137.8219  154.4594 C   0  0  0  0  0  0  0  0  0  0  0  0
  150.8496  142.8881  156.9131 C   0  0  0  0  0  0  0  0  0  0  0  0
  153.2233  143.2030  159.2453 H   0  0  0  0  0  0  0  0  0  0  0  0
  151.6665  143.5352  159.9828 H   0  0  0  0  0  0  0  0  0  0  0  0
  152.2417  144.5321  158.6583 H   0  0  0  0  0  0  0  0  0  0  0  0
  151.9234  140.4957  158.8302 H   0  0  0  0  0  0  0  0  0  0  0  0
  148.8417  142.2069  155.1049 H   0  0  0  0  0  0  0  0  0  0  0  0
  150.3339  141.8033  154.2858 H   0  0  0  0  0  0  0  0  0  0  0  0
  148.6559  139.7612  155.8162 H   0  0  0  0  0  0  0  0  0  0  0  0
  151.0501  139.1356  155.5320 H   0  0  0  0  0  0  0  0  0  0  0  0
  150.9135  139.3478  153.7901 H   0  0  0  0  0  0  0  0  0  0  0  0
  150.0137  138.0680  154.5997 H   0  0  0  0  0  0  0  0  0  0  0  0
  147.5348  140.7167  153.9247 H   0  0  0  0  0  0  0  0  0  0  0  0
  148.2543  137.9047  153.5190 H   0  0  0  0  0  0  0  0  0  0  0  0
  146.9540  138.5390  154.5091 H   0  0  0  0  0  0  0  0  0  0  0  0
  146.0106  139.6669  152.3825 H   0  0  0  0  0  0  0  0  0  0  0  0
  147.9874  139.4992  151.2574 H   0  0  0  0  0  0  0  0  0  0  0  0
  145.4903  137.2367  151.2685 H   0  0  0  0  0  0  0  0  0  0  0  0
  146.1901  136.6688  152.7626 H   0  0  0  0  0  0  0  0  0  0  0  0
  143.1712  136.6839  151.5616 H   0  0  0  0  0  0  0  0  0  0  0  0
  143.7062  135.7093  152.9173 H   0  0  0  0  0  0  0  0  0  0  0  0
  141.5873  137.9359  153.0076 H   0  0  0  0  0  0  0  0  0  0  0  0
  141.2920  136.2129  153.1411 H   0  0  0  0  0  0  0  0  0  0  0  0
  142.7455  139.0532  154.8220 H   0  0  0  0  0  0  0  0  0  0  0  0
  143.2484  138.0988  156.2044 H   0  0  0  0  0  0  0  0  0  0  0  0
  144.9432  136.9004  154.8511 H   0  0  0  0  0  0  0  0  0  0  0  0
  145.1956  138.6317  154.7107 H   0  0  0  0  0  0  0  0  0  0  0  0
  150.6298  143.8443  156.4606 H   0  0  0  0  0  0  0  0  0  0  0  0
  148.7357  140.2351  152.9186 H   0  0  0  0  0  0  0  0  0  0  0  0
  144.0116  138.6130  152.6786 H   0  0  0  0  0  0  0  0  0  0  0  0
  1  2  1  0  0  0  0
  1 21  1  0  0  0  0
  1 22  1  0  0  0  0
  1 23  1  0  0  0  0
  2 20  2  0  0  0  0
  2  3  1  0  0  0  0
  3  4  2  0  0  0  0
  3 24  1  0  0  0  0
  4  5  1  0  0  0  0
  5  6  1  0  0  0  0
  5 20  1  0  0  0  0
  6  7  1  0  0  0  0
  6 25  1  0  0  0  0
  6 26  1  0  0  0  0
  7  8  1  0  0  0  0
  7  9  1  0  0  0  0
  7 27  1  0  0  0  0
  8 28  1  0  0  0  0
  8 29  1  0  0  0  0
  8 30  1  0  0  0  0
  9 10  1  0  0  0  0
  9 31  1  0  0  0  0
  9 47  1  0  0  0  0
 10 11  1  0  0  0  0
 10 32  1  0  0  0  0
 10 33  1  0  0  0  0
 11 12  1  0  0  0  0
 11 13  1  0  0  0  0
 11 34  1  0  0  0  0
 12 35  1  0  0  0  0
 13 14  1  0  0  0  0
 13 36  1  0  0  0  0
 13 37  1  0  0  0  0
 14 19  1  0  0  0  0
 14 15  1  0  0  0  0
 14 48  1  0  0  0  0
 15 16  1  0  0  0  0
 15 38  1  0  0  0  0
 15 39  1  0  0  0  0
 16 17  1  0  0  0  0
 16 40  1  0  0  0  0
 16 41  1  0  0  0  0
 17 18  1  0  0  0  0
 18 19  1  0  0  0  0
 18 42  1  0  0  0  0
 18 43  1  0  0  0  0
 19 44  1  0  0  0  0
 19 45  1  0  0  0  0
 20 46  1  0  0  0  0
M  CHG  1   9   1
M  CHG  1  14   1
M  END
> <s_m_source_file>
AV-unprocessed.smi

> <i_m_source_file_index>
3031

> <i_lp_mmshare_version>
43012

> <i_f3d_flags>
0

> <s_epik_input>
W0NIM11jMVtjSF1ubihbY0hdMSlbQ0gyXVtDQEhdKFtDSDNdKVtOSF1bQ0gyXVtDQEhdKFtPSF0pW0NIMl1OMltDSDJdW0NIMl1PW0NIMl1bQ0gyXTI=

> <s_epik_cmdline>
J2VwaWtfcHl0aG9uJywgJy1waCcsICc3LjAnLCAnLXRuJywgJzgnLCAnLW1hJywgJzIwMCcsICctbWV0YWxfYmluZGluZycsICctaW1hZScsICc8aW5maWxlLm1hZT4nLCAnLW9tYWUnLCAnPG91dGZpbGUubWFlPic=

> <r_lp_tautomer_probability>
1

> <r_epik_Ionization_Penalty>
1.76542

> <r_epik_Ionization_Penalty_Charging>
1.76348

> <r_epik_Ionization_Penalty_Neutral>
0.00194017

> <r_epik_State_Penalty>
1.49348

> <r_epik_Charging_Adjusted_Penalty>
3.25696

> <i_epik_Tot_Q>
2

> <i_epik_Tot_abs_Q>
2

> <r_epik_Metal_State_Penalty>
1.49349

> <b_epik_Metal_Only>
0

> <s_lp_Force_Field>
OPLS_2005

> <r_lp_Energy>
28.4562

> <b_lp_Chiralities_Consistent>
1

> <s_lp_Variant>
AV-unprocessed.smi:3031-11

> <Gold.Version>
5.8.1

> <Gold.Id.Protein>
6NUR|6NUR_protein|mol2

> <Gold.PLP.Fitness>
51.9574

> <Gold.PLP.PLP>
-35.9945

> <Gold.PLP.part.hbond>
-4.9727

> <Gold.PLP.part.metal>
0.0000

> <Gold.PLP.part.buried>
-1.5485

> <Gold.PLP.part.nonpolar>
-29.3946

> <Gold.PLP.part.repulsive>
0.1271

> <Gold.PLP.ligand.clash>
0.0000

> <Gold.PLP.ligand.torsion>
0.6934

> <Gold.PLP.Chemscore.Hbond>
4.7344

> <Gold.PLP.Chemscore.CHOScore>
1.0000

> <Gold.PLP.Chemscore.Metal>
0.0000

> <Gold.Chemscore.Hbonds>
donor molecule, donor type, donor heavy atom, donor atom, acceptor molecule, acceptor atom, score
      L1  H     9    47       P1  7957  1.00
      L1  H    12    35       P1  7957  0.91
      L1  H    14    48       P1 10175  2.00
      P1  H  7954  7966       L1    12  0.82
      L1  C    20    46       P1  8028  1.00

> <Gold.PLP.Chemscore.Internal.Correction>
0.1465

> <Gold.Rescore>
     Score         DG    S(hbond)    S(metal)    S(lipo)     H(rot)  DE(clash)    DE(int)     intcor
     16.77     -18.67       2.98        0.00      87.69       2.74       0.15       1.76       ----

> <Gold.Chemscore.Fitness>
16.7655

> <Gold.Chemscore.DG>
-18.6739

> <Gold.Chemscore.ZeroCoef>
-5.4800

> <Gold.Chemscore.Hbond>
2.9811

> <Gold.Chemscore.Metal>
0.0000

> <Gold.Chemscore.Lipo>
87.6943

> <Gold.Chemscore.Internal_Hbond>
0.0000

> <Gold.Chemscore.DEClash>
0.1502

> <Gold.Chemscore.DEInternal>
1.7582

> <Gold.Chemscore.Rot>
2.7434

> <Gold.Chemscore.Internal.Correction>
   9.000000E+99

> <Gold.Chemscore.Hbonds>
donor molecule, donor type, donor heavy atom, donor atom, acceptor molecule, acceptor atom, score
      L1  H     9    47       P1  7957  0.98
      L1  H    12    35       P1  7957  0.81
      L1  H    14    48       P1 10175  1.00
      P1  H  7954  7966       L1    12  0.16

> <Gold.Chemscore.Hbond.Weighted>
-9.9568

> <Gold.Chemscore.Metal.Weighted>
-0.0000

> <Gold.Chemscore.Lipo.Weighted>
-10.2602

> <Gold.Chemscore.Internal_Hbond.Weighted>
0.0000

> <Gold.Chemscore.DEClash.Weighted>
0.1502

> <Gold.Chemscore.DEInternal.Weighted>
1.7582

> <Gold.Chemscore.Rot.Weighted>
7.0231

> <Gold.Chemscore.Internal.Correction.Weighted>
   9.000000E+99

> <Gold.Protein.RotatedTorsions>
[ 6907 6896 6895 6894 ] final  -35.71 input  -60.11 | X-H torsion
[ 7974 7965 7964 7962 ] final  -32.17 input  175.53 | X-H torsion
[ 8008 7997 7996 7995 ] final  -68.20 input   59.86 | X-H torsion
[ 10167 10162 10161 10158 ] final   73.73 input  -65.29 | X-H torsion
[ 10718 10713 10712 10709 ] final  -31.59 input   66.30 | X-H torsion
[ 10763 10752 10751 10750 ] final   25.74 input  -60.55 | X-H torsion
[ 11005 11000 10999 10996 ] final  167.26 input  -57.11 | X-H torsion

> <Gold.Protein.ActiveResidues>
 VAL166  LYS551  ARG553  GLY616  TRP617  ASP618  TYR619  PRO620  LYS621  CYS622 
 ASP623  PHE694  ASN695  SER759  ASP760  ASP761  ALA762  ILE779  LEU786  VAL792 
 PHE793  MET794  SER795  GLU796  ALA797  LYS798  CYS799  TRP800  GLU811  SER814 

> <Gold.Protein.RotatedAtoms>
  151.0364  134.9576  159.8138 H   0  0  0  0  0  0  0  0  0  0  0  0  # atno 6907 bound_to 6896
  152.5356  134.2714  159.8983 H   0  0  0  0  0  0  0  0  0  0  0  0  # atno 6908 bound_to 6896
  151.2725  133.4206  159.2656 H   0  0  0  0  0  0  0  0  0  0  0  0  # atno 6909 bound_to 6896
  146.1010  140.5759  142.8821 H   0  0  0  0  0  0  0  0  0  0  0  0  # atno 7974 bound_to 7965
  154.4852  140.0877  156.7469 H   0  0  0  0  0  0  0  0  0  0  0  0  # atno 8008 bound_to 7997
  155.4369  140.3452  155.4267 H   0  0  0  0  0  0  0  0  0  0  0  0  # atno 8009 bound_to 7997
  156.1250  140.1485  156.9137 H   0  0  0  0  0  0  0  0  0  0  0  0  # atno 8010 bound_to 7997
  140.0213  144.5538  150.7579 H   0  0  0  0  0  0  0  0  0  0  0  0  # atno 10167 bound_to 10162
  156.3853  130.4363  149.7436 H   0  0  0  0  0  0  0  0  0  0  0  0  # atno 10718 bound_to 10713
  153.0671  135.6576  154.0331 H   0  0  0  0  0  0  0  0  0  0  0  0  # atno 10763 bound_to 10752
  153.9985  135.2939  155.3406 H   0  0  0  0  0  0  0  0  0  0  0  0  # atno 10764 bound_to 10752
  154.7032  135.5236  153.8626 H   0  0  0  0  0  0  0  0  0  0  0  0  # atno 10765 bound_to 10752
  140.2750  134.7796  157.3708 H   0  0  0  0  0  0  0  0  0  0  0  0  # atno 11005 bound_to 11000
  144.7433  140.5001  143.6854 LP  0  0  0  0  0  0  0  0  0  0  0  0  # atno 17320 bound_to 7965
  145.5854  139.1491  143.3212 LP  0  0  0  0  0  0  0  0  0  0  0  0  # atno 17321 bound_to 7965
  140.7341  143.2725  151.3844 LP  0  0  0  0  0  0  0  0  0  0  0  0  # atno 17342 bound_to 10162
  139.6138  144.1045  152.2325 LP  0  0  0  0  0  0  0  0  0  0  0  0  # atno 17343 bound_to 10162
  156.4511  130.7907  151.2928 LP  0  0  0  0  0  0  0  0  0  0  0  0  # atno 17370 bound_to 10713
  157.7495  131.0095  150.3270 LP  0  0  0  0  0  0  0  0  0  0  0  0  # atno 17371 bound_to 10713
  140.1337  134.5061  155.8085 LP  0  0  0  0  0  0  0  0  0  0  0  0  # atno 17394 bound_to 11000
  141.2172  133.6799  156.7086 LP  0  0  0  0  0  0  0  0  0  0  0  0  # atno 17395 bound_to 11000

$$$$
