#       Name:                AV-unprocessed.smi:1791
#       Creating user name   scv26
#       Creation time:       Fri Mar 27 08:46:19 2020


#       File generated by GOLD software.
#

@<TRIPOS>MOLECULE
AV-unprocessed.smi:1791
    45    46     1
SMALL
NO_CHARGES


@<TRIPOS>ATOM
      1 ****        -6.7143   1.8411   0.8666 C.3            1 S1                 0.0000
      2 ****        -6.1746   0.5241   0.8830 O.3            1 S1                 0.0000
      3 ****        -4.8025   0.3780   0.8829 C.ar           1 S1                 0.0000
      4 ****        -4.2628  -0.9235   0.8881 C.ar           1 S1                 0.0000
      5 ****        -2.8636  -1.0815   0.8823 C.ar           1 S1                 0.0000
      6 ****        -2.0453   0.0732   0.8641 C.ar           1 S1                 0.0000
      7 ****        -0.6244   0.0494   0.8697 N.am           1 S1                 0.0000
      8 ****         0.1981  -0.9412   0.4845 C.2            1 S1                 0.0000
      9 ****        -0.1608  -2.0369   0.0544 O.2            1 S1                 0.0000
     10 ****         1.4818  -0.5744   0.6069 N.am           1 S1                 0.0000
     11 ****         2.6466  -1.3868   0.2569 C.3            1 S1                 0.0000
     12 ****         3.4762  -1.6645   1.5186 C.3            1 S1                 0.0000
     13 ****         3.4803  -0.7027  -0.8459 C.3            1 S1                 0.0000
     14 ****         2.7659  -0.5100  -2.1862 C.3            1 S1                 0.0000
     15 ****         3.5646   0.6225  -2.7895 C.3            1 S1                 0.0000
     16 ****         3.8433   1.4929  -1.5670 C.3            1 S1                 0.0000
     17 ****         3.8919   0.6054  -0.4525 O.3            1 S1                 0.0000
     18 ****        -2.6842   1.3300   0.8777 C.ar           1 S1                 0.0000
     19 ****        -4.0245   1.4885   0.8820 N.ar           1 S1                 0.0000
     20 ****        -7.8026   1.7846   0.8584 H              1 S1                 0.0000
     21 ****        -6.4051   2.3881  -0.0254 H              1 S1                 0.0000
     22 ****        -6.4188   2.4043   1.7531 H              1 S1                 0.0000
     23 ****        -4.9115  -1.7869   0.8991 H              1 S1                 0.0000
     24 ****        -2.4521  -2.0784   0.9040 H              1 S1                 0.0000
     25 ****        -0.1793   0.9169   1.1313 H              1 S1                 0.0000
     26 ****         1.6754   0.3509   0.9615 H              1 S1                 0.0000
     27 ****         2.3250  -2.3540  -0.1330 H              1 S1                 0.0000
     28 ****         4.3353  -2.2960   1.2912 H              1 S1                 0.0000
     29 ****         2.8812  -2.1791   2.2738 H              1 S1                 0.0000
     30 ****         3.8502  -0.7409   1.9617 H              1 S1                 0.0000
     31 ****         4.3865  -1.2834  -1.0263 H              1 S1                 0.0000
     32 ****         2.7678  -1.4102  -2.8015 H              1 S1                 0.0000
     33 ****         1.7312  -0.1949  -2.0482 H              1 S1                 0.0000
     34 ****         4.5001   0.2419  -3.2019 H              1 S1                 0.0000
     35 ****         3.0315   1.1528  -3.5790 H              1 S1                 0.0000
     36 ****         4.7691   2.0601  -1.6643 H              1 S1                 0.0000
     37 ****         3.0277   2.1997  -1.4091 H              1 S1                 0.0000
     38 ****        -2.1028   2.2406   0.8784 H              1 S1                 0.0000
     39 ****        -6.5224   0.0518   0.0731 LP             1 S1                 0.0000
     40 ****        -6.5201   0.0731   1.7059 LP             1 S1                 0.0000
     41 ****        -1.1350  -2.2460  -0.0306 LP             1 S1                 0.0000
     42 ****         0.5217  -2.7182  -0.2102 LP             1 S1                 0.0000
     43 ****         4.8277   0.5659  -0.1023 LP             1 S1                 0.0000
     44 ****         3.2816   0.9420   0.2646 LP             1 S1                 0.0000
     45 ****        -4.4332   2.4012   0.8844 LP             1 S1                 0.0000
@<TRIPOS>BOND
    1    1    2 1     
    2    1   20 1     
    3    1   21 1     
    4    1   22 1     
    5    2    3 1     
    6    3   19 ar    
    7    3    4 ar    
    8    4    5 ar    
    9    4   23 1     
   10    5    6 ar    
   11    5   24 1     
   12    6    7 1     
   13    6   18 ar    
   14    7    8 am    
   15    7   25 1     
   16    8    9 2     
   17    8   10 am    
   18   10   11 1     
   19   10   26 1     
   20   11   12 1     
   21   11   13 1     
   22   11   27 1     
   23   12   28 1     
   24   12   29 1     
   25   12   30 1     
   26   13   17 1     
   27   13   14 1     
   28   13   31 1     
   29   14   15 1     
   30   14   32 1     
   31   14   33 1     
   32   15   16 1     
   33   15   34 1     
   34   15   35 1     
   35   16   17 1     
   36   16   36 1     
   37   16   37 1     
   38   18   19 ar    
   39   18   38 1     
   40    2   39 1     
   41    2   40 1     
   42    9   41 1     
   43    9   42 1     
   44   17   43 1     
   45   17   44 1     
   46   19   45 1     
@<TRIPOS>SUBSTRUCTURE
      1 S1             1
@<TRIPOS>SET
LONE_PAIRS      STATIC     ATOMS    <user>   **** ""
7 39 40 41 42 43 44 45
DONOR_HYDROGENS      STATIC     ATOMS    <user>   **** ""
2 25 26
ATOM$BLUE        STATIC     ATOMS    COLORGROUP SYSTEM
7 39 40 41 42 43 44 45
ATOM$RED        STATIC     ATOMS    COLORGROUP SYSTEM
2 25 26
