AV-unprocessed.smi:3226|AV-procd|sdf|12313|dock2
  -GOLD-   2272018163D 1   1.00000     0.00000
 Structure written by MMmdl.
 41 43  0  0  0  0  0  0  0  0  2 V2000
  151.9552  129.1758  154.4914 C   0  0  0  0  0  0  0  0  0  0  0  0
  150.7821  130.1619  154.5203 C   0  0  0  0  0  0  0  0  0  0  0  0
  150.9342  131.2053  155.5838 C   0  0  0  0  0  0  0  0  0  0  0  0
  151.9323  131.2051  156.4754 N   0  0  0  0  0  0  0  0  0  0  0  0
  151.7391  132.3292  157.2526 N   0  0  0  0  0  0  0  0  0  0  0  0
  150.6488  132.9025  156.7467 C   0  0  0  0  0  0  0  0  0  0  0  0
  150.0943  132.2549  155.7099 N   0  0  0  0  0  0  0  0  0  0  0  0
  148.9109  132.6185  154.9486 C   0  0  0  0  0  0  0  0  0  0  0  0
  149.2503  133.0383  153.5091 C   0  0  0  0  0  0  0  0  0  0  0  0
  148.0374  133.3953  152.7463 N   0  3  0  0  0  0  0  0  0  0  0  0
  147.8153  132.5684  151.5443 C   0  0  0  0  0  0  0  0  0  0  0  0
  146.4471  132.8719  150.9063 C   0  0  2  0  0  0  0  0  0  0  0  0
  145.3197  133.1163  151.9575 C   0  0  0  0  0  0  0  0  0  0  0  0
  144.2245  132.1064  151.5435 C   0  0  1  0  0  0  0  0  0  0  0  0
  143.7079  132.5034  150.1767 C   0  0  0  0  0  0  0  0  0  0  0  0
  144.6803  132.2542  149.2976 C   0  0  0  0  0  0  0  0  0  0  0  0
  145.8579  131.7011  150.0734 C   0  0  2  0  0  0  0  0  0  0  0  0
  145.1077  130.9167  151.1582 C   0  0  0  0  0  0  0  0  0  0  0  0
  151.8138  128.4257  153.7132 H   0  0  0  0  0  0  0  0  0  0  0  0
  152.0533  128.6533  155.4435 H   0  0  0  0  0  0  0  0  0  0  0  0
  152.8968  129.6885  154.2929 H   0  0  0  0  0  0  0  0  0  0  0  0
  150.6698  130.6393  153.5473 H   0  0  0  0  0  0  0  0  0  0  0  0
  149.8540  129.6179  154.6991 H   0  0  0  0  0  0  0  0  0  0  0  0
  150.2412  133.8194  157.1468 H   0  0  0  0  0  0  0  0  0  0  0  0
  148.2209  131.7736  154.9478 H   0  0  0  0  0  0  0  0  0  0  0  0
  148.4008  133.4311  155.4664 H   0  0  0  0  0  0  0  0  0  0  0  0
  149.9176  133.9008  153.5305 H   0  0  0  0  0  0  0  0  0  0  0  0
  149.7828  132.2374  152.9948 H   0  0  0  0  0  0  0  0  0  0  0  0
  147.2356  133.2977  153.3527 H   0  0  0  0  0  0  0  0  0  0  0  0
  148.6242  132.7345  150.8323 H   0  0  0  0  0  0  0  0  0  0  0  0
  147.8578  131.5177  151.8339 H   0  0  0  0  0  0  0  0  0  0  0  0
  146.5529  133.7566  150.2752 H   0  0  0  0  0  0  0  0  0  0  0  0
  145.6662  132.9076  152.9707 H   0  0  0  0  0  0  0  0  0  0  0  0
  144.9555  134.1445  151.9391 H   0  0  0  0  0  0  0  0  0  0  0  0
  143.4521  131.8974  152.2843 H   0  0  0  0  0  0  0  0  0  0  0  0
  142.7363  132.9345  149.9855 H   0  0  0  0  0  0  0  0  0  0  0  0
  144.6738  132.4408  148.2338 H   0  0  0  0  0  0  0  0  0  0  0  0
  146.5597  131.1207  149.4739 H   0  0  0  0  0  0  0  0  0  0  0  0
  145.7380  130.5530  151.9712 H   0  0  0  0  0  0  0  0  0  0  0  0
  144.5372  130.0760  150.7577 H   0  0  0  0  0  0  0  0  0  0  0  0
  148.1108  134.3612  152.4603 H   0  0  0  0  0  0  0  0  0  0  0  0
  1  2  1  0  0  0  0
  1 19  1  0  0  0  0
  1 20  1  0  0  0  0
  1 21  1  0  0  0  0
  2  3  1  0  0  0  0
  2 22  1  0  0  0  0
  2 23  1  0  0  0  0
  3  7  1  0  0  0  0
  3  4  2  0  0  0  0
  4  5  1  0  0  0  0
  5  6  2  0  0  0  0
  6  7  1  0  0  0  0
  6 24  1  0  0  0  0
  7  8  1  0  0  0  0
  8  9  1  0  0  0  0
  8 25  1  0  0  0  0
  8 26  1  0  0  0  0
  9 10  1  0  0  0  0
  9 27  1  0  0  0  0
  9 28  1  0  0  0  0
 10 11  1  0  0  0  0
 10 29  1  0  0  0  0
 10 41  1  0  0  0  0
 11 12  1  0  0  0  0
 11 30  1  0  0  0  0
 11 31  1  0  0  0  0
 12 17  1  0  0  0  0
 12 13  1  0  0  0  0
 12 32  1  0  0  0  0
 13 14  1  0  0  0  0
 13 33  1  0  0  0  0
 13 34  1  0  0  0  0
 14 18  1  0  0  0  0
 14 15  1  0  0  0  0
 14 35  1  0  0  0  0
 15 16  2  0  0  0  0
 15 36  1  0  0  0  0
 16 17  1  0  0  0  0
 16 37  1  0  0  0  0
 17 18  1  0  0  0  0
 17 38  1  0  0  0  0
 18 39  1  0  0  0  0
 18 40  1  0  0  0  0
M  CHG  1  10   1
M  END
> <s_m_source_file>
AV-unprocessed.smi

> <i_m_source_file_index>
3226

> <i_lp_mmshare_version>
43012

> <i_f3d_flags>
0

> <s_epik_input>
W0NIM11bQ0gyXWMxbm5bY0hdbjFbQ0gyXVtDSDJdW05IXVtDSDJdW0NASF0oW0NIMl1bQ0BASF0yMylbQ0BASF0oW0NIMl0zKVtDSF09W0NIXTI=

> <s_epik_cmdline>
J2VwaWtfcHl0aG9uJywgJy1waCcsICc3LjAnLCAnLXRuJywgJzgnLCAnLW1hJywgJzIwMCcsICctbWV0YWxfYmluZGluZycsICctaW1hZScsICc8aW5maWxlLm1hZT4nLCAnLW9tYWUnLCAnPG91dGZpbGUubWFlPic=

> <r_lp_tautomer_probability>
1

> <r_epik_Ionization_Penalty>
0.00175008

> <r_epik_Ionization_Penalty_Charging>
0.00173932

> <r_epik_Ionization_Penalty_Neutral>
1.07546e-05

> <r_epik_State_Penalty>
-0

> <r_epik_Charging_Adjusted_Penalty>
0.00173932

> <i_epik_Tot_Q>
1

> <i_epik_Tot_abs_Q>
1

> <r_epik_Metal_State_Penalty>
-0

> <b_epik_Metal_Only>
0

> <s_lp_Force_Field>
OPLS_2005

> <r_lp_Energy>
64.8147

> <b_lp_Chiralities_Consistent>
1

> <s_lp_Variant>
AV-unprocessed.smi:3226-1

> <Gold.Version>
5.8.1

> <Gold.Id.Protein>
6NUR|6NUR_protein|mol2

> <Gold.PLP.Fitness>
43.8799

> <Gold.PLP.PLP>
-36.3276

> <Gold.PLP.part.hbond>
-2.0000

> <Gold.PLP.part.metal>
0.0000

> <Gold.PLP.part.buried>
0.4965

> <Gold.PLP.part.nonpolar>
-33.3181

> <Gold.PLP.part.repulsive>
0.0047

> <Gold.PLP.ligand.clash>
0.0000

> <Gold.PLP.ligand.torsion>
0.7399

> <Gold.PLP.Chemscore.Hbond>
3.0000

> <Gold.PLP.Chemscore.CHOScore>
0.0000

> <Gold.PLP.Chemscore.Metal>
0.0000

> <Gold.Chemscore.Hbonds>
donor molecule, donor type, donor heavy atom, donor atom, acceptor molecule, acceptor atom, score
      L1  H    10    41       P1  7948  1.64
      P1  H  6896  6908       L1     5  0.38

> <Gold.PLP.Chemscore.Internal.Correction>
0.0321

> <Gold.Rescore>
     Score         DG    S(hbond)    S(metal)    S(lipo)     H(rot)  DE(clash)    DE(int)     intcor
     14.79     -16.74       1.60        0.00      95.69       2.06       1.38       0.57       ----

> <Gold.Chemscore.Fitness>
14.7922

> <Gold.Chemscore.DG>
-16.7396

> <Gold.Chemscore.ZeroCoef>
-5.4800

> <Gold.Chemscore.Hbond>
1.5998

> <Gold.Chemscore.Metal>
0.0000

> <Gold.Chemscore.Lipo>
95.6913

> <Gold.Chemscore.Internal_Hbond>
0.0000

> <Gold.Chemscore.DEClash>
1.3793

> <Gold.Chemscore.DEInternal>
0.5681

> <Gold.Chemscore.Rot>
2.0623

> <Gold.Chemscore.Internal.Correction>
   9.000000E+99

> <Gold.Chemscore.Hbonds>
donor molecule, donor type, donor heavy atom, donor atom, acceptor molecule, acceptor atom, score
      L1  H    10    41       P1  7948  0.18
      P1  H  6896  6908       L1     5  0.04

> <Gold.Chemscore.Hbond.Weighted>
-5.3433

> <Gold.Chemscore.Metal.Weighted>
-0.0000

> <Gold.Chemscore.Lipo.Weighted>
-11.1959

> <Gold.Chemscore.Internal_Hbond.Weighted>
0.0000

> <Gold.Chemscore.DEClash.Weighted>
1.3793

> <Gold.Chemscore.DEInternal.Weighted>
0.5681

> <Gold.Chemscore.Rot.Weighted>
5.2796

> <Gold.Chemscore.Internal.Correction.Weighted>
   9.000000E+99

> <Gold.Protein.RotatedTorsions>
[ 6907 6896 6895 6894 ] final   68.75 input  -60.11 | X-H torsion
[ 7974 7965 7964 7962 ] final  124.27 input  175.53 | X-H torsion
[ 8008 7997 7996 7995 ] final  -82.72 input   59.86 | X-H torsion
[ 10167 10162 10161 10158 ] final  120.74 input  -65.29 | X-H torsion
[ 10718 10713 10712 10709 ] final  166.04 input   66.30 | X-H torsion
[ 10763 10752 10751 10750 ] final -107.45 input  -60.55 | X-H torsion
[ 11005 11000 10999 10996 ] final  148.32 input  -57.11 | X-H torsion

> <Gold.Protein.ActiveResidues>
 VAL166  LYS551  ARG553  GLY616  TRP617  ASP618  TYR619  PRO620  LYS621  CYS622 
 ASP623  PHE694  ASN695  SER759  ASP760  ASP761  ALA762  ILE779  LEU786  VAL792 
 PHE793  MET794  SER795  GLU796  ALA797  LYS798  CYS799  TRP800  GLU811  SER814 

> <Gold.Protein.RotatedAtoms>
  152.4641  134.5116  159.9755 H   0  0  0  0  0  0  0  0  0  0  0  0  # atno 6907 bound_to 6896
  151.5157  133.3470  159.2900 H   0  0  0  0  0  0  0  0  0  0  0  0  # atno 6908 bound_to 6896
  150.8617  134.8000  159.7150 H   0  0  0  0  0  0  0  0  0  0  0  0  # atno 6909 bound_to 6896
  145.0863  139.3620  143.4883 H   0  0  0  0  0  0  0  0  0  0  0  0  # atno 7974 bound_to 7965
  154.6116  140.0629  156.9500 H   0  0  0  0  0  0  0  0  0  0  0  0  # atno 8008 bound_to 7997
  155.1964  140.3311  155.4332 H   0  0  0  0  0  0  0  0  0  0  0  0  # atno 8009 bound_to 7997
  156.2380  140.1872  156.7051 H   0  0  0  0  0  0  0  0  0  0  0  0  # atno 8010 bound_to 7997
  139.5963  144.7042  151.3169 H   0  0  0  0  0  0  0  0  0  0  0  0  # atno 10167 bound_to 10162
  157.0715  131.0367  151.2610 H   0  0  0  0  0  0  0  0  0  0  0  0  # atno 10718 bound_to 10713
  154.8076  135.4674  154.0432 H   0  0  0  0  0  0  0  0  0  0  0  0  # atno 10763 bound_to 10752
  153.1888  135.6852  153.8386 H   0  0  0  0  0  0  0  0  0  0  0  0  # atno 10764 bound_to 10752
  153.7911  135.3243  155.3356 H   0  0  0  0  0  0  0  0  0  0  0  0  # atno 10765 bound_to 10752
  140.0950  134.9018  157.1709 H   0  0  0  0  0  0  0  0  0  0  0  0  # atno 11005 bound_to 11000
  146.3531  140.0677  142.8625 LP  0  0  0  0  0  0  0  0  0  0  0  0  # atno 17320 bound_to 7965
  145.1118  140.9410  143.4652 LP  0  0  0  0  0  0  0  0  0  0  0  0  # atno 17321 bound_to 7965
  140.7214  143.7125  150.7758 LP  0  0  0  0  0  0  0  0  0  0  0  0  # atno 17342 bound_to 10162
  140.0692  143.5078  152.2589 LP  0  0  0  0  0  0  0  0  0  0  0  0  # atno 17343 bound_to 10162
  157.4874  130.7801  149.7473 LP  0  0  0  0  0  0  0  0  0  0  0  0  # atno 17370 bound_to 10713
  155.9949  130.3915  150.2841 LP  0  0  0  0  0  0  0  0  0  0  0  0  # atno 17371 bound_to 10713
  140.3299  134.2821  155.7230 LP  0  0  0  0  0  0  0  0  0  0  0  0  # atno 17394 bound_to 11000
  141.2089  133.7764  157.0029 LP  0  0  0  0  0  0  0  0  0  0  0  0  # atno 17395 bound_to 11000

$$$$
