AV-unprocessed.smi:2602|AV-procd|sdf|10184|dock8
  -GOLD-   2272014193D 1   1.00000     0.00000
 Structure written by MMmdl.
 46 47  0  0  0  0  0  0  0  0  1 V2000
  151.0802  130.9952  157.0118 C   0  0  0  0  0  0  0  0  0  0  0  0
  150.2489  130.4111  156.0129 O   0  0  0  0  0  0  0  0  0  0  0  0
  149.7279  131.2120  155.0539 C   0  0  0  0  0  0  0  0  0  0  0  0
  148.9142  130.5917  154.1982 N   0  0  0  0  0  0  0  0  0  0  0  0
  148.3723  131.3470  153.2205 C   0  0  0  0  0  0  0  0  0  0  0  0
  148.6484  132.7244  153.1048 C   0  0  0  0  0  0  0  0  0  0  0  0
  149.5210  133.2910  154.0602 C   0  0  0  0  0  0  0  0  0  0  0  0
  149.7817  134.6793  153.9172 N   0  0  0  0  0  0  0  0  0  0  0  0
  150.5673  135.4554  154.6839 C   0  0  0  0  0  0  0  0  0  0  0  0
  151.1812  135.0782  155.6822 O   0  0  0  0  0  0  0  0  0  0  0  0
  150.6089  136.7127  154.2184 N   0  0  0  0  0  0  0  0  0  0  0  0
  151.3997  137.8090  154.7794 C   0  0  0  0  0  0  0  0  0  0  0  0
  150.5168  138.9603  155.3537 C   0  0  0  0  0  0  0  0  0  0  0  0
  149.5655  138.4684  156.4969 C   0  0  0  0  0  0  0  0  0  0  0  0
  148.3519  138.6377  156.3525 O   0  0  0  0  0  0  0  0  0  0  0  0
  150.0347  137.8926  157.6374 N   0  0  0  0  0  0  0  0  0  0  0  0
  149.0940  137.5417  158.7065 C   0  0  0  0  0  0  0  0  0  0  0  0
  151.4229  137.5693  157.9819 C   0  0  0  0  0  0  0  0  0  0  0  0
  151.4661  140.0845  155.8569 C   0  0  0  0  0  0  0  0  0  0  0  0
  150.6715  141.3940  155.8391 C   0  0  0  0  0  0  0  0  0  0  0  0
  149.5700  141.1873  154.7979 C   0  0  0  0  0  0  0  0  0  0  0  0
  149.7367  139.7536  154.2751 C   0  0  0  0  0  0  0  0  0  0  0  0
  150.0539  132.5120  155.0332 N   0  0  0  0  0  0  0  0  0  0  0  0
  151.4175  130.2194  157.6991 H   0  0  0  0  0  0  0  0  0  0  0  0
  150.5394  131.7420  157.5955 H   0  0  0  0  0  0  0  0  0  0  0  0
  151.9668  131.4569  156.5745 H   0  0  0  0  0  0  0  0  0  0  0  0
  147.7135  130.8499  152.5239 H   0  0  0  0  0  0  0  0  0  0  0  0
  148.2072  133.3146  152.3151 H   0  0  0  0  0  0  0  0  0  0  0  0
  149.3313  135.1285  153.1338 H   0  0  0  0  0  0  0  0  0  0  0  0
  150.0690  136.9269  153.3926 H   0  0  0  0  0  0  0  0  0  0  0  0
  152.0010  137.3793  155.5810 H   0  0  0  0  0  0  0  0  0  0  0  0
  152.1338  138.1563  154.0567 H   0  0  0  0  0  0  0  0  0  0  0  0
  148.5181  138.4151  159.0169 H   0  0  0  0  0  0  0  0  0  0  0  0
  149.5968  137.1595  159.5960 H   0  0  0  0  0  0  0  0  0  0  0  0
  148.3969  136.7737  158.3681 H   0  0  0  0  0  0  0  0  0  0  0  0
  152.1372  137.6308  157.1683 H   0  0  0  0  0  0  0  0  0  0  0  0
  151.4850  136.5486  158.3609 H   0  0  0  0  0  0  0  0  0  0  0  0
  151.7720  138.2345  158.7720 H   0  0  0  0  0  0  0  0  0  0  0  0
  151.9085  139.8875  156.8345 H   0  0  0  0  0  0  0  0  0  0  0  0
  152.3059  140.1927  155.1687 H   0  0  0  0  0  0  0  0  0  0  0  0
  150.2276  141.5837  156.8171 H   0  0  0  0  0  0  0  0  0  0  0  0
  151.3088  142.2458  155.5995 H   0  0  0  0  0  0  0  0  0  0  0  0
  148.5928  141.3076  155.2673 H   0  0  0  0  0  0  0  0  0  0  0  0
  149.6336  141.9139  153.9873 H   0  0  0  0  0  0  0  0  0  0  0  0
  150.3139  139.7764  153.3497 H   0  0  0  0  0  0  0  0  0  0  0  0
  148.7605  139.3463  154.0213 H   0  0  0  0  0  0  0  0  0  0  0  0
  1  2  1  0  0  0  0
  1 24  1  0  0  0  0
  1 25  1  0  0  0  0
  1 26  1  0  0  0  0
  2  3  1  0  0  0  0
  3 23  1  0  0  0  0
  3  4  2  0  0  0  0
  4  5  1  0  0  0  0
  5  6  2  0  0  0  0
  5 27  1  0  0  0  0
  6  7  1  0  0  0  0
  6 28  1  0  0  0  0
  7  8  1  0  0  0  0
  7 23  2  0  0  0  0
  8  9  1  0  0  0  0
  8 29  1  0  0  0  0
  9 10  2  0  0  0  0
  9 11  1  0  0  0  0
 11 12  1  0  0  0  0
 11 30  1  0  0  0  0
 12 13  1  0  0  0  0
 12 31  1  0  0  0  0
 12 32  1  0  0  0  0
 13 22  1  0  0  0  0
 13 14  1  0  0  0  0
 13 19  1  0  0  0  0
 14 15  2  0  0  0  0
 14 16  1  0  0  0  0
 16 17  1  0  0  0  0
 16 18  1  0  0  0  0
 17 33  1  0  0  0  0
 17 34  1  0  0  0  0
 17 35  1  0  0  0  0
 18 36  1  0  0  0  0
 18 37  1  0  0  0  0
 18 38  1  0  0  0  0
 19 20  1  0  0  0  0
 19 39  1  0  0  0  0
 19 40  1  0  0  0  0
 20 21  1  0  0  0  0
 20 41  1  0  0  0  0
 20 42  1  0  0  0  0
 21 22  1  0  0  0  0
 21 43  1  0  0  0  0
 21 44  1  0  0  0  0
 22 45  1  0  0  0  0
 22 46  1  0  0  0  0
M  END
> <s_m_source_file>
AV-unprocessed.smi

> <i_m_source_file_index>
2602

> <i_lp_mmshare_version>
43012

> <i_f3d_flags>
0

> <s_epik_input>
W0NIM11PYzFuW2NIXVtjSF1jKG4xKVtOSF1DKD1PKVtOSF1bQ0gyXUMyKEMoPU8pTihbQ0gzXSlbQ0gzXSlbQ0gyXVtDSDJdW0NIMl1bQ0gyXTI=

> <s_epik_cmdline>
J2VwaWtfcHl0aG9uJywgJy1waCcsICc3LjAnLCAnLXRuJywgJzgnLCAnLW1hJywgJzIwMCcsICctbWV0YWxfYmluZGluZycsICctaW1hZScsICc8aW5maWxlLm1hZT4nLCAnLW9tYWUnLCAnPG91dGZpbGUubWFlPic=

> <r_lp_tautomer_probability>
1

> <r_epik_Ionization_Penalty>
0.00154328

> <r_epik_Ionization_Penalty_Charging>
0

> <r_epik_Ionization_Penalty_Neutral>
0.00154328

> <r_epik_State_Penalty>
-0

> <r_epik_Charging_Adjusted_Penalty>
0

> <i_epik_Tot_Q>
0

> <i_epik_Tot_abs_Q>
0

> <r_epik_Metal_State_Penalty>
-0

> <b_epik_Metal_Only>
0

> <s_lp_Force_Field>
OPLS_2005

> <r_lp_Energy>
36.1441

> <b_lp_Chiralities_Consistent>
1

> <s_lp_Variant>
AV-unprocessed.smi:2602-1

> <Gold.Version>
5.8.1

> <Gold.Id.Protein>
6NUR|6NUR_protein|mol2

> <Gold.PLP.Fitness>
44.0692

> <Gold.PLP.PLP>
-35.5328

> <Gold.PLP.part.hbond>
-4.4673

> <Gold.PLP.part.metal>
0.0000

> <Gold.PLP.part.buried>
-2.8099

> <Gold.PLP.part.nonpolar>
-29.6322

> <Gold.PLP.part.repulsive>
0.2194

> <Gold.PLP.ligand.clash>
0.0000

> <Gold.PLP.ligand.torsion>
0.1104

> <Gold.PLP.Chemscore.Hbond>
2.8560

> <Gold.PLP.Chemscore.CHOScore>
0.0000

> <Gold.PLP.Chemscore.Metal>
0.0000

> <Gold.Chemscore.Hbonds>
donor molecule, donor type, donor heavy atom, donor atom, acceptor molecule, acceptor atom, score
      L1  H     8    29       P1  7948  0.55
      L1  H    11    30       P1  7948  0.80
      P1  H 10752 10764       L1    10  0.72
      L1  C     5    27       P1 10747  0.45

> <Gold.PLP.Chemscore.Internal.Correction>
0.1892

> <Gold.Rescore>
     Score         DG    S(hbond)    S(metal)    S(lipo)     H(rot)  DE(clash)    DE(int)     intcor
     12.48     -14.07       1.89        0.00      61.24       1.91       0.07       1.53       ----

> <Gold.Chemscore.Fitness>
12.4808

> <Gold.Chemscore.DG>
-14.0745

> <Gold.Chemscore.ZeroCoef>
-5.4800

> <Gold.Chemscore.Hbond>
1.8898

> <Gold.Chemscore.Metal>
0.0000

> <Gold.Chemscore.Lipo>
61.2398

> <Gold.Chemscore.Internal_Hbond>
0.0000

> <Gold.Chemscore.DEClash>
0.0673

> <Gold.Chemscore.DEInternal>
1.5264

> <Gold.Chemscore.Rot>
1.9072

> <Gold.Chemscore.Internal.Correction>
   9.000000E+99

> <Gold.Chemscore.Hbonds>
donor molecule, donor type, donor heavy atom, donor atom, acceptor molecule, acceptor atom, score
      L1  H     8    29       P1  7948  0.03
      L1  H    11    30       P1  7948  0.13
      P1  H 10752 10764       L1    10  0.10

> <Gold.Chemscore.Hbond.Weighted>
-6.3118

> <Gold.Chemscore.Metal.Weighted>
-0.0000

> <Gold.Chemscore.Lipo.Weighted>
-7.1651

> <Gold.Chemscore.Internal_Hbond.Weighted>
0.0000

> <Gold.Chemscore.DEClash.Weighted>
0.0673

> <Gold.Chemscore.DEInternal.Weighted>
1.5264

> <Gold.Chemscore.Rot.Weighted>
4.8824

> <Gold.Chemscore.Internal.Correction.Weighted>
   9.000000E+99

> <Gold.Protein.RotatedTorsions>
[ 6907 6896 6895 6894 ] final   30.13 input  -60.11 | X-H torsion
[ 7974 7965 7964 7962 ] final   29.57 input  175.53 | X-H torsion
[ 8008 7997 7996 7995 ] final   75.77 input   59.86 | X-H torsion
[ 10167 10162 10161 10158 ] final   80.85 input  -65.29 | X-H torsion
[ 10718 10713 10712 10709 ] final   -2.75 input   66.30 | X-H torsion
[ 10763 10752 10751 10750 ] final  -36.95 input  -60.55 | X-H torsion
[ 11005 11000 10999 10996 ] final -133.92 input  -57.11 | X-H torsion

> <Gold.Protein.ActiveResidues>
 VAL166  LYS551  ARG553  GLY616  TRP617  ASP618  TYR619  PRO620  LYS621  CYS622 
 ASP623  PHE694  ASN695  SER759  ASP760  ASP761  ALA762  ILE779  LEU786  VAL792 
 PHE793  MET794  SER795  GLU796  ALA797  LYS798  CYS799  TRP800  GLU811  SER814 

> <Gold.Protein.RotatedAtoms>
  152.0415  134.9708  160.0573 H   0  0  0  0  0  0  0  0  0  0  0  0  # atno 6907 bound_to 6896
  152.1145  133.4314  159.4655 H   0  0  0  0  0  0  0  0  0  0  0  0  # atno 6908 bound_to 6896
  150.6845  134.2527  159.4560 H   0  0  0  0  0  0  0  0  0  0  0  0  # atno 6909 bound_to 6896
  146.1663  139.6904  142.8998 H   0  0  0  0  0  0  0  0  0  0  0  0  # atno 7974 bound_to 7965
  155.8177  140.3471  155.5495 H   0  0  0  0  0  0  0  0  0  0  0  0  # atno 8008 bound_to 7997
  155.8374  140.0936  157.1775 H   0  0  0  0  0  0  0  0  0  0  0  0  # atno 8009 bound_to 7997
  154.4004  140.1401  156.3675 H   0  0  0  0  0  0  0  0  0  0  0  0  # atno 8010 bound_to 7997
  139.9454  144.6061  150.8211 H   0  0  0  0  0  0  0  0  0  0  0  0  # atno 10167 bound_to 10162
  156.7863  130.5347  149.5743 H   0  0  0  0  0  0  0  0  0  0  0  0  # atno 10718 bound_to 10713
  153.8882  135.6815  153.4762 H   0  0  0  0  0  0  0  0  0  0  0  0  # atno 10763 bound_to 10752
  153.1195  135.4746  154.9170 H   0  0  0  0  0  0  0  0  0  0  0  0  # atno 10764 bound_to 10752
  154.7635  135.3217  154.8284 H   0  0  0  0  0  0  0  0  0  0  0  0  # atno 10765 bound_to 10752
  140.9037  134.1657  157.4441 H   0  0  0  0  0  0  0  0  0  0  0  0  # atno 11005 bound_to 11000
  145.4457  141.0425  143.2832 LP  0  0  0  0  0  0  0  0  0  0  0  0  # atno 17320 bound_to 7965
  144.8098  139.5984  143.7034 LP  0  0  0  0  0  0  0  0  0  0  0  0  # atno 17321 bound_to 7965
  140.7598  143.3138  151.2782 LP  0  0  0  0  0  0  0  0  0  0  0  0  # atno 17342 bound_to 10162
  139.6670  144.0087  152.2729 LP  0  0  0  0  0  0  0  0  0  0  0  0  # atno 17343 bound_to 10162
  156.1187  130.6094  151.0160 LP  0  0  0  0  0  0  0  0  0  0  0  0  # atno 17370 bound_to 10713
  157.6622  131.0878  150.7811 LP  0  0  0  0  0  0  0  0  0  0  0  0  # atno 17371 bound_to 10713
  139.8746  134.9908  156.5521 LP  0  0  0  0  0  0  0  0  0  0  0  0  # atno 17394 bound_to 11000
  140.8197  133.8363  155.8885 LP  0  0  0  0  0  0  0  0  0  0  0  0  # atno 17395 bound_to 11000

$$$$
