#       Name:                AV-unprocessed.smi:2823
#       Creating user name   scv26
#       Creation time:       Fri Mar 27 15:32:41 2020


#       File generated by GOLD software.
#

@<TRIPOS>MOLECULE
AV-unprocessed.smi:2823
    50    51     1
SMALL
NO_CHARGES


@<TRIPOS>ATOM
      1 ****        -4.1817   4.2307  -3.8238 C.3            1 S1                 0.0000
      2 ****        -2.9833   3.6386  -3.1644 C.2            1 S1                 0.0000
      3 ****        -1.9428   3.2240  -3.8717 N.2            1 S1                 0.0000
      4 ****        -1.0587   2.7546  -2.8903 O.3            1 S1                 0.0000
      5 ****        -1.6742   2.9360  -1.6929 C.2            1 S1                 0.0000
      6 ****        -1.0783   2.5869  -0.5409 N.pl3          1 S1                -1.0000
      7 ****        -1.1634   1.3121  -0.0987 C.2            1 S1                 0.0000
      8 ****        -1.7745   0.3913  -0.6447 O.2            1 S1                 0.0000
      9 ****        -0.4940   1.0921   1.0426 N.am           1 S1                 0.0000
     10 ****        -0.3750  -0.1793   1.7594 C.3            1 S1                 0.0000
     11 ****         1.0279  -0.8426   1.5932 C.3            1 S1                 0.0000
     12 ****         1.3664  -1.1635   0.0978 C.2            1 S1                 0.0000
     13 ****         2.3711  -0.6428  -0.3939 O.2            1 S1                 0.0000
     14 ****         0.5831  -1.9713  -0.6682 N.am           1 S1                 0.0000
     15 ****         0.8915  -2.1318  -2.0928 C.3            1 S1                 0.0000
     16 ****        -0.5941  -2.7429  -0.2566 C.3            1 S1                 0.0000
     17 ****         2.0853   0.1123   2.2162 C.3            1 S1                 0.0000
     18 ****         3.2929  -0.7415   2.6172 C.3            1 S1                 0.0000
     19 ****         2.7450  -2.1562   2.8140 C.3            1 S1                 0.0000
     20 ****         1.2454  -2.0841   2.4943 C.3            1 S1                 0.0000
     21 ****        -2.8782   3.4966  -1.8162 N.2            1 S1                 0.0000
     22 ****        -4.3192   3.8115  -4.8212 H              1 S1                 0.0000
     23 ****        -4.0647   5.3107  -3.9133 H              1 S1                 0.0000
     24 ****        -5.0788   4.0259  -3.2389 H              1 S1                 0.0000
     25 ****        -0.0104   1.8812   1.4456 H              1 S1                 0.0000
     26 ****        -0.5447   0.0452   2.8128 H              1 S1                 0.0000
     27 ****        -1.1949  -0.8434   1.4982 H              1 S1                 0.0000
     28 ****         1.8641  -2.6079  -2.2253 H              1 S1                 0.0000
     29 ****         0.9120  -1.1626  -2.5941 H              1 S1                 0.0000
     30 ****         0.1529  -2.7436  -2.6126 H              1 S1                 0.0000
     31 ****        -0.7600  -2.8132   0.8127 H              1 S1                 0.0000
     32 ****        -0.5114  -3.7688  -0.6167 H              1 S1                 0.0000
     33 ****        -1.4926  -2.3118  -0.6983 H              1 S1                 0.0000
     34 ****         2.3678   0.9428   1.5675 H              1 S1                 0.0000
     35 ****         1.6816   0.5688   3.1213 H              1 S1                 0.0000
     36 ****         4.0420  -0.7388   1.8248 H              1 S1                 0.0000
     37 ****         3.7711  -0.3579   3.5189 H              1 S1                 0.0000
     38 ****         3.2447  -2.8422   2.1287 H              1 S1                 0.0000
     39 ****         2.9173  -2.5236   3.8261 H              1 S1                 0.0000
     40 ****         0.6879  -1.9628   3.4240 H              1 S1                 0.0000
     41 ****         0.9231  -3.0280   2.0601 H              1 S1                 0.0000
     42 ****        -1.8183   3.2416  -4.8638 LP             1 S1                 0.0000
     43 ****        -0.2036   3.2723  -2.9204 LP             1 S1                 0.0000
     44 ****        -0.8660   1.7841  -3.0355 LP             1 S1                 0.0000
     45 ****        -0.5728   3.2683  -0.0115 LP             1 S1                 0.0000
     46 ****        -2.2691   0.5562  -1.4980 LP             1 S1                 0.0000
     47 ****        -1.7756  -0.5206  -0.2343 LP             1 S1                 0.0000
     48 ****         2.9417  -0.0362   0.1597 LP             1 S1                 0.0000
     49 ****         2.6149  -0.8274  -1.3460 LP             1 S1                 0.0000
     50 ****        -3.5329   3.7471  -1.1030 LP             1 S1                 0.0000
@<TRIPOS>BOND
    1    1    2 1     
    2    1   22 1     
    3    1   23 1     
    4    1   24 1     
    5    2   21 1     
    6    2    3 2     
    7    3    4 1     
    8    4    5 1     
    9    5    6 1     
   10    5   21 2     
   11    6    7 1     
   12    7    8 2     
   13    7    9 am    
   14    9   10 1     
   15    9   25 1     
   16   10   11 1     
   17   10   26 1     
   18   10   27 1     
   19   11   20 1     
   20   11   12 1     
   21   11   17 1     
   22   12   13 2     
   23   12   14 am    
   24   14   15 1     
   25   14   16 1     
   26   15   28 1     
   27   15   29 1     
   28   15   30 1     
   29   16   31 1     
   30   16   32 1     
   31   16   33 1     
   32   17   18 1     
   33   17   34 1     
   34   17   35 1     
   35   18   19 1     
   36   18   36 1     
   37   18   37 1     
   38   19   20 1     
   39   19   38 1     
   40   19   39 1     
   41   20   40 1     
   42   20   41 1     
   43    3   42 1     
   44    4   43 1     
   45    4   44 1     
   46    6   45 1     
   47    8   46 1     
   48    8   47 1     
   49   13   48 1     
   50   13   49 1     
   51   21   50 1     
@<TRIPOS>SUBSTRUCTURE
      1 S1             1
@<TRIPOS>SET
LONE_PAIRS      STATIC     ATOMS    <user>   **** ""
9 42 43 44 45 46 47 48 49 50
DONOR_HYDROGENS      STATIC     ATOMS    <user>   **** ""
1 25
ATOM$BLUE        STATIC     ATOMS    COLORGROUP SYSTEM
9 42 43 44 45 46 47 48 49 50
ATOM$RED        STATIC     ATOMS    COLORGROUP SYSTEM
1 25
