#       Name:                AV-unprocessed.smi:2299
#       Creating user name   scv26
#       Creation time:       Fri Mar 27 12:44:56 2020


#       File generated by GOLD software.
#

@<TRIPOS>MOLECULE
AV-unprocessed.smi:2299
    47    48     1
SMALL
NO_CHARGES


@<TRIPOS>ATOM
      1 ****        -3.8706  -3.2304   0.8060 C.3            1 S1                 0.0000
      2 ****        -3.0410  -2.5715  -0.3055 C.3            1 S1                 0.0000
      3 ****        -3.6107  -2.8936  -1.6966 C.3            1 S1                 0.0000
      4 ****        -1.5864  -2.9372  -0.1886 C.2            1 S1                 0.0000
      5 ****        -1.0059  -3.9957  -0.7688 N.pl3          1 S1                 1.0000
      6 ****         0.3201  -4.0589  -0.4410 C.2            1 S1                 0.0000
      7 ****         0.5605  -3.0021   0.3957 C.2            1 S1                 0.0000
      8 ****        -0.6303  -2.3364   0.5459 N.pl3          1 S1                 0.0000
      9 ****        -0.8403  -1.1366   1.3687 C.3            1 S1                 0.0000
     10 ****        -0.4902   0.1306   0.5879 C.2            1 S1                 0.0000
     11 ****        -1.2021   0.4952  -0.3474 O.2            1 S1                 0.0000
     12 ****         0.6204   0.7805   0.9713 N.am           1 S1                 0.0000
     13 ****         1.1711   1.9773   0.3317 C.3            1 S1                 0.0000
     14 ****         2.0314   2.7101   1.3869 C.3            1 S1                 0.0000
     15 ****         2.2514   4.2025   1.0858 C.3            1 S1                 0.0000
     16 ****         3.0700   4.4926  -0.1809 C.3            1 S1                 0.0000
     17 ****         2.4004   3.9974  -1.4738 C.3            1 S1                 0.0000
     18 ****         2.5553   2.5600  -1.6563 N.am           1 S1                 0.0000
     19 ****         2.0600   1.5892  -0.8737 C.2            1 S1                 0.0000
     20 ****         2.3131   0.4080  -1.1131 O.2            1 S1                 0.0000
     21 ****        -3.5056  -2.9482   1.7938 H              1 S1                 0.0000
     22 ****        -3.8325  -4.3181   0.7367 H              1 S1                 0.0000
     23 ****        -4.9168  -2.9296   0.7454 H              1 S1                 0.0000
     24 ****        -3.0949  -1.4903  -0.1820 H              1 S1                 0.0000
     25 ****        -3.0396  -2.3936  -2.4796 H              1 S1                 0.0000
     26 ****        -4.6451  -2.5597  -1.7820 H              1 S1                 0.0000
     27 ****        -3.5937  -3.9648  -1.9011 H              1 S1                 0.0000
     28 ****         0.9747  -4.8324  -0.8154 H              1 S1                 0.0000
     29 ****         1.4687  -2.6818   0.8856 H              1 S1                 0.0000
     30 ****        -1.8737  -1.0995   1.7126 H              1 S1                 0.0000
     31 ****        -0.2151  -1.2273   2.2584 H              1 S1                 0.0000
     32 ****         1.1447   0.4046   1.7479 H              1 S1                 0.0000
     33 ****         0.3504   2.6175   0.0024 H              1 S1                 0.0000
     34 ****         1.5304   2.6525   2.3546 H              1 S1                 0.0000
     35 ****         2.9910   2.2085   1.5252 H              1 S1                 0.0000
     36 ****         1.2858   4.7052   1.0175 H              1 S1                 0.0000
     37 ****         2.7609   4.6558   1.9366 H              1 S1                 0.0000
     38 ****         3.2077   5.5719  -0.2546 H              1 S1                 0.0000
     39 ****         4.0714   4.0697  -0.0886 H              1 S1                 0.0000
     40 ****         1.3462   4.2765  -1.5061 H              1 S1                 0.0000
     41 ****         2.8720   4.4818  -2.3291 H              1 S1                 0.0000
     42 ****         3.1214   2.2713  -2.4412 H              1 S1                 0.0000
     43 ****        -1.4850  -4.6518  -1.3727 H              1 S1                 0.0000
     44 ****        -2.0106  -0.0374  -0.5975 LP             1 S1                 0.0000
     45 ****        -0.9720   1.3241  -0.8572 LP             1 S1                 0.0000
     46 ****         1.9429  -0.3116  -0.5256 LP             1 S1                 0.0000
     47 ****         2.8888   0.1685  -1.8949 LP             1 S1                 0.0000
@<TRIPOS>BOND
    1    1    2 1     
    2    1   21 1     
    3    1   22 1     
    4    1   23 1     
    5    2    3 1     
    6    2    4 1     
    7    2   24 1     
    8    3   25 1     
    9    3   26 1     
   10    3   27 1     
   11    4    8 1     
   12    4    5 2     
   13    5    6 1     
   14    5   43 1     
   15    6    7 2     
   16    6   28 1     
   17    7    8 1     
   18    7   29 1     
   19    8    9 1     
   20    9   10 1     
   21    9   30 1     
   22    9   31 1     
   23   10   11 2     
   24   10   12 am    
   25   12   13 1     
   26   12   32 1     
   27   13   19 1     
   28   13   14 1     
   29   13   33 1     
   30   14   15 1     
   31   14   34 1     
   32   14   35 1     
   33   15   16 1     
   34   15   36 1     
   35   15   37 1     
   36   16   17 1     
   37   16   38 1     
   38   16   39 1     
   39   17   18 1     
   40   17   40 1     
   41   17   41 1     
   42   18   19 am    
   43   18   42 1     
   44   19   20 2     
   45   11   44 1     
   46   11   45 1     
   47   20   46 1     
   48   20   47 1     
@<TRIPOS>SUBSTRUCTURE
      1 S1             1
@<TRIPOS>SET
LONE_PAIRS      STATIC     ATOMS    <user>   **** ""
4 44 45 46 47
DONOR_HYDROGENS      STATIC     ATOMS    <user>   **** ""
3 43 32 42
ATOM$BLUE        STATIC     ATOMS    COLORGROUP SYSTEM
4 44 45 46 47
ATOM$RED        STATIC     ATOMS    COLORGROUP SYSTEM
3 43 32 42
