#       Name:                AV-unprocessed.smi:1431
#       Creating user name   scv26
#       Creation time:       Fri Mar 27 05:48:58 2020


#       File generated by GOLD software.
#

@<TRIPOS>MOLECULE
AV-unprocessed.smi:1431
    36    37     1
SMALL
NO_CHARGES


@<TRIPOS>ATOM
      1 ****         0.1781   1.8088  -0.2314 O.2            1 S1                 0.0000
      2 ****        -0.3142   0.8704  -0.8587 C.2            1 S1                 0.0000
      3 ****         0.4038  -0.1605  -1.3271 N.am           1 S1                 0.0000
      4 ****         1.8395  -0.3358  -1.1324 C.3            1 S1                 0.0000
      5 ****         2.1751  -0.8279   0.2894 C.3            1 S1                 0.0000
      6 ****         3.6877  -1.0224   0.5075 C.3            1 S1                 0.0000
      7 ****         3.8985  -1.7532   1.8376 C.3            1 S1                 0.0000
      8 ****         2.4701  -2.8871   2.0099 S.o2           1 S1                 0.0000
      9 ****         2.8700  -4.2458   1.6144 O.2            1 S1                 0.0000
     10 ****         1.8131  -2.6368   3.3016 O.2            1 S1                 0.0000
     11 ****         1.4746  -2.1456   0.6620 C.3            1 S1                 0.0000
     12 ****        -1.6179   0.7317  -1.1573 N.am           1 S1                 0.0000
     13 ****        -2.6944   1.5886  -0.8047 C.ar           1 S1                 0.0000
     14 ****        -3.9703   1.1528  -1.2286 C.ar           1 S1                 0.0000
     15 ****        -5.1042   1.9311  -0.9256 C.ar           1 S1                 0.0000
     16 ****        -4.9328   3.1273  -0.2066 C.ar           1 S1                 0.0000
     17 ****        -3.6283   3.4890   0.1773 C.ar           1 S1                 0.0000
     18 ****        -2.5404   2.7442  -0.1114 N.ar           1 S1                 0.0000
     19 ****        -0.0787  -0.8866  -1.8362 H              1 S1                 0.0000
     20 ****         2.1938  -1.0556  -1.8709 H              1 S1                 0.0000
     21 ****         2.3582   0.6011  -1.3424 H              1 S1                 0.0000
     22 ****         1.8492  -0.0726   1.0061 H              1 S1                 0.0000
     23 ****         4.0915  -1.6353  -0.2993 H              1 S1                 0.0000
     24 ****         4.2247  -0.0736   0.4864 H              1 S1                 0.0000
     25 ****         4.8337  -2.3119   1.8769 H              1 S1                 0.0000
     26 ****         3.8741  -1.0514   2.6716 H              1 S1                 0.0000
     27 ****         0.4454  -2.0022   0.9915 H              1 S1                 0.0000
     28 ****         1.4778  -2.8436  -0.1756 H              1 S1                 0.0000
     29 ****        -1.8734  -0.0920  -1.6811 H              1 S1                 0.0000
     30 ****        -4.0840   0.2305  -1.7798 H              1 S1                 0.0000
     31 ****        -6.0882   1.6150  -1.2392 H              1 S1                 0.0000
     32 ****        -5.7779   3.7511   0.0445 H              1 S1                 0.0000
     33 ****        -3.4530   4.3997   0.7305 H              1 S1                 0.0000
     34 ****         1.1610   1.8270  -0.0485 LP             1 S1                 0.0000
     35 ****        -0.4051   2.5526   0.0952 LP             1 S1                 0.0000
     36 ****        -1.6317   3.0407   0.1824 LP             1 S1                 0.0000
@<TRIPOS>BOND
    1    1    2 2     
    2    2    3 am    
    3    2   12 am    
    4    3    4 1     
    5    3   19 1     
    6    4    5 1     
    7    4   20 1     
    8    4   21 1     
    9    5   11 1     
   10    5    6 1     
   11    5   22 1     
   12    6    7 1     
   13    6   23 1     
   14    6   24 1     
   15    7    8 1     
   16    7   25 1     
   17    7   26 1     
   18    8    9 2     
   19    8   10 2     
   20    8   11 1     
   21   11   27 1     
   22   11   28 1     
   23   12   13 1     
   24   12   29 1     
   25   13   18 ar    
   26   13   14 ar    
   27   14   15 ar    
   28   14   30 1     
   29   15   16 ar    
   30   15   31 1     
   31   16   17 ar    
   32   16   32 1     
   33   17   18 ar    
   34   17   33 1     
   35    1   34 1     
   36    1   35 1     
   37   18   36 1     
@<TRIPOS>SUBSTRUCTURE
      1 S1             1
@<TRIPOS>SET
LONE_PAIRS      STATIC     ATOMS    <user>   **** ""
5 34 35 9 10 36
DONOR_HYDROGENS      STATIC     ATOMS    <user>   **** ""
2 19 29
ATOM$BLUE        STATIC     ATOMS    COLORGROUP SYSTEM
5 34 35 9 10 36
ATOM$RED        STATIC     ATOMS    COLORGROUP SYSTEM
2 19 29
