#       Name:                AV-unprocessed.smi:1973
#       Creating user name   scv26
#       Creation time:       Fri Mar 27 10:15:35 2020


#       File generated by GOLD software.
#

@<TRIPOS>MOLECULE
AV-unprocessed.smi:1973
    55    57     1
SMALL
NO_CHARGES


@<TRIPOS>ATOM
      1 ****        -2.6830   3.5020  -4.7400 C.3            1 S1                 0.0000
      2 ****        -2.0905   2.2156  -4.7502 O.3            1 S1                 0.0000
      3 ****        -2.2448   1.5347  -3.5161 C.3            1 S1                 0.0000
      4 ****        -1.5702   0.1553  -3.5924 C.3            1 S1                 0.0000
      5 ****        -0.1082   0.2666  -3.6514 N.am           1 S1                 0.0000
      6 ****         0.4973   0.3661  -2.4093 N.2            1 S1                 0.0000
      7 ****         1.7828   0.4841  -2.3196 C.2            1 S1                 0.0000
      8 ****         2.4705   0.5964  -1.0032 C.2            1 S1                 0.0000
      9 ****         3.6952   0.6947  -0.9132 O.2            1 S1                 0.0000
     10 ****         1.6628   0.5815   0.0711 N.am           1 S1                 0.0000
     11 ****         2.1187   0.6735   1.4517 C.3            1 S1                 0.0000
     12 ****         0.9731   0.3673   2.4300 C.3            1 S1                 0.0000
     13 ****         1.3767   0.4345   3.9015 C.3            1 S1                 0.0000
     14 ****         0.3204  -0.4130   4.6213 C.3            1 S1                 0.0000
     15 ****        -0.3020  -1.2835   3.5964 N.4            1 S1                 1.0000
     16 ****        -0.3885  -2.7083   3.9809 C.3            1 S1                 0.0000
     17 ****        -1.5361  -3.4415   3.3286 C.3            1 S1                 0.0000
     18 ****        -1.6215  -3.0425   4.7859 C.3            1 S1                 0.0000
     19 ****         0.4043  -1.0487   2.3203 C.3            1 S1                 0.0000
     20 ****         2.6127   0.5104  -3.5117 C.2            1 S1                 0.0000
     21 ****         2.0080   0.4149  -4.7161 C.2            1 S1                 0.0000
     22 ****         0.5560   0.2862  -4.8467 C.2            1 S1                 0.0000
     23 ****        -0.0150   0.2046  -5.9336 O.2            1 S1                 0.0000
     24 ****        -2.5332   3.9809  -5.7076 H              1 S1                 0.0000
     25 ****        -2.2324   4.1376  -3.9766 H              1 S1                 0.0000
     26 ****        -3.7564   3.4407  -4.5564 H              1 S1                 0.0000
     27 ****        -1.8203   2.1215  -2.6998 H              1 S1                 0.0000
     28 ****        -3.3074   1.4078  -3.3046 H              1 S1                 0.0000
     29 ****        -1.8443  -0.4221  -2.7078 H              1 S1                 0.0000
     30 ****        -1.9664  -0.4117  -4.4364 H              1 S1                 0.0000
     31 ****         0.6679   0.5068  -0.0855 H              1 S1                 0.0000
     32 ****         2.9462  -0.0195   1.6140 H              1 S1                 0.0000
     33 ****         2.5039   1.6783   1.6308 H              1 S1                 0.0000
     34 ****         0.1627   1.0802   2.2662 H              1 S1                 0.0000
     35 ****         2.3601  -0.0174   4.0402 H              1 S1                 0.0000
     36 ****         1.4256   1.4561   4.2796 H              1 S1                 0.0000
     37 ****         0.7669  -0.9840   5.4369 H              1 S1                 0.0000
     38 ****        -0.4568   0.2203   5.0498 H              1 S1                 0.0000
     39 ****         0.5540  -3.2175   4.1750 H              1 S1                 0.0000
     40 ****        -2.1595  -2.8980   2.6209 H              1 S1                 0.0000
     41 ****        -1.3976  -4.4983   3.1096 H              1 S1                 0.0000
     42 ****        -1.5387  -3.8369   5.5248 H              1 S1                 0.0000
     43 ****        -2.3020  -2.2338   5.0472 H              1 S1                 0.0000
     44 ****        -0.2654  -1.1691   1.4680 H              1 S1                 0.0000
     45 ****         1.2178  -1.7688   2.2129 H              1 S1                 0.0000
     46 ****         3.6870   0.6045  -3.4456 H              1 S1                 0.0000
     47 ****         2.6128   0.4339  -5.6110 H              1 S1                 0.0000
     48 ****        -1.2450  -0.9439   3.4721 H              1 S1                 0.0000
     49 ****        -1.1139   2.3142  -4.9417 LP             1 S1                 0.0000
     50 ****        -2.5184   1.6716  -5.4719 LP             1 S1                 0.0000
     51 ****        -0.0606   0.3467  -1.5797 LP             1 S1                 0.0000
     52 ****         4.2584   0.7008  -1.7395 LP             1 S1                 0.0000
     53 ****         4.1262   0.7685  -0.0139 LP             1 S1                 0.0000
     54 ****        -1.0106   0.1193  -5.9702 LP             1 S1                 0.0000
     55 ****         0.5167   0.2237  -6.7804 LP             1 S1                 0.0000
@<TRIPOS>BOND
    1    1    2 1     
    2    1   24 1     
    3    1   25 1     
    4    1   26 1     
    5    2    3 1     
    6    3    4 1     
    7    3   27 1     
    8    3   28 1     
    9    4    5 1     
   10    4   29 1     
   11    4   30 1     
   12    5   22 am    
   13    5    6 1     
   14    6    7 2     
   15    7    8 1     
   16    7   20 1     
   17    8    9 2     
   18    8   10 am    
   19   10   11 1     
   20   10   31 1     
   21   11   12 1     
   22   11   32 1     
   23   11   33 1     
   24   12   19 1     
   25   12   13 1     
   26   12   34 1     
   27   13   14 1     
   28   13   35 1     
   29   13   36 1     
   30   14   15 1     
   31   14   37 1     
   32   14   38 1     
   33   15   16 1     
   34   15   19 1     
   35   15   48 1     
   36   16   18 1     
   37   16   17 1     
   38   16   39 1     
   39   17   18 1     
   40   17   40 1     
   41   17   41 1     
   42   18   42 1     
   43   18   43 1     
   44   19   44 1     
   45   19   45 1     
   46   20   21 2     
   47   20   46 1     
   48   21   22 1     
   49   21   47 1     
   50   22   23 2     
   51    2   49 1     
   52    2   50 1     
   53    6   51 1     
   54    9   52 1     
   55    9   53 1     
   56   23   54 1     
   57   23   55 1     
@<TRIPOS>SUBSTRUCTURE
      1 S1             1
@<TRIPOS>SET
LONE_PAIRS      STATIC     ATOMS    <user>   **** ""
7 49 50 51 52 53 54 55
DONOR_HYDROGENS      STATIC     ATOMS    <user>   **** ""
2 31 48
ATOM$BLUE        STATIC     ATOMS    COLORGROUP SYSTEM
7 49 50 51 52 53 54 55
ATOM$RED        STATIC     ATOMS    COLORGROUP SYSTEM
2 31 48
