AV-unprocessed.smi:1762|AV-procd|sdf|7100|dock10
  -GOLD-   22720 8323D 1   1.00000     0.00000
 Structure written by MMmdl.
 52 53  0  0  0  0  0  0  0  0  1 V2000
  147.1810  142.3267  154.0197 C   0  0  0  0  0  0  0  0  0  0  0  0
  148.4434  141.5937  154.4875 C   0  0  2  0  0  0  0  0  0  0  0  0
  148.2959  140.0617  154.4075 C   0  0  0  0  0  0  0  0  0  0  0  0
  149.4706  139.3489  154.9242 N   0  0  0  0  0  0  0  0  0  0  0  0
  149.3436  137.8675  154.8243 C   0  0  2  0  0  0  0  0  0  0  0  0
  148.4535  137.2606  155.9349 C   0  0  0  0  0  0  0  0  0  0  0  0
  147.2347  137.1757  155.7798 O   0  0  0  0  0  0  0  0  0  0  0  0
  149.0820  136.8101  157.0325 N   0  0  0  0  0  0  0  0  0  0  0  0
  148.4271  136.1561  158.1589 C   0  0  0  0  0  0  0  0  0  0  0  0
  148.2343  137.1279  159.3356 C   0  0  0  0  0  0  0  0  0  0  0  0
  147.6352  136.4481  160.5518 C   0  0  0  0  0  0  0  0  0  0  0  0
  147.4769  135.0463  160.5874 C   0  0  0  0  0  0  0  0  0  0  0  0
  146.9117  134.4635  161.7381 C   0  0  0  0  0  0  0  0  0  0  0  0
  146.5267  135.3010  162.8025 C   0  0  0  0  0  0  0  0  0  0  0  0
  146.7250  136.6896  162.6683 C   0  0  0  0  0  0  0  0  0  0  0  0
  147.2667  137.2585  161.5696 N   0  0  0  0  0  0  0  0  0  0  0  0
  150.6982  137.0904  154.7095 C   0  0  0  0  0  0  0  0  0  0  0  0
  150.5273  135.5578  154.7188 C   0  0  0  0  0  0  0  0  0  0  0  0
  151.7561  137.5185  155.7457 C   0  0  0  0  0  0  0  0  0  0  0  0
  149.7527  139.8407  156.2846 C   0  0  0  0  0  0  0  0  0  0  0  0
  149.8846  141.3741  156.3523 C   0  0  2  0  0  0  0  0  0  0  0  0
  150.0859  141.8767  157.7863 C   0  0  0  0  0  0  0  0  0  0  0  0
  148.7018  141.9694  155.8341 O   0  0  0  0  0  0  0  0  0  0  0  0
  146.9470  142.0836  152.9830 H   0  0  0  0  0  0  0  0  0  0  0  0
  147.3115  143.4070  154.0858 H   0  0  0  0  0  0  0  0  0  0  0  0
  146.3187  142.0571  154.6303 H   0  0  0  0  0  0  0  0  0  0  0  0
  149.2809  141.9122  153.8638 H   0  0  0  0  0  0  0  0  0  0  0  0
  147.4035  139.7505  154.9531 H   0  0  0  0  0  0  0  0  0  0  0  0
  148.1265  139.8173  153.3608 H   0  0  0  0  0  0  0  0  0  0  0  0
  148.8160  137.6673  153.8891 H   0  0  0  0  0  0  0  0  0  0  0  0
  150.0854  136.9114  157.0813 H   0  0  0  0  0  0  0  0  0  0  0  0
  147.4602  135.7830  157.8198 H   0  0  0  0  0  0  0  0  0  0  0  0
  149.0042  135.2846  158.4728 H   0  0  0  0  0  0  0  0  0  0  0  0
  149.1886  137.5764  159.6158 H   0  0  0  0  0  0  0  0  0  0  0  0
  147.5867  137.9533  159.0358 H   0  0  0  0  0  0  0  0  0  0  0  0
  147.7796  134.4307  159.7529 H   0  0  0  0  0  0  0  0  0  0  0  0
  146.7756  133.3940  161.8025 H   0  0  0  0  0  0  0  0  0  0  0  0
  146.0895  134.8894  163.7001 H   0  0  0  0  0  0  0  0  0  0  0  0
  146.4409  137.3612  163.4647 H   0  0  0  0  0  0  0  0  0  0  0  0
  151.1172  137.2988  153.7266 H   0  0  0  0  0  0  0  0  0  0  0  0
  150.2089  135.1853  155.6929 H   0  0  0  0  0  0  0  0  0  0  0  0
  151.4672  135.0614  154.4759 H   0  0  0  0  0  0  0  0  0  0  0  0
  149.7910  135.2394  153.9805 H   0  0  0  0  0  0  0  0  0  0  0  0
  151.4665  137.2478  156.7606 H   0  0  0  0  0  0  0  0  0  0  0  0
  151.9271  138.5949  155.7233 H   0  0  0  0  0  0  0  0  0  0  0  0
  152.7126  137.0360  155.5434 H   0  0  0  0  0  0  0  0  0  0  0  0
  148.9638  139.5125  156.9638 H   0  0  0  0  0  0  0  0  0  0  0  0
  150.6857  139.4309  156.6702 H   0  0  0  0  0  0  0  0  0  0  0  0
  150.7363  141.6933  155.7487 H   0  0  0  0  0  0  0  0  0  0  0  0
  150.9900  141.4558  158.2267 H   0  0  0  0  0  0  0  0  0  0  0  0
  149.2441  141.6017  158.4225 H   0  0  0  0  0  0  0  0  0  0  0  0
  150.1798  142.9626  157.8092 H   0  0  0  0  0  0  0  0  0  0  0  0
  1  2  1  0  0  0  0
  1 24  1  0  0  0  0
  1 25  1  0  0  0  0
  1 26  1  0  0  0  0
  2 23  1  0  0  0  0
  2  3  1  0  0  0  0
  2 27  1  0  0  0  0
  3  4  1  0  0  0  0
  3 28  1  0  0  0  0
  3 29  1  0  0  0  0
  4  5  1  0  0  0  0
  4 20  1  0  0  0  0
  5  6  1  0  0  0  0
  5 17  1  0  0  0  0
  5 30  1  0  0  0  0
  6  7  2  0  0  0  0
  6  8  1  0  0  0  0
  8  9  1  0  0  0  0
  8 31  1  0  0  0  0
  9 10  1  0  0  0  0
  9 32  1  0  0  0  0
  9 33  1  0  0  0  0
 10 11  1  0  0  0  0
 10 34  1  0  0  0  0
 10 35  1  0  0  0  0
 11 16  1  0  0  0  0
 11 12  2  0  0  0  0
 12 13  1  0  0  0  0
 12 36  1  0  0  0  0
 13 14  2  0  0  0  0
 13 37  1  0  0  0  0
 14 15  1  0  0  0  0
 14 38  1  0  0  0  0
 15 16  2  0  0  0  0
 15 39  1  0  0  0  0
 17 18  1  0  0  0  0
 17 19  1  0  0  0  0
 17 40  1  0  0  0  0
 18 41  1  0  0  0  0
 18 42  1  0  0  0  0
 18 43  1  0  0  0  0
 19 44  1  0  0  0  0
 19 45  1  0  0  0  0
 19 46  1  0  0  0  0
 20 21  1  0  0  0  0
 20 47  1  0  0  0  0
 20 48  1  0  0  0  0
 21 22  1  0  0  0  0
 21 23  1  0  0  0  0
 21 49  1  0  0  0  0
 22 50  1  0  0  0  0
 22 51  1  0  0  0  0
 22 52  1  0  0  0  0
M  END
> <s_m_source_file>
AV-unprocessed.smi

> <i_m_source_file_index>
1762

> <i_lp_mmshare_version>
43012

> <i_f3d_flags>
0

> <s_epik_input>
W0NIM11bQ0BASF0xW0NIMl1OKFtDSDJdW0NASF0oTzEpW0NIM10pW0NAQEhdKFtDSF0oW0NIM10pW0NIM10pQyg9TylbTkhdW0NIMl1bQ0gyXWMyW2NIXVtjSF1bY0hdW2NIXW4y

> <s_epik_cmdline>
J2VwaWtfcHl0aG9uJywgJy1waCcsICc3LjAnLCAnLXRuJywgJzgnLCAnLW1hJywgJzIwMCcsICctbWV0YWxfYmluZGluZycsICctaW1hZScsICc8aW5maWxlLm1hZT4nLCAnLW9tYWUnLCAnPG91dGZpbGUubWFlPic=

> <r_epik_Ionization_Penalty>
0.0399736

> <r_epik_Ionization_Penalty_Charging>
0

> <r_epik_Ionization_Penalty_Neutral>
0.0399736

> <r_epik_State_Penalty>
0.0317634

> <r_epik_Charging_Adjusted_Penalty>
0.0317634

> <i_epik_Tot_Q>
0

> <i_epik_Tot_abs_Q>
0

> <r_epik_Metal_State_Penalty>
0.0307795

> <b_epik_Metal_Only>
0

> <s_lp_Force_Field>
OPLS_2005

> <r_lp_Energy>
25.9705

> <b_lp_Chiralities_Consistent>
1

> <s_lp_Variant>
AV-unprocessed.smi:1762-2

> <Gold.Version>
5.8.1

> <Gold.Id.Protein>
6NUR|6NUR_protein|mol2

> <Gold.PLP.Fitness>
40.0216

> <Gold.PLP.PLP>
-37.4593

> <Gold.PLP.part.hbond>
-2.0000

> <Gold.PLP.part.metal>
0.0000

> <Gold.PLP.part.buried>
-4.1640

> <Gold.PLP.part.nonpolar>
-34.0200

> <Gold.PLP.part.repulsive>
2.1396

> <Gold.PLP.ligand.clash>
0.0000

> <Gold.PLP.ligand.torsion>
1.4845

> <Gold.PLP.Chemscore.Hbond>
1.7200

> <Gold.PLP.Chemscore.CHOScore>
0.0000

> <Gold.PLP.Chemscore.Metal>
0.0000

> <Gold.Chemscore.Hbonds>
donor molecule, donor type, donor heavy atom, donor atom, acceptor molecule, acceptor atom, score
      P1  H  6931  6943       L1    16  0.81
      P1  H  6934  6947       L1    16  0.91

> <Gold.PLP.Chemscore.Internal.Correction>
0.3712

> <Gold.Rescore>
     Score         DG    S(hbond)    S(metal)    S(lipo)     H(rot)  DE(clash)    DE(int)     intcor
     13.56     -17.43       1.18        0.00     103.59       1.60       1.63       2.23       ----

> <Gold.Chemscore.Fitness>
13.5637

> <Gold.Chemscore.DG>
-17.4307

> <Gold.Chemscore.ZeroCoef>
-5.4800

> <Gold.Chemscore.Hbond>
1.1750

> <Gold.Chemscore.Metal>
0.0000

> <Gold.Chemscore.Lipo>
103.5919

> <Gold.Chemscore.Internal_Hbond>
0.0000

> <Gold.Chemscore.DEClash>
1.6341

> <Gold.Chemscore.DEInternal>
2.2330

> <Gold.Chemscore.Rot>
1.5993

> <Gold.Chemscore.Internal.Correction>
   9.000000E+99

> <Gold.Chemscore.Hbonds>
donor molecule, donor type, donor heavy atom, donor atom, acceptor molecule, acceptor atom, score
      P1  H  6931  6943       L1    16  0.20
      P1  H  6934  6947       L1    16  0.63

> <Gold.Chemscore.Hbond.Weighted>
-3.9245

> <Gold.Chemscore.Metal.Weighted>
-0.0000

> <Gold.Chemscore.Lipo.Weighted>
-12.1203

> <Gold.Chemscore.Internal_Hbond.Weighted>
0.0000

> <Gold.Chemscore.DEClash.Weighted>
1.6341

> <Gold.Chemscore.DEInternal.Weighted>
2.2330

> <Gold.Chemscore.Rot.Weighted>
4.0941

> <Gold.Chemscore.Internal.Correction.Weighted>
   9.000000E+99

> <Gold.Protein.RotatedTorsions>
[ 6907 6896 6895 6894 ] final  -26.43 input  -60.11 | X-H torsion
[ 7974 7965 7964 7962 ] final  118.11 input  175.53 | X-H torsion
[ 8008 7997 7996 7995 ] final   54.88 input   59.86 | X-H torsion
[ 10167 10162 10161 10158 ] final  -80.07 input  -65.29 | X-H torsion
[ 10718 10713 10712 10709 ] final  154.97 input   66.30 | X-H torsion
[ 10763 10752 10751 10750 ] final -164.90 input  -60.55 | X-H torsion
[ 11005 11000 10999 10996 ] final -105.07 input  -57.11 | X-H torsion

> <Gold.Protein.ActiveResidues>
 VAL166  LYS551  ARG553  GLY616  TRP617  ASP618  TYR619  PRO620  LYS621  CYS622 
 ASP623  PHE694  ASN695  SER759  ASP760  ASP761  ALA762  ILE779  LEU786  VAL792 
 PHE793  MET794  SER795  GLU796  ALA797  LYS798  CYS799  TRP800  GLU811  SER814 

> <Gold.Protein.RotatedAtoms>
  151.1610  135.0273  159.8710 H   0  0  0  0  0  0  0  0  0  0  0  0  # atno 6907 bound_to 6896
  152.5451  134.1279  159.8436 H   0  0  0  0  0  0  0  0  0  0  0  0  # atno 6908 bound_to 6896
  151.1374  133.4948  159.2630 H   0  0  0  0  0  0  0  0  0  0  0  0  # atno 6909 bound_to 6896
  145.1592  139.3165  143.4526 H   0  0  0  0  0  0  0  0  0  0  0  0  # atno 7974 bound_to 7965
  155.4920  140.3472  155.4356 H   0  0  0  0  0  0  0  0  0  0  0  0  # atno 8008 bound_to 7997
  156.0970  140.1425  156.9546 H   0  0  0  0  0  0  0  0  0  0  0  0  # atno 8009 bound_to 7997
  154.4670  140.0914  156.7023 H   0  0  0  0  0  0  0  0  0  0  0  0  # atno 8010 bound_to 7997
  140.4536  143.2475  151.8452 H   0  0  0  0  0  0  0  0  0  0  0  0  # atno 10167 bound_to 10162
  157.2245  131.0726  151.1891 H   0  0  0  0  0  0  0  0  0  0  0  0  # atno 10718 bound_to 10713
  154.6984  135.2983  154.9377 H   0  0  0  0  0  0  0  0  0  0  0  0  # atno 10763 bound_to 10752
  154.0317  135.6669  153.4785 H   0  0  0  0  0  0  0  0  0  0  0  0  # atno 10764 bound_to 10752
  153.0663  135.5086  154.8115 H   0  0  0  0  0  0  0  0  0  0  0  0  # atno 10765 bound_to 10752
  141.1071  133.8776  157.1689 H   0  0  0  0  0  0  0  0  0  0  0  0  # atno 11005 bound_to 11000
  146.3484  140.1695  142.8590 LP  0  0  0  0  0  0  0  0  0  0  0  0  # atno 17320 bound_to 7965
  145.0349  140.8900  143.5087 LP  0  0  0  0  0  0  0  0  0  0  0  0  # atno 17321 bound_to 7965
  139.4799  144.5091  151.8957 LP  0  0  0  0  0  0  0  0  0  0  0  0  # atno 17342 bound_to 10162
  140.4178  144.2284  150.5887 LP  0  0  0  0  0  0  0  0  0  0  0  0  # atno 17343 bound_to 10162
  157.3541  130.7097  149.6459 LP  0  0  0  0  0  0  0  0  0  0  0  0  # atno 17370 bound_to 10713
  155.9680  130.4244  150.4606 LP  0  0  0  0  0  0  0  0  0  0  0  0  # atno 17371 bound_to 10713
  139.9946  135.0051  157.0053 LP  0  0  0  0  0  0  0  0  0  0  0  0  # atno 17394 bound_to 11000
  140.4874  134.1228  155.7227 LP  0  0  0  0  0  0  0  0  0  0  0  0  # atno 17395 bound_to 11000

$$$$
