AV-unprocessed.smi:3018|AV-procd|sdf|11482|dock3
  -GOLD-   2272016423D 1   1.00000     0.00000
 Structure written by MMmdl.
 44 45  0  0  0  0  0  0  0  0  2 V2000
  149.5397  138.4783  157.7732 C   0  0  0  0  0  0  0  0  0  0  0  0
  150.7488  139.3904  158.0161 C   0  0  0  0  0  0  0  0  0  0  0  0
  150.4946  140.8440  157.5765 C   0  0  1  0  0  0  0  0  0  0  0  0
  151.6086  141.6270  158.0017 O   0  0  0  0  0  0  0  0  0  0  0  0
  151.3638  142.5776  159.0349 C   0  0  0  0  0  0  0  0  0  0  0  0
  150.9077  143.8824  158.3595 C   0  0  0  0  0  0  0  0  0  0  0  0
  150.7008  145.0046  159.3895 C   0  0  0  0  0  0  0  0  0  0  0  0
  151.9732  145.2374  160.2197 C   0  0  0  0  0  0  0  0  0  0  0  0
  152.4444  143.9379  160.8916 C   0  0  0  0  0  0  0  0  0  0  0  0
  152.6453  142.8158  159.8599 C   0  0  0  0  0  0  0  0  0  0  0  0
  150.3451  140.9470  156.0507 C   0  0  0  0  0  0  0  0  0  0  0  0
  151.2231  140.5039  155.3099 O   0  0  0  0  0  0  0  0  0  0  0  0
  149.2332  141.5474  155.5987 N   0  0  0  0  0  0  0  0  0  0  0  0
  148.9031  141.7531  154.1937 C   0  0  0  0  0  0  0  0  0  0  0  0
  147.4145  141.4582  153.9159 C   0  0  0  0  0  0  0  0  0  0  0  0
  146.4404  142.0234  154.9403 C   0  0  0  0  0  0  0  0  0  0  0  0
  146.7134  142.6426  156.0300 N   0  0  0  0  0  0  0  0  0  0  0  0
  145.4401  142.9535  156.6093 N   0  5  0  0  0  0  0  0  0  0  0  0
  144.4934  142.4661  155.7711 C   0  0  0  0  0  0  0  0  0  0  0  0
  143.2704  142.5110  155.8829 O   0  0  0  0  0  0  0  0  0  0  0  0
  145.0951  141.8902  154.7359 N   0  0  0  0  0  0  0  0  0  0  0  0
  144.6549  141.4365  153.9495 H   0  0  0  0  0  0  0  0  0  0  0  0
  149.7560  137.4560  158.0840 H   0  0  0  0  0  0  0  0  0  0  0  0
  149.2697  138.4551  156.7171 H   0  0  0  0  0  0  0  0  0  0  0  0
  148.6688  138.8183  158.3344 H   0  0  0  0  0  0  0  0  0  0  0  0
  151.0153  139.3599  159.0737 H   0  0  0  0  0  0  0  0  0  0  0  0
  151.6042  138.9859  157.4727 H   0  0  0  0  0  0  0  0  0  0  0  0
  149.5778  141.1921  158.0542 H   0  0  0  0  0  0  0  0  0  0  0  0
  150.5628  142.2416  159.6947 H   0  0  0  0  0  0  0  0  0  0  0  0
  151.6508  144.1956  157.6249 H   0  0  0  0  0  0  0  0  0  0  0  0
  149.9824  143.7106  157.8086 H   0  0  0  0  0  0  0  0  0  0  0  0
  150.4136  145.9261  158.8826 H   0  0  0  0  0  0  0  0  0  0  0  0
  149.8737  144.7451  160.0517 H   0  0  0  0  0  0  0  0  0  0  0  0
  152.7642  145.6223  159.5749 H   0  0  0  0  0  0  0  0  0  0  0  0
  151.7903  146.0024  160.9749 H   0  0  0  0  0  0  0  0  0  0  0  0
  153.3738  144.1160  161.4330 H   0  0  0  0  0  0  0  0  0  0  0  0
  151.7094  143.6233  161.6336 H   0  0  0  0  0  0  0  0  0  0  0  0
  152.9476  141.9043  160.3745 H   0  0  0  0  0  0  0  0  0  0  0  0
  153.4665  143.0784  159.1917 H   0  0  0  0  0  0  0  0  0  0  0  0
  148.5673  141.8855  156.2780 H   0  0  0  0  0  0  0  0  0  0  0  0
  149.1327  142.7908  153.9493 H   0  0  0  0  0  0  0  0  0  0  0  0
  149.5477  141.1329  153.5680 H   0  0  0  0  0  0  0  0  0  0  0  0
  147.1367  141.8478  152.9360 H   0  0  0  0  0  0  0  0  0  0  0  0
  147.2650  140.3790  153.8693 H   0  0  0  0  0  0  0  0  0  0  0  0
  1  2  1  0  0  0  0
  1 23  1  0  0  0  0
  1 24  1  0  0  0  0
  1 25  1  0  0  0  0
  2  3  1  0  0  0  0
  2 26  1  0  0  0  0
  2 27  1  0  0  0  0
  3  4  1  0  0  0  0
  3 11  1  0  0  0  0
  3 28  1  0  0  0  0
  4  5  1  0  0  0  0
  5 10  1  0  0  0  0
  5  6  1  0  0  0  0
  5 29  1  0  0  0  0
  6  7  1  0  0  0  0
  6 30  1  0  0  0  0
  6 31  1  0  0  0  0
  7  8  1  0  0  0  0
  7 32  1  0  0  0  0
  7 33  1  0  0  0  0
  8  9  1  0  0  0  0
  8 34  1  0  0  0  0
  8 35  1  0  0  0  0
  9 10  1  0  0  0  0
  9 36  1  0  0  0  0
  9 37  1  0  0  0  0
 10 38  1  0  0  0  0
 10 39  1  0  0  0  0
 11 12  2  0  0  0  0
 11 13  1  0  0  0  0
 13 14  1  0  0  0  0
 13 40  1  0  0  0  0
 14 15  1  0  0  0  0
 14 41  1  0  0  0  0
 14 42  1  0  0  0  0
 15 16  1  0  0  0  0
 15 43  1  0  0  0  0
 15 44  1  0  0  0  0
 16 21  1  0  0  0  0
 16 17  2  0  0  0  0
 17 18  1  0  0  0  0
 18 19  1  0  0  0  0
 19 20  2  0  0  0  0
 19 21  1  0  0  0  0
 21 22  1  0  0  0  0
M  CHG  1  18  -1
M  END
> <s_m_source_file>
AV-unprocessed.smi

> <i_m_source_file_index>
3018

> <i_lp_mmshare_version>
43012

> <i_f3d_flags>
0

> <s_epik_input>
W0NIMl0xW0NIMl1bQ0gyXVtDSDJdW0NIMl1bQ0hdMU9bQ0BASF0oW0NIMl1bQ0gzXSlDKD1PKVtOSF1bQ0gyXVtDSDJdYzJuW25IXWMoPU8pW25IXTI=

> <s_epik_cmdline>
J2VwaWtfcHl0aG9uJywgJy1waCcsICc3LjAnLCAnLXRuJywgJzgnLCAnLW1hJywgJzIwMCcsICctbWV0YWxfYmluZGluZycsICctaW1hZScsICc8aW5maWxlLm1hZT4nLCAnLW9tYWUnLCAnPG91dGZpbGUubWFlPic=

> <r_lp_tautomer_probability>
1

> <r_epik_Ionization_Penalty>
14.1812

> <r_epik_Ionization_Penalty_Charging>
13.7758

> <r_epik_Ionization_Penalty_Neutral>
0.405355

> <r_epik_State_Penalty>
4.92413

> <r_epik_Charging_Adjusted_Penalty>
18.7

> <i_epik_Tot_Q>
-1

> <i_epik_Tot_abs_Q>
1

> <r_epik_Metal_State_Penalty>
1.32654

> <b_epik_Metal_Only>
1

> <s_lp_Force_Field>
OPLS_2005

> <r_lp_Energy>
19.6137

> <b_lp_Chiralities_Consistent>
1

> <s_lp_Variant>
AV-unprocessed.smi:3018-4

> <Gold.Version>
5.8.1

> <Gold.Id.Protein>
6NUR|6NUR_protein|mol2

> <Gold.PLP.Fitness>
40.7879

> <Gold.PLP.PLP>
-37.4282

> <Gold.PLP.part.hbond>
-2.3878

> <Gold.PLP.part.metal>
0.0000

> <Gold.PLP.part.buried>
-5.1033

> <Gold.PLP.part.nonpolar>
-30.7699

> <Gold.PLP.part.repulsive>
1.0916

> <Gold.PLP.ligand.clash>
0.0000

> <Gold.PLP.ligand.torsion>
1.3457

> <Gold.PLP.Chemscore.Hbond>
1.9280

> <Gold.PLP.Chemscore.CHOScore>
0.0000

> <Gold.PLP.Chemscore.Metal>
0.0000

> <Gold.Chemscore.Hbonds>
donor molecule, donor type, donor heavy atom, donor atom, acceptor molecule, acceptor atom, score
      L1  H    21    22       P1 10175  1.00
      P1  H  7989  7998       L1    12  0.93

> <Gold.PLP.Chemscore.Internal.Correction>
0.2671

> <Gold.Rescore>
     Score         DG    S(hbond)    S(metal)    S(lipo)     H(rot)  DE(clash)    DE(int)     intcor
     12.20     -14.81       1.90        0.00      90.53       2.98       0.19       2.42       ----

> <Gold.Chemscore.Fitness>
12.2022

> <Gold.Chemscore.DG>
-14.8108

> <Gold.Chemscore.ZeroCoef>
-5.4800

> <Gold.Chemscore.Hbond>
1.9044

> <Gold.Chemscore.Metal>
0.0000

> <Gold.Chemscore.Lipo>
90.5280

> <Gold.Chemscore.Internal_Hbond>
0.0000

> <Gold.Chemscore.DEClash>
0.1931

> <Gold.Chemscore.DEInternal>
2.4155

> <Gold.Chemscore.Rot>
2.9772

> <Gold.Chemscore.Internal.Correction>
   9.000000E+99

> <Gold.Chemscore.Hbonds>
donor molecule, donor type, donor heavy atom, donor atom, acceptor molecule, acceptor atom, score
      L1  H    21    22       P1 10175  0.29
      P1  H  7989  7998       L1    12  0.89

> <Gold.Chemscore.Hbond.Weighted>
-6.3606

> <Gold.Chemscore.Metal.Weighted>
-0.0000

> <Gold.Chemscore.Lipo.Weighted>
-10.5918

> <Gold.Chemscore.Internal_Hbond.Weighted>
0.0000

> <Gold.Chemscore.DEClash.Weighted>
0.1931

> <Gold.Chemscore.DEInternal.Weighted>
2.4155

> <Gold.Chemscore.Rot.Weighted>
7.6216

> <Gold.Chemscore.Internal.Correction.Weighted>
   9.000000E+99

> <Gold.Protein.RotatedTorsions>
[ 6907 6896 6895 6894 ] final -122.21 input  -60.11 | X-H torsion
[ 7974 7965 7964 7962 ] final   61.66 input  175.53 | X-H torsion
[ 8008 7997 7996 7995 ] final  176.86 input   59.86 | X-H torsion
[ 10167 10162 10161 10158 ] final   77.97 input  -65.29 | X-H torsion
[ 10718 10713 10712 10709 ] final  -55.40 input   66.30 | X-H torsion
[ 10763 10752 10751 10750 ] final   43.53 input  -60.55 | X-H torsion
[ 11005 11000 10999 10996 ] final  113.77 input  -57.11 | X-H torsion

> <Gold.Protein.ActiveResidues>
 VAL166  LYS551  ARG553  GLY616  TRP617  ASP618  TYR619  PRO620  LYS621  CYS622 
 ASP623  PHE694  ASN695  SER759  ASP760  ASP761  ALA762  ILE779  LEU786  VAL792 
 PHE793  MET794  SER795  GLU796  ALA797  LYS798  CYS799  TRP800  GLU811  SER814 

> <Gold.Protein.RotatedAtoms>
  150.8555  133.7722  159.3010 H   0  0  0  0  0  0  0  0  0  0  0  0  # atno 6907 bound_to 6896
  151.5381  135.1067  159.9929 H   0  0  0  0  0  0  0  0  0  0  0  0  # atno 6908 bound_to 6896
  152.4586  133.7731  159.6865 H   0  0  0  0  0  0  0  0  0  0  0  0  # atno 6909 bound_to 6896
  145.8822  139.3451  143.0699 H   0  0  0  0  0  0  0  0  0  0  0  0  # atno 7974 bound_to 7965
  156.0719  140.1373  156.9818 H   0  0  0  0  0  0  0  0  0  0  0  0  # atno 8008 bound_to 7997
  154.4536  140.0970  156.6743 H   0  0  0  0  0  0  0  0  0  0  0  0  # atno 8009 bound_to 7997
  155.5215  140.3456  155.4410 H   0  0  0  0  0  0  0  0  0  0  0  0  # atno 8010 bound_to 7997
  139.9759  144.5861  150.7943 H   0  0  0  0  0  0  0  0  0  0  0  0  # atno 10167 bound_to 10162
  156.1371  130.4156  150.0166 H   0  0  0  0  0  0  0  0  0  0  0  0  # atno 10718 bound_to 10713
  152.9859  135.6098  154.3127 H   0  0  0  0  0  0  0  0  0  0  0  0  # atno 10763 bound_to 10752
  154.2841  135.2776  155.2686 H   0  0  0  0  0  0  0  0  0  0  0  0  # atno 10764 bound_to 10752
  154.5011  135.5866  153.6588 H   0  0  0  0  0  0  0  0  0  0  0  0  # atno 10765 bound_to 10752
  139.8962  134.9556  156.6789 H   0  0  0  0  0  0  0  0  0  0  0  0  # atno 11005 bound_to 11000
  145.9009  140.9243  143.0503 LP  0  0  0  0  0  0  0  0  0  0  0  0  # atno 17320 bound_to 7965
  144.6727  140.1031  143.7459 LP  0  0  0  0  0  0  0  0  0  0  0  0  # atno 17321 bound_to 7965
  140.7506  143.2958  151.3210 LP  0  0  0  0  0  0  0  0  0  0  0  0  # atno 17342 bound_to 10162
  139.6446  144.0476  152.2580 LP  0  0  0  0  0  0  0  0  0  0  0  0  # atno 17343 bound_to 10162
  156.8062  130.9308  151.3645 LP  0  0  0  0  0  0  0  0  0  0  0  0  # atno 17370 bound_to 10713
  157.6542  130.8910  149.9695 LP  0  0  0  0  0  0  0  0  0  0  0  0  # atno 17371 bound_to 10713
  140.7315  133.9055  155.8214 LP  0  0  0  0  0  0  0  0  0  0  0  0  # atno 17394 bound_to 11000
  141.0150  134.0968  157.4182 LP  0  0  0  0  0  0  0  0  0  0  0  0  # atno 17395 bound_to 11000

$$$$
