AV-unprocessed.smi:2641|AV-procd|sdf|10273|dock5
  -GOLD-   2272014283D 1   1.00000     0.00000
 Structure written by MMmdl.
 40 41  0  0  0  0  0  0  0  0  3 V2000
  145.4057  132.6937  152.2806 C   0  0  0  0  0  0  0  0  0  0  0  0
  146.2749  132.6651  153.5201 C   0  0  0  0  0  0  0  0  0  0  0  0
  147.6768  132.8185  153.4616 C   0  0  0  0  0  0  0  0  0  0  0  0
  148.4238  132.7786  154.6574 C   0  0  0  0  0  0  0  0  0  0  0  0
  147.7552  132.5867  155.8868 C   0  0  0  0  0  0  0  0  0  0  0  0
  148.5313  132.5372  157.1908 C   0  0  0  0  0  0  0  0  0  0  0  0
  147.6510  132.9946  158.3553 C   0  0  0  0  0  0  0  0  0  0  0  0
  146.6521  132.3382  158.6460 O   0  0  0  0  0  0  0  0  0  0  0  0
  148.0565  134.1140  158.9836 N   0  0  0  0  0  0  0  0  0  0  0  0
  147.5177  134.8511  160.1383 C   0  0  0  0  0  0  0  0  0  0  0  0
  148.3497  136.1581  160.1938 C   0  0  0  0  0  0  0  0  0  0  0  0
  147.9090  137.1014  160.8885 O   0  0  0  0  0  0  0  0  0  0  0  0
  149.3894  136.2215  159.5004 O   0  5  0  0  0  0  0  0  0  0  0  0
  146.0217  135.1476  159.8303 C   0  0  0  0  0  0  0  0  0  0  0  0
  145.2942  135.8848  160.9724 C   0  0  0  0  0  0  0  0  0  0  0  0
  145.4034  135.1113  162.2942 C   0  0  0  0  0  0  0  0  0  0  0  0
  146.8692  134.8218  162.6474 C   0  0  0  0  0  0  0  0  0  0  0  0
  147.5825  134.0831  161.4978 C   0  0  0  0  0  0  0  0  0  0  0  0
  146.3512  132.4387  155.8832 C   0  0  0  0  0  0  0  0  0  0  0  0
  145.6718  132.4821  154.7164 N   0  3  0  0  0  0  0  0  0  0  0  0
  145.9944  132.9279  151.3931 H   0  0  0  0  0  0  0  0  0  0  0  0
  144.6250  133.4485  152.3791 H   0  0  0  0  0  0  0  0  0  0  0  0
  144.9312  131.7239  152.1285 H   0  0  0  0  0  0  0  0  0  0  0  0
  148.1765  132.9636  152.5147 H   0  0  0  0  0  0  0  0  0  0  0  0
  149.4980  132.8904  154.6290 H   0  0  0  0  0  0  0  0  0  0  0  0
  148.8772  131.5205  157.3815 H   0  0  0  0  0  0  0  0  0  0  0  0
  149.4226  133.1618  157.1096 H   0  0  0  0  0  0  0  0  0  0  0  0
  148.9106  134.5157  158.6248 H   0  0  0  0  0  0  0  0  0  0  0  0
  145.9163  135.7175  158.9060 H   0  0  0  0  0  0  0  0  0  0  0  0
  145.5050  134.2048  159.6451 H   0  0  0  0  0  0  0  0  0  0  0  0
  145.7081  136.8859  161.0982 H   0  0  0  0  0  0  0  0  0  0  0  0
  144.2444  136.0219  160.7121 H   0  0  0  0  0  0  0  0  0  0  0  0
  144.9307  135.6770  163.0975 H   0  0  0  0  0  0  0  0  0  0  0  0
  144.8559  134.1716  162.2130 H   0  0  0  0  0  0  0  0  0  0  0  0
  147.3845  135.7553  162.8756 H   0  0  0  0  0  0  0  0  0  0  0  0
  146.9160  134.2202  163.5553 H   0  0  0  0  0  0  0  0  0  0  0  0
  147.0972  133.1123  161.3905 H   0  0  0  0  0  0  0  0  0  0  0  0
  148.6133  133.8740  161.7876 H   0  0  0  0  0  0  0  0  0  0  0  0
  145.7562  132.2842  156.7718 H   0  0  0  0  0  0  0  0  0  0  0  0
  144.6580  132.3707  154.7396 H   0  0  0  0  0  0  0  0  0  0  0  0
  1  2  1  0  0  0  0
  1 21  1  0  0  0  0
  1 22  1  0  0  0  0
  1 23  1  0  0  0  0
  2 20  1  0  0  0  0
  2  3  2  0  0  0  0
  3  4  1  0  0  0  0
  3 24  1  0  0  0  0
  4  5  2  0  0  0  0
  4 25  1  0  0  0  0
  5  6  1  0  0  0  0
  5 19  1  0  0  0  0
  6  7  1  0  0  0  0
  6 26  1  0  0  0  0
  6 27  1  0  0  0  0
  7  8  2  0  0  0  0
  7  9  1  0  0  0  0
  9 10  1  0  0  0  0
  9 28  1  0  0  0  0
 10 18  1  0  0  0  0
 10 11  1  0  0  0  0
 10 14  1  0  0  0  0
 11 12  2  0  0  0  0
 11 13  1  0  0  0  0
 14 15  1  0  0  0  0
 14 29  1  0  0  0  0
 14 30  1  0  0  0  0
 15 16  1  0  0  0  0
 15 31  1  0  0  0  0
 15 32  1  0  0  0  0
 16 17  1  0  0  0  0
 16 33  1  0  0  0  0
 16 34  1  0  0  0  0
 17 18  1  0  0  0  0
 17 35  1  0  0  0  0
 17 36  1  0  0  0  0
 18 37  1  0  0  0  0
 18 38  1  0  0  0  0
 19 20  2  0  0  0  0
 19 39  1  0  0  0  0
 20 40  1  0  0  0  0
M  CHG  1  13  -1
M  CHG  1  20   1
M  END
> <s_m_source_file>
AV-unprocessed.smi

> <i_m_source_file_index>
2641

> <i_lp_mmshare_version>
43012

> <i_f3d_flags>
0

> <s_epik_input>
W0NIM11jMVtjSF1bY0hdYyhbY0hdbjEpW0NIMl1DKD1PKVtOSF1DMihDKD1PKVtPSF0pW0NIMl1bQ0gyXVtDSDJdW0NIMl1bQ0gyXTI=

> <s_epik_cmdline>
J2VwaWtfcHl0aG9uJywgJy1waCcsICc3LjAnLCAnLXRuJywgJzgnLCAnLW1hJywgJzIwMCcsICctbWV0YWxfYmluZGluZycsICctaW1hZScsICc8aW5maWxlLm1hZT4nLCAnLW9tYWUnLCAnPG91dGZpbGUubWFlPic=

> <r_epik_Ionization_Penalty>
2.05743

> <r_epik_Ionization_Penalty_Charging>
2.05743

> <r_epik_Ionization_Penalty_Neutral>
6.51537e-08

> <r_epik_State_Penalty>
2.19002

> <r_epik_Charging_Adjusted_Penalty>
4.24745

> <i_epik_Tot_Q>
0

> <i_epik_Tot_abs_Q>
2

> <r_epik_Metal_State_Penalty>
2.2083

> <b_epik_Metal_Only>
0

> <s_lp_Force_Field>
OPLS_2005

> <r_lp_Energy>
7.8147

> <b_lp_Chiralities_Consistent>
1

> <s_lp_Variant>
AV-unprocessed.smi:2641-2

> <Gold.Version>
5.8.1

> <Gold.Id.Protein>
6NUR|6NUR_protein|mol2

> <Gold.PLP.Fitness>
45.0494

> <Gold.PLP.PLP>
-24.1454

> <Gold.PLP.part.hbond>
-3.9880

> <Gold.PLP.part.metal>
0.0000

> <Gold.PLP.part.buried>
-3.7695

> <Gold.PLP.part.nonpolar>
-17.2048

> <Gold.PLP.part.repulsive>
0.0758

> <Gold.PLP.ligand.clash>
0.0000

> <Gold.PLP.ligand.torsion>
0.8063

> <Gold.PLP.Chemscore.Hbond>
7.4880

> <Gold.PLP.Chemscore.CHOScore>
0.0000

> <Gold.PLP.Chemscore.Metal>
0.0000

> <Gold.Chemscore.Hbonds>
donor molecule, donor type, donor heavy atom, donor atom, acceptor molecule, acceptor atom, score
      L1  H    20    40       P1 10957  1.85
      P1  H  6896  6908       L1    13  2.00
      P1  H  6931  6943       L1    12  1.86
      P1  H  6934  6947       L1    12  1.56

> <Gold.PLP.Chemscore.Internal.Correction>
0.0525

> <Gold.Rescore>
     Score         DG    S(hbond)    S(metal)    S(lipo)     H(rot)  DE(clash)    DE(int)     intcor
     15.10     -18.81       3.54        0.00      54.85       1.91       0.00       3.71       ----

> <Gold.Chemscore.Fitness>
15.0953

> <Gold.Chemscore.DG>
-18.8075

> <Gold.Chemscore.ZeroCoef>
-5.4800

> <Gold.Chemscore.Hbond>
3.5365

> <Gold.Chemscore.Metal>
0.0000

> <Gold.Chemscore.Lipo>
54.8550

> <Gold.Chemscore.Internal_Hbond>
0.0000

> <Gold.Chemscore.DEClash>
0.0000

> <Gold.Chemscore.DEInternal>
3.7123

> <Gold.Chemscore.Rot>
1.9149

> <Gold.Chemscore.Internal.Correction>
   9.000000E+99

> <Gold.Chemscore.Hbonds>
donor molecule, donor type, donor heavy atom, donor atom, acceptor molecule, acceptor atom, score
      L1  H    20    40       P1 10957  0.66
      P1  H  6896  6908       L1    13  0.95
      P1  H  6931  6943       L1    12  0.90
      P1  H  6934  6947       L1    12  0.72

> <Gold.Chemscore.Hbond.Weighted>
-11.8118

> <Gold.Chemscore.Metal.Weighted>
-0.0000

> <Gold.Chemscore.Lipo.Weighted>
-6.4180

> <Gold.Chemscore.Internal_Hbond.Weighted>
0.0000

> <Gold.Chemscore.DEClash.Weighted>
0.0000

> <Gold.Chemscore.DEInternal.Weighted>
3.7123

> <Gold.Chemscore.Rot.Weighted>
4.9023

> <Gold.Chemscore.Internal.Correction.Weighted>
   9.000000E+99

> <Gold.Protein.RotatedTorsions>
[ 6907 6896 6895 6894 ] final -174.52 input  -60.11 | X-H torsion
[ 7974 7965 7964 7962 ] final  -66.98 input  175.53 | X-H torsion
[ 8008 7997 7996 7995 ] final   30.37 input   59.86 | X-H torsion
[ 10167 10162 10161 10158 ] final  -28.48 input  -65.29 | X-H torsion
[ 10718 10713 10712 10709 ] final -123.24 input   66.30 | X-H torsion
[ 10763 10752 10751 10750 ] final  118.01 input  -60.55 | X-H torsion
[ 11005 11000 10999 10996 ] final -115.10 input  -57.11 | X-H torsion

> <Gold.Protein.ActiveResidues>
 VAL166  LYS551  ARG553  GLY616  TRP617  ASP618  TYR619  PRO620  LYS621  CYS622 
 ASP623  PHE694  ASN695  SER759  ASP760  ASP761  ALA762  ILE779  LEU786  VAL792 
 PHE793  MET794  SER795  GLU796  ALA797  LYS798  CYS799  TRP800  GLU811  SER814 

> <Gold.Protein.RotatedAtoms>
  151.5737  133.3386  159.2994 H   0  0  0  0  0  0  0  0  0  0  0  0  # atno 6907 bound_to 6896
  150.8353  134.7626  159.6898 H   0  0  0  0  0  0  0  0  0  0  0  0  # atno 6908 bound_to 6896
  152.4430  134.5559  159.9932 H   0  0  0  0  0  0  0  0  0  0  0  0  # atno 6909 bound_to 6896
  145.7349  140.8980  143.0560 H   0  0  0  0  0  0  0  0  0  0  0  0  # atno 7974 bound_to 7965
  155.0893  140.3218  155.4578 H   0  0  0  0  0  0  0  0  0  0  0  0  # atno 8008 bound_to 7997
  156.2747  140.2081  156.5966 H   0  0  0  0  0  0  0  0  0  0  0  0  # atno 8009 bound_to 7997
  154.6916  140.0516  157.0356 H   0  0  0  0  0  0  0  0  0  0  0  0  # atno 8010 bound_to 7997
  140.7269  143.4006  151.1271 H   0  0  0  0  0  0  0  0  0  0  0  0  # atno 10167 bound_to 10162
  156.1485  130.6517  150.9878 H   0  0  0  0  0  0  0  0  0  0  0  0  # atno 10718 bound_to 10713
  153.5611  135.3520  155.2799 H   0  0  0  0  0  0  0  0  0  0  0  0  # atno 10763 bound_to 10752
  154.8695  135.4137  154.2829 H   0  0  0  0  0  0  0  0  0  0  0  0  # atno 10764 bound_to 10752
  153.3575  135.7058  153.6808 H   0  0  0  0  0  0  0  0  0  0  0  0  # atno 10765 bound_to 10752
  141.0510  133.9688  157.2837 H   0  0  0  0  0  0  0  0  0  0  0  0  # atno 11005 bound_to 11000
  144.6884  139.9381  143.7474 LP  0  0  0  0  0  0  0  0  0  0  0  0  # atno 17320 bound_to 7965
  146.0503  139.3504  143.0644 LP  0  0  0  0  0  0  0  0  0  0  0  0  # atno 17321 bound_to 7965
  139.7626  143.8613  152.3103 LP  0  0  0  0  0  0  0  0  0  0  0  0  # atno 17342 bound_to 10162
  139.8504  144.7167  150.9221 LP  0  0  0  0  0  0  0  0  0  0  0  0  # atno 17343 bound_to 10162
  157.6637  131.0876  150.7779 LP  0  0  0  0  0  0  0  0  0  0  0  0  # atno 17370 bound_to 10713
  156.7848  130.4871  149.5394 LP  0  0  0  0  0  0  0  0  0  0  0  0  # atno 17371 bound_to 10713
  139.9350  135.0197  156.8526 LP  0  0  0  0  0  0  0  0  0  0  0  0  # atno 17394 bound_to 11000
  140.6056  134.0131  155.7555 LP  0  0  0  0  0  0  0  0  0  0  0  0  # atno 17395 bound_to 11000

$$$$
