AV-unprocessed.smi:1189|AV-procd|sdf|4979|dock9
  -GOLD-   22720 3573D 1   1.00000     0.00000
 Structure written by MMmdl.
 33 34  0  0  0  0  0  0  0  0  1 V2000
  149.9376  140.3647  157.3357 O   0  0  0  0  0  0  0  0  0  0  0  0
  149.5501  141.3198  156.6611 C   0  0  0  0  0  0  0  0  0  0  0  0
  149.2895  141.1682  155.1575 C   0  0  0  0  0  0  0  0  0  0  0  0
  147.9936  141.6928  154.7592 N   0  0  0  0  0  0  0  0  0  0  0  0
  147.4506  141.7650  153.4942 C   0  0  0  0  0  0  0  0  0  0  0  0
  146.2119  142.3258  153.6165 C   0  0  0  0  0  0  0  0  0  0  0  0
  146.0759  142.5658  155.0149 C   0  0  0  0  0  0  0  0  0  0  0  0
  144.9073  143.1686  155.7494 C   0  0  0  0  0  0  0  0  0  0  0  0
  145.2005  143.3189  157.0412 F   0  0  0  0  0  0  0  0  0  0  0  0
  144.6129  144.3628  155.2352 F   0  0  0  0  0  0  0  0  0  0  0  0
  143.8427  142.3737  155.6412 F   0  0  0  0  0  0  0  0  0  0  0  0
  147.1516  142.1869  155.6924 N   0  0  0  0  0  0  0  0  0  0  0  0
  149.3418  142.5436  157.1716 N   0  0  0  0  0  0  0  0  0  0  0  0
  149.5235  142.9219  158.5698 C   0  0  0  0  0  0  0  0  0  0  0  0
  150.3812  144.1930  158.7189 C   0  0  1  0  0  0  0  0  0  0  0  0
  150.7863  144.4903  160.1484 C   0  0  0  0  0  0  0  0  0  0  0  0
  151.9577  145.4507  159.9600 C   0  0  0  0  0  0  0  0  0  0  0  0
  152.5485  145.1125  158.7084 O   0  0  0  0  0  0  0  0  0  0  0  0
  151.7504  144.1422  158.0387 C   0  0  0  0  0  0  0  0  0  0  0  0
  150.0689  141.6766  154.5871 H   0  0  0  0  0  0  0  0  0  0  0  0
  149.3348  140.1116  154.8919 H   0  0  0  0  0  0  0  0  0  0  0  0
  147.9837  141.4126  152.6236 H   0  0  0  0  0  0  0  0  0  0  0  0
  145.5059  142.5313  152.8258 H   0  0  0  0  0  0  0  0  0  0  0  0
  149.0257  143.2683  156.5435 H   0  0  0  0  0  0  0  0  0  0  0  0
  148.5347  143.1022  158.9919 H   0  0  0  0  0  0  0  0  0  0  0  0
  149.9516  142.0977  159.1432 H   0  0  0  0  0  0  0  0  0  0  0  0
  149.8294  145.0514  158.3319 H   0  0  0  0  0  0  0  0  0  0  0  0
  149.9791  144.9189  160.7431 H   0  0  0  0  0  0  0  0  0  0  0  0
  151.1280  143.5800  160.6433 H   0  0  0  0  0  0  0  0  0  0  0  0
  151.6021  146.4803  159.9077 H   0  0  0  0  0  0  0  0  0  0  0  0
  152.6817  145.3837  160.7724 H   0  0  0  0  0  0  0  0  0  0  0  0
  152.2133  143.1638  158.1749 H   0  0  0  0  0  0  0  0  0  0  0  0
  151.6953  144.3451  156.9690 H   0  0  0  0  0  0  0  0  0  0  0  0
  1  2  2  0  0  0  0
  2  3  1  0  0  0  0
  2 13  1  0  0  0  0
  3  4  1  0  0  0  0
  3 20  1  0  0  0  0
  3 21  1  0  0  0  0
  4 12  1  0  0  0  0
  4  5  1  0  0  0  0
  5  6  2  0  0  0  0
  5 22  1  0  0  0  0
  6  7  1  0  0  0  0
  6 23  1  0  0  0  0
  7  8  1  0  0  0  0
  7 12  2  0  0  0  0
  8  9  1  0  0  0  0
  8 10  1  0  0  0  0
  8 11  1  0  0  0  0
 13 14  1  0  0  0  0
 13 24  1  0  0  0  0
 14 15  1  0  0  0  0
 14 25  1  0  0  0  0
 14 26  1  0  0  0  0
 15 19  1  0  0  0  0
 15 16  1  0  0  0  0
 15 27  1  0  0  0  0
 16 17  1  0  0  0  0
 16 28  1  0  0  0  0
 16 29  1  0  0  0  0
 17 18  1  0  0  0  0
 17 30  1  0  0  0  0
 17 31  1  0  0  0  0
 18 19  1  0  0  0  0
 19 32  1  0  0  0  0
 19 33  1  0  0  0  0
M  END
> <s_m_source_file>
AV-unprocessed.smi

> <i_m_source_file_index>
1189

> <i_lp_mmshare_version>
43012

> <i_f3d_flags>
0

> <s_epik_input>
W0NIMl0xT1tDSDJdW0NIMl1bQ0BIXTFbQ0gyXVtOSF1DKD1PKVtDSDJdbjJbY0hdW2NIXWMobjIpQyhGKShGKUY=

> <s_epik_cmdline>
J2VwaWtfcHl0aG9uJywgJy1waCcsICc3LjAnLCAnLXRuJywgJzgnLCAnLW1hJywgJzIwMCcsICctbWV0YWxfYmluZGluZycsICctaW1hZScsICc8aW5maWxlLm1hZT4nLCAnLW9tYWUnLCAnPG91dGZpbGUubWFlPic=

> <r_lp_tautomer_probability>
1

> <r_epik_Ionization_Penalty>
1.26564e-07

> <r_epik_Ionization_Penalty_Charging>
0

> <r_epik_Ionization_Penalty_Neutral>
1.26564e-07

> <r_epik_State_Penalty>
-0

> <r_epik_Charging_Adjusted_Penalty>
0

> <i_epik_Tot_Q>
0

> <i_epik_Tot_abs_Q>
0

> <r_epik_Metal_State_Penalty>
-0

> <b_epik_Metal_Only>
0

> <s_lp_Force_Field>
OPLS_2005

> <r_lp_Energy>
22.0534

> <b_lp_Chiralities_Consistent>
1

> <s_lp_Variant>
AV-unprocessed.smi:1189-2

> <Gold.Version>
5.8.1

> <Gold.Id.Protein>
6NUR|6NUR_protein|mol2

> <Gold.PLP.Fitness>
40.2704

> <Gold.PLP.PLP>
-34.7360

> <Gold.PLP.part.hbond>
-1.0000

> <Gold.PLP.part.metal>
0.0000

> <Gold.PLP.part.buried>
-6.3046

> <Gold.PLP.part.nonpolar>
-28.2951

> <Gold.PLP.part.repulsive>
0.7107

> <Gold.PLP.ligand.clash>
0.0000

> <Gold.PLP.ligand.torsion>
0.2378

> <Gold.PLP.Chemscore.Hbond>
1.0000

> <Gold.PLP.Chemscore.CHOScore>
1.0000

> <Gold.PLP.Chemscore.Metal>
0.0000

> <Gold.Chemscore.Hbonds>
donor molecule, donor type, donor heavy atom, donor atom, acceptor molecule, acceptor atom, score
      L1  H    13    24       P1  8028  1.00
      L1  C     5    22       P1  7957  0.93

> <Gold.PLP.Chemscore.Internal.Correction>
0.0099

> <Gold.Rescore>
     Score         DG    S(hbond)    S(metal)    S(lipo)     H(rot)  DE(clash)    DE(int)     intcor
     12.63     -13.14       0.99        0.00      78.65       1.89       0.27       0.24       ----

> <Gold.Chemscore.Fitness>
12.6272

> <Gold.Chemscore.DG>
-13.1399

> <Gold.Chemscore.ZeroCoef>
-5.4800

> <Gold.Chemscore.Hbond>
0.9889

> <Gold.Chemscore.Metal>
0.0000

> <Gold.Chemscore.Lipo>
78.6543

> <Gold.Chemscore.Internal_Hbond>
0.0000

> <Gold.Chemscore.DEClash>
0.2719

> <Gold.Chemscore.DEInternal>
0.2409

> <Gold.Chemscore.Rot>
1.8928

> <Gold.Chemscore.Internal.Correction>
   9.000000E+99

> <Gold.Chemscore.Hbonds>
donor molecule, donor type, donor heavy atom, donor atom, acceptor molecule, acceptor atom, score
      L1  H    13    24       P1  8028  0.98

> <Gold.Chemscore.Hbond.Weighted>
-3.3028

> <Gold.Chemscore.Metal.Weighted>
-0.0000

> <Gold.Chemscore.Lipo.Weighted>
-9.2025

> <Gold.Chemscore.Internal_Hbond.Weighted>
0.0000

> <Gold.Chemscore.DEClash.Weighted>
0.2719

> <Gold.Chemscore.DEInternal.Weighted>
0.2409

> <Gold.Chemscore.Rot.Weighted>
4.8455

> <Gold.Chemscore.Internal.Correction.Weighted>
   9.000000E+99

> <Gold.Protein.RotatedTorsions>
[ 6907 6896 6895 6894 ] final -149.81 input  -60.11 | X-H torsion
[ 7974 7965 7964 7962 ] final  -65.40 input  175.53 | X-H torsion
[ 8008 7997 7996 7995 ] final -146.35 input   59.86 | X-H torsion
[ 10167 10162 10161 10158 ] final    7.97 input  -65.29 | X-H torsion
[ 10718 10713 10712 10709 ] final   19.27 input   66.30 | X-H torsion
[ 10763 10752 10751 10750 ] final   89.23 input  -60.55 | X-H torsion
[ 11005 11000 10999 10996 ] final  161.92 input  -57.11 | X-H torsion

> <Gold.Protein.ActiveResidues>
 VAL166  LYS551  ARG553  GLY616  TRP617  ASP618  TYR619  PRO620  LYS621  CYS622 
 ASP623  PHE694  ASN695  SER759  ASP760  ASP761  ALA762  ILE779  LEU786  VAL792 
 PHE793  MET794  SER795  GLU796  ALA797  LYS798  CYS799  TRP800  GLU811  SER814 

> <Gold.Protein.RotatedAtoms>
  151.1895  133.4676  159.2594 H   0  0  0  0  0  0  0  0  0  0  0  0  # atno 6907 bound_to 6896
  151.1178  135.0062  159.8534 H   0  0  0  0  0  0  0  0  0  0  0  0  # atno 6908 bound_to 6896
  152.5454  134.1809  159.8688 H   0  0  0  0  0  0  0  0  0  0  0  0  # atno 6909 bound_to 6896
  145.7547  140.8891  143.0461 H   0  0  0  0  0  0  0  0  0  0  0  0  # atno 7974 bound_to 7965
  155.5579  140.0622  157.2835 H   0  0  0  0  0  0  0  0  0  0  0  0  # atno 8008 bound_to 7997
  154.4399  140.1891  156.0798 H   0  0  0  0  0  0  0  0  0  0  0  0  # atno 8009 bound_to 7997
  156.0468  140.3289  155.7309 H   0  0  0  0  0  0  0  0  0  0  0  0  # atno 8010 bound_to 7997
  140.6341  143.7926  150.7335 H   0  0  0  0  0  0  0  0  0  0  0  0  # atno 10167 bound_to 10162
  157.1081  130.6497  149.5890 H   0  0  0  0  0  0  0  0  0  0  0  0  # atno 10718 bound_to 10713
  153.1849  135.4478  155.0076 H   0  0  0  0  0  0  0  0  0  0  0  0  # atno 10763 bound_to 10752
  154.8054  135.3272  154.7447 H   0  0  0  0  0  0  0  0  0  0  0  0  # atno 10764 bound_to 10752
  153.7908  135.6970  153.4927 H   0  0  0  0  0  0  0  0  0  0  0  0  # atno 10765 bound_to 10752
  140.2206  134.8199  157.3216 H   0  0  0  0  0  0  0  0  0  0  0  0  # atno 11005 bound_to 11000
  144.6842  139.9640  143.7481 LP  0  0  0  0  0  0  0  0  0  0  0  0  # atno 17320 bound_to 7965
  146.0322  139.3345  143.0748 LP  0  0  0  0  0  0  0  0  0  0  0  0  # atno 17321 bound_to 7965
  140.1544  143.4330  152.2110 LP  0  0  0  0  0  0  0  0  0  0  0  0  # atno 17342 bound_to 10162
  139.5553  144.7368  151.4313 LP  0  0  0  0  0  0  0  0  0  0  0  0  # atno 17343 bound_to 10162
  155.9857  130.4888  150.7044 LP  0  0  0  0  0  0  0  0  0  0  0  0  # atno 17370 bound_to 10713
  157.4583  131.0880  151.0773 LP  0  0  0  0  0  0  0  0  0  0  0  0  # atno 17371 bound_to 10713
  140.1854  134.4438  155.7747 LP  0  0  0  0  0  0  0  0  0  0  0  0  # atno 17394 bound_to 11000
  141.2223  133.7002  156.7938 LP  0  0  0  0  0  0  0  0  0  0  0  0  # atno 17395 bound_to 11000

$$$$
