AV-unprocessed.smi:1123|AV-procd|sdf|4829|dock2
  -GOLD-   22720 3393D 1   1.00000     0.00000
 Structure written by MMmdl.
 37 38  0  0  0  0  0  0  0  0  1 V2000
  147.2345  132.6246  160.8652 C   0  0  0  0  0  0  0  0  0  0  0  0
  147.1198  133.9817  160.1408 C   0  0  2  0  0  0  0  0  0  0  0  0
  148.1062  134.1141  158.9697 C   0  0  0  0  0  0  0  0  0  0  0  0
  149.0043  133.2870  158.8079 O   0  0  0  0  0  0  0  0  0  0  0  0
  147.9265  135.1683  158.1578 N   0  0  0  0  0  0  0  0  0  0  0  0
  148.7592  135.4919  157.0062 C   0  0  0  0  0  0  0  0  0  0  0  0
  149.6915  136.6816  157.3026 C   0  0  0  0  0  0  0  0  0  0  0  0
  150.2941  137.3008  156.1233 N   0  0  0  0  0  0  0  0  0  0  0  0
  149.3061  138.0735  155.3776 C   0  0  0  0  0  0  0  0  0  0  0  0
  149.9149  138.7379  154.1307 C   0  0  0  0  0  0  0  0  0  0  0  0
  151.0091  139.5622  154.5180 O   0  0  0  0  0  0  0  0  0  0  0  0
  152.0222  138.8385  155.2083 C   0  0  0  0  0  0  0  0  0  0  0  0
  151.4219  138.1688  156.4571 C   0  0  0  0  0  0  0  0  0  0  0  0
  147.2675  135.1100  161.0524 N   0  0  0  0  0  0  0  0  0  0  0  0
  147.2400  136.4213  160.8042 C   0  0  0  0  0  0  0  0  0  0  0  0
  147.4599  137.1772  161.8708 N   0  0  0  0  0  0  0  0  0  0  0  0
  147.6413  136.2004  162.8082 C   0  0  0  0  0  0  0  0  0  0  0  0
  147.5471  134.9454  162.3697 N   0  0  0  0  0  0  0  0  0  0  0  0
  147.0642  131.7967  160.1759 H   0  0  0  0  0  0  0  0  0  0  0  0
  146.4916  132.5448  161.6593 H   0  0  0  0  0  0  0  0  0  0  0  0
  148.2168  132.4809  161.3172 H   0  0  0  0  0  0  0  0  0  0  0  0
  146.1120  134.0377  159.7258 H   0  0  0  0  0  0  0  0  0  0  0  0
  147.1638  135.7985  158.3591 H   0  0  0  0  0  0  0  0  0  0  0  0
  149.3350  134.5990  156.7652 H   0  0  0  0  0  0  0  0  0  0  0  0
  148.1329  135.7038  156.1379 H   0  0  0  0  0  0  0  0  0  0  0  0
  149.1102  137.4378  157.8319 H   0  0  0  0  0  0  0  0  0  0  0  0
  150.4749  136.3691  157.9947 H   0  0  0  0  0  0  0  0  0  0  0  0
  148.4828  137.4262  155.0737 H   0  0  0  0  0  0  0  0  0  0  0  0
  148.8763  138.8429  156.0209 H   0  0  0  0  0  0  0  0  0  0  0  0
  150.2520  137.9852  153.4164 H   0  0  0  0  0  0  0  0  0  0  0  0
  149.1687  139.3501  153.6240 H   0  0  0  0  0  0  0  0  0  0  0  0
  152.4618  138.0927  154.5444 H   0  0  0  0  0  0  0  0  0  0  0  0
  152.8202  139.5244  155.4923 H   0  0  0  0  0  0  0  0  0  0  0  0
  151.1008  138.9392  157.1597 H   0  0  0  0  0  0  0  0  0  0  0  0
  152.2058  137.5984  156.9539 H   0  0  0  0  0  0  0  0  0  0  0  0
  147.0595  136.8316  159.8216 H   0  0  0  0  0  0  0  0  0  0  0  0
  147.8555  136.4208  163.8436 H   0  0  0  0  0  0  0  0  0  0  0  0
  1  2  1  0  0  0  0
  1 19  1  0  0  0  0
  1 20  1  0  0  0  0
  1 21  1  0  0  0  0
  2  3  1  0  0  0  0
  2 14  1  0  0  0  0
  2 22  1  0  0  0  0
  3  4  2  0  0  0  0
  3  5  1  0  0  0  0
  5  6  1  0  0  0  0
  5 23  1  0  0  0  0
  6  7  1  0  0  0  0
  6 24  1  0  0  0  0
  6 25  1  0  0  0  0
  7  8  1  0  0  0  0
  7 26  1  0  0  0  0
  7 27  1  0  0  0  0
  8 13  1  0  0  0  0
  8  9  1  0  0  0  0
  9 10  1  0  0  0  0
  9 28  1  0  0  0  0
  9 29  1  0  0  0  0
 10 11  1  0  0  0  0
 10 30  1  0  0  0  0
 10 31  1  0  0  0  0
 11 12  1  0  0  0  0
 12 13  1  0  0  0  0
 12 32  1  0  0  0  0
 12 33  1  0  0  0  0
 13 34  1  0  0  0  0
 13 35  1  0  0  0  0
 14 18  1  0  0  0  0
 14 15  1  0  0  0  0
 15 16  2  0  0  0  0
 15 36  1  0  0  0  0
 16 17  1  0  0  0  0
 17 18  2  0  0  0  0
 17 37  1  0  0  0  0
M  END
> <s_m_source_file>
AV-unprocessed.smi

> <i_m_source_file_index>
1123

> <i_lp_mmshare_version>
43012

> <i_f3d_flags>
0

> <s_epik_input>
bjFbY0hdbltjSF1uMVtDQEhdKFtDSDNdKUMoPU8pW05IXVtDSDJdW0NIMl1OMltDSDJdW0NIMl1PW0NIMl1bQ0gyXTI=

> <s_epik_cmdline>
J2VwaWtfcHl0aG9uJywgJy1waCcsICc3LjAnLCAnLXRuJywgJzgnLCAnLW1hJywgJzIwMCcsICctbWV0YWxfYmluZGluZycsICctaW1hZScsICc8aW5maWxlLm1hZT4nLCAnLW9tYWUnLCAnPG91dGZpbGUubWFlPic=

> <r_lp_tautomer_probability>
1

> <r_epik_Ionization_Penalty>
0.211373

> <r_epik_Ionization_Penalty_Charging>
0

> <r_epik_Ionization_Penalty_Neutral>
0.211373

> <r_epik_State_Penalty>
0.201459

> <r_epik_Charging_Adjusted_Penalty>
0.201459

> <i_epik_Tot_Q>
0

> <i_epik_Tot_abs_Q>
0

> <r_epik_Metal_State_Penalty>
0.201458

> <b_epik_Metal_Only>
0

> <s_lp_Force_Field>
OPLS_2005

> <r_lp_Energy>
26.6349

> <b_lp_Chiralities_Consistent>
1

> <s_lp_Variant>
AV-unprocessed.smi:1123-1

> <Gold.Version>
5.8.1

> <Gold.Id.Protein>
6NUR|6NUR_protein|mol2

> <Gold.PLP.Fitness>
35.4020

> <Gold.PLP.PLP>
-25.1676

> <Gold.PLP.part.hbond>
-4.0000

> <Gold.PLP.part.metal>
0.0000

> <Gold.PLP.part.buried>
-4.1564

> <Gold.PLP.part.nonpolar>
-17.0033

> <Gold.PLP.part.repulsive>
0.1803

> <Gold.PLP.ligand.clash>
0.0000

> <Gold.PLP.ligand.torsion>
0.4012

> <Gold.PLP.Chemscore.Hbond>
3.6352

> <Gold.PLP.Chemscore.CHOScore>
0.0000

> <Gold.PLP.Chemscore.Metal>
0.0000

> <Gold.Chemscore.Hbonds>
donor molecule, donor type, donor heavy atom, donor atom, acceptor molecule, acceptor atom, score
      P1  H  6896  6908       L1     4  1.00
      P1  H  6931  6943       L1    16  0.94
      P1  H  6934  6947       L1    16  0.58
      P1  H  7989  7998       L1    11  1.00

> <Gold.PLP.Chemscore.Internal.Correction>
0.1311

> <Gold.Rescore>
     Score         DG    S(hbond)    S(metal)    S(lipo)     H(rot)  DE(clash)    DE(int)     intcor
     11.90     -12.59       2.83        0.00      37.07       2.61       0.04       0.65       ----

> <Gold.Chemscore.Fitness>
11.9020

> <Gold.Chemscore.DG>
-12.5864

> <Gold.Chemscore.ZeroCoef>
-5.4800

> <Gold.Chemscore.Hbond>
2.8295

> <Gold.Chemscore.Metal>
0.0000

> <Gold.Chemscore.Lipo>
37.0655

> <Gold.Chemscore.Internal_Hbond>
0.0000

> <Gold.Chemscore.DEClash>
0.0368

> <Gold.Chemscore.DEInternal>
0.6476

> <Gold.Chemscore.Rot>
2.6097

> <Gold.Chemscore.Internal.Correction>
   9.000000E+99

> <Gold.Chemscore.Hbonds>
donor molecule, donor type, donor heavy atom, donor atom, acceptor molecule, acceptor atom, score
      P1  H  6896  6908       L1     4  0.93
      P1  H  6931  6943       L1    16  0.49
      P1  H  6934  6947       L1    16  0.11
      P1  H  7989  7998       L1    11  0.88

> <Gold.Chemscore.Hbond.Weighted>
-9.4506

> <Gold.Chemscore.Metal.Weighted>
-0.0000

> <Gold.Chemscore.Lipo.Weighted>
-4.3367

> <Gold.Chemscore.Internal_Hbond.Weighted>
0.0000

> <Gold.Chemscore.DEClash.Weighted>
0.0368

> <Gold.Chemscore.DEInternal.Weighted>
0.6476

> <Gold.Chemscore.Rot.Weighted>
6.6809

> <Gold.Chemscore.Internal.Correction.Weighted>
   9.000000E+99

> <Gold.Protein.RotatedTorsions>
[ 6907 6896 6895 6894 ] final  117.67 input  -60.11 | X-H torsion
[ 7974 7965 7964 7962 ] final  -29.44 input  175.53 | X-H torsion
[ 8008 7997 7996 7995 ] final -121.83 input   59.86 | X-H torsion
[ 10167 10162 10161 10158 ] final -129.96 input  -65.29 | X-H torsion
[ 10718 10713 10712 10709 ] final  -25.22 input   66.30 | X-H torsion
[ 10763 10752 10751 10750 ] final -153.70 input  -60.55 | X-H torsion
[ 11005 11000 10999 10996 ] final -154.19 input  -57.11 | X-H torsion

> <Gold.Protein.ActiveResidues>
 VAL166  LYS551  ARG553  GLY616  TRP617  ASP618  TYR619  PRO620  LYS621  CYS622 
 ASP623  PHE694  ASN695  SER759  ASP760  ASP761  ALA762  ILE779  LEU786  VAL792 
 PHE793  MET794  SER795  GLU796  ALA797  LYS798  CYS799  TRP800  GLU811  SER814 

> <Gold.Protein.RotatedAtoms>
  152.4596  133.7794  159.6841 H   0  0  0  0  0  0  0  0  0  0  0  0  # atno 6907 bound_to 6896
  150.8534  133.7742  159.3023 H   0  0  0  0  0  0  0  0  0  0  0  0  # atno 6908 bound_to 6896
  151.5330  135.1071  159.9959 H   0  0  0  0  0  0  0  0  0  0  0  0  # atno 6909 bound_to 6896
  146.1216  140.5413  142.8733 H   0  0  0  0  0  0  0  0  0  0  0  0  # atno 7974 bound_to 7965
  155.1544  140.0404  157.2828 H   0  0  0  0  0  0  0  0  0  0  0  0  # atno 8008 bound_to 7997
  154.6381  140.2540  155.7328 H   0  0  0  0  0  0  0  0  0  0  0  0  # atno 8009 bound_to 7997
  156.2518  140.2861  156.0762 H   0  0  0  0  0  0  0  0  0  0  0  0  # atno 8010 bound_to 7997
  139.9343  143.6236  152.2521 H   0  0  0  0  0  0  0  0  0  0  0  0  # atno 10167 bound_to 10162
  156.4673  130.4517  149.6891 H   0  0  0  0  0  0  0  0  0  0  0  0  # atno 10718 bound_to 10713
  154.7910  135.3207  154.7777 H   0  0  0  0  0  0  0  0  0  0  0  0  # atno 10763 bound_to 10752
  153.8466  135.6866  153.4801 H   0  0  0  0  0  0  0  0  0  0  0  0  # atno 10764 bound_to 10752
  153.1580  135.4672  154.9672 H   0  0  0  0  0  0  0  0  0  0  0  0  # atno 10765 bound_to 10752
  140.7000  134.3947  157.5210 H   0  0  0  0  0  0  0  0  0  0  0  0  # atno 11005 bound_to 11000
  144.7602  140.5404  143.6740 LP  0  0  0  0  0  0  0  0  0  0  0  0  # atno 17320 bound_to 7965
  145.5454  139.1476  143.3424 LP  0  0  0  0  0  0  0  0  0  0  0  0  # atno 17321 bound_to 7965
  139.6756  144.7659  151.1702 LP  0  0  0  0  0  0  0  0  0  0  0  0  # atno 17342 bound_to 10162
  140.7629  143.5799  150.8905 LP  0  0  0  0  0  0  0  0  0  0  0  0  # atno 17343 bound_to 10162
  156.3654  130.7503  151.2480 LP  0  0  0  0  0  0  0  0  0  0  0  0  # atno 17370 bound_to 10713
  157.7494  131.0338  150.4289 LP  0  0  0  0  0  0  0  0  0  0  0  0  # atno 17371 bound_to 10713
  139.8899  134.8818  156.2396 LP  0  0  0  0  0  0  0  0  0  0  0  0  # atno 17394 bound_to 11000
  141.0171  133.7062  156.1207 LP  0  0  0  0  0  0  0  0  0  0  0  0  # atno 17395 bound_to 11000

$$$$
