#       Name:                AV-unprocessed.smi:158
#       Creating user name   scv26
#       Creation time:       Thu Mar 26 19:03:16 2020


#       File generated by GOLD software.
#

@<TRIPOS>MOLECULE
AV-unprocessed.smi:158
    40    42     1
SMALL
NO_CHARGES


@<TRIPOS>ATOM
      1 ****        -4.8925   0.2821  -0.0689 N.pl3          1 S1                 0.0000
      2 ****        -3.5775   0.4474  -0.2695 C.ar           1 S1                 0.0000
      3 ****        -3.1263   1.6815  -0.5924 N.ar           1 S1                 0.0000
      4 ****        -1.8215   1.8873  -0.8054 C.ar           1 S1                 0.0000
      5 ****        -1.3509   3.4961  -1.2090 Cl             1 S1                 0.0000
      6 ****        -0.8384   0.9847  -0.7397 N.ar           1 S1                 0.0000
      7 ****        -1.2831  -0.2623  -0.4072 C.ar           1 S1                 0.0000
      8 ****        -2.6398  -0.6089  -0.1609 C.ar           1 S1                 0.0000
      9 ****        -2.7389  -1.9594   0.1395 N.2            1 S1                 0.0000
     10 ****        -1.5060  -2.3836   0.0757 C.2            1 S1                 0.0000
     11 ****        -0.5602  -1.4307  -0.2381 N.pl3          1 S1                 0.0000
     12 ****         0.9208  -1.6537  -0.3736 C.3            1 S1                 0.0000
     13 ****         1.4841  -0.5917  -1.0888 O.3            1 S1                 0.0000
     14 ****         2.4677   0.0803  -0.2991 C.3            1 S1                 0.0000
     15 ****         2.5642   1.5751  -0.6551 C.3            1 S1                 0.0000
     16 ****         3.6835   2.1563  -0.0200 O.3            1 S1                 0.0000
     17 ****         2.1389  -0.2717   1.1597 C.3            1 S1                 0.0000
     18 ****         1.1653   0.5965   1.7104 O.3            1 S1                 0.0000
     19 ****         1.6157  -1.6866   0.9967 C.3            1 S1                 0.0000
     20 ****         0.8196  -2.1001   1.9859 F              1 S1                 0.0000
     21 ****         0.9988  -2.5919  -0.9239 H              1 S1                 0.0000
     22 ****         3.4168  -0.3957  -0.5519 H              1 S1                 0.0000
     23 ****         3.0254  -0.2379   1.7939 H              1 S1                 0.0000
     24 ****         2.4503  -2.3858   0.9346 H              1 S1                 0.0000
     25 ****        -5.2532  -0.6301   0.1719 H              1 S1                 0.0000
     26 ****        -5.5193   1.0688  -0.1571 H              1 S1                 0.0000
     27 ****        -1.2462  -3.4151   0.2646 H              1 S1                 0.0000
     28 ****         2.6863   1.6910  -1.7324 H              1 S1                 0.0000
     29 ****         1.6621   2.1207  -0.3795 H              1 S1                 0.0000
     30 ****         3.7383   3.0633  -0.2803 H              1 S1                 0.0000
     31 ****         1.5174   1.4735   1.7196 H              1 S1                 0.0000
     32 ****        -3.7703   2.4424  -0.6721 LP             1 S1                 0.0000
     33 ****         0.1221   1.2001  -0.9156 LP             1 S1                 0.0000
     34 ****        -3.5621  -2.4850   0.3546 LP             1 S1                 0.0000
     35 ****         0.7637   0.0558  -1.3376 LP             1 S1                 0.0000
     36 ****         1.9149  -0.9461  -1.9187 LP             1 S1                 0.0000
     37 ****         4.5155   1.6752  -0.2960 LP             1 S1                 0.0000
     38 ****         3.5773   2.0960   0.9725 LP             1 S1                 0.0000
     39 ****         0.9472   0.3106   2.6435 LP             1 S1                 0.0000
     40 ****         0.3362   0.5715   1.1518 LP             1 S1                 0.0000
@<TRIPOS>BOND
    1    1    2 1     
    2    1   25 1     
    3    1   26 1     
    4    2    8 ar    
    5    2    3 ar    
    6    3    4 ar    
    7    4    5 1     
    8    4    6 ar    
    9    6    7 ar    
   10    7   11 1     
   11    7    8 ar    
   12    8    9 1     
   13    9   10 2     
   14   10   11 1     
   15   10   27 1     
   16   11   12 1     
   17   12   21 1     
   18   12   19 1     
   19   12   13 1     
   20   13   14 1     
   21   14   22 1     
   22   14   15 1     
   23   14   17 1     
   24   15   16 1     
   25   15   28 1     
   26   15   29 1     
   27   16   30 1     
   28   17   23 1     
   29   17   18 1     
   30   17   19 1     
   31   18   31 1     
   32   19   24 1     
   33   19   20 1     
   34    3   32 1     
   35    6   33 1     
   36    9   34 1     
   37   13   35 1     
   38   13   36 1     
   39   16   37 1     
   40   16   38 1     
   41   18   39 1     
   42   18   40 1     
@<TRIPOS>SUBSTRUCTURE
      1 S1             1
@<TRIPOS>SET
LONE_PAIRS      STATIC     ATOMS    <user>   **** ""
9 32 33 34 35 36 37 38 39 40
DONOR_HYDROGENS      STATIC     ATOMS    <user>   **** ""
4 25 26 30 31
ATOM$BLUE        STATIC     ATOMS    COLORGROUP SYSTEM
9 32 33 34 35 36 37 38 39 40
ATOM$RED        STATIC     ATOMS    COLORGROUP SYSTEM
4 25 26 30 31
