AV-unprocessed.smi:240|AV-procd|sdf|1827|dock5
  -GOLD-   2262020423D 1   1.00000     0.00000
 Structure written by MMmdl.
 55 59  0  0  0  0  0  0  0  0  1 V2000
  149.4346  143.9196  157.9305 O   0  0  0  0  0  0  0  0  0  0  0  0
  150.6340  143.1739  157.8707 C   0  0  1  0  0  0  0  0  0  0  0  0
  151.4819  143.4371  159.1283 C   0  0  0  0  0  0  0  0  0  0  0  0
  151.4662  142.1340  159.9285 C   0  0  0  0  0  0  0  0  0  0  0  0
  151.3213  141.0488  158.8660 C   0  0  0  0  0  0  0  0  0  0  0  0
  150.3359  141.6541  157.8556 C   0  0  2  0  0  0  0  0  0  0  0  0
  150.3102  140.9605  156.4569 C   0  0  2  0  0  0  0  0  0  0  0  0
  149.7401  141.8673  155.3335 C   0  0  0  0  0  0  0  0  0  0  0  0
  149.7201  141.1768  154.0905 O   0  0  0  0  0  0  0  0  0  0  0  0
  148.8817  140.0321  154.1390 C   0  0  0  0  0  0  0  0  0  0  0  0
  149.4569  139.0485  155.1639 C   0  0  0  0  0  0  0  0  0  0  0  0
  149.5802  139.6825  156.4725 N   0  0  0  0  0  0  0  0  0  0  0  0
  149.9554  138.7589  157.3888 C   0  0  0  0  0  0  0  0  0  0  0  0
  151.2720  138.4958  157.6025 N   0  0  0  0  0  0  0  0  0  0  0  0
  151.6307  137.5770  158.5044 C   0  0  0  0  0  0  0  0  0  0  0  0
  150.8517  136.8175  159.2784 N   0  0  0  0  0  0  0  0  0  0  0  0
  149.5301  137.0699  159.0529 C   0  0  0  0  0  0  0  0  0  0  0  0
  149.0014  138.0154  158.1316 C   0  0  0  0  0  0  0  0  0  0  0  0
  147.6136  138.0054  158.1777 N   0  0  0  0  0  0  0  0  0  0  0  0
  147.3359  137.1043  159.0803 C   0  0  0  0  0  0  0  0  0  0  0  0
  148.4266  136.4845  159.6498 N   0  0  0  0  0  0  0  0  0  0  0  0
  148.4086  135.4494  160.6725 C   0  0  0  0  0  0  0  0  0  0  0  0
  147.1194  134.5940  160.6684 C   0  0  1  0  0  0  0  0  0  0  0  0
  146.9453  134.0233  159.3830 O   0  0  0  0  0  0  0  0  0  0  0  0
  147.1542  133.4679  161.6935 C   0  0  0  0  0  0  0  0  0  0  0  0
  145.6812  133.2661  162.0211 C   0  0  0  0  0  0  0  0  0  0  0  0
  145.1781  134.5911  162.0488 O   0  0  0  0  0  0  0  0  0  0  0  0
  145.8322  135.3581  161.0419 C   0  0  0  0  0  0  0  0  0  0  0  0
  149.3235  144.3768  157.1106 H   0  0  0  0  0  0  0  0  0  0  0  0
  151.1841  143.4978  156.9890 H   0  0  0  0  0  0  0  0  0  0  0  0
  152.5065  143.6583  158.8271 H   0  0  0  0  0  0  0  0  0  0  0  0
  151.1320  144.2853  159.7184 H   0  0  0  0  0  0  0  0  0  0  0  0
  152.3589  142.0072  160.5416 H   0  0  0  0  0  0  0  0  0  0  0  0
  150.6000  142.1183  160.5915 H   0  0  0  0  0  0  0  0  0  0  0  0
  152.2984  140.8678  158.4212 H   0  0  0  0  0  0  0  0  0  0  0  0
  150.9657  140.1051  159.2806 H   0  0  0  0  0  0  0  0  0  0  0  0
  149.3618  141.5108  158.3255 H   0  0  0  0  0  0  0  0  0  0  0  0
  151.3426  140.7360  156.1846 H   0  0  0  0  0  0  0  0  0  0  0  0
  148.7336  142.2184  155.5602 H   0  0  0  0  0  0  0  0  0  0  0  0
  150.3578  142.7526  155.1941 H   0  0  0  0  0  0  0  0  0  0  0  0
  147.8593  140.3153  154.3947 H   0  0  0  0  0  0  0  0  0  0  0  0
  148.8507  139.5712  153.1518 H   0  0  0  0  0  0  0  0  0  0  0  0
  148.8110  138.1714  155.2294 H   0  0  0  0  0  0  0  0  0  0  0  0
  150.4371  138.7016  154.8330 H   0  0  0  0  0  0  0  0  0  0  0  0
  152.6938  137.4285  158.6227 H   0  0  0  0  0  0  0  0  0  0  0  0
  146.3190  136.8658  159.3555 H   0  0  0  0  0  0  0  0  0  0  0  0
  149.2827  134.8122  160.5310 H   0  0  0  0  0  0  0  0  0  0  0  0
  148.5367  135.9307  161.6428 H   0  0  0  0  0  0  0  0  0  0  0  0
  146.3902  134.5939  158.8738 H   0  0  0  0  0  0  0  0  0  0  0  0
  147.6437  132.5613  161.3355 H   0  0  0  0  0  0  0  0  0  0  0  0
  147.6762  133.7928  162.5946 H   0  0  0  0  0  0  0  0  0  0  0  0
  145.1790  132.6991  161.2360 H   0  0  0  0  0  0  0  0  0  0  0  0
  145.5240  132.7554  162.9711 H   0  0  0  0  0  0  0  0  0  0  0  0
  146.0433  136.3421  161.4593 H   0  0  0  0  0  0  0  0  0  0  0  0
  145.1715  135.5017  160.1855 H   0  0  0  0  0  0  0  0  0  0  0  0
  1  2  1  0  0  0  0
  1 29  1  0  0  0  0
  2  6  1  0  0  0  0
  2  3  1  0  0  0  0
  2 30  1  0  0  0  0
  3  4  1  0  0  0  0
  3 31  1  0  0  0  0
  3 32  1  0  0  0  0
  4  5  1  0  0  0  0
  4 33  1  0  0  0  0
  4 34  1  0  0  0  0
  5  6  1  0  0  0  0
  5 35  1  0  0  0  0
  5 36  1  0  0  0  0
  6  7  1  0  0  0  0
  6 37  1  0  0  0  0
  7 12  1  0  0  0  0
  7  8  1  0  0  0  0
  7 38  1  0  0  0  0
  8  9  1  0  0  0  0
  8 39  1  0  0  0  0
  8 40  1  0  0  0  0
  9 10  1  0  0  0  0
 10 11  1  0  0  0  0
 10 41  1  0  0  0  0
 10 42  1  0  0  0  0
 11 12  1  0  0  0  0
 11 43  1  0  0  0  0
 11 44  1  0  0  0  0
 12 13  1  0  0  0  0
 13 18  1  0  0  0  0
 13 14  2  0  0  0  0
 14 15  1  0  0  0  0
 15 16  2  0  0  0  0
 15 45  1  0  0  0  0
 16 17  1  0  0  0  0
 17 21  1  0  0  0  0
 17 18  2  0  0  0  0
 18 19  1  0  0  0  0
 19 20  2  0  0  0  0
 20 21  1  0  0  0  0
 20 46  1  0  0  0  0
 21 22  1  0  0  0  0
 22 23  1  0  0  0  0
 22 47  1  0  0  0  0
 22 48  1  0  0  0  0
 23 28  1  0  0  0  0
 23 24  1  0  0  0  0
 23 25  1  0  0  0  0
 24 49  1  0  0  0  0
 25 26  1  0  0  0  0
 25 50  1  0  0  0  0
 25 51  1  0  0  0  0
 26 27  1  0  0  0  0
 26 52  1  0  0  0  0
 26 53  1  0  0  0  0
 27 28  1  0  0  0  0
 28 54  1  0  0  0  0
 28 55  1  0  0  0  0
M  END
> <s_m_source_file>
AV-unprocessed.smi

> <i_m_source_file_index>
240

> <i_lp_mmshare_version>
43012

> <i_f3d_flags>
0

> <s_epik_input>
W09IXVtDQEBIXTFbQ0gyXVtDSDJdW0NIMl1bQ0BIXTFbQ0BASF0yW0NIMl1PW0NIMl1bQ0gyXU4yYyhuW2NIXW4zKWMoYzM0KW5bY0hdbjRbQ0gyXVtDQEBdNShbT0hdKVtDSDJdW0NIMl1PW0NIMl01

> <s_epik_cmdline>
J2VwaWtfcHl0aG9uJywgJy1waCcsICc3LjAnLCAnLXRuJywgJzgnLCAnLW1hJywgJzIwMCcsICctbWV0YWxfYmluZGluZycsICctaW1hZScsICc8aW5maWxlLm1hZT4nLCAnLW9tYWUnLCAnPG91dGZpbGUubWFlPic=

> <r_lp_tautomer_probability>
1

> <r_epik_Ionization_Penalty>
0.000130618

> <r_epik_Ionization_Penalty_Charging>
0

> <r_epik_Ionization_Penalty_Neutral>
0.000130618

> <r_epik_State_Penalty>
-0

> <r_epik_Charging_Adjusted_Penalty>
0

> <i_epik_Tot_Q>
0

> <i_epik_Tot_abs_Q>
0

> <r_epik_Metal_State_Penalty>
-0

> <b_epik_Metal_Only>
0

> <s_lp_Force_Field>
OPLS_2005

> <r_lp_Energy>
61.8297

> <b_lp_Chiralities_Consistent>
1

> <s_lp_Variant>
AV-unprocessed.smi:240-4

> <Gold.Version>
5.8.1

> <Gold.Id.Protein>
6NUR|6NUR_protein|mol2

> <Gold.PLP.Fitness>
46.0381

> <Gold.PLP.PLP>
-40.2593

> <Gold.PLP.part.hbond>
-5.4458

> <Gold.PLP.part.metal>
0.0000

> <Gold.PLP.part.buried>
-3.3347

> <Gold.PLP.part.nonpolar>
-32.2776

> <Gold.PLP.part.repulsive>
0.2416

> <Gold.PLP.ligand.clash>
0.0000

> <Gold.PLP.ligand.torsion>
1.3664

> <Gold.PLP.Chemscore.Hbond>
2.7651

> <Gold.PLP.Chemscore.CHOScore>
0.0000

> <Gold.PLP.Chemscore.Metal>
0.0000

> <Gold.Chemscore.Hbonds>
donor molecule, donor type, donor heavy atom, donor atom, acceptor molecule, acceptor atom, score
      L1  H     1    29       P1  8028  0.73
      P1  H  6896  6909       L1    16  1.00
      P1  H  7989  7998       L1     9  0.40
      P1  H  8011  8017       L1     9  0.55

> <Gold.PLP.Chemscore.Internal.Correction>
0.2164

> <Gold.Rescore>
     Score         DG    S(hbond)    S(metal)    S(lipo)     H(rot)  DE(clash)    DE(int)     intcor
     13.94     -16.97       2.27        0.00      99.20       3.00       1.65       1.38       ----

> <Gold.Chemscore.Fitness>
13.9384

> <Gold.Chemscore.DG>
-16.9686

> <Gold.Chemscore.ZeroCoef>
-5.4800

> <Gold.Chemscore.Hbond>
2.2669

> <Gold.Chemscore.Metal>
0.0000

> <Gold.Chemscore.Lipo>
99.2044

> <Gold.Chemscore.Internal_Hbond>
0.0000

> <Gold.Chemscore.DEClash>
1.6466

> <Gold.Chemscore.DEInternal>
1.3836

> <Gold.Chemscore.Rot>
3.0039

> <Gold.Chemscore.Internal.Correction>
   9.000000E+99

> <Gold.Chemscore.Hbonds>
donor molecule, donor type, donor heavy atom, donor atom, acceptor molecule, acceptor atom, score
      L1  H     1    29       P1  8028  0.09
      P1  H  6896  6909       L1    16  0.58
      P1  H  7989  7998       L1     9  0.26
      P1  H  8011  8017       L1     9  0.48

> <Gold.Chemscore.Hbond.Weighted>
-7.5716

> <Gold.Chemscore.Metal.Weighted>
-0.0000

> <Gold.Chemscore.Lipo.Weighted>
-11.6069

> <Gold.Chemscore.Internal_Hbond.Weighted>
0.0000

> <Gold.Chemscore.DEClash.Weighted>
1.6466

> <Gold.Chemscore.DEInternal.Weighted>
1.3836

> <Gold.Chemscore.Rot.Weighted>
7.6899

> <Gold.Chemscore.Internal.Correction.Weighted>
   9.000000E+99

> <Gold.Protein.RotatedTorsions>
[ 6907 6896 6895 6894 ] final   81.45 input  -60.11 | X-H torsion
[ 7974 7965 7964 7962 ] final  -89.31 input  175.53 | X-H torsion
[ 8008 7997 7996 7995 ] final   39.28 input   59.86 | X-H torsion
[ 10167 10162 10161 10158 ] final  145.52 input  -65.29 | X-H torsion
[ 10718 10713 10712 10709 ] final -138.17 input   66.30 | X-H torsion
[ 10763 10752 10751 10750 ] final  -10.19 input  -60.55 | X-H torsion
[ 11005 11000 10999 10996 ] final   35.96 input  -57.11 | X-H torsion

> <Gold.Protein.ActiveResidues>
 VAL166  LYS551  ARG553  GLY616  TRP617  ASP618  TYR619  PRO620  LYS621  CYS622 
 ASP623  PHE694  ASN695  SER759  ASP760  ASP761  ALA762  ILE779  LEU786  VAL792 
 PHE793  MET794  SER795  GLU796  ALA797  LYS798  CYS799  TRP800  GLU811  SER814 

> <Gold.Protein.RotatedAtoms>
  152.5268  134.3202  159.9145 H   0  0  0  0  0  0  0  0  0  0  0  0  # atno 6907 bound_to 6896
  151.3151  133.4057  159.2657 H   0  0  0  0  0  0  0  0  0  0  0  0  # atno 6908 bound_to 6896
  151.0005  134.9335  159.8009 H   0  0  0  0  0  0  0  0  0  0  0  0  # atno 6909 bound_to 6896
  145.4416  140.9559  143.2072 H   0  0  0  0  0  0  0  0  0  0  0  0  # atno 7974 bound_to 7965
  155.2340  140.3340  155.4300 H   0  0  0  0  0  0  0  0  0  0  0  0  # atno 8008 bound_to 7997
  156.2283  140.1839  156.7353 H   0  0  0  0  0  0  0  0  0  0  0  0  # atno 8009 bound_to 7997
  154.5935  140.0634  156.9257 H   0  0  0  0  0  0  0  0  0  0  0  0  # atno 8010 bound_to 7997
  139.4924  144.5896  151.6708 H   0  0  0  0  0  0  0  0  0  0  0  0  # atno 10167 bound_to 10162
  156.2964  130.7404  151.1443 H   0  0  0  0  0  0  0  0  0  0  0  0  # atno 10718 bound_to 10713
  153.4657  135.7016  153.6024 H   0  0  0  0  0  0  0  0  0  0  0  0  # atno 10763 bound_to 10752
  153.4299  135.3805  155.2164 H   0  0  0  0  0  0  0  0  0  0  0  0  # atno 10764 bound_to 10752
  154.8726  135.3948  154.4088 H   0  0  0  0  0  0  0  0  0  0  0  0  # atno 10765 bound_to 10752
  140.2374  134.3456  155.7939 H   0  0  0  0  0  0  0  0  0  0  0  0  # atno 11005 bound_to 11000
  144.8118  139.5948  143.7026 LP  0  0  0  0  0  0  0  0  0  0  0  0  # atno 17320 bound_to 7965
  146.2553  139.6289  142.9399 LP  0  0  0  0  0  0  0  0  0  0  0  0  # atno 17321 bound_to 7965
  140.5520  144.0410  150.6131 LP  0  0  0  0  0  0  0  0  0  0  0  0  # atno 17342 bound_to 10162
  140.3467  143.2987  152.0530 LP  0  0  0  0  0  0  0  0  0  0  0  0  # atno 17343 bound_to 10162
  157.7356  131.0570  150.5459 LP  0  0  0  0  0  0  0  0  0  0  0  0  # atno 17370 bound_to 10713
  156.5581  130.4248  149.6075 LP  0  0  0  0  0  0  0  0  0  0  0  0  # atno 17371 bound_to 10713
  141.2213  133.7279  156.8829 LP  0  0  0  0  0  0  0  0  0  0  0  0  # atno 17394 bound_to 11000
  140.1688  134.9114  157.2808 LP  0  0  0  0  0  0  0  0  0  0  0  0  # atno 17395 bound_to 11000

$$$$
