AV-unprocessed.smi:1867|AV-procd|sdf|7578|dock1
  -GOLD-   22720 9293D 1   1.00000     0.00000
 Structure written by MMmdl.
 52 55  0  0  0  0  0  0  0  0  4 V2000
  147.7539  137.7576  154.2335 O   0  0  0  0  0  0  0  0  0  0  0  0
  147.3418  138.5830  153.4212 C   0  0  0  0  0  0  0  0  0  0  0  0
  147.8039  139.8567  153.4822 N   0  0  0  0  0  0  0  0  0  0  0  0
  148.6972  140.4504  154.4142 C   0  0  0  0  0  0  0  0  0  0  0  0
  149.7723  139.6667  154.8818 C   0  0  0  0  0  0  0  0  0  0  0  0
  150.6997  140.2183  155.7888 C   0  0  0  0  0  0  0  0  0  0  0  0
  150.5520  141.5605  156.2123 C   0  0  0  0  0  0  0  0  0  0  0  0
  151.4373  142.1781  157.1163 N   0  0  0  0  0  0  0  0  0  0  0  0
  151.2857  143.5751  157.4889 C   0  0  0  0  0  0  0  0  0  0  0  0
  152.2953  143.7889  158.6161 C   0  0  0  0  0  0  0  0  0  0  0  0
  152.3426  142.4255  159.3054 C   0  0  0  0  0  0  0  0  0  0  0  0
  152.1090  141.4251  158.1679 C   0  0  0  0  0  0  0  0  0  0  0  0
  149.5101  142.2788  155.7298 N   0  3  0  0  0  0  0  0  0  0  0  0
  148.5996  141.7896  154.8606 C   0  0  0  0  0  0  0  0  0  0  0  0
  146.4502  138.2305  152.4456 N   0  5  0  0  0  0  0  0  0  0  0  0
  145.3017  137.3106  152.5259 C   0  0  2  0  0  0  0  0  0  0  0  0
  145.2304  136.7044  153.9284 C   0  0  0  0  0  0  0  0  0  0  0  0
  146.1930  135.5123  153.8917 C   0  0  0  0  0  0  0  0  0  0  0  0
  146.3156  135.1119  152.4701 N   0  3  1  0  0  0  0  0  0  0  0  0
  146.0454  133.6716  152.2120 C   0  0  0  0  0  0  0  0  0  0  0  0
  145.8029  133.4175  150.7160 C   0  0  0  0  0  0  0  0  0  0  0  0
  144.5734  134.1926  150.2025 C   0  0  0  0  0  0  0  0  0  0  0  0
  144.2515  135.4262  151.0694 C   0  0  0  0  0  0  0  0  0  0  0  0
  145.5434  136.0744  151.6312 C   0  0  1  0  0  0  0  0  0  0  0  0
  147.5003  140.4600  152.7323 H   0  0  0  0  0  0  0  0  0  0  0  0
  149.8858  138.6439  154.5527 H   0  0  0  0  0  0  0  0  0  0  0  0
  151.5116  139.6033  156.1465 H   0  0  0  0  0  0  0  0  0  0  0  0
  151.4781  144.2414  156.6475 H   0  0  0  0  0  0  0  0  0  0  0  0
  150.2689  143.7485  157.8448 H   0  0  0  0  0  0  0  0  0  0  0  0
  153.2745  144.0224  158.1958 H   0  0  0  0  0  0  0  0  0  0  0  0
  152.0148  144.5995  159.2895 H   0  0  0  0  0  0  0  0  0  0  0  0
  153.2773  142.2494  159.8386 H   0  0  0  0  0  0  0  0  0  0  0  0
  151.5276  142.3552  160.0271 H   0  0  0  0  0  0  0  0  0  0  0  0
  151.5238  140.5725  158.5140 H   0  0  0  0  0  0  0  0  0  0  0  0
  153.0579  141.0535  157.7797 H   0  0  0  0  0  0  0  0  0  0  0  0
  147.8429  142.4945  154.5504 H   0  0  0  0  0  0  0  0  0  0  0  0
  144.3624  137.8056  152.2751 H   0  0  0  0  0  0  0  0  0  0  0  0
  145.4647  137.4131  154.7243 H   0  0  0  0  0  0  0  0  0  0  0  0
  144.2175  136.3417  154.1083 H   0  0  0  0  0  0  0  0  0  0  0  0
  147.1822  135.8015  154.2518 H   0  0  0  0  0  0  0  0  0  0  0  0
  145.8432  134.7029  154.5341 H   0  0  0  0  0  0  0  0  0  0  0  0
  146.8897  133.0827  152.5715 H   0  0  0  0  0  0  0  0  0  0  0  0
  145.1692  133.3466  152.7758 H   0  0  0  0  0  0  0  0  0  0  0  0
  146.6880  133.7266  150.1579 H   0  0  0  0  0  0  0  0  0  0  0  0
  145.6789  132.3515  150.5233 H   0  0  0  0  0  0  0  0  0  0  0  0
  144.7516  134.4967  149.1704 H   0  0  0  0  0  0  0  0  0  0  0  0
  143.7006  133.5391  150.1794 H   0  0  0  0  0  0  0  0  0  0  0  0
  143.6757  136.1372  150.4735 H   0  0  0  0  0  0  0  0  0  0  0  0
  143.5964  135.1158  151.8868 H   0  0  0  0  0  0  0  0  0  0  0  0
  146.1606  136.3453  150.7723 H   0  0  0  0  0  0  0  0  0  0  0  0
  147.2823  135.2750  152.2261 H   0  0  0  0  0  0  0  0  0  0  0  0
  149.4086  143.2469  156.0341 H   0  0  0  0  0  0  0  0  0  0  0  0
  1  2  2  0  0  0  0
  2  3  1  0  0  0  0
  2 15  1  0  0  0  0
  3  4  1  0  0  0  0
  3 25  1  0  0  0  0
  4 14  1  0  0  0  0
  4  5  2  0  0  0  0
  5  6  1  0  0  0  0
  5 26  1  0  0  0  0
  6  7  2  0  0  0  0
  6 27  1  0  0  0  0
  7  8  1  0  0  0  0
  7 13  1  0  0  0  0
  8 12  1  0  0  0  0
  8  9  1  0  0  0  0
  9 10  1  0  0  0  0
  9 28  1  0  0  0  0
  9 29  1  0  0  0  0
 10 11  1  0  0  0  0
 10 30  1  0  0  0  0
 10 31  1  0  0  0  0
 11 12  1  0  0  0  0
 11 32  1  0  0  0  0
 11 33  1  0  0  0  0
 12 34  1  0  0  0  0
 12 35  1  0  0  0  0
 13 14  2  0  0  0  0
 13 52  1  0  0  0  0
 14 36  1  0  0  0  0
 15 16  1  0  0  0  0
 16 24  1  0  0  0  0
 16 17  1  0  0  0  0
 16 37  1  0  0  0  0
 17 18  1  0  0  0  0
 17 38  1  0  0  0  0
 17 39  1  0  0  0  0
 18 19  1  0  0  0  0
 18 40  1  0  0  0  0
 18 41  1  0  0  0  0
 19 24  1  0  0  0  0
 19 20  1  0  0  0  0
 19 51  1  0  0  0  0
 20 21  1  0  0  0  0
 20 42  1  0  0  0  0
 20 43  1  0  0  0  0
 21 22  1  0  0  0  0
 21 44  1  0  0  0  0
 21 45  1  0  0  0  0
 22 23  1  0  0  0  0
 22 46  1  0  0  0  0
 22 47  1  0  0  0  0
 23 24  1  0  0  0  0
 23 48  1  0  0  0  0
 23 49  1  0  0  0  0
 24 50  1  0  0  0  0
M  CHG  1  13   1
M  CHG  1  15  -1
M  CHG  1  19   1
M  END
> <s_m_source_file>
AV-unprocessed.smi

> <i_m_source_file_index>
1867

> <i_lp_mmshare_version>
43012

> <i_f3d_flags>
0

> <s_epik_input>
W0NIMl0xW0NIMl1bQ0gyXVtDSDJdW0NASF0oTjEyKVtDQEBIXShbQ0gyXVtDSDJdMilbTkhdQyg9TylbTkhdYzNbY0hdW2NIXWMobltjSF0zKU40W0NIMl1bQ0gyXVtDSDJdW0NIMl00

> <s_epik_cmdline>
J2VwaWtfcHl0aG9uJywgJy1waCcsICc3LjAnLCAnLXRuJywgJzgnLCAnLW1hJywgJzIwMCcsICctbWV0YWxfYmluZGluZycsICctaW1hZScsICc8aW5maWxlLm1hZT4nLCAnLW9tYWUnLCAnPG91dGZpbGUubWFlPic=

> <r_lp_tautomer_probability>
0.999994

> <r_epik_Ionization_Penalty>
8.56137

> <r_epik_Ionization_Penalty_Charging>
8.56136

> <r_epik_Ionization_Penalty_Neutral>
3.91889e-06

> <r_epik_State_Penalty>
8.16255

> <r_epik_Charging_Adjusted_Penalty>
16.7239

> <i_epik_Tot_Q>
1

> <i_epik_Tot_abs_Q>
3

> <r_epik_Metal_State_Penalty>
4.14279

> <b_epik_Metal_Only>
1

> <s_lp_Force_Field>
OPLS_2005

> <r_lp_Energy>
71.5854

> <b_lp_Chiralities_Consistent>
1

> <s_lp_Variant>
AV-unprocessed.smi:1867-19

> <Gold.Version>
5.8.1

> <Gold.Id.Protein>
6NUR|6NUR_protein|mol2

> <Gold.PLP.Fitness>
52.9964

> <Gold.PLP.PLP>
-42.2480

> <Gold.PLP.part.hbond>
-2.8604

> <Gold.PLP.part.metal>
0.0000

> <Gold.PLP.part.buried>
-3.6516

> <Gold.PLP.part.nonpolar>
-38.3634

> <Gold.PLP.part.repulsive>
1.0278

> <Gold.PLP.ligand.clash>
0.0000

> <Gold.PLP.ligand.torsion>
0.7725

> <Gold.PLP.Chemscore.Hbond>
4.0000

> <Gold.PLP.Chemscore.CHOScore>
0.0000

> <Gold.PLP.Chemscore.Metal>
0.0000

> <Gold.Chemscore.Hbonds>
donor molecule, donor type, donor heavy atom, donor atom, acceptor molecule, acceptor atom, score
      L1  H    13    52       P1  8028  1.86
      L1  H    19    51       P1  7948  2.00

> <Gold.PLP.Chemscore.Internal.Correction>
0.2935

> <Gold.Rescore>
     Score         DG    S(hbond)    S(metal)    S(lipo)     H(rot)  DE(clash)    DE(int)     intcor
     16.10     -21.40       1.89        0.00     103.89       1.00       0.42       4.87       ----

> <Gold.Chemscore.Fitness>
16.1047

> <Gold.Chemscore.DG>
-21.3951

> <Gold.Chemscore.ZeroCoef>
-5.4800

> <Gold.Chemscore.Hbond>
1.8921

> <Gold.Chemscore.Metal>
0.0000

> <Gold.Chemscore.Lipo>
103.8925

> <Gold.Chemscore.Internal_Hbond>
0.0000

> <Gold.Chemscore.DEClash>
0.4173

> <Gold.Chemscore.DEInternal>
4.8730

> <Gold.Chemscore.Rot>
1.0000

> <Gold.Chemscore.Internal.Correction>
   9.000000E+99

> <Gold.Chemscore.Hbonds>
donor molecule, donor type, donor heavy atom, donor atom, acceptor molecule, acceptor atom, score
      L1  H    13    52       P1  8028  0.89
      L1  H    19    51       P1  7948  0.99

> <Gold.Chemscore.Hbond.Weighted>
-6.3196

> <Gold.Chemscore.Metal.Weighted>
-0.0000

> <Gold.Chemscore.Lipo.Weighted>
-12.1554

> <Gold.Chemscore.Internal_Hbond.Weighted>
0.0000

> <Gold.Chemscore.DEClash.Weighted>
0.4173

> <Gold.Chemscore.DEInternal.Weighted>
4.8730

> <Gold.Chemscore.Rot.Weighted>
2.5600

> <Gold.Chemscore.Internal.Correction.Weighted>
   9.000000E+99

> <Gold.Protein.RotatedTorsions>
[ 6907 6896 6895 6894 ] final  -78.84 input  -60.11 | X-H torsion
[ 7974 7965 7964 7962 ] final  -53.47 input  175.53 | X-H torsion
[ 8008 7997 7996 7995 ] final   28.79 input   59.86 | X-H torsion
[ 10167 10162 10161 10158 ] final -125.98 input  -65.29 | X-H torsion
[ 10718 10713 10712 10709 ] final  -20.81 input   66.30 | X-H torsion
[ 10763 10752 10751 10750 ] final   32.27 input  -60.55 | X-H torsion
[ 11005 11000 10999 10996 ] final   78.31 input  -57.11 | X-H torsion

> <Gold.Protein.ActiveResidues>
 VAL166  LYS551  ARG553  GLY616  TRP617  ASP618  TYR619  PRO620  LYS621  CYS622 
 ASP623  PHE694  ASN695  SER759  ASP760  ASP761  ALA762  ILE779  LEU786  VAL792 
 PHE793  MET794  SER795  GLU796  ALA797  LYS798  CYS799  TRP800  GLU811  SER814 

> <Gold.Protein.RotatedAtoms>
  150.6963  134.4211  159.5205 H   0  0  0  0  0  0  0  0  0  0  0  0  # atno 6907 bound_to 6896
  152.1954  134.8633  160.0522 H   0  0  0  0  0  0  0  0  0  0  0  0  # atno 6908 bound_to 6896
  151.9573  133.3649  159.4059 H   0  0  0  0  0  0  0  0  0  0  0  0  # atno 6909 bound_to 6896
  145.8964  140.8029  142.9765 H   0  0  0  0  0  0  0  0  0  0  0  0  # atno 7974 bound_to 7965
  155.0642  140.3193  155.4651 H   0  0  0  0  0  0  0  0  0  0  0  0  # atno 8008 bound_to 7997
  156.2806  140.2123  156.5714 H   0  0  0  0  0  0  0  0  0  0  0  0  # atno 8009 bound_to 7997
  154.7107  140.0498  157.0535 H   0  0  0  0  0  0  0  0  0  0  0  0  # atno 8010 bound_to 7997
  139.9763  143.5791  152.2395 H   0  0  0  0  0  0  0  0  0  0  0  0  # atno 10167 bound_to 10162
  156.5267  130.4645  149.6568 H   0  0  0  0  0  0  0  0  0  0  0  0  # atno 10718 bound_to 10713
  153.0271  135.6417  154.1329 H   0  0  0  0  0  0  0  0  0  0  0  0  # atno 10763 bound_to 10752
  154.1057  135.2856  155.3243 H   0  0  0  0  0  0  0  0  0  0  0  0  # atno 10764 bound_to 10752
  154.6367  135.5474  153.7805 H   0  0  0  0  0  0  0  0  0  0  0  0  # atno 10765 bound_to 10752
  139.9218  134.7753  156.1633 H   0  0  0  0  0  0  0  0  0  0  0  0  # atno 11005 bound_to 11000
  144.6733  140.1610  143.7422 LP  0  0  0  0  0  0  0  0  0  0  0  0  # atno 17320 bound_to 7965
  145.8845  139.2341  143.1586 LP  0  0  0  0  0  0  0  0  0  0  0  0  # atno 17321 bound_to 7965
  139.6443  144.7657  151.2275 LP  0  0  0  0  0  0  0  0  0  0  0  0  # atno 17342 bound_to 10162
  140.7505  143.6265  150.8464 LP  0  0  0  0  0  0  0  0  0  0  0  0  # atno 17343 bound_to 10162
  156.3098  130.7223  151.2113 LP  0  0  0  0  0  0  0  0  0  0  0  0  # atno 17370 bound_to 10713
  157.7428  131.0484  150.4994 LP  0  0  0  0  0  0  0  0  0  0  0  0  # atno 17371 bound_to 10713
  141.0744  133.6782  156.2207 LP  0  0  0  0  0  0  0  0  0  0  0  0  # atno 17394 bound_to 11000
  140.6452  134.5124  157.5573 LP  0  0  0  0  0  0  0  0  0  0  0  0  # atno 17395 bound_to 11000

$$$$
