AV-unprocessed.smi:1964|AV-procd|sdf|7929|dock1
  -GOLD-   2272010103D 1   1.00000     0.00000
 Structure written by MMmdl.
 46 48  0  0  0  0  0  0  0  0  1 V2000
  143.9491  137.0251  161.9760 C   0  0  0  0  0  0  0  0  0  0  0  0
  144.9602  135.9920  162.5036 C   0  0  1  0  0  0  0  0  0  0  0  0
  144.6752  134.5848  161.9356 C   0  0  0  0  0  0  0  0  0  0  0  0
  145.6574  133.5405  162.4913 C   0  0  0  0  0  0  0  0  0  0  0  0
  147.1169  133.9499  162.2397 C   0  0  0  0  0  0  0  0  0  0  0  0
  147.4072  135.3525  162.8036 C   0  0  0  0  0  0  0  0  0  0  0  0
  146.4300  136.4108  162.2514 C   0  0  1  0  0  0  0  0  0  0  0  0
  146.6607  136.6097  160.8246 N   0  0  0  0  0  0  0  0  0  0  0  0
  147.8360  136.8244  160.2127 C   0  0  0  0  0  0  0  0  0  0  0  0
  148.9066  136.8821  160.8155 O   0  0  0  0  0  0  0  0  0  0  0  0
  147.8159  136.9948  158.6824 C   0  0  0  0  0  0  0  0  0  0  0  0
  148.9846  137.7269  158.1372 N   0  0  0  0  0  0  0  0  0  0  0  0
  150.1869  137.0096  157.9067 C   0  0  0  0  0  0  0  0  0  0  0  0
  150.2716  135.8099  158.1739 O   0  0  0  0  0  0  0  0  0  0  0  0
  151.2819  137.7855  157.3297 C   0  0  0  0  0  0  0  0  0  0  0  0
  152.5203  137.1103  157.1233 C   0  0  0  0  0  0  0  0  0  0  0  0
  153.5284  136.5744  156.9341 N   0  0  0  0  0  0  0  0  0  0  0  0
  151.1167  139.0837  157.0026 C   0  0  0  0  0  0  0  0  0  0  0  0
  149.9211  139.7451  157.1791 N   0  0  0  0  0  0  0  0  0  0  0  0
  149.7967  141.1525  156.9252 C   0  0  0  0  0  0  0  0  0  0  0  0
  150.9016  141.8981  156.2013 C   0  0  0  0  0  0  0  0  0  0  0  0
  150.6894  142.1145  157.6787 C   0  0  0  0  0  0  0  0  0  0  0  0
  148.8362  139.0966  157.8073 C   0  0  0  0  0  0  0  0  0  0  0  0
  147.7852  139.6961  158.0464 O   0  0  0  0  0  0  0  0  0  0  0  0
  143.9901  137.1142  160.8901 H   0  0  0  0  0  0  0  0  0  0  0  0
  144.1408  138.0118  162.3979 H   0  0  0  0  0  0  0  0  0  0  0  0
  142.9301  136.7454  162.2435 H   0  0  0  0  0  0  0  0  0  0  0  0
  144.8215  135.9397  163.5848 H   0  0  0  0  0  0  0  0  0  0  0  0
  143.6548  134.2864  162.1782 H   0  0  0  0  0  0  0  0  0  0  0  0
  144.7363  134.6004  160.8462 H   0  0  0  0  0  0  0  0  0  0  0  0
  145.4931  133.4206  163.5628 H   0  0  0  0  0  0  0  0  0  0  0  0
  145.4610  132.5684  162.0382 H   0  0  0  0  0  0  0  0  0  0  0  0
  147.7897  133.2219  162.6939 H   0  0  0  0  0  0  0  0  0  0  0  0
  147.3235  133.9304  161.1686 H   0  0  0  0  0  0  0  0  0  0  0  0
  147.3279  135.3244  163.8912 H   0  0  0  0  0  0  0  0  0  0  0  0
  148.4370  135.6367  162.5834 H   0  0  0  0  0  0  0  0  0  0  0  0
  146.6097  137.3528  162.7728 H   0  0  0  0  0  0  0  0  0  0  0  0
  145.8389  136.5809  160.2390 H   0  0  0  0  0  0  0  0  0  0  0  0
  147.7339  136.0044  158.2326 H   0  0  0  0  0  0  0  0  0  0  0  0
  146.8812  137.4848  158.4056 H   0  0  0  0  0  0  0  0  0  0  0  0
  151.9484  139.6250  156.5746 H   0  0  0  0  0  0  0  0  0  0  0  0
  148.7840  141.5008  156.7301 H   0  0  0  0  0  0  0  0  0  0  0  0
  151.7912  141.3450  155.9058 H   0  0  0  0  0  0  0  0  0  0  0  0
  150.6067  142.6994  155.5270 H   0  0  0  0  0  0  0  0  0  0  0  0
  150.2551  143.0622  157.9904 H   0  0  0  0  0  0  0  0  0  0  0  0
  151.4368  141.7009  158.3534 H   0  0  0  0  0  0  0  0  0  0  0  0
  1  2  1  0  0  0  0
  1 25  1  0  0  0  0
  1 26  1  0  0  0  0
  1 27  1  0  0  0  0
  2  7  1  0  0  0  0
  2  3  1  0  0  0  0
  2 28  1  0  0  0  0
  3  4  1  0  0  0  0
  3 29  1  0  0  0  0
  3 30  1  0  0  0  0
  4  5  1  0  0  0  0
  4 31  1  0  0  0  0
  4 32  1  0  0  0  0
  5  6  1  0  0  0  0
  5 33  1  0  0  0  0
  5 34  1  0  0  0  0
  6  7  1  0  0  0  0
  6 35  1  0  0  0  0
  6 36  1  0  0  0  0
  7  8  1  0  0  0  0
  7 37  1  0  0  0  0
  8  9  1  0  0  0  0
  8 38  1  0  0  0  0
  9 10  2  0  0  0  0
  9 11  1  0  0  0  0
 11 12  1  0  0  0  0
 11 39  1  0  0  0  0
 11 40  1  0  0  0  0
 12 23  1  0  0  0  0
 12 13  1  0  0  0  0
 13 14  2  0  0  0  0
 13 15  1  0  0  0  0
 15 16  1  0  0  0  0
 15 18  2  0  0  0  0
 16 17  3  0  0  0  0
 18 19  1  0  0  0  0
 18 41  1  0  0  0  0
 19 20  1  0  0  0  0
 19 23  1  0  0  0  0
 20 22  1  0  0  0  0
 20 21  1  0  0  0  0
 20 42  1  0  0  0  0
 21 22  1  0  0  0  0
 21 43  1  0  0  0  0
 21 44  1  0  0  0  0
 22 45  1  0  0  0  0
 22 46  1  0  0  0  0
 23 24  2  0  0  0  0
M  END
> <s_m_source_file>
AV-unprocessed.smi

> <i_m_source_file_index>
1964

> <i_lp_mmshare_version>
43012

> <i_f3d_flags>
0

> <s_epik_input>
W0NIM11bQ0BASF0xW0NIMl1bQ0gyXVtDSDJdW0NIMl1bQ0BIXTFbTkhdQyg9TylbQ0gyXW4yYyg9TyljKEMjTilbY0hdbihjMj1PKVtDSF0zW0NIMl1bQ0gyXTM=

> <s_epik_cmdline>
J2VwaWtfcHl0aG9uJywgJy1waCcsICc3LjAnLCAnLXRuJywgJzgnLCAnLW1hJywgJzIwMCcsICctbWV0YWxfYmluZGluZycsICctaW1hZScsICc8aW5maWxlLm1hZT4nLCAnLW9tYWUnLCAnPG91dGZpbGUubWFlPic=

> <r_lp_tautomer_probability>
1

> <r_epik_Ionization_Penalty>
1.91372e-08

> <r_epik_Ionization_Penalty_Charging>
9.0283e-11

> <r_epik_Ionization_Penalty_Neutral>
1.90469e-08

> <r_epik_State_Penalty>
-0

> <r_epik_Charging_Adjusted_Penalty>
9.0283e-11

> <i_epik_Tot_Q>
0

> <i_epik_Tot_abs_Q>
0

> <r_epik_Metal_State_Penalty>
-0

> <b_epik_Metal_Only>
0

> <s_lp_Force_Field>
OPLS_2005

> <r_lp_Energy>
33.6562

> <b_lp_Chiralities_Consistent>
1

> <s_lp_Variant>
AV-unprocessed.smi:1964-2

> <Gold.Version>
5.8.1

> <Gold.Id.Protein>
6NUR|6NUR_protein|mol2

> <Gold.PLP.Fitness>
44.3862

> <Gold.PLP.PLP>
-37.5612

> <Gold.PLP.part.hbond>
-4.0000

> <Gold.PLP.part.metal>
0.0000

> <Gold.PLP.part.buried>
-6.5303

> <Gold.PLP.part.nonpolar>
-26.5792

> <Gold.PLP.part.repulsive>
0.1405

> <Gold.PLP.ligand.clash>
0.0000

> <Gold.PLP.ligand.torsion>
0.8050

> <Gold.PLP.Chemscore.Hbond>
2.7440

> <Gold.PLP.Chemscore.CHOScore>
0.0000

> <Gold.PLP.Chemscore.Metal>
0.0000

> <Gold.Chemscore.Hbonds>
donor molecule, donor type, donor heavy atom, donor atom, acceptor molecule, acceptor atom, score
      P1  H  6896  6907       L1    14  0.83
      P1  H  6931  6943       L1    10  0.90
      P1  H 10752 10764       L1    17  1.00

> <Gold.PLP.Chemscore.Internal.Correction>
0.2031

> <Gold.Rescore>
     Score         DG    S(hbond)    S(metal)    S(lipo)     H(rot)  DE(clash)    DE(int)     intcor
     19.57     -20.01       2.92        0.00      77.99       1.70       0.02       0.42       ----

> <Gold.Chemscore.Fitness>
19.5671

> <Gold.Chemscore.DG>
-20.0055

> <Gold.Chemscore.ZeroCoef>
-5.4800

> <Gold.Chemscore.Hbond>
2.9227

> <Gold.Chemscore.Metal>
0.0000

> <Gold.Chemscore.Lipo>
77.9943

> <Gold.Chemscore.Internal_Hbond>
0.0000

> <Gold.Chemscore.DEClash>
0.0162

> <Gold.Chemscore.DEInternal>
0.4222

> <Gold.Chemscore.Rot>
1.7038

> <Gold.Chemscore.Internal.Correction>
   9.000000E+99

> <Gold.Chemscore.Hbonds>
donor molecule, donor type, donor heavy atom, donor atom, acceptor molecule, acceptor atom, score
      P1  H  6896  6907       L1    14  0.81
      P1  H  6931  6943       L1    10  0.80
      P1  H 10752 10764       L1    17  0.91

> <Gold.Chemscore.Hbond.Weighted>
-9.7619

> <Gold.Chemscore.Metal.Weighted>
-0.0000

> <Gold.Chemscore.Lipo.Weighted>
-9.1253

> <Gold.Chemscore.Internal_Hbond.Weighted>
0.0000

> <Gold.Chemscore.DEClash.Weighted>
0.0162

> <Gold.Chemscore.DEInternal.Weighted>
0.4222

> <Gold.Chemscore.Rot.Weighted>
4.3618

> <Gold.Chemscore.Internal.Correction.Weighted>
   9.000000E+99

> <Gold.Protein.RotatedTorsions>
[ 6907 6896 6895 6894 ] final  -55.49 input  -60.11 | X-H torsion
[ 7974 7965 7964 7962 ] final  -11.88 input  175.53 | X-H torsion
[ 8008 7997 7996 7995 ] final  139.79 input   59.86 | X-H torsion
[ 10167 10162 10161 10158 ] final   99.62 input  -65.29 | X-H torsion
[ 10718 10713 10712 10709 ] final -167.26 input   66.30 | X-H torsion
[ 10763 10752 10751 10750 ] final    7.83 input  -60.55 | X-H torsion
[ 11005 11000 10999 10996 ] final  132.22 input  -57.11 | X-H torsion

> <Gold.Protein.ActiveResidues>
 VAL166  LYS551  ARG553  GLY616  TRP617  ASP618  TYR619  PRO620  LYS621  CYS622 
 ASP623  PHE694  ASN695  SER759  ASP760  ASP761  ALA762  ILE779  LEU786  VAL792 
 PHE793  MET794  SER795  GLU796  ALA797  LYS798  CYS799  TRP800  GLU811  SER814 

> <Gold.Protein.RotatedAtoms>
  150.8247  134.7472  159.6802 H   0  0  0  0  0  0  0  0  0  0  0  0  # atno 6907 bound_to 6896
  152.4359  134.5684  159.9924 H   0  0  0  0  0  0  0  0  0  0  0  0  # atno 6908 bound_to 6896
  151.5859  133.3334  159.3054 H   0  0  0  0  0  0  0  0  0  0  0  0  # atno 6909 bound_to 6896
  146.2172  140.2976  142.8373 H   0  0  0  0  0  0  0  0  0  0  0  0  # atno 7974 bound_to 7965
  156.2986  140.2358  156.4295 H   0  0  0  0  0  0  0  0  0  0  0  0  # atno 8008 bound_to 7997
  154.8283  140.0434  157.1479 H   0  0  0  0  0  0  0  0  0  0  0  0  # atno 8009 bound_to 7997
  154.9237  140.3007  155.5206 H   0  0  0  0  0  0  0  0  0  0  0  0  # atno 8010 bound_to 7997
  139.7601  144.6957  151.0305 H   0  0  0  0  0  0  0  0  0  0  0  0  # atno 10167 bound_to 10162
  156.6798  130.9117  151.3055 H   0  0  0  0  0  0  0  0  0  0  0  0  # atno 10718 bound_to 10713
  153.2319  135.6893  153.7880 H   0  0  0  0  0  0  0  0  0  0  0  0  # atno 10763 bound_to 10752
  153.7042  135.3292  155.3232 H   0  0  0  0  0  0  0  0  0  0  0  0  # atno 10764 bound_to 10752
  154.8317  135.4575  154.1207 H   0  0  0  0  0  0  0  0  0  0  0  0  # atno 10765 bound_to 10752
  139.9777  134.9558  156.9551 H   0  0  0  0  0  0  0  0  0  0  0  0  # atno 11005 bound_to 11000
  144.9081  140.7724  143.5825 LP  0  0  0  0  0  0  0  0  0  0  0  0  # atno 17320 bound_to 7965
  145.2905  139.1885  143.4743 LP  0  0  0  0  0  0  0  0  0  0  0  0  # atno 17321 bound_to 7965
  140.7806  143.4707  151.0150 LP  0  0  0  0  0  0  0  0  0  0  0  0  # atno 17342 bound_to 10162
  139.8393  143.7585  152.3180 LP  0  0  0  0  0  0  0  0  0  0  0  0  # atno 17343 bound_to 10162
  157.7048  130.9372  150.0896 LP  0  0  0  0  0  0  0  0  0  0  0  0  # atno 17370 bound_to 10713
  156.1876  130.3653  149.8952 LP  0  0  0  0  0  0  0  0  0  0  0  0  # atno 17371 bound_to 10713
  140.5161  134.0954  155.7281 LP  0  0  0  0  0  0  0  0  0  0  0  0  # atno 17394 bound_to 11000
  141.1452  133.9067  157.2231 LP  0  0  0  0  0  0  0  0  0  0  0  0  # atno 17395 bound_to 11000

$$$$
