AV-unprocessed.smi:2578|AV-procd|sdf|10122|dock3
  -GOLD-   2272014143D 1   1.00000     0.00000
 Structure written by MMmdl.
 41 42  0  0  0  0  0  0  0  0  1 V2000
  150.5750  145.0183  160.0568 C   0  0  0  0  0  0  0  0  0  0  0  0
  151.5255  143.8936  160.4327 C   0  0  0  0  0  0  0  0  0  0  0  0
  152.1262  143.8999  161.6435 C   0  0  0  0  0  0  0  0  0  0  0  0
  153.0516  142.8510  162.0742 C   0  0  0  0  0  0  0  0  0  0  0  0
  153.5951  142.8664  163.1789 O   0  0  0  0  0  0  0  0  0  0  0  0
  153.2715  141.8562  161.1716 N   0  0  0  0  0  0  0  0  0  0  0  0
  154.1818  140.7575  161.5065 C   0  0  0  0  0  0  0  0  0  0  0  0
  152.6569  141.8393  159.9081 C   0  0  0  0  0  0  0  0  0  0  0  0
  151.8010  142.8044  159.5033 C   0  0  0  0  0  0  0  0  0  0  0  0
  151.1609  142.8319  158.2513 N   0  0  0  0  0  0  0  0  0  0  0  0
  150.9177  141.8326  157.3817 C   0  0  0  0  0  0  0  0  0  0  0  0
  151.2297  140.6513  157.5272 O   0  0  0  0  0  0  0  0  0  0  0  0
  150.2663  142.2889  156.3021 N   0  0  0  0  0  0  0  0  0  0  0  0
  149.8308  141.4671  155.1787 C   0  0  0  0  0  0  0  0  0  0  0  0
  148.4506  140.8414  155.4422 C   0  0  0  0  0  0  0  0  0  0  0  0
  147.3082  141.7555  155.0458 C   0  0  0  0  0  0  0  0  0  0  0  0
  147.0645  142.2393  153.8287 C   0  0  0  0  0  0  0  0  0  0  0  0
  145.8599  143.1392  153.7925 C   0  0  0  0  0  0  0  0  0  0  0  0
  145.3643  143.1600  155.2559 C   0  0  0  0  0  0  0  0  0  0  0  0
  146.3124  142.2467  156.0650 C   0  0  0  0  0  0  0  0  0  0  0  0
  150.4726  145.7479  160.8608 H   0  0  0  0  0  0  0  0  0  0  0  0
  149.5840  144.6198  159.8384 H   0  0  0  0  0  0  0  0  0  0  0  0
  150.9392  145.5425  159.1731 H   0  0  0  0  0  0  0  0  0  0  0  0
  151.9228  144.7079  162.3313 H   0  0  0  0  0  0  0  0  0  0  0  0
  154.2363  139.9979  160.7260 H   0  0  0  0  0  0  0  0  0  0  0  0
  153.8611  140.2565  162.4211 H   0  0  0  0  0  0  0  0  0  0  0  0
  155.1926  141.1363  161.6634 H   0  0  0  0  0  0  0  0  0  0  0  0
  152.9417  140.9888  159.3116 H   0  0  0  0  0  0  0  0  0  0  0  0
  150.8310  143.7447  157.9745 H   0  0  0  0  0  0  0  0  0  0  0  0
  150.0487  143.2736  156.2566 H   0  0  0  0  0  0  0  0  0  0  0  0
  149.7876  142.1007  154.2924 H   0  0  0  0  0  0  0  0  0  0  0  0
  150.5757  140.6967  154.9740 H   0  0  0  0  0  0  0  0  0  0  0  0
  148.3447  139.9050  154.8933 H   0  0  0  0  0  0  0  0  0  0  0  0
  148.3546  140.5958  156.5007 H   0  0  0  0  0  0  0  0  0  0  0  0
  147.6513  142.0316  152.9459 H   0  0  0  0  0  0  0  0  0  0  0  0
  146.1423  144.1341  153.4471 H   0  0  0  0  0  0  0  0  0  0  0  0
  145.1074  142.7341  153.1153 H   0  0  0  0  0  0  0  0  0  0  0  0
  145.3794  144.1760  155.6522 H   0  0  0  0  0  0  0  0  0  0  0  0
  144.3356  142.8032  155.3206 H   0  0  0  0  0  0  0  0  0  0  0  0
  145.7741  141.4107  156.5120 H   0  0  0  0  0  0  0  0  0  0  0  0
  146.8220  142.7960  156.8575 H   0  0  0  0  0  0  0  0  0  0  0  0
  1  2  1  0  0  0  0
  1 21  1  0  0  0  0
  1 22  1  0  0  0  0
  1 23  1  0  0  0  0
  2  9  1  0  0  0  0
  2  3  2  0  0  0  0
  3  4  1  0  0  0  0
  3 24  1  0  0  0  0
  4  5  2  0  0  0  0
  4  6  1  0  0  0  0
  6  7  1  0  0  0  0
  6  8  1  0  0  0  0
  7 25  1  0  0  0  0
  7 26  1  0  0  0  0
  7 27  1  0  0  0  0
  8  9  2  0  0  0  0
  8 28  1  0  0  0  0
  9 10  1  0  0  0  0
 10 11  1  0  0  0  0
 10 29  1  0  0  0  0
 11 12  2  0  0  0  0
 11 13  1  0  0  0  0
 13 14  1  0  0  0  0
 13 30  1  0  0  0  0
 14 15  1  0  0  0  0
 14 31  1  0  0  0  0
 14 32  1  0  0  0  0
 15 16  1  0  0  0  0
 15 33  1  0  0  0  0
 15 34  1  0  0  0  0
 16 20  1  0  0  0  0
 16 17  2  0  0  0  0
 17 18  1  0  0  0  0
 17 35  1  0  0  0  0
 18 19  1  0  0  0  0
 18 36  1  0  0  0  0
 18 37  1  0  0  0  0
 19 20  1  0  0  0  0
 19 38  1  0  0  0  0
 19 39  1  0  0  0  0
 20 40  1  0  0  0  0
 20 41  1  0  0  0  0
M  END
> <s_m_source_file>
AV-unprocessed.smi

> <i_m_source_file_index>
2578

> <i_lp_mmshare_version>
43012

> <i_f3d_flags>
0

> <s_epik_input>
W0NIM11jMVtjSF1jKD1PKW4oW0NIM10pW2NIXWMxW05IXUMoPU8pW05IXVtDSDJdW0NIMl1DMj1bQ0hdW0NIMl1bQ0gyXVtDSDJdMg==

> <s_epik_cmdline>
J2VwaWtfcHl0aG9uJywgJy1waCcsICc3LjAnLCAnLXRuJywgJzgnLCAnLW1hJywgJzIwMCcsICctbWV0YWxfYmluZGluZycsICctaW1hZScsICc8aW5maWxlLm1hZT4nLCAnLW9tYWUnLCAnPG91dGZpbGUubWFlPic=

> <r_lp_tautomer_probability>
1

> <r_epik_Ionization_Penalty>
2.83926e-05

> <r_epik_Ionization_Penalty_Charging>
8.15285e-06

> <r_epik_Ionization_Penalty_Neutral>
2.02397e-05

> <r_epik_State_Penalty>
-0

> <r_epik_Charging_Adjusted_Penalty>
8.15285e-06

> <i_epik_Tot_Q>
0

> <i_epik_Tot_abs_Q>
0

> <r_epik_Metal_State_Penalty>
-0

> <b_epik_Metal_Only>
0

> <s_lp_Force_Field>
OPLS_2005

> <r_lp_Energy>
31.0137

> <b_lp_Chiralities_Consistent>
1

> <s_lp_Variant>
AV-unprocessed.smi:2578-1

> <Gold.Version>
5.8.1

> <Gold.Id.Protein>
6NUR|6NUR_protein|mol2

> <Gold.PLP.Fitness>
50.8325

> <Gold.PLP.PLP>
-48.7063

> <Gold.PLP.part.hbond>
-1.0346

> <Gold.PLP.part.metal>
0.0000

> <Gold.PLP.part.buried>
-7.3780

> <Gold.PLP.part.nonpolar>
-40.2031

> <Gold.PLP.part.repulsive>
0.2042

> <Gold.PLP.ligand.clash>
0.0000

> <Gold.PLP.ligand.torsion>
0.4311

> <Gold.PLP.Chemscore.Hbond>
0.9920

> <Gold.PLP.Chemscore.CHOScore>
0.0000

> <Gold.PLP.Chemscore.Metal>
0.0000

> <Gold.Chemscore.Hbonds>
donor molecule, donor type, donor heavy atom, donor atom, acceptor molecule, acceptor atom, score
      L1  H    13    30       P1  8028  1.00

> <Gold.PLP.Chemscore.Internal.Correction>
0.0124

> <Gold.Rescore>
     Score         DG    S(hbond)    S(metal)    S(lipo)     H(rot)  DE(clash)    DE(int)     intcor
     15.52     -16.75       0.93        0.00      99.21       1.35       0.00       1.23       ----

> <Gold.Chemscore.Fitness>
15.5218

> <Gold.Chemscore.DG>
-16.7493

> <Gold.Chemscore.ZeroCoef>
-5.4800

> <Gold.Chemscore.Hbond>
0.9330

> <Gold.Chemscore.Metal>
0.0000

> <Gold.Chemscore.Lipo>
99.2065

> <Gold.Chemscore.Internal_Hbond>
0.0000

> <Gold.Chemscore.DEClash>
0.0009

> <Gold.Chemscore.DEInternal>
1.2266

> <Gold.Chemscore.Rot>
1.3493

> <Gold.Chemscore.Internal.Correction>
   9.000000E+99

> <Gold.Chemscore.Hbonds>
donor molecule, donor type, donor heavy atom, donor atom, acceptor molecule, acceptor atom, score
      L1  H    13    30       P1  8028  0.94

> <Gold.Chemscore.Hbond.Weighted>
-3.1162

> <Gold.Chemscore.Metal.Weighted>
-0.0000

> <Gold.Chemscore.Lipo.Weighted>
-11.6072

> <Gold.Chemscore.Internal_Hbond.Weighted>
0.0000

> <Gold.Chemscore.DEClash.Weighted>
0.0009

> <Gold.Chemscore.DEInternal.Weighted>
1.2266

> <Gold.Chemscore.Rot.Weighted>
3.4541

> <Gold.Chemscore.Internal.Correction.Weighted>
   9.000000E+99

> <Gold.Protein.RotatedTorsions>
[ 6907 6896 6895 6894 ] final   51.16 input  -60.11 | X-H torsion
[ 7974 7965 7964 7962 ] final  175.19 input  175.53 | X-H torsion
[ 8008 7997 7996 7995 ] final  -84.40 input   59.86 | X-H torsion
[ 10167 10162 10161 10158 ] final  -68.70 input  -65.29 | X-H torsion
[ 10718 10713 10712 10709 ] final -165.44 input   66.30 | X-H torsion
[ 10763 10752 10751 10750 ] final  121.69 input  -60.55 | X-H torsion
[ 11005 11000 10999 10996 ] final  118.02 input  -57.11 | X-H torsion

> <Gold.Protein.ActiveResidues>
 VAL166  LYS551  ARG553  GLY616  TRP617  ASP618  TYR619  PRO620  LYS621  CYS622 
 ASP623  PHE694  ASN695  SER759  ASP760  ASP761  ALA762  ILE779  LEU786  VAL792 
 PHE793  MET794  SER795  GLU796  ALA797  LYS798  CYS799  TRP800  GLU811  SER814 

> <Gold.Protein.RotatedAtoms>
  152.3096  134.7513  160.0339 H   0  0  0  0  0  0  0  0  0  0  0  0  # atno 6907 bound_to 6896
  151.7998  133.3363  159.3532 H   0  0  0  0  0  0  0  0  0  0  0  0  # atno 6908 bound_to 6896
  150.7313  134.5694  159.5927 H   0  0  0  0  0  0  0  0  0  0  0  0  # atno 6909 bound_to 6896
  144.7206  139.9910  143.6440 H   0  0  0  0  0  0  0  0  0  0  0  0  # atno 7974 bound_to 7965
  154.6295  140.0605  156.9714 H   0  0  0  0  0  0  0  0  0  0  0  0  # atno 8008 bound_to 7997
  155.1689  140.3289  155.4378 H   0  0  0  0  0  0  0  0  0  0  0  0  # atno 8009 bound_to 7997
  156.2475  140.1917  156.6792 H   0  0  0  0  0  0  0  0  0  0  0  0  # atno 8010 bound_to 7997
  140.5488  143.2312  151.6952 H   0  0  0  0  0  0  0  0  0  0  0  0  # atno 10167 bound_to 10162
  156.6534  130.9016  151.3017 H   0  0  0  0  0  0  0  0  0  0  0  0  # atno 10718 bound_to 10713
  153.6180  135.3418  155.3001 H   0  0  0  0  0  0  0  0  0  0  0  0  # atno 10763 bound_to 10752
  154.8605  135.4266  154.2238 H   0  0  0  0  0  0  0  0  0  0  0  0  # atno 10764 bound_to 10752
  153.3104  135.7031  153.7193 H   0  0  0  0  0  0  0  0  0  0  0  0  # atno 10765 bound_to 10752
  139.9095  134.9616  156.7440 H   0  0  0  0  0  0  0  0  0  0  0  0  # atno 11005 bound_to 11000
  146.0412  139.3423  143.0696 LP  0  0  0  0  0  0  0  0  0  0  0  0  # atno 17320 bound_to 7965
  145.8333  140.9619  143.0837 LP  0  0  0  0  0  0  0  0  0  0  0  0  # atno 17321 bound_to 7965
  139.5018  144.3852  152.0336 LP  0  0  0  0  0  0  0  0  0  0  0  0  # atno 17342 bound_to 10162
  140.2967  144.3693  150.6072 LP  0  0  0  0  0  0  0  0  0  0  0  0  # atno 17343 bound_to 10162
  157.7133  130.9467  150.1166 LP  0  0  0  0  0  0  0  0  0  0  0  0  # atno 17370 bound_to 10713
  156.2067  130.3664  149.8721 LP  0  0  0  0  0  0  0  0  0  0  0  0  # atno 17371 bound_to 10713
  140.6827  133.9460  155.7919 LP  0  0  0  0  0  0  0  0  0  0  0  0  # atno 17394 bound_to 11000
  141.0499  134.0500  157.3797 LP  0  0  0  0  0  0  0  0  0  0  0  0  # atno 17395 bound_to 11000

$$$$
