AV-unprocessed.smi:21|AV-procd|sdf|126|dock1
  -GOLD-   2262015303D 1   1.00000     0.00000
 Structure written by MMmdl.
 62 65  0  0  0  0  0  0  0  0  2 V2000
  151.8910  144.9599  159.1781 C   0  0  0  0  0  0  0  0  0  0  0  0
  152.0246  143.6560  159.7201 O   0  0  0  0  0  0  0  0  0  0  0  0
  152.2552  142.6555  158.7393 C   0  0  2  0  0  0  0  0  0  0  0  0
  150.9480  142.2625  158.0595 C   0  0  0  0  0  0  0  0  0  0  0  0
  151.1759  140.8229  157.5621 C   0  0  1  0  0  0  0  0  0  0  0  0
  151.4591  140.7284  156.0443 C   0  0  0  0  0  0  0  0  0  0  0  0
  151.5417  139.3557  155.5407 N   0  0  0  0  0  0  0  0  0  0  0  0
  152.7749  138.9182  154.8908 C   0  0  0  0  0  0  0  0  0  0  0  0
  150.3911  138.6680  155.2922 C   0  0  0  0  0  0  0  0  0  0  0  0
  149.2144  139.3500  155.2668 N   0  0  0  0  0  0  0  0  0  0  0  0
  148.0560  138.7079  155.0951 C   0  0  0  0  0  0  0  0  0  0  0  0
  147.8434  137.4009  154.9432 N   0  0  0  0  0  0  0  0  0  0  0  0
  149.0165  136.7078  154.9458 C   0  0  0  0  0  0  0  0  0  0  0  0
  150.3234  137.2556  155.0927 C   0  0  0  0  0  0  0  0  0  0  0  0
  151.2648  136.2340  155.0142 N   0  0  0  0  0  0  0  0  0  0  0  0
  150.5582  135.1488  154.8601 C   0  0  0  0  0  0  0  0  0  0  0  0
  149.1964  135.3390  154.8522 N   0  0  0  0  0  0  0  0  0  0  0  0
  148.1778  134.3112  154.7452 C   0  0  0  0  0  0  0  0  0  0  0  0
  148.1216  133.5996  153.3631 C   0  0  1  0  0  0  0  0  0  0  0  0
  148.4748  132.1041  153.5508 C   0  0  0  0  0  0  0  0  0  0  0  0
  149.7599  131.9454  154.1161 O   0  0  0  0  0  0  0  0  0  0  0  0
  146.7575  133.7783  152.6261 C   0  0  2  0  0  0  0  0  0  0  0  0
  145.6192  132.9195  153.1587 C   0  0  0  0  0  0  0  0  0  0  0  0
  144.6203  132.9484  152.0114 C   0  0  0  0  0  0  0  0  0  0  0  0
  145.4223  132.8988  150.8424 O   0  0  0  0  0  0  0  0  0  0  0  0
  146.7337  133.3649  151.1425 C   0  0  0  0  0  0  0  0  0  0  0  0
  152.3416  140.3098  158.3241 N   0  3  2  0  0  0  0  0  0  0  0  0
  152.1611  138.9526  158.8835 C   0  0  0  0  0  0  0  0  0  0  0  0
  152.7218  141.3251  159.3267 C   0  0  0  0  0  0  0  0  0  0  0  0
  152.9598  143.0045  157.9817 H   0  0  0  0  0  0  0  0  0  0  0  0
  150.2970  140.2293  157.8174 H   0  0  0  0  0  0  0  0  0  0  0  0
  151.6907  145.6691  159.9811 H   0  0  0  0  0  0  0  0  0  0  0  0
  151.0609  145.0106  158.4723 H   0  0  0  0  0  0  0  0  0  0  0  0
  152.8019  145.2793  158.6713 H   0  0  0  0  0  0  0  0  0  0  0  0
  150.1426  142.2599  158.7956 H   0  0  0  0  0  0  0  0  0  0  0  0
  150.6641  142.9636  157.2761 H   0  0  0  0  0  0  0  0  0  0  0  0
  150.6766  141.2609  155.5026 H   0  0  0  0  0  0  0  0  0  0  0  0
  152.3766  141.2571  155.7917 H   0  0  0  0  0  0  0  0  0  0  0  0
  152.9619  137.8634  155.0954 H   0  0  0  0  0  0  0  0  0  0  0  0
  153.6336  139.4812  155.2570 H   0  0  0  0  0  0  0  0  0  0  0  0
  152.7187  139.0536  153.8103 H   0  0  0  0  0  0  0  0  0  0  0  0
  147.1721  139.3290  155.0932 H   0  0  0  0  0  0  0  0  0  0  0  0
  151.0128  134.1720  154.7803 H   0  0  0  0  0  0  0  0  0  0  0  0
  148.3701  133.5910  155.5408 H   0  0  0  0  0  0  0  0  0  0  0  0
  147.2097  134.7608  154.9690 H   0  0  0  0  0  0  0  0  0  0  0  0
  148.8949  134.0285  152.7245 H   0  0  0  0  0  0  0  0  0  0  0  0
  147.7379  131.6072  154.1825 H   0  0  0  0  0  0  0  0  0  0  0  0
  148.4915  131.5740  152.5995 H   0  0  0  0  0  0  0  0  0  0  0  0
  149.9993  131.0323  154.0689 H   0  0  0  0  0  0  0  0  0  0  0  0
  146.4473  134.8219  152.7011 H   0  0  0  0  0  0  0  0  0  0  0  0
  145.9584  131.8968  153.3320 H   0  0  0  0  0  0  0  0  0  0  0  0
  145.1871  133.3010  154.0843 H   0  0  0  0  0  0  0  0  0  0  0  0
  143.9106  132.1215  152.0472 H   0  0  0  0  0  0  0  0  0  0  0  0
  144.0583  133.8834  152.0166 H   0  0  0  0  0  0  0  0  0  0  0  0
  146.9825  134.1914  150.4793 H   0  0  0  0  0  0  0  0  0  0  0  0
  147.4309  132.5499  150.9458 H   0  0  0  0  0  0  0  0  0  0  0  0
  151.3406  138.9275  159.6023 H   0  0  0  0  0  0  0  0  0  0  0  0
  153.0702  138.6256  159.3887 H   0  0  0  0  0  0  0  0  0  0  0  0
  151.9425  138.2379  158.0899 H   0  0  0  0  0  0  0  0  0  0  0  0
  153.7924  141.3034  159.5321 H   0  0  0  0  0  0  0  0  0  0  0  0
  152.1932  141.1327  160.2623 H   0  0  0  0  0  0  0  0  0  0  0  0
  153.1059  140.2647  157.6653 H   0  0  0  0  0  0  0  0  0  0  0  0
  1  2  1  0  0  0  0
  1 32  1  0  0  0  0
  1 33  1  0  0  0  0
  1 34  1  0  0  0  0
  2  3  1  0  0  0  0
  3 30  1  0  0  0  0
  3 29  1  0  0  0  0
  3  4  1  0  0  0  0
  4  5  1  0  0  0  0
  4 35  1  0  0  0  0
  4 36  1  0  0  0  0
  5 31  1  0  0  0  0
  5  6  1  0  0  0  0
  5 27  1  0  0  0  0
  6  7  1  0  0  0  0
  6 37  1  0  0  0  0
  6 38  1  0  0  0  0
  7  8  1  0  0  0  0
  7  9  1  0  0  0  0
  8 39  1  0  0  0  0
  8 40  1  0  0  0  0
  8 41  1  0  0  0  0
  9 14  1  0  0  0  0
  9 10  2  0  0  0  0
 10 11  1  0  0  0  0
 11 12  2  0  0  0  0
 11 42  1  0  0  0  0
 12 13  1  0  0  0  0
 13 17  1  0  0  0  0
 13 14  2  0  0  0  0
 14 15  1  0  0  0  0
 15 16  2  0  0  0  0
 16 17  1  0  0  0  0
 16 43  1  0  0  0  0
 17 18  1  0  0  0  0
 18 19  1  0  0  0  0
 18 44  1  0  0  0  0
 18 45  1  0  0  0  0
 19 20  1  0  0  0  0
 19 22  1  0  0  0  0
 19 46  1  0  0  0  0
 20 21  1  0  0  0  0
 20 47  1  0  0  0  0
 20 48  1  0  0  0  0
 21 49  1  0  0  0  0
 22 26  1  0  0  0  0
 22 23  1  0  0  0  0
 22 50  1  0  0  0  0
 23 24  1  0  0  0  0
 23 51  1  0  0  0  0
 23 52  1  0  0  0  0
 24 25  1  0  0  0  0
 24 53  1  0  0  0  0
 24 54  1  0  0  0  0
 25 26  1  0  0  0  0
 26 55  1  0  0  0  0
 26 56  1  0  0  0  0
 27 28  1  0  0  0  0
 27 29  1  0  0  0  0
 27 62  1  0  0  0  0
 28 57  1  0  0  0  0
 28 58  1  0  0  0  0
 28 59  1  0  0  0  0
 29 60  1  0  0  0  0
 29 61  1  0  0  0  0
M  CHG  1  27   1
M  END
> <s_m_source_file>
AV-unprocessed.smi

> <i_m_source_file_index>
21

> <i_lp_mmshare_version>
43012

> <i_f3d_flags>
0

> <s_epik_input>
W0NIM11PW0NASF0xW0NIMl1bQ0BIXShOKFtDSDNdKVtDSDJdMSlbQ0gyXU4oW0NIM10pYyhuW2NIXW4yKWMoYzIzKW5bY0hdbjNbQ0gyXVtDQEhdKFtDSDJdW09IXSlbQ0BASF00W0NIMl1bQ0gyXU9bQ0gyXTQ=

> <s_epik_cmdline>
J2VwaWtfcHl0aG9uJywgJy1waCcsICc3LjAnLCAnLXRuJywgJzgnLCAnLW1hJywgJzIwMCcsICctbWV0YWxfYmluZGluZycsICctaW1hZScsICc8aW5maWxlLm1hZT4nLCAnLW9tYWUnLCAnPG91dGZpbGUubWFlPic=

> <r_lp_tautomer_probability>
1

> <r_epik_Ionization_Penalty>
0.0157465

> <r_epik_Ionization_Penalty_Charging>
0.015354

> <r_epik_Ionization_Penalty_Neutral>
0.000392529

> <r_epik_State_Penalty>
0.0120612

> <r_epik_Charging_Adjusted_Penalty>
0.0274152

> <i_epik_Tot_Q>
1

> <i_epik_Tot_abs_Q>
1

> <r_epik_Metal_State_Penalty>
0.0121253

> <b_epik_Metal_Only>
0

> <s_lp_Force_Field>
OPLS_2005

> <r_lp_Energy>
57.6991

> <b_lp_Chiralities_Consistent>
1

> <s_lp_Variant>
AV-unprocessed.smi:21-6

> <Gold.Version>
5.8.1

> <Gold.Id.Protein>
6NUR|6NUR_protein|mol2

> <Gold.PLP.Fitness>
46.2840

> <Gold.PLP.PLP>
-45.4864

> <Gold.PLP.part.hbond>
-1.0000

> <Gold.PLP.part.metal>
0.0000

> <Gold.PLP.part.buried>
-5.5208

> <Gold.PLP.part.nonpolar>
-38.5206

> <Gold.PLP.part.repulsive>
0.4985

> <Gold.PLP.ligand.clash>
0.0000

> <Gold.PLP.ligand.torsion>
1.5744

> <Gold.PLP.Chemscore.Hbond>
1.0000

> <Gold.PLP.Chemscore.CHOScore>
0.0000

> <Gold.PLP.Chemscore.Metal>
0.0000

> <Gold.Chemscore.Hbonds>
donor molecule, donor type, donor heavy atom, donor atom, acceptor molecule, acceptor atom, score
      P1  H 10752 10764       L1    15  1.00

> <Gold.PLP.Chemscore.Internal.Correction>
0.9465

> <Gold.Rescore>
     Score         DG    S(hbond)    S(metal)    S(lipo)     H(rot)  DE(clash)    DE(int)     intcor
     11.50     -13.14       0.93        0.00     106.28       3.08       0.09       1.54       ----

> <Gold.Chemscore.Fitness>
11.4978

> <Gold.Chemscore.DG>
-13.1350

> <Gold.Chemscore.ZeroCoef>
-5.4800

> <Gold.Chemscore.Hbond>
0.9265

> <Gold.Chemscore.Metal>
0.0000

> <Gold.Chemscore.Lipo>
106.2793

> <Gold.Chemscore.Internal_Hbond>
0.0000

> <Gold.Chemscore.DEClash>
0.0925

> <Gold.Chemscore.DEInternal>
1.5447

> <Gold.Chemscore.Rot>
3.0758

> <Gold.Chemscore.Internal.Correction>
   9.000000E+99

> <Gold.Chemscore.Hbonds>
donor molecule, donor type, donor heavy atom, donor atom, acceptor molecule, acceptor atom, score
      P1  H 10752 10764       L1    15  0.25

> <Gold.Chemscore.Hbond.Weighted>
-3.0945

> <Gold.Chemscore.Metal.Weighted>
-0.0000

> <Gold.Chemscore.Lipo.Weighted>
-12.4347

> <Gold.Chemscore.Internal_Hbond.Weighted>
0.0000

> <Gold.Chemscore.DEClash.Weighted>
0.0925

> <Gold.Chemscore.DEInternal.Weighted>
1.5447

> <Gold.Chemscore.Rot.Weighted>
7.8741

> <Gold.Chemscore.Internal.Correction.Weighted>
   9.000000E+99

> <Gold.Protein.RotatedTorsions>
[ 6907 6896 6895 6894 ] final -104.58 input  -60.11 | X-H torsion
[ 7974 7965 7964 7962 ] final -127.08 input  175.53 | X-H torsion
[ 8008 7997 7996 7995 ] final  159.06 input   59.86 | X-H torsion
[ 10167 10162 10161 10158 ] final  -53.62 input  -65.29 | X-H torsion
[ 10718 10713 10712 10709 ] final   -2.41 input   66.30 | X-H torsion
[ 10763 10752 10751 10750 ] final  -41.29 input  -60.55 | X-H torsion
[ 11005 11000 10999 10996 ] final   88.66 input  -57.11 | X-H torsion

> <Gold.Protein.ActiveResidues>
 VAL166  LYS551  ARG553  GLY616  TRP617  ASP618  TYR619  PRO620  LYS621  CYS622 
 ASP623  PHE694  ASN695  SER759  ASP760  ASP761  ALA762  ILE779  LEU786  VAL792 
 PHE793  MET794  SER795  GLU796  ALA797  LYS798  CYS799  TRP800  GLU811  SER814 

> <Gold.Protein.RotatedAtoms>
  150.7294  134.0256  159.3715 H   0  0  0  0  0  0  0  0  0  0  0  0  # atno 6907 bound_to 6896
  151.8222  135.0646  160.0436 H   0  0  0  0  0  0  0  0  0  0  0  0  # atno 6908 bound_to 6896
  152.2995  133.5605  159.5645 H   0  0  0  0  0  0  0  0  0  0  0  0  # atno 6909 bound_to 6896
  144.9807  140.7637  143.4614 H   0  0  0  0  0  0  0  0  0  0  0  0  # atno 7974 bound_to 7965
  156.2263  140.1841  156.7355 H   0  0  0  0  0  0  0  0  0  0  0  0  # atno 8008 bound_to 7997
  154.5947  140.0645  156.9315 H   0  0  0  0  0  0  0  0  0  0  0  0  # atno 8009 bound_to 7997
  155.2276  140.3312  155.4310 H   0  0  0  0  0  0  0  0  0  0  0  0  # atno 8010 bound_to 7997
  140.6475  143.2544  151.4818 H   0  0  0  0  0  0  0  0  0  0  0  0  # atno 10167 bound_to 10162
  156.7912  130.5362  149.5735 H   0  0  0  0  0  0  0  0  0  0  0  0  # atno 10718 bound_to 10713
  153.9600  135.6740  153.4745 H   0  0  0  0  0  0  0  0  0  0  0  0  # atno 10763 bound_to 10752
  153.0842  135.4907  154.8561 H   0  0  0  0  0  0  0  0  0  0  0  0  # atno 10764 bound_to 10752
  154.7278  135.3131  154.8902 H   0  0  0  0  0  0  0  0  0  0  0  0  # atno 10765 bound_to 10752
  139.8891  134.8502  156.3032 H   0  0  0  0  0  0  0  0  0  0  0  0  # atno 11005 bound_to 11000
  145.2425  139.2066  143.4985 LP  0  0  0  0  0  0  0  0  0  0  0  0  # atno 17320 bound_to 7965
  146.3407  140.2323  142.8593 LP  0  0  0  0  0  0  0  0  0  0  0  0  # atno 17321 bound_to 7965
  139.5687  144.1981  152.1803 LP  0  0  0  0  0  0  0  0  0  0  0  0  # atno 17342 bound_to 10162
  140.1270  144.5322  150.6826 LP  0  0  0  0  0  0  0  0  0  0  0  0  # atno 17343 bound_to 10162
  156.1158  130.6074  151.0118 LP  0  0  0  0  0  0  0  0  0  0  0  0  # atno 17370 bound_to 10713
  157.6599  131.0882  150.7861 LP  0  0  0  0  0  0  0  0  0  0  0  0  # atno 17371 bound_to 10713
  140.9899  133.7215  156.0798 LP  0  0  0  0  0  0  0  0  0  0  0  0  # atno 17394 bound_to 11000
  140.7638  134.3909  157.5521 LP  0  0  0  0  0  0  0  0  0  0  0  0  # atno 17395 bound_to 11000

$$$$
