AV-unprocessed.smi:276|AV-procd|sdf|2071|dock8
  -GOLD-   2262021333D 1   1.00000     0.00000
 Structure written by MMmdl.
 57 61  0  0  0  0  0  0  0  0  1 V2000
  152.7405  142.3034  162.8562 C   0  0  0  0  0  0  0  0  0  0  0  0
  151.9648  142.6595  161.7255 O   0  0  0  0  0  0  0  0  0  0  0  0
  152.6678  143.4909  160.8122 C   0  0  1  0  0  0  0  0  0  0  0  0
  153.7883  142.7449  160.0716 C   0  0  0  0  0  0  0  0  0  0  0  0
  152.7835  142.3920  158.9569 C   0  0  1  0  0  0  0  0  0  0  0  0
  152.1955  141.0605  159.1621 N   0  0  0  0  0  0  0  0  0  0  0  0
  153.1386  139.9566  159.3102 C   0  0  0  0  0  0  0  0  0  0  0  0
  151.2100  140.7109  158.3063 C   0  0  0  0  0  0  0  0  0  0  0  0
  149.9419  141.0357  158.6612 N   0  0  0  0  0  0  0  0  0  0  0  0
  148.9233  140.7348  157.8503 C   0  0  0  0  0  0  0  0  0  0  0  0
  148.9517  140.1190  156.6663 N   0  0  0  0  0  0  0  0  0  0  0  0
  150.2248  139.7759  156.3164 C   0  0  0  0  0  0  0  0  0  0  0  0
  151.4040  140.0242  157.0736 C   0  0  0  0  0  0  0  0  0  0  0  0
  152.5126  139.5235  156.4009 N   0  0  0  0  0  0  0  0  0  0  0  0
  152.0193  139.0230  155.3016 C   0  0  0  0  0  0  0  0  0  0  0  0
  150.6545  139.1349  155.1682 N   0  0  0  0  0  0  0  0  0  0  0  0
  149.8537  138.6753  154.0465 C   0  0  0  0  0  0  0  0  0  0  0  0
  148.3392  138.6853  154.3580 C   0  0  2  0  0  0  0  0  0  0  0  0
  147.7934  137.4686  153.8816 O   0  0  0  0  0  0  0  0  0  0  0  0
  147.5595  139.8342  153.6763 C   0  0  2  0  0  0  0  0  0  0  0  0
  148.1584  141.2406  153.8614 C   0  0  0  0  0  0  0  0  0  0  0  0
  147.4159  141.7864  155.0594 C   0  0  0  0  0  0  0  0  0  0  0  0
  146.0311  141.2057  154.8291 C   0  0  0  0  0  0  0  0  0  0  0  0
  146.2774  139.9063  154.3085 O   0  0  0  0  0  0  0  0  0  0  0  0
  151.9376  143.5921  159.4620 C   0  0  0  0  0  0  0  0  0  0  0  0
  152.0019  144.9297  158.7039 C   0  0  0  0  0  0  0  0  0  0  0  0
  150.5944  145.2349  159.2215 C   0  0  0  0  0  0  0  0  0  0  0  0
  150.4025  143.7262  159.3818 C   0  0  0  0  0  0  0  0  0  0  0  0
  152.1485  141.6751  163.5214 H   0  0  0  0  0  0  0  0  0  0  0  0
  153.0477  143.1879  163.4155 H   0  0  0  0  0  0  0  0  0  0  0  0
  153.6314  141.7435  162.5711 H   0  0  0  0  0  0  0  0  0  0  0  0
  152.9571  144.4566  161.2299 H   0  0  0  0  0  0  0  0  0  0  0  0
  154.5690  143.4214  159.7203 H   0  0  0  0  0  0  0  0  0  0  0  0
  154.2212  141.9074  160.6172 H   0  0  0  0  0  0  0  0  0  0  0  0
  153.2053  142.5430  157.9633 H   0  0  0  0  0  0  0  0  0  0  0  0
  152.6573  138.9845  159.1893 H   0  0  0  0  0  0  0  0  0  0  0  0
  153.5893  139.9705  160.3021 H   0  0  0  0  0  0  0  0  0  0  0  0
  153.9371  140.0318  158.5713 H   0  0  0  0  0  0  0  0  0  0  0  0
  147.9457  141.0332  158.1990 H   0  0  0  0  0  0  0  0  0  0  0  0
  152.6422  138.5594  154.5506 H   0  0  0  0  0  0  0  0  0  0  0  0
  150.0856  139.3217  153.2014 H   0  0  0  0  0  0  0  0  0  0  0  0
  150.1794  137.6714  153.7711 H   0  0  0  0  0  0  0  0  0  0  0  0
  148.1945  138.7297  155.4383 H   0  0  0  0  0  0  0  0  0  0  0  0
  148.4399  137.0400  153.3417 H   0  0  0  0  0  0  0  0  0  0  0  0
  147.4402  139.6270  152.6115 H   0  0  0  0  0  0  0  0  0  0  0  0
  149.2385  141.2732  153.9864 H   0  0  0  0  0  0  0  0  0  0  0  0
  147.9215  141.8498  152.9878 H   0  0  0  0  0  0  0  0  0  0  0  0
  147.8445  141.3951  155.9830 H   0  0  0  0  0  0  0  0  0  0  0  0
  147.4200  142.8756  155.1088 H   0  0  0  0  0  0  0  0  0  0  0  0
  145.4320  141.1665  155.7391 H   0  0  0  0  0  0  0  0  0  0  0  0
  145.4880  141.7898  154.0848 H   0  0  0  0  0  0  0  0  0  0  0  0
  152.7740  145.6203  159.0450 H   0  0  0  0  0  0  0  0  0  0  0  0
  152.0319  144.7987  157.6208 H   0  0  0  0  0  0  0  0  0  0  0  0
  150.5985  145.7647  160.1755 H   0  0  0  0  0  0  0  0  0  0  0  0
  149.9316  145.7063  158.4955 H   0  0  0  0  0  0  0  0  0  0  0  0
  149.9625  143.2904  158.4852 H   0  0  0  0  0  0  0  0  0  0  0  0
  149.8612  143.4268  160.2795 H   0  0  0  0  0  0  0  0  0  0  0  0
  1  2  1  0  0  0  0
  1 29  1  0  0  0  0
  1 30  1  0  0  0  0
  1 31  1  0  0  0  0
  2  3  1  0  0  0  0
  3 25  1  0  0  0  0
  3  4  1  0  0  0  0
  3 32  1  0  0  0  0
  4  5  1  0  0  0  0
  4 33  1  0  0  0  0
  4 34  1  0  0  0  0
  5  6  1  0  0  0  0
  5 25  1  0  0  0  0
  5 35  1  0  0  0  0
  6  7  1  0  0  0  0
  6  8  1  0  0  0  0
  7 36  1  0  0  0  0
  7 37  1  0  0  0  0
  7 38  1  0  0  0  0
  8 13  1  0  0  0  0
  8  9  2  0  0  0  0
  9 10  1  0  0  0  0
 10 11  2  0  0  0  0
 10 39  1  0  0  0  0
 11 12  1  0  0  0  0
 12 16  1  0  0  0  0
 12 13  2  0  0  0  0
 13 14  1  0  0  0  0
 14 15  2  0  0  0  0
 15 16  1  0  0  0  0
 15 40  1  0  0  0  0
 16 17  1  0  0  0  0
 17 18  1  0  0  0  0
 17 41  1  0  0  0  0
 17 42  1  0  0  0  0
 18 19  1  0  0  0  0
 18 20  1  0  0  0  0
 18 43  1  0  0  0  0
 19 44  1  0  0  0  0
 20 24  1  0  0  0  0
 20 21  1  0  0  0  0
 20 45  1  0  0  0  0
 21 22  1  0  0  0  0
 21 46  1  0  0  0  0
 21 47  1  0  0  0  0
 22 23  1  0  0  0  0
 22 48  1  0  0  0  0
 22 49  1  0  0  0  0
 23 24  1  0  0  0  0
 23 50  1  0  0  0  0
 23 51  1  0  0  0  0
 25 28  1  0  0  0  0
 25 26  1  0  0  0  0
 26 27  1  0  0  0  0
 26 52  1  0  0  0  0
 26 53  1  0  0  0  0
 27 28  1  0  0  0  0
 27 54  1  0  0  0  0
 27 55  1  0  0  0  0
 28 56  1  0  0  0  0
 28 57  1  0  0  0  0
M  END
> <s_m_source_file>
AV-unprocessed.smi

> <i_m_source_file_index>
276

> <i_lp_mmshare_version>
43012

> <i_f3d_flags>
0

> <s_epik_input>
W0NIMl0xW0NIMl1bQ0gyXUMxMltDQEhdKE9bQ0gzXSlbQ0gyXVtDQEhdMk4oW0NIM10pYyhuW2NIXW4zKWMoYzM0KW5bY0hdbjRbQ0gyXVtDQEhdKFtPSF0pW0NAQEhdNVtDSDJdW0NIMl1bQ0gyXU81

> <s_epik_cmdline>
J2VwaWtfcHl0aG9uJywgJy1waCcsICc3LjAnLCAnLXRuJywgJzgnLCAnLW1hJywgJzIwMCcsICctbWV0YWxfYmluZGluZycsICctaW1hZScsICc8aW5maWxlLm1hZT4nLCAnLW9tYWUnLCAnPG91dGZpbGUubWFlPic=

> <r_lp_tautomer_probability>
1

> <r_epik_Ionization_Penalty>
0.00204117

> <r_epik_Ionization_Penalty_Charging>
0

> <r_epik_Ionization_Penalty_Neutral>
0.00204117

> <r_epik_State_Penalty>
0.00127401

> <r_epik_Charging_Adjusted_Penalty>
0.00127401

> <i_epik_Tot_Q>
0

> <i_epik_Tot_abs_Q>
0

> <r_epik_Metal_State_Penalty>
-0

> <b_epik_Metal_Only>
0

> <s_lp_Force_Field>
OPLS_2005

> <r_lp_Energy>
58.0583

> <b_lp_Chiralities_Consistent>
1

> <s_lp_Variant>
AV-unprocessed.smi:276-2

> <Gold.Version>
5.8.1

> <Gold.Id.Protein>
6NUR|6NUR_protein|mol2

> <Gold.PLP.Fitness>
54.3972

> <Gold.PLP.PLP>
-50.3421

> <Gold.PLP.part.hbond>
-3.0599

> <Gold.PLP.part.metal>
0.0000

> <Gold.PLP.part.buried>
-5.3044

> <Gold.PLP.part.nonpolar>
-43.3131

> <Gold.PLP.part.repulsive>
0.2753

> <Gold.PLP.ligand.clash>
0.0000

> <Gold.PLP.ligand.torsion>
1.8463

> <Gold.PLP.Chemscore.Hbond>
2.3110

> <Gold.PLP.Chemscore.CHOScore>
0.0000

> <Gold.PLP.Chemscore.Metal>
0.0000

> <Gold.Chemscore.Hbonds>
donor molecule, donor type, donor heavy atom, donor atom, acceptor molecule, acceptor atom, score
      L1  H    19    44       P1  7948  1.00
      P1  H  6933  6945       L1     2  0.48
      P1  H  7997  8010       L1    14  1.00

> <Gold.PLP.Chemscore.Internal.Correction>
0.8147

> <Gold.Rescore>
     Score         DG    S(hbond)    S(metal)    S(lipo)     H(rot)  DE(clash)    DE(int)     intcor
     14.19     -21.14       1.89        0.00     139.44       2.72       0.09       6.86       ----

> <Gold.Chemscore.Fitness>
14.1878

> <Gold.Chemscore.DG>
-21.1385

> <Gold.Chemscore.ZeroCoef>
-5.4800

> <Gold.Chemscore.Hbond>
1.8863

> <Gold.Chemscore.Metal>
0.0000

> <Gold.Chemscore.Lipo>
139.4391

> <Gold.Chemscore.Internal_Hbond>
0.0000

> <Gold.Chemscore.DEClash>
0.0942

> <Gold.Chemscore.DEInternal>
6.8566

> <Gold.Chemscore.Rot>
2.7172

> <Gold.Chemscore.Internal.Correction>
   9.000000E+99

> <Gold.Chemscore.Hbonds>
donor molecule, donor type, donor heavy atom, donor atom, acceptor molecule, acceptor atom, score
      L1  H    19    44       P1  7948  0.97
      P1  H  6933  6945       L1     2  0.14
      P1  H  7997  8010       L1    14  0.97

> <Gold.Chemscore.Hbond.Weighted>
-6.3001

> <Gold.Chemscore.Metal.Weighted>
-0.0000

> <Gold.Chemscore.Lipo.Weighted>
-16.3144

> <Gold.Chemscore.Internal_Hbond.Weighted>
0.0000

> <Gold.Chemscore.DEClash.Weighted>
0.0942

> <Gold.Chemscore.DEInternal.Weighted>
6.8566

> <Gold.Chemscore.Rot.Weighted>
6.9560

> <Gold.Chemscore.Internal.Correction.Weighted>
   9.000000E+99

> <Gold.Protein.RotatedTorsions>
[ 6907 6896 6895 6894 ] final  135.83 input  -60.11 | X-H torsion
[ 7974 7965 7964 7962 ] final   14.29 input  175.53 | X-H torsion
[ 8008 7997 7996 7995 ] final   70.02 input   59.86 | X-H torsion
[ 10167 10162 10161 10158 ] final -153.41 input  -65.29 | X-H torsion
[ 10718 10713 10712 10709 ] final  -40.45 input   66.30 | X-H torsion
[ 10763 10752 10751 10750 ] final   29.82 input  -60.55 | X-H torsion
[ 11005 11000 10999 10996 ] final   29.23 input  -57.11 | X-H torsion

> <Gold.Protein.ActiveResidues>
 VAL166  LYS551  ARG553  GLY616  TRP617  ASP618  TYR619  PRO620  LYS621  CYS622 
 ASP623  PHE694  ASN695  SER759  ASP760  ASP761  ALA762  ILE779  LEU786  VAL792 
 PHE793  MET794  SER795  GLU796  ALA797  LYS798  CYS799  TRP800  GLU811  SER814 

> <Gold.Protein.RotatedAtoms>
  152.2961  133.5608  159.5587 H   0  0  0  0  0  0  0  0  0  0  0  0  # atno 6907 bound_to 6896
  150.7256  134.0359  159.3758 H   0  0  0  0  0  0  0  0  0  0  0  0  # atno 6908 bound_to 6896
  151.8262  135.0636  160.0482 H   0  0  0  0  0  0  0  0  0  0  0  0  # atno 6909 bound_to 6896
  146.2308  139.9062  142.8531 H   0  0  0  0  0  0  0  0  0  0  0  0  # atno 7974 bound_to 7965
  155.7324  140.3491  155.5065 H   0  0  0  0  0  0  0  0  0  0  0  0  # atno 8008 bound_to 7997
  155.9170  140.1060  157.1257 H   0  0  0  0  0  0  0  0  0  0  0  0  # atno 8009 bound_to 7997
  154.4064  140.1257  156.4617 H   0  0  0  0  0  0  0  0  0  0  0  0  # atno 8010 bound_to 7997
  139.7099  143.9126  152.2464 H   0  0  0  0  0  0  0  0  0  0  0  0  # atno 10167 bound_to 10162
  156.2812  130.4217  149.8335 H   0  0  0  0  0  0  0  0  0  0  0  0  # atno 10718 bound_to 10713
  153.0407  135.6479  154.0950 H   0  0  0  0  0  0  0  0  0  0  0  0  # atno 10763 bound_to 10752
  154.0657  135.2884  155.3318 H   0  0  0  0  0  0  0  0  0  0  0  0  # atno 10764 bound_to 10752
  154.6628  135.5385  153.8104 H   0  0  0  0  0  0  0  0  0  0  0  0  # atno 10765 bound_to 10752
  140.3071  134.2691  155.7741 H   0  0  0  0  0  0  0  0  0  0  0  0  # atno 11005 bound_to 11000
  145.2274  140.9959  143.4010 LP  0  0  0  0  0  0  0  0  0  0  0  0  # atno 17320 bound_to 7965
  144.9559  139.4032  143.6380 LP  0  0  0  0  0  0  0  0  0  0  0  0  # atno 17321 bound_to 7965
  139.8992  144.6921  150.8684 LP  0  0  0  0  0  0  0  0  0  0  0  0  # atno 17342 bound_to 10162
  140.7730  143.3527  151.1983 LP  0  0  0  0  0  0  0  0  0  0  0  0  # atno 17343 bound_to 10162
  156.5782  130.8454  151.3375 LP  0  0  0  0  0  0  0  0  0  0  0  0  # atno 17370 bound_to 10713
  157.7315  130.9701  150.1882 LP  0  0  0  0  0  0  0  0  0  0  0  0  # atno 17371 bound_to 10713
  141.2116  133.7684  156.9853 LP  0  0  0  0  0  0  0  0  0  0  0  0  # atno 17394 bound_to 11000
  140.1057  134.9508  157.1991 LP  0  0  0  0  0  0  0  0  0  0  0  0  # atno 17395 bound_to 11000

$$$$
