AV-unprocessed.smi:586|AV-procd|sdf|3001|dock5
  -GOLD-   2262023503D 1   1.00000     0.00000
 Structure written by MMmdl.
 49 49  0  0  0  0  0  0  0  0  1 V2000
  138.0394  137.1903  154.8639 C   0  0  0  0  0  0  0  0  0  0  0  0
  139.2377  136.8483  153.9684 C   0  0  0  0  0  0  0  0  0  0  0  0
  140.5451  136.5553  154.7328 C   0  0  0  0  0  0  0  0  0  0  0  0
  141.7304  136.5596  153.8939 N   0  0  0  0  0  0  0  0  0  0  0  0
  142.5627  135.4462  153.7460 C   0  0  0  0  0  0  0  0  0  0  0  0
  142.2350  134.2973  154.4520 N   0  0  0  0  0  0  0  0  0  0  0  0
  143.6448  135.4600  152.9086 C   0  0  0  0  0  0  0  0  0  0  0  0
  144.5008  134.3480  152.7878 N   0  0  0  0  0  0  0  0  0  0  0  0
  145.5001  134.1951  153.8621 C   0  0  0  0  0  0  0  0  0  0  0  0
  146.5852  135.2901  153.8069 C   0  0  0  0  0  0  0  0  0  0  0  0
  147.6393  135.0299  154.7230 O   0  0  0  0  0  0  0  0  0  0  0  0
  148.7722  134.4026  154.1425 C   0  0  0  0  0  0  0  0  0  0  0  0
  144.5426  133.5221  151.6997 C   0  0  0  0  0  0  0  0  0  0  0  0
  143.5790  133.4825  150.9305 O   0  0  0  0  0  0  0  0  0  0  0  0
  145.7932  132.6571  151.3155 C   0  0  0  0  0  0  0  0  0  0  0  0
  146.1665  131.5648  152.3463 C   0  0  0  0  0  0  0  0  0  0  0  0
  147.0238  133.5980  151.2326 C   0  0  0  0  0  0  0  0  0  0  0  0
  145.6047  132.0360  149.9155 C   0  0  0  0  0  0  0  0  0  0  0  0
  144.0163  136.6921  152.1987 C   0  0  0  0  0  0  0  0  0  0  0  0
  145.0115  136.8429  151.4911 O   0  0  0  0  0  0  0  0  0  0  0  0
  143.1445  137.7614  152.3817 N   0  0  0  0  0  0  0  0  0  0  0  0
  142.0082  137.7522  153.1814 C   0  0  0  0  0  0  0  0  0  0  0  0
  141.3057  138.7619  153.2357 O   0  0  0  0  0  0  0  0  0  0  0  0
  143.3564  138.6182  151.8912 H   0  0  0  0  0  0  0  0  0  0  0  0
  137.1357  137.3170  154.2676 H   0  0  0  0  0  0  0  0  0  0  0  0
  138.2026  138.1185  155.4116 H   0  0  0  0  0  0  0  0  0  0  0  0
  137.8508  136.3982  155.5892 H   0  0  0  0  0  0  0  0  0  0  0  0
  138.9849  135.9741  153.3682 H   0  0  0  0  0  0  0  0  0  0  0  0
  139.3953  137.6616  153.2594 H   0  0  0  0  0  0  0  0  0  0  0  0
  140.6895  137.2455  155.5650 H   0  0  0  0  0  0  0  0  0  0  0  0
  140.5115  135.5683  155.1952 H   0  0  0  0  0  0  0  0  0  0  0  0
  141.4254  134.2559  155.0548 H   0  0  0  0  0  0  0  0  0  0  0  0
  142.7970  133.4599  154.3986 H   0  0  0  0  0  0  0  0  0  0  0  0
  145.0035  134.2283  154.8307 H   0  0  0  0  0  0  0  0  0  0  0  0
  145.9636  133.2080  153.8149 H   0  0  0  0  0  0  0  0  0  0  0  0
  147.0274  135.3193  152.8111 H   0  0  0  0  0  0  0  0  0  0  0  0
  146.1602  136.2793  153.9825 H   0  0  0  0  0  0  0  0  0  0  0  0
  149.5081  134.1964  154.9196 H   0  0  0  0  0  0  0  0  0  0  0  0
  149.2511  135.0353  153.3957 H   0  0  0  0  0  0  0  0  0  0  0  0
  148.5040  133.4531  153.6776 H   0  0  0  0  0  0  0  0  0  0  0  0
  147.1892  131.2153  152.2006 H   0  0  0  0  0  0  0  0  0  0  0  0
  145.5430  130.6763  152.2587 H   0  0  0  0  0  0  0  0  0  0  0  0
  146.1033  131.9359  153.3692 H   0  0  0  0  0  0  0  0  0  0  0  0
  147.1939  134.1201  152.1755 H   0  0  0  0  0  0  0  0  0  0  0  0
  146.9160  134.3507  150.4500 H   0  0  0  0  0  0  0  0  0  0  0  0
  147.9364  133.0467  151.0027 H   0  0  0  0  0  0  0  0  0  0  0  0
  146.5557  131.6951  149.5044 H   0  0  0  0  0  0  0  0  0  0  0  0
  145.1841  132.7506  149.2067 H   0  0  0  0  0  0  0  0  0  0  0  0
  144.9523  131.1653  149.9367 H   0  0  0  0  0  0  0  0  0  0  0  0
  1  2  1  0  0  0  0
  1 25  1  0  0  0  0
  1 26  1  0  0  0  0
  1 27  1  0  0  0  0
  2  3  1  0  0  0  0
  2 28  1  0  0  0  0
  2 29  1  0  0  0  0
  3  4  1  0  0  0  0
  3 30  1  0  0  0  0
  3 31  1  0  0  0  0
  4 22  1  0  0  0  0
  4  5  1  0  0  0  0
  5  6  1  0  0  0  0
  5  7  2  0  0  0  0
  6 32  1  0  0  0  0
  6 33  1  0  0  0  0
  7  8  1  0  0  0  0
  7 19  1  0  0  0  0
  8  9  1  0  0  0  0
  8 13  1  0  0  0  0
  9 10  1  0  0  0  0
  9 34  1  0  0  0  0
  9 35  1  0  0  0  0
 10 11  1  0  0  0  0
 10 36  1  0  0  0  0
 10 37  1  0  0  0  0
 11 12  1  0  0  0  0
 12 38  1  0  0  0  0
 12 39  1  0  0  0  0
 12 40  1  0  0  0  0
 13 14  2  0  0  0  0
 13 15  1  0  0  0  0
 15 16  1  0  0  0  0
 15 17  1  0  0  0  0
 15 18  1  0  0  0  0
 16 41  1  0  0  0  0
 16 42  1  0  0  0  0
 16 43  1  0  0  0  0
 17 44  1  0  0  0  0
 17 45  1  0  0  0  0
 17 46  1  0  0  0  0
 18 47  1  0  0  0  0
 18 48  1  0  0  0  0
 18 49  1  0  0  0  0
 19 20  2  0  0  0  0
 19 21  1  0  0  0  0
 21 24  1  0  0  0  0
 21 22  1  0  0  0  0
 22 23  2  0  0  0  0
M  END
> <s_m_source_file>
AV-unprocessed.smi

> <i_m_source_file_index>
586

> <i_lp_mmshare_version>
43012

> <i_f3d_flags>
0

> <s_epik_input>
W0NIM11bQ0gyXVtDSDJdbjFjKFtOSDJdKWMoYyg9TylbbkhdYzE9TylOKEMoPU8pQyhbQ0gzXSkoW0NIM10pW0NIM10pW0NIMl1bQ0gyXU9bQ0gzXQ==

> <s_epik_cmdline>
J2VwaWtfcHl0aG9uJywgJy1waCcsICc3LjAnLCAnLXRuJywgJzgnLCAnLW1hJywgJzIwMCcsICctbWV0YWxfYmluZGluZycsICctaW1hZScsICc8aW5maWxlLm1hZT4nLCAnLW9tYWUnLCAnPG91dGZpbGUubWFlPic=

> <r_lp_tautomer_probability>
1

> <r_epik_Ionization_Penalty>
2.71493e-05

> <r_epik_Ionization_Penalty_Charging>
5.25815e-06

> <r_epik_Ionization_Penalty_Neutral>
2.18912e-05

> <r_epik_State_Penalty>
-0

> <r_epik_Charging_Adjusted_Penalty>
5.25815e-06

> <i_epik_Tot_Q>
0

> <i_epik_Tot_abs_Q>
0

> <r_epik_Metal_State_Penalty>
-0

> <b_epik_Metal_Only>
0

> <s_epik_Chemistry_Notes>
This compound has an imine and may undergo hydrolysis.

> <s_lp_Force_Field>
OPLS_2005

> <r_lp_Energy>
40.2025

> <b_lp_Chiralities_Consistent>
1

> <s_lp_Variant>
AV-unprocessed.smi:586-1

> <Gold.Version>
5.8.1

> <Gold.Id.Protein>
6NUR|6NUR_protein|mol2

> <Gold.PLP.Fitness>
43.1363

> <Gold.PLP.PLP>
-36.8545

> <Gold.PLP.part.hbond>
-3.9676

> <Gold.PLP.part.metal>
0.0000

> <Gold.PLP.part.buried>
-7.6432

> <Gold.PLP.part.nonpolar>
-29.3673

> <Gold.PLP.part.repulsive>
4.2069

> <Gold.PLP.ligand.clash>
0.0000

> <Gold.PLP.ligand.torsion>
2.1745

> <Gold.PLP.Chemscore.Hbond>
2.6240

> <Gold.PLP.Chemscore.CHOScore>
0.0000

> <Gold.PLP.Chemscore.Metal>
0.0000

> <Gold.Chemscore.Hbonds>
donor molecule, donor type, donor heavy atom, donor atom, acceptor molecule, acceptor atom, score
      L1  H     6    32       P1 11000  1.00
      L1  H     6    33       P1 10957  0.77
      L1  H    21    24       P1 10175  0.69

> <Gold.PLP.Chemscore.Internal.Correction>
2.7588

> <Gold.Rescore>
     Score         DG    S(hbond)    S(metal)    S(lipo)     H(rot)  DE(clash)    DE(int)     intcor
     11.19     -15.77       2.61        0.00      58.91       2.08       1.42       3.16       ----

> <Gold.Chemscore.Fitness>
11.1890

> <Gold.Chemscore.DG>
-15.7698

> <Gold.Chemscore.ZeroCoef>
-5.4800

> <Gold.Chemscore.Hbond>
2.6148

> <Gold.Chemscore.Metal>
0.0000

> <Gold.Chemscore.Lipo>
58.9082

> <Gold.Chemscore.Internal_Hbond>
0.0000

> <Gold.Chemscore.DEClash>
1.4236

> <Gold.Chemscore.DEInternal>
3.1572

> <Gold.Chemscore.Rot>
2.0843

> <Gold.Chemscore.Internal.Correction>
   9.000000E+99

> <Gold.Chemscore.Hbonds>
donor molecule, donor type, donor heavy atom, donor atom, acceptor molecule, acceptor atom, score
      L1  H     6    32       P1 11000  0.74
      L1  H     6    33       P1 10957  0.76
      L1  H    21    24       P1 10175  0.67

> <Gold.Chemscore.Hbond.Weighted>
-8.7334

> <Gold.Chemscore.Metal.Weighted>
-0.0000

> <Gold.Chemscore.Lipo.Weighted>
-6.8923

> <Gold.Chemscore.Internal_Hbond.Weighted>
0.0000

> <Gold.Chemscore.DEClash.Weighted>
1.4236

> <Gold.Chemscore.DEInternal.Weighted>
3.1572

> <Gold.Chemscore.Rot.Weighted>
5.3359

> <Gold.Chemscore.Internal.Correction.Weighted>
   9.000000E+99

> <Gold.Protein.RotatedTorsions>
[ 6907 6896 6895 6894 ] final   40.02 input  -60.11 | X-H torsion
[ 7974 7965 7964 7962 ] final  164.33 input  175.53 | X-H torsion
[ 8008 7997 7996 7995 ] final  -86.19 input   59.86 | X-H torsion
[ 10167 10162 10161 10158 ] final  144.17 input  -65.29 | X-H torsion
[ 10718 10713 10712 10709 ] final  167.07 input   66.30 | X-H torsion
[ 10763 10752 10751 10750 ] final   10.86 input  -60.55 | X-H torsion
[ 11005 11000 10999 10996 ] final  132.42 input  -57.11 | X-H torsion

> <Gold.Protein.ActiveResidues>
 VAL166  LYS551  ARG553  GLY616  TRP617  ASP618  TYR619  PRO620  LYS621  CYS622 
 ASP623  PHE694  ASN695  SER759  ASP760  ASP761  ALA762  ILE779  LEU786  VAL792 
 PHE793  MET794  SER795  GLU796  ALA797  LYS798  CYS799  TRP800  GLU811  SER814 

> <Gold.Protein.RotatedAtoms>
  152.1772  134.8785  160.0529 H   0  0  0  0  0  0  0  0  0  0  0  0  # atno 6907 bound_to 6896
  151.9723  133.3725  159.4084 H   0  0  0  0  0  0  0  0  0  0  0  0  # atno 6908 bound_to 6896
  150.6911  134.4050  159.5180 H   0  0  0  0  0  0  0  0  0  0  0  0  # atno 6909 bound_to 6896
  144.7550  139.8311  143.6353 H   0  0  0  0  0  0  0  0  0  0  0  0  # atno 7974 bound_to 7965
  154.6491  140.0582  156.9934 H   0  0  0  0  0  0  0  0  0  0  0  0  # atno 8008 bound_to 7997
  155.1399  140.3264  155.4436 H   0  0  0  0  0  0  0  0  0  0  0  0  # atno 8009 bound_to 7997
  156.2567  140.1966  156.6515 H   0  0  0  0  0  0  0  0  0  0  0  0  # atno 8010 bound_to 7997
  139.4953  144.5990  151.6520 H   0  0  0  0  0  0  0  0  0  0  0  0  # atno 10167 bound_to 10162
  157.0568  131.0329  151.2661 H   0  0  0  0  0  0  0  0  0  0  0  0  # atno 10718 bound_to 10713
  153.1987  135.6853  153.8258 H   0  0  0  0  0  0  0  0  0  0  0  0  # atno 10763 bound_to 10752
  153.7532  135.3221  155.3326 H   0  0  0  0  0  0  0  0  0  0  0  0  # atno 10764 bound_to 10752
  154.8159  135.4686  154.0744 H   0  0  0  0  0  0  0  0  0  0  0  0  # atno 10765 bound_to 10752
  139.9789  134.9554  156.9579 H   0  0  0  0  0  0  0  0  0  0  0  0  # atno 11005 bound_to 11000
  146.1548  139.4643  143.0026 LP  0  0  0  0  0  0  0  0  0  0  0  0  # atno 17320 bound_to 7965
  145.6812  141.0190  143.1605 LP  0  0  0  0  0  0  0  0  0  0  0  0  # atno 17321 bound_to 7965
  140.5636  144.0228  150.6181 LP  0  0  0  0  0  0  0  0  0  0  0  0  # atno 17342 bound_to 10162
  140.3322  143.3071  152.0675 LP  0  0  0  0  0  0  0  0  0  0  0  0  # atno 17343 bound_to 10162
  157.4987  130.7866  149.7582 LP  0  0  0  0  0  0  0  0  0  0  0  0  # atno 17370 bound_to 10713
  155.9991  130.3891  150.2678 LP  0  0  0  0  0  0  0  0  0  0  0  0  # atno 17371 bound_to 10713
  140.5138  134.0976  155.7276 LP  0  0  0  0  0  0  0  0  0  0  0  0  # atno 17394 bound_to 11000
  141.1463  133.9049  157.2207 LP  0  0  0  0  0  0  0  0  0  0  0  0  # atno 17395 bound_to 11000

$$$$
