AV-unprocessed.smi:34|AV-procd|sdf|228|dock9
  -GOLD-   2262015553D 1   1.00000     0.00000
 Structure written by MMmdl.
 55 59  0  0  0  0  0  0  0  0  1 V2000
  150.9503  140.5359  157.7675 O   0  0  0  0  0  0  0  0  0  0  0  0
  150.6462  141.7216  157.6330 C   0  0  0  0  0  0  0  0  0  0  0  0
  149.7053  142.1679  156.6214 N   0  0  0  0  0  0  0  0  0  0  0  0
  148.9618  141.4134  155.7789 C   0  0  0  0  0  0  0  0  0  0  0  0
  148.7911  141.7330  154.4691 N   0  0  0  0  0  0  0  0  0  0  0  0
  148.0533  140.9496  153.6775 C   0  0  0  0  0  0  0  0  0  0  0  0
  147.4135  139.8206  153.9870 N   0  0  0  0  0  0  0  0  0  0  0  0
  147.5751  139.4931  155.3004 C   0  0  0  0  0  0  0  0  0  0  0  0
  148.3271  140.2359  156.2530 C   0  0  0  0  0  0  0  0  0  0  0  0
  148.2717  139.6078  157.4901 N   0  0  0  0  0  0  0  0  0  0  0  0
  147.5308  138.5544  157.2750 C   0  0  0  0  0  0  0  0  0  0  0  0
  147.0730  138.4040  155.9848 N   0  0  0  0  0  0  0  0  0  0  0  0
  146.2244  137.2929  155.4560 C   0  0  1  0  0  0  0  0  0  0  0  0
  145.9333  136.4126  156.5000 O   0  0  0  0  0  0  0  0  0  0  0  0
  144.5669  135.9876  156.4379 C   0  0  1  0  0  0  0  0  0  0  0  0
  143.8056  136.5118  157.6631 C   0  0  0  0  0  0  0  0  0  0  0  0
  144.4409  136.0454  158.8425 O   0  0  0  0  0  0  0  0  0  0  0  0
  145.3030  136.8388  159.5083 C   0  0  0  0  0  0  0  0  0  0  0  0
  145.5484  138.0035  159.1872 O   0  0  0  0  0  0  0  0  0  0  0  0
  145.9348  136.1576  160.6746 C   0  0  0  0  0  0  0  0  0  0  0  0
  145.4394  134.9009  161.0941 C   0  0  0  0  0  0  0  0  0  0  0  0
  146.0147  134.2338  162.1930 C   0  0  0  0  0  0  0  0  0  0  0  0
  147.0931  134.8145  162.8852 C   0  0  0  0  0  0  0  0  0  0  0  0
  147.5952  136.0642  162.4778 C   0  0  0  0  0  0  0  0  0  0  0  0
  147.0207  136.7334  161.3795 C   0  0  0  0  0  0  0  0  0  0  0  0
  144.0278  136.5735  155.1297 C   0  0  2  0  0  0  0  0  0  0  0  0
  144.2602  135.6852  154.1588 F   0  0  0  0  0  0  0  0  0  0  0  0
  144.8858  137.8133  154.9407 C   0  0  2  0  0  0  0  0  0  0  0  0
  144.9061  138.1986  153.5809 O   0  0  0  0  0  0  0  0  0  0  0  0
  151.2911  142.8003  158.4546 C   0  0  0  0  0  0  0  0  0  0  0  0
  151.2204  144.1476  158.0344 C   0  0  0  0  0  0  0  0  0  0  0  0
  151.8416  145.1631  158.7876 C   0  0  0  0  0  0  0  0  0  0  0  0
  152.5439  144.8395  159.9637 C   0  0  0  0  0  0  0  0  0  0  0  0
  152.6282  143.4990  160.3844 C   0  0  0  0  0  0  0  0  0  0  0  0
  152.0084  142.4825  159.6317 C   0  0  0  0  0  0  0  0  0  0  0  0
  149.5588  143.1651  156.5652 H   0  0  0  0  0  0  0  0  0  0  0  0
  147.9627  141.2726  152.6507 H   0  0  0  0  0  0  0  0  0  0  0  0
  147.3016  137.8465  158.0582 H   0  0  0  0  0  0  0  0  0  0  0  0
  146.8260  136.7899  154.6970 H   0  0  0  0  0  0  0  0  0  0  0  0
  144.5172  134.8979  156.4218 H   0  0  0  0  0  0  0  0  0  0  0  0
  143.7523  137.5996  157.6396 H   0  0  0  0  0  0  0  0  0  0  0  0
  142.7795  136.1435  157.6523 H   0  0  0  0  0  0  0  0  0  0  0  0
  144.6119  134.4352  160.5786 H   0  0  0  0  0  0  0  0  0  0  0  0
  145.6271  133.2753  162.5050 H   0  0  0  0  0  0  0  0  0  0  0  0
  147.5339  134.3027  163.7278 H   0  0  0  0  0  0  0  0  0  0  0  0
  148.4227  136.5112  163.0087 H   0  0  0  0  0  0  0  0  0  0  0  0
  147.4304  137.6908  161.0931 H   0  0  0  0  0  0  0  0  0  0  0  0
  142.9566  136.7776  155.1418 H   0  0  0  0  0  0  0  0  0  0  0  0
  144.5312  138.6280  155.5737 H   0  0  0  0  0  0  0  0  0  0  0  0
  144.3597  138.9629  153.4786 H   0  0  0  0  0  0  0  0  0  0  0  0
  150.6870  144.4128  157.1328 H   0  0  0  0  0  0  0  0  0  0  0  0
  151.7806  146.1910  158.4617 H   0  0  0  0  0  0  0  0  0  0  0  0
  153.0212  145.6181  160.5403 H   0  0  0  0  0  0  0  0  0  0  0  0
  153.1721  143.2487  161.2832 H   0  0  0  0  0  0  0  0  0  0  0  0
  152.0957  141.4595  159.9678 H   0  0  0  0  0  0  0  0  0  0  0  0
  1  2  2  0  0  0  0
  2  3  1  0  0  0  0
  2 30  1  0  0  0  0
  3  4  1  0  0  0  0
  3 36  1  0  0  0  0
  4  9  1  0  0  0  0
  4  5  2  0  0  0  0
  5  6  1  0  0  0  0
  6  7  2  0  0  0  0
  6 37  1  0  0  0  0
  7  8  1  0  0  0  0
  8 12  1  0  0  0  0
  8  9  2  0  0  0  0
  9 10  1  0  0  0  0
 10 11  2  0  0  0  0
 11 12  1  0  0  0  0
 11 38  1  0  0  0  0
 12 13  1  0  0  0  0
 13 28  1  0  0  0  0
 13 14  1  0  0  0  0
 13 39  1  0  0  0  0
 14 15  1  0  0  0  0
 15 16  1  0  0  0  0
 15 26  1  0  0  0  0
 15 40  1  0  0  0  0
 16 17  1  0  0  0  0
 16 41  1  0  0  0  0
 16 42  1  0  0  0  0
 17 18  1  0  0  0  0
 18 19  2  0  0  0  0
 18 20  1  0  0  0  0
 20 25  1  0  0  0  0
 20 21  2  0  0  0  0
 21 22  1  0  0  0  0
 21 43  1  0  0  0  0
 22 23  2  0  0  0  0
 22 44  1  0  0  0  0
 23 24  1  0  0  0  0
 23 45  1  0  0  0  0
 24 25  2  0  0  0  0
 24 46  1  0  0  0  0
 25 47  1  0  0  0  0
 26 27  1  0  0  0  0
 26 28  1  0  0  0  0
 26 48  1  0  0  0  0
 28 29  1  0  0  0  0
 28 49  1  0  0  0  0
 29 50  1  0  0  0  0
 30 35  1  0  0  0  0
 30 31  2  0  0  0  0
 31 32  1  0  0  0  0
 31 51  1  0  0  0  0
 32 33  2  0  0  0  0
 32 52  1  0  0  0  0
 33 34  1  0  0  0  0
 33 53  1  0  0  0  0
 34 35  2  0  0  0  0
 34 54  1  0  0  0  0
 35 55  1  0  0  0  0
M  END
> <s_m_source_file>
AV-unprocessed.smi

> <i_m_source_file_index>
34

> <i_lp_mmshare_version>
43012

> <i_f3d_flags>
0

> <s_epik_input>
W2NIXTFbY0hdW2NIXVtjSF1bY0hdYzFDKD1PKVtOSF1jKG5bY0hdbjIpYyhjMjMpbltjSF1uM1tDQEBIXTRPW0NASF0oW0NAQEhdKEYpW0NASF00W09IXSlbQ0gyXU9DKD1PKWM1W2NIXVtjSF1bY0hdW2NIXVtjSF01

> <s_epik_cmdline>
J2VwaWtfcHl0aG9uJywgJy1waCcsICc3LjAnLCAnLXRuJywgJzgnLCAnLW1hJywgJzIwMCcsICctbWV0YWxfYmluZGluZycsICctaW1hZScsICc8aW5maWxlLm1hZT4nLCAnLW9tYWUnLCAnPG91dGZpbGUubWFlPic=

> <r_lp_tautomer_probability>
1

> <r_epik_Ionization_Penalty>
0.00257489

> <r_epik_Ionization_Penalty_Charging>
0

> <r_epik_Ionization_Penalty_Neutral>
0.00257489

> <r_epik_State_Penalty>
0.00519398

> <r_epik_Charging_Adjusted_Penalty>
0.00519398

> <i_epik_Tot_Q>
0

> <i_epik_Tot_abs_Q>
0

> <r_epik_Metal_State_Penalty>
0.335891

> <b_epik_Metal_Only>
0

> <s_epik_Chemistry_Notes>
This compound has an ester and may undergo hydrolysis at high or low pH. This compound contains an acetal/aminal-like group ( X-CH(R)-Y where X, Y are N, S, or O) that may be acid/base labile, releasing an aldehyde.

> <s_lp_Force_Field>
OPLS_2005

> <r_lp_Energy>
45.4832

> <b_lp_Chiralities_Consistent>
1

> <s_lp_Variant>
AV-unprocessed.smi:34-14

> <Gold.Version>
5.8.1

> <Gold.Id.Protein>
6NUR|6NUR_protein|mol2

> <Gold.PLP.Fitness>
51.0178

> <Gold.PLP.PLP>
-44.5176

> <Gold.PLP.part.hbond>
-2.8144

> <Gold.PLP.part.metal>
0.0000

> <Gold.PLP.part.buried>
-6.9479

> <Gold.PLP.part.nonpolar>
-35.7947

> <Gold.PLP.part.repulsive>
0.3698

> <Gold.PLP.ligand.clash>
0.0000

> <Gold.PLP.ligand.torsion>
0.7800

> <Gold.PLP.Chemscore.Hbond>
2.0040

> <Gold.PLP.Chemscore.CHOScore>
0.6467

> <Gold.PLP.Chemscore.Metal>
0.0000

> <Gold.Chemscore.Hbonds>
donor molecule, donor type, donor heavy atom, donor atom, acceptor molecule, acceptor atom, score
      L1  H     3    36       P1  8028  1.00
      L1  H    29    50       P1 10175  1.00
      L1  C     6    37       P1  7957  0.64

> <Gold.PLP.Chemscore.Internal.Correction>
0.1079

> <Gold.Rescore>
     Score         DG    S(hbond)    S(metal)    S(lipo)     H(rot)  DE(clash)    DE(int)     intcor
     17.36     -18.73       1.92        0.00     117.83       2.72       0.13       1.23       ----

> <Gold.Chemscore.Fitness>
17.3646

> <Gold.Chemscore.DG>
-18.7250

> <Gold.Chemscore.ZeroCoef>
-5.4800

> <Gold.Chemscore.Hbond>
1.9240

> <Gold.Chemscore.Metal>
0.0000

> <Gold.Chemscore.Lipo>
117.8284

> <Gold.Chemscore.Internal_Hbond>
0.0000

> <Gold.Chemscore.DEClash>
0.1278

> <Gold.Chemscore.DEInternal>
1.2327

> <Gold.Chemscore.Rot>
2.7215

> <Gold.Chemscore.Internal.Correction>
   9.000000E+99

> <Gold.Chemscore.Hbonds>
donor molecule, donor type, donor heavy atom, donor atom, acceptor molecule, acceptor atom, score
      L1  H     3    36       P1  8028  0.96
      L1  H    29    50       P1 10175  0.96

> <Gold.Chemscore.Hbond.Weighted>
-6.4261

> <Gold.Chemscore.Metal.Weighted>
-0.0000

> <Gold.Chemscore.Lipo.Weighted>
-13.7859

> <Gold.Chemscore.Internal_Hbond.Weighted>
0.0000

> <Gold.Chemscore.DEClash.Weighted>
0.1278

> <Gold.Chemscore.DEInternal.Weighted>
1.2327

> <Gold.Chemscore.Rot.Weighted>
6.9670

> <Gold.Chemscore.Internal.Correction.Weighted>
   9.000000E+99

> <Gold.Protein.RotatedTorsions>
[ 6907 6896 6895 6894 ] final  178.90 input  -60.11 | X-H torsion
[ 7974 7965 7964 7962 ] final  -14.15 input  175.53 | X-H torsion
[ 8008 7997 7996 7995 ] final -179.94 input   59.86 | X-H torsion
[ 10167 10162 10161 10158 ] final -148.16 input  -65.29 | X-H torsion
[ 10718 10713 10712 10709 ] final -155.74 input   66.30 | X-H torsion
[ 10763 10752 10751 10750 ] final   36.33 input  -60.55 | X-H torsion
[ 11005 11000 10999 10996 ] final -156.19 input  -57.11 | X-H torsion

> <Gold.Protein.ActiveResidues>
 VAL166  LYS551  ARG553  GLY616  TRP617  ASP618  TYR619  PRO620  LYS621  CYS622 
 ASP623  PHE694  ASN695  SER759  ASP760  ASP761  ALA762  ILE779  LEU786  VAL792 
 PHE793  MET794  SER795  GLU796  ALA797  LYS798  CYS799  TRP800  GLU811  SER814 

> <Gold.Protein.RotatedAtoms>
  151.6804  133.3312  159.3217 H   0  0  0  0  0  0  0  0  0  0  0  0  # atno 6907 bound_to 6896
  150.7825  134.6785  159.6440 H   0  0  0  0  0  0  0  0  0  0  0  0  # atno 6908 bound_to 6896
  152.3887  134.6480  160.0168 H   0  0  0  0  0  0  0  0  0  0  0  0  # atno 6909 bound_to 6896
  146.2086  140.3307  142.8399 H   0  0  0  0  0  0  0  0  0  0  0  0  # atno 7974 bound_to 7965
  156.0362  140.1293  157.0205 H   0  0  0  0  0  0  0  0  0  0  0  0  # atno 8008 bound_to 7997
  154.4371  140.1039  156.6242 H   0  0  0  0  0  0  0  0  0  0  0  0  # atno 8009 bound_to 7997
  155.5734  140.3467  155.4523 H   0  0  0  0  0  0  0  0  0  0  0  0  # atno 8010 bound_to 7997
  139.7557  143.8452  152.2596 H   0  0  0  0  0  0  0  0  0  0  0  0  # atno 10167 bound_to 10162
  156.5169  130.8460  151.2667 H   0  0  0  0  0  0  0  0  0  0  0  0  # atno 10718 bound_to 10713
  153.0081  135.6308  154.1969 H   0  0  0  0  0  0  0  0  0  0  0  0  # atno 10763 bound_to 10752
  154.1712  135.2818  155.3082 H   0  0  0  0  0  0  0  0  0  0  0  0  # atno 10764 bound_to 10752
  154.5907  135.5618  153.7336 H   0  0  0  0  0  0  0  0  0  0  0  0  # atno 10765 bound_to 10752
  140.6783  134.4172  157.5228 H   0  0  0  0  0  0  0  0  0  0  0  0  # atno 11005 bound_to 11000
  144.8854  140.7455  143.5960 LP  0  0  0  0  0  0  0  0  0  0  0  0  # atno 17320 bound_to 7965
  145.3228  139.1783  143.4578 LP  0  0  0  0  0  0  0  0  0  0  0  0  # atno 17321 bound_to 7965
  139.8443  144.7195  150.9292 LP  0  0  0  0  0  0  0  0  0  0  0  0  # atno 17342 bound_to 10162
  140.7802  143.3955  151.1237 LP  0  0  0  0  0  0  0  0  0  0  0  0  # atno 17343 bound_to 10162
  157.7442  130.9930  150.2658 LP  0  0  0  0  0  0  0  0  0  0  0  0  # atno 17370 bound_to 10713
  156.3186  130.3782  149.7595 LP  0  0  0  0  0  0  0  0  0  0  0  0  # atno 17371 bound_to 10713
  139.8960  134.8671  156.2108 LP  0  0  0  0  0  0  0  0  0  0  0  0  # atno 17394 bound_to 11000
  141.0338  133.6974  156.1476 LP  0  0  0  0  0  0  0  0  0  0  0  0  # atno 17395 bound_to 11000

$$$$
