#       Name:                AV-unprocessed.smi:83
#       Creating user name   scv26
#       Creation time:       Thu Mar 26 17:18:54 2020


#       File generated by GOLD software.
#

@<TRIPOS>MOLECULE
AV-unprocessed.smi:83
    65    68     1
SMALL
NO_CHARGES


@<TRIPOS>ATOM
      1 ****        -0.5125  -1.7583  -1.2649 C.3            1 S1                 0.0000
      2 ****        -1.9102  -1.7594  -0.6441 C.2            1 S1                 0.0000
      3 ****        -2.1730  -2.5845   0.2303 O.2            1 S1                 0.0000
      4 ****        -2.8085  -0.8522  -1.0786 N.am           1 S1                 0.0000
      5 ****        -4.1747  -0.7528  -0.5722 C.3            1 S1                 0.0000
      6 ****        -4.8375   0.3536  -1.3989 C.3            1 S1                 0.0000
      7 ****        -3.6756   1.2341  -1.8576 C.3            1 S1                 0.0000
      8 ****        -3.3663   2.3083  -0.7858 C.3            1 S1                 0.0000
      9 ****        -2.2610   3.2037  -1.1320 N.pl3          1 S1                 0.0000
     10 ****        -2.5287   4.2281  -2.1402 C.3            1 S1                 0.0000
     11 ****        -0.9622   2.8889  -0.8399 C.ar           1 S1                 0.0000
     12 ****         0.0168   3.4449  -1.6057 N.ar           1 S1                 0.0000
     13 ****         1.3030   3.1483  -1.4076 C.ar           1 S1                 0.0000
     14 ****         1.8372   2.3239  -0.5083 N.ar           1 S1                 0.0000
     15 ****         0.8754   1.7686   0.2800 C.ar           1 S1                 0.0000
     16 ****        -0.5309   1.9975   0.1949 C.ar           1 S1                 0.0000
     17 ****        -1.1681   1.2542   1.1845 N.2            1 S1                 0.0000
     18 ****        -0.2111   0.6108   1.7915 C.2            1 S1                 0.0000
     19 ****         1.0497   0.8580   1.3072 N.pl3          1 S1                 0.0000
     20 ****         2.2872   0.2690   1.7869 C.3            1 S1                 0.0000
     21 ****         2.5720  -1.0983   1.1352 C.3            1 S1                 0.0000
     22 ****         2.7668  -0.9190  -0.2545 O.3            1 S1                 0.0000
     23 ****         3.8197  -1.7788   1.7265 C.3            1 S1                 0.0000
     24 ****         4.1213  -3.1635   1.1496 C.3            1 S1                 0.0000
     25 ****         4.8938  -3.8579   2.2605 C.3            1 S1                 0.0000
     26 ****         4.6440  -2.9831   3.4916 C.3            1 S1                 0.0000
     27 ****         3.6225  -2.0771   3.1001 O.3            1 S1                 0.0000
     28 ****        -2.5625   0.1951  -2.0669 C.3            1 S1                 0.0000
     29 ****        -0.5701  -1.8696  -2.3479 H              1 S1                 0.0000
     30 ****         0.0851  -2.5815  -0.8722 H              1 S1                 0.0000
     31 ****         0.0086  -0.8292  -1.0365 H              1 S1                 0.0000
     32 ****        -4.7125  -1.6974  -0.6636 H              1 S1                 0.0000
     33 ****        -4.1454  -0.4786   0.4836 H              1 S1                 0.0000
     34 ****        -5.3225  -0.0882  -2.2705 H              1 S1                 0.0000
     35 ****        -5.6012   0.8969  -0.8413 H              1 S1                 0.0000
     36 ****        -3.9181   1.7299  -2.7984 H              1 S1                 0.0000
     37 ****        -4.2524   2.9337  -0.6721 H              1 S1                 0.0000
     38 ****        -3.2463   1.8584   0.1934 H              1 S1                 0.0000
     39 ****        -2.0206   5.1604  -1.8911 H              1 S1                 0.0000
     40 ****        -3.5954   4.4433  -2.2075 H              1 S1                 0.0000
     41 ****        -2.1921   3.8984  -3.1237 H              1 S1                 0.0000
     42 ****         2.0033   3.6366  -2.0692 H              1 S1                 0.0000
     43 ****        -0.4011  -0.0702   2.6085 H              1 S1                 0.0000
     44 ****         3.1070   0.9647   1.6024 H              1 S1                 0.0000
     45 ****         2.2092   0.1624   2.8695 H              1 S1                 0.0000
     46 ****         1.7080  -1.7499   1.2733 H              1 S1                 0.0000
     47 ****         2.0115  -0.4742  -0.6078 H              1 S1                 0.0000
     48 ****         4.6945  -1.1329   1.6259 H              1 S1                 0.0000
     49 ****         3.1926  -3.7036   0.9601 H              1 S1                 0.0000
     50 ****         4.6780  -3.1156   0.2133 H              1 S1                 0.0000
     51 ****         4.5311  -4.8757   2.4078 H              1 S1                 0.0000
     52 ****         5.9596  -3.9101   2.0357 H              1 S1                 0.0000
     53 ****         4.3413  -3.5627   4.3638 H              1 S1                 0.0000
     54 ****         5.5421  -2.4205   3.7509 H              1 S1                 0.0000
     55 ****        -1.5650   0.6230  -2.0073 H              1 S1                 0.0000
     56 ****        -2.6543  -0.2513  -3.0581 H              1 S1                 0.0000
     57 ****        -1.4776  -3.2402   0.5242 LP             1 S1                 0.0000
     58 ****        -3.0820  -2.5992   0.6469 LP             1 S1                 0.0000
     59 ****        -0.2326   4.0876  -2.3302 LP             1 S1                 0.0000
     60 ****         2.8159   2.1372  -0.4231 LP             1 S1                 0.0000
     61 ****        -2.1471   1.2212   1.3857 LP             1 S1                 0.0000
     62 ****         2.8723  -1.8090  -0.6981 LP             1 S1                 0.0000
     63 ****         3.5868  -0.3687  -0.4121 LP             1 S1                 0.0000
     64 ****         2.7246  -2.4969   3.2327 LP             1 S1                 0.0000
     65 ****         3.6824  -1.2396   3.6433 LP             1 S1                 0.0000
@<TRIPOS>BOND
    1    1    2 1     
    2    1   29 1     
    3    1   30 1     
    4    1   31 1     
    5    2    3 2     
    6    2    4 am    
    7    4   28 1     
    8    4    5 1     
    9    5    6 1     
   10    5   32 1     
   11    5   33 1     
   12    6    7 1     
   13    6   34 1     
   14    6   35 1     
   15    7    8 1     
   16    7   28 1     
   17    7   36 1     
   18    8    9 1     
   19    8   37 1     
   20    8   38 1     
   21    9   10 1     
   22    9   11 1     
   23   10   39 1     
   24   10   40 1     
   25   10   41 1     
   26   11   16 ar    
   27   11   12 ar    
   28   12   13 ar    
   29   13   14 ar    
   30   13   42 1     
   31   14   15 ar    
   32   15   19 1     
   33   15   16 ar    
   34   16   17 1     
   35   17   18 2     
   36   18   19 1     
   37   18   43 1     
   38   19   20 1     
   39   20   21 1     
   40   20   44 1     
   41   20   45 1     
   42   21   22 1     
   43   21   23 1     
   44   21   46 1     
   45   22   47 1     
   46   23   27 1     
   47   23   24 1     
   48   23   48 1     
   49   24   25 1     
   50   24   49 1     
   51   24   50 1     
   52   25   26 1     
   53   25   51 1     
   54   25   52 1     
   55   26   27 1     
   56   26   53 1     
   57   26   54 1     
   58   28   55 1     
   59   28   56 1     
   60    3   57 1     
   61    3   58 1     
   62   12   59 1     
   63   14   60 1     
   64   17   61 1     
   65   22   62 1     
   66   22   63 1     
   67   27   64 1     
   68   27   65 1     
@<TRIPOS>SUBSTRUCTURE
      1 S1             1
@<TRIPOS>SET
LONE_PAIRS      STATIC     ATOMS    <user>   **** ""
9 57 58 59 60 61 62 63 64 65
DONOR_HYDROGENS      STATIC     ATOMS    <user>   **** ""
1 47
ATOM$BLUE        STATIC     ATOMS    COLORGROUP SYSTEM
9 57 58 59 60 61 62 63 64 65
ATOM$RED        STATIC     ATOMS    COLORGROUP SYSTEM
1 47
