AV-unprocessed.smi:1029|AV-procd|sdf|4476|dock4
  -GOLD-   22720 2453D 1   1.00000     0.00000
 Structure written by MMmdl.
 46 47  0  0  0  0  0  0  0  0  2 V2000
  150.7510  142.0703  157.3462 C   0  0  0  0  0  0  0  0  0  0  0  0
  150.5937  141.0742  156.2353 C   0  0  0  0  0  0  0  0  0  0  0  0
  149.3951  140.6396  155.6042 C   0  0  0  0  0  0  0  0  0  0  0  0
  149.8491  139.7393  154.6772 C   0  0  0  0  0  0  0  0  0  0  0  0
  149.1298  139.0127  153.7818 N   0  0  0  0  0  0  0  0  0  0  0  0
  147.8043  139.0283  153.5549 C   0  0  0  0  0  0  0  0  0  0  0  0
  146.9810  139.7113  154.1642 O   0  0  0  0  0  0  0  0  0  0  0  0
  147.4696  138.1959  152.5598 N   0  0  0  0  0  0  0  0  0  0  0  0
  146.1111  138.0284  152.0589 C   0  0  0  0  0  0  0  0  0  0  0  0
  145.8884  136.6067  151.5150 C   0  0  2  0  0  0  0  0  0  0  0  0
  145.5802  136.7039  150.1376 O   0  0  0  0  0  0  0  0  0  0  0  0
  144.7013  135.9143  152.2154 C   0  0  0  0  0  0  0  0  0  0  0  0
  144.6147  134.4672  151.8898 N   0  3  2  0  0  0  0  0  0  0  0  0
  145.9373  133.7934  151.9459 C   0  0  0  0  0  0  0  0  0  0  0  0
  145.7948  132.2720  151.7581 C   0  0  0  0  0  0  0  0  0  0  0  0
  145.0588  131.9111  150.4551 C   0  0  2  0  0  0  0  0  0  0  0  0
  145.9304  132.1163  149.2037 C   0  0  0  0  0  0  0  0  0  0  0  0
  143.7273  132.6819  150.3882 C   0  0  0  0  0  0  0  0  0  0  0  0
  143.9160  134.1942  150.6062 C   0  0  0  0  0  0  0  0  0  0  0  0
  151.1983  139.6222  154.7267 O   0  0  0  0  0  0  0  0  0  0  0  0
  151.6649  140.4812  155.7289 N   0  0  0  0  0  0  0  0  0  0  0  0
  149.8527  142.6777  157.4598 H   0  0  0  0  0  0  0  0  0  0  0  0
  151.5845  142.7473  157.1569 H   0  0  0  0  0  0  0  0  0  0  0  0
  150.9362  141.5692  158.2966 H   0  0  0  0  0  0  0  0  0  0  0  0
  148.3828  140.9510  155.8123 H   0  0  0  0  0  0  0  0  0  0  0  0
  149.6735  138.3938  153.1988 H   0  0  0  0  0  0  0  0  0  0  0  0
  148.1993  137.6682  152.1034 H   0  0  0  0  0  0  0  0  0  0  0  0
  145.4265  138.2150  152.8878 H   0  0  0  0  0  0  0  0  0  0  0  0
  145.8915  138.7749  151.2930 H   0  0  0  0  0  0  0  0  0  0  0  0
  146.8001  136.0219  151.6390 H   0  0  0  0  0  0  0  0  0  0  0  0
  144.8543  137.3002  150.0302 H   0  0  0  0  0  0  0  0  0  0  0  0
  144.7685  136.0344  153.2980 H   0  0  0  0  0  0  0  0  0  0  0  0
  143.7819  136.4195  151.9145 H   0  0  0  0  0  0  0  0  0  0  0  0
  146.5979  134.2157  151.1875 H   0  0  0  0  0  0  0  0  0  0  0  0
  146.4056  133.9854  152.9120 H   0  0  0  0  0  0  0  0  0  0  0  0
  146.7763  131.7972  151.7826 H   0  0  0  0  0  0  0  0  0  0  0  0
  145.2414  131.8629  152.6046 H   0  0  0  0  0  0  0  0  0  0  0  0
  144.8221  130.8469  150.4941 H   0  0  0  0  0  0  0  0  0  0  0  0
  146.2274  133.1566  149.0737 H   0  0  0  0  0  0  0  0  0  0  0  0
  145.3978  131.8104  148.3028 H   0  0  0  0  0  0  0  0  0  0  0  0
  146.8411  131.5194  149.2610 H   0  0  0  0  0  0  0  0  0  0  0  0
  143.2339  132.4991  149.4330 H   0  0  0  0  0  0  0  0  0  0  0  0
  143.0530  132.2968  151.1546 H   0  0  0  0  0  0  0  0  0  0  0  0
  142.9383  134.6746  150.5994 H   0  0  0  0  0  0  0  0  0  0  0  0
  144.4814  134.6302  149.7813 H   0  0  0  0  0  0  0  0  0  0  0  0
  144.0587  134.0494  152.6227 H   0  0  0  0  0  0  0  0  0  0  0  0
  1  2  1  0  0  0  0
  1 22  1  0  0  0  0
  1 23  1  0  0  0  0
  1 24  1  0  0  0  0
  2 21  2  0  0  0  0
  2  3  1  0  0  0  0
  3  4  2  0  0  0  0
  3 25  1  0  0  0  0
  4  5  1  0  0  0  0
  4 20  1  0  0  0  0
  5  6  1  0  0  0  0
  5 26  1  0  0  0  0
  6  7  2  0  0  0  0
  6  8  1  0  0  0  0
  8  9  1  0  0  0  0
  8 27  1  0  0  0  0
  9 10  1  0  0  0  0
  9 28  1  0  0  0  0
  9 29  1  0  0  0  0
 10 11  1  0  0  0  0
 10 12  1  0  0  0  0
 10 30  1  0  0  0  0
 11 31  1  0  0  0  0
 12 13  1  0  0  0  0
 12 32  1  0  0  0  0
 12 33  1  0  0  0  0
 13 19  1  0  0  0  0
 13 14  1  0  0  0  0
 13 46  1  0  0  0  0
 14 15  1  0  0  0  0
 14 34  1  0  0  0  0
 14 35  1  0  0  0  0
 15 16  1  0  0  0  0
 15 36  1  0  0  0  0
 15 37  1  0  0  0  0
 16 17  1  0  0  0  0
 16 18  1  0  0  0  0
 16 38  1  0  0  0  0
 17 39  1  0  0  0  0
 17 40  1  0  0  0  0
 17 41  1  0  0  0  0
 18 19  1  0  0  0  0
 18 42  1  0  0  0  0
 18 43  1  0  0  0  0
 19 44  1  0  0  0  0
 19 45  1  0  0  0  0
 20 21  1  0  0  0  0
M  CHG  1  13   1
M  END
> <s_m_source_file>
AV-unprocessed.smi

> <i_m_source_file_index>
1029

> <i_lp_mmshare_version>
43012

> <i_f3d_flags>
0

> <s_epik_input>
W0NIM11jMVtjSF1jKG9uMSlbTkhdQyg9TylbTkhdW0NIMl1bQ0BIXShbT0hdKVtDSDJdTjJbQ0gyXVtDSDJdW0NIXShbQ0gzXSlbQ0gyXVtDSDJdMg==

> <s_epik_cmdline>
J2VwaWtfcHl0aG9uJywgJy1waCcsICc3LjAnLCAnLXRuJywgJzgnLCAnLW1hJywgJzIwMCcsICctbWV0YWxfYmluZGluZycsICctaW1hZScsICc8aW5maWxlLm1hZT4nLCAnLW9tYWUnLCAnPG91dGZpbGUubWFlPic=

> <r_lp_tautomer_probability>
1

> <r_epik_Ionization_Penalty>
0.00211787

> <r_epik_Ionization_Penalty_Charging>
0.00153238

> <r_epik_Ionization_Penalty_Neutral>
0.000585488

> <r_epik_State_Penalty>
-0

> <r_epik_Charging_Adjusted_Penalty>
0.00153238

> <i_epik_Tot_Q>
1

> <i_epik_Tot_abs_Q>
1

> <r_epik_Metal_State_Penalty>
-0

> <b_epik_Metal_Only>
0

> <s_lp_Force_Field>
OPLS_2005

> <r_lp_Energy>
23.9078

> <b_lp_Chiralities_Consistent>
1

> <s_lp_Variant>
AV-unprocessed.smi:1029-3

> <Gold.Version>
5.8.1

> <Gold.Id.Protein>
6NUR|6NUR_protein|mol2

> <Gold.PLP.Fitness>
45.4275

> <Gold.PLP.PLP>
-40.4362

> <Gold.PLP.part.hbond>
-6.5493

> <Gold.PLP.part.metal>
0.0000

> <Gold.PLP.part.buried>
-2.7585

> <Gold.PLP.part.nonpolar>
-31.7080

> <Gold.PLP.part.repulsive>
0.3793

> <Gold.PLP.ligand.clash>
0.0000

> <Gold.PLP.ligand.torsion>
1.1777

> <Gold.PLP.Chemscore.Hbond>
2.4260

> <Gold.PLP.Chemscore.CHOScore>
0.0000

> <Gold.PLP.Chemscore.Metal>
0.0000

> <Gold.Chemscore.Hbonds>
donor molecule, donor type, donor heavy atom, donor atom, acceptor molecule, acceptor atom, score
      L1  H     8    27       P1  7948  1.00
      L1  H    11    31       P1 10171  1.00
      P1  H  7989  7998       L1    20  0.43

> <Gold.PLP.Chemscore.Internal.Correction>
0.0687

> <Gold.Rescore>
     Score         DG    S(hbond)    S(metal)    S(lipo)     H(rot)  DE(clash)    DE(int)     intcor
     13.44     -15.90       2.24        0.00      79.16       2.46       0.07       2.40       ----

> <Gold.Chemscore.Fitness>
13.4351

> <Gold.Chemscore.DG>
-15.9040

> <Gold.Chemscore.ZeroCoef>
-5.4800

> <Gold.Chemscore.Hbond>
2.2352

> <Gold.Chemscore.Metal>
0.0000

> <Gold.Chemscore.Lipo>
79.1626

> <Gold.Chemscore.Internal_Hbond>
0.0000

> <Gold.Chemscore.DEClash>
0.0728

> <Gold.Chemscore.DEInternal>
2.3960

> <Gold.Chemscore.Rot>
2.4624

> <Gold.Chemscore.Internal.Correction>
   9.000000E+99

> <Gold.Chemscore.Hbonds>
donor molecule, donor type, donor heavy atom, donor atom, acceptor molecule, acceptor atom, score
      L1  H     8    27       P1  7948  0.94
      L1  H    11    31       P1 10171  0.99

> <Gold.Chemscore.Hbond.Weighted>
-7.4657

> <Gold.Chemscore.Metal.Weighted>
-0.0000

> <Gold.Chemscore.Lipo.Weighted>
-9.2620

> <Gold.Chemscore.Internal_Hbond.Weighted>
0.0000

> <Gold.Chemscore.DEClash.Weighted>
0.0728

> <Gold.Chemscore.DEInternal.Weighted>
2.3960

> <Gold.Chemscore.Rot.Weighted>
6.3037

> <Gold.Chemscore.Internal.Correction.Weighted>
   9.000000E+99

> <Gold.Protein.RotatedTorsions>
[ 6907 6896 6895 6894 ] final  -45.55 input  -60.11 | X-H torsion
[ 7974 7965 7964 7962 ] final  148.54 input  175.53 | X-H torsion
[ 8008 7997 7996 7995 ] final  -36.59 input   59.86 | X-H torsion
[ 10167 10162 10161 10158 ] final   22.89 input  -65.29 | X-H torsion
[ 10718 10713 10712 10709 ] final   85.94 input   66.30 | X-H torsion
[ 10763 10752 10751 10750 ] final   15.95 input  -60.55 | X-H torsion
[ 11005 11000 10999 10996 ] final  135.03 input  -57.11 | X-H torsion

> <Gold.Protein.ActiveResidues>
 VAL166  LYS551  ARG553  GLY616  TRP617  ASP618  TYR619  PRO620  LYS621  CYS622 
 ASP623  PHE694  ASN695  SER759  ASP760  ASP761  ALA762  ILE779  LEU786  VAL792 
 PHE793  MET794  SER795  GLU796  ALA797  LYS798  CYS799  TRP800  GLU811  SER814 

> <Gold.Protein.RotatedAtoms>
  150.9207  134.8624  159.7486 H   0  0  0  0  0  0  0  0  0  0  0  0  # atno 6907 bound_to 6896
  152.4991  134.4223  159.9494 H   0  0  0  0  0  0  0  0  0  0  0  0  # atno 6908 bound_to 6896
  151.4257  133.3645  159.2797 H   0  0  0  0  0  0  0  0  0  0  0  0  # atno 6909 bound_to 6896
  144.8506  139.6167  143.5975 H   0  0  0  0  0  0  0  0  0  0  0  0  # atno 7974 bound_to 7965
  154.4070  140.1626  156.2399 H   0  0  0  0  0  0  0  0  0  0  0  0  # atno 8008 bound_to 7997
  155.9210  140.3421  155.6150 H   0  0  0  0  0  0  0  0  0  0  0  0  # atno 8009 bound_to 7997
  155.7222  140.0770  157.2316 H   0  0  0  0  0  0  0  0  0  0  0  0  # atno 8010 bound_to 7997
  140.5313  143.9837  150.6467 H   0  0  0  0  0  0  0  0  0  0  0  0  # atno 10167 bound_to 10162
  157.6922  131.0195  150.2898 H   0  0  0  0  0  0  0  0  0  0  0  0  # atno 10718 bound_to 10713
  153.1476  135.6772  153.8931 H   0  0  0  0  0  0  0  0  0  0  0  0  # atno 10763 bound_to 10752
  153.8367  135.3110  155.3424 H   0  0  0  0  0  0  0  0  0  0  0  0  # atno 10764 bound_to 10752
  154.7837  135.4874  153.9985 H   0  0  0  0  0  0  0  0  0  0  0  0  # atno 10765 bound_to 10752
  139.9953  134.9500  156.9949 H   0  0  0  0  0  0  0  0  0  0  0  0  # atno 11005 bound_to 11000
  146.2781  139.6805  142.9248 LP  0  0  0  0  0  0  0  0  0  0  0  0  # atno 17320 bound_to 7965
  145.4508  141.0428  143.2805 LP  0  0  0  0  0  0  0  0  0  0  0  0  # atno 17321 bound_to 7965
  140.3212  143.3136  152.0782 LP  0  0  0  0  0  0  0  0  0  0  0  0  # atno 17342 bound_to 10162
  139.4955  144.6572  151.6546 LP  0  0  0  0  0  0  0  0  0  0  0  0  # atno 17343 bound_to 10162
  156.3431  130.3818  149.7392 LP  0  0  0  0  0  0  0  0  0  0  0  0  # atno 17370 bound_to 10713
  156.4894  130.8078  151.3088 LP  0  0  0  0  0  0  0  0  0  0  0  0  # atno 17371 bound_to 10713
  140.4830  134.1270  155.7220 LP  0  0  0  0  0  0  0  0  0  0  0  0  # atno 17394 bound_to 11000
  141.1599  133.8812  157.1876 LP  0  0  0  0  0  0  0  0  0  0  0  0  # atno 17395 bound_to 11000

$$$$
