AV-unprocessed.smi:1488|AV-procd|sdf|6024|dock5
  -GOLD-   22720 6123D 1   1.00000     0.00000
 Structure written by MMmdl.
 36 37  0  0  0  0  0  0  0  0  1 V2000
  153.8975  137.5894  157.0399 C   0  0  0  0  0  0  0  0  0  0  0  0
  152.8580  138.0794  156.0911 C   0  0  0  0  0  0  0  0  0  0  0  0
  151.8006  137.4711  155.4750 C   0  0  0  0  0  0  0  0  0  0  0  0
  151.2318  138.5209  154.7060 C   0  0  0  0  0  0  0  0  0  0  0  0
  150.0879  138.2940  153.8993 N   0  0  0  0  0  0  0  0  0  0  0  0
  148.9881  139.0600  153.8041 C   0  0  0  0  0  0  0  0  0  0  0  0
  148.7952  140.1061  154.4243 O   0  0  0  0  0  0  0  0  0  0  0  0
  148.1062  138.5369  152.9405 N   0  0  0  0  0  0  0  0  0  0  0  0
  146.8017  139.1082  152.6093 C   0  0  2  0  0  0  0  0  0  0  0  0
  145.6906  138.5408  153.5172 C   0  0  0  0  0  0  0  0  0  0  0  0
  145.4027  137.0574  153.2268 C   0  0  0  0  0  0  0  0  0  0  0  0
  145.0551  136.8210  151.7415 C   0  0  2  0  0  0  0  0  0  0  0  0
  144.7564  135.3364  151.4471 C   0  0  0  0  0  0  0  0  0  0  0  0
  144.4175  135.1653  150.1689 F   0  0  0  0  0  0  0  0  0  0  0  0
  145.8307  134.5927  151.7114 F   0  0  0  0  0  0  0  0  0  0  0  0
  143.7561  134.9106  152.2185 F   0  0  0  0  0  0  0  0  0  0  0  0
  146.1785  137.3729  150.8380 C   0  0  0  0  0  0  0  0  0  0  0  0
  146.4716  138.8562  151.1262 C   0  0  0  0  0  0  0  0  0  0  0  0
  151.8823  139.6664  154.8408 N   0  0  0  0  0  0  0  0  0  0  0  0
  152.9284  139.3892  155.7288 O   0  0  0  0  0  0  0  0  0  0  0  0
  153.5817  136.6618  157.5176 H   0  0  0  0  0  0  0  0  0  0  0  0
  154.0865  138.3244  157.8224 H   0  0  0  0  0  0  0  0  0  0  0  0
  154.8360  137.4000  156.5190 H   0  0  0  0  0  0  0  0  0  0  0  0
  151.4880  136.4411  155.5623 H   0  0  0  0  0  0  0  0  0  0  0  0
  150.1098  137.4585  153.3336 H   0  0  0  0  0  0  0  0  0  0  0  0
  148.3512  137.6737  152.4780 H   0  0  0  0  0  0  0  0  0  0  0  0
  146.8578  140.1879  152.7598 H   0  0  0  0  0  0  0  0  0  0  0  0
  145.9514  138.6710  154.5682 H   0  0  0  0  0  0  0  0  0  0  0  0
  144.7766  139.1157  153.3630 H   0  0  0  0  0  0  0  0  0  0  0  0
  146.2682  136.4555  153.5060 H   0  0  0  0  0  0  0  0  0  0  0  0
  144.5814  136.7217  153.8606 H   0  0  0  0  0  0  0  0  0  0  0  0
  144.1475  137.3853  151.5216 H   0  0  0  0  0  0  0  0  0  0  0  0
  147.0870  136.7865  150.9784 H   0  0  0  0  0  0  0  0  0  0  0  0
  145.9031  137.2598  149.7894 H   0  0  0  0  0  0  0  0  0  0  0  0
  145.6000  139.4505  150.8485 H   0  0  0  0  0  0  0  0  0  0  0  0
  147.2885  139.2052  150.4930 H   0  0  0  0  0  0  0  0  0  0  0  0
  1  2  1  0  0  0  0
  1 21  1  0  0  0  0
  1 22  1  0  0  0  0
  1 23  1  0  0  0  0
  2 20  1  0  0  0  0
  2  3  2  0  0  0  0
  3  4  1  0  0  0  0
  3 24  1  0  0  0  0
  4  5  1  0  0  0  0
  4 19  2  0  0  0  0
  5  6  1  0  0  0  0
  5 25  1  0  0  0  0
  6  7  2  0  0  0  0
  6  8  1  0  0  0  0
  8  9  1  0  0  0  0
  8 26  1  0  0  0  0
  9 18  1  0  0  0  0
  9 10  1  0  0  0  0
  9 27  1  0  0  0  0
 10 11  1  0  0  0  0
 10 28  1  0  0  0  0
 10 29  1  0  0  0  0
 11 12  1  0  0  0  0
 11 30  1  0  0  0  0
 11 31  1  0  0  0  0
 12 13  1  0  0  0  0
 12 17  1  0  0  0  0
 12 32  1  0  0  0  0
 13 14  1  0  0  0  0
 13 15  1  0  0  0  0
 13 16  1  0  0  0  0
 17 18  1  0  0  0  0
 17 33  1  0  0  0  0
 17 34  1  0  0  0  0
 18 35  1  0  0  0  0
 18 36  1  0  0  0  0
 19 20  1  0  0  0  0
M  END
> <s_m_source_file>
AV-unprocessed.smi

> <i_m_source_file_index>
1488

> <i_lp_mmshare_version>
43012

> <i_f3d_flags>
0

> <s_epik_input>
W0NIM11jMVtjSF1jKG5vMSlbTkhdQyg9TylbTkhdW0NAQEhdMltDSDJdW0NIMl1bQ0BASF0oQyhGKShGKUYpW0NIMl1bQ0gyXTI=

> <s_epik_cmdline>
J2VwaWtfcHl0aG9uJywgJy1waCcsICc3LjAnLCAnLXRuJywgJzgnLCAnLW1hJywgJzIwMCcsICctbWV0YWxfYmluZGluZycsICctaW1hZScsICc8aW5maWxlLm1hZT4nLCAnLW9tYWUnLCAnPG91dGZpbGUubWFlPic=

> <r_lp_tautomer_probability>
1

> <r_epik_Ionization_Penalty>
2.30349e-05

> <r_epik_Ionization_Penalty_Charging>
0

> <r_epik_Ionization_Penalty_Neutral>
2.30349e-05

> <r_epik_State_Penalty>
-0

> <r_epik_Charging_Adjusted_Penalty>
0

> <i_epik_Tot_Q>
0

> <i_epik_Tot_abs_Q>
0

> <r_epik_Metal_State_Penalty>
-0

> <b_epik_Metal_Only>
0

> <s_lp_Force_Field>
OPLS_2005

> <r_lp_Energy>
6.9589

> <b_lp_Chiralities_Consistent>
1

> <s_lp_Variant>
AV-unprocessed.smi:1488-2

> <Gold.Version>
5.8.1

> <Gold.Id.Protein>
6NUR|6NUR_protein|mol2

> <Gold.PLP.Fitness>
39.4363

> <Gold.PLP.PLP>
-30.3004

> <Gold.PLP.part.hbond>
-5.0791

> <Gold.PLP.part.metal>
0.0000

> <Gold.PLP.part.buried>
9.3486

> <Gold.PLP.part.nonpolar>
-34.0007

> <Gold.PLP.part.repulsive>
0.2779

> <Gold.PLP.ligand.clash>
0.0000

> <Gold.PLP.ligand.torsion>
0.7510

> <Gold.PLP.Chemscore.Hbond>
3.5392

> <Gold.PLP.Chemscore.CHOScore>
0.0000

> <Gold.PLP.Chemscore.Metal>
0.0000

> <Gold.Chemscore.Hbonds>
donor molecule, donor type, donor heavy atom, donor atom, acceptor molecule, acceptor atom, score
      L1  H     5    25       P1  7948  0.55
      L1  H     8    26       P1  7948  1.00
      P1  H  7989  7998       L1    19  0.98
      P1  H  7997  8010       L1    20  1.00

> <Gold.PLP.Chemscore.Internal.Correction>
0.0205

> <Gold.Rescore>
     Score         DG    S(hbond)    S(metal)    S(lipo)     H(rot)  DE(clash)    DE(int)     intcor
     16.84     -19.93       3.00        0.00      59.88       1.00       2.38       0.71       ----

> <Gold.Chemscore.Fitness>
16.8425

> <Gold.Chemscore.DG>
-19.9316

> <Gold.Chemscore.ZeroCoef>
-5.4800

> <Gold.Chemscore.Hbond>
2.9958

> <Gold.Chemscore.Metal>
0.0000

> <Gold.Chemscore.Lipo>
59.8762

> <Gold.Chemscore.Internal_Hbond>
0.0000

> <Gold.Chemscore.DEClash>
2.3778

> <Gold.Chemscore.DEInternal>
0.7113

> <Gold.Chemscore.Rot>
1.0000

> <Gold.Chemscore.Internal.Correction>
   9.000000E+99

> <Gold.Chemscore.Hbonds>
donor molecule, donor type, donor heavy atom, donor atom, acceptor molecule, acceptor atom, score
      L1  H     5    25       P1  7948  0.14
      L1  H     8    26       P1  7948  1.00
      P1  H  7989  7998       L1    19  0.87
      P1  H  7997  8010       L1    20  0.88

> <Gold.Chemscore.Hbond.Weighted>
-10.0061

> <Gold.Chemscore.Metal.Weighted>
-0.0000

> <Gold.Chemscore.Lipo.Weighted>
-7.0055

> <Gold.Chemscore.Internal_Hbond.Weighted>
0.0000

> <Gold.Chemscore.DEClash.Weighted>
2.3778

> <Gold.Chemscore.DEInternal.Weighted>
0.7113

> <Gold.Chemscore.Rot.Weighted>
2.5600

> <Gold.Chemscore.Internal.Correction.Weighted>
   9.000000E+99

> <Gold.Protein.RotatedTorsions>
[ 6907 6896 6895 6894 ] final -173.28 input  -60.11 | X-H torsion
[ 7974 7965 7964 7962 ] final  -66.94 input  175.53 | X-H torsion
[ 8008 7997 7996 7995 ] final   85.73 input   59.86 | X-H torsion
[ 10167 10162 10161 10158 ] final  136.86 input  -65.29 | X-H torsion
[ 10718 10713 10712 10709 ] final -126.56 input   66.30 | X-H torsion
[ 10763 10752 10751 10750 ] final -124.77 input  -60.55 | X-H torsion
[ 11005 11000 10999 10996 ] final  -42.17 input  -57.11 | X-H torsion

> <Gold.Protein.ActiveResidues>
 VAL166  LYS551  ARG553  GLY616  TRP617  ASP618  TYR619  PRO620  LYS621  CYS622 
 ASP623  PHE694  ASN695  SER759  ASP760  ASP761  ALA762  ILE779  LEU786  VAL792 
 PHE793  MET794  SER795  GLU796  ALA797  LYS798  CYS799  TRP800  GLU811  SER814 

> <Gold.Protein.RotatedAtoms>
  151.5536  133.3413  159.2957 H   0  0  0  0  0  0  0  0  0  0  0  0  # atno 6907 bound_to 6896
  150.8464  134.7777  159.6985 H   0  0  0  0  0  0  0  0  0  0  0  0  # atno 6908 bound_to 6896
  152.4521  134.5380  159.9882 H   0  0  0  0  0  0  0  0  0  0  0  0  # atno 6909 bound_to 6896
  145.7354  140.8978  143.0558 H   0  0  0  0  0  0  0  0  0  0  0  0  # atno 7974 bound_to 7965
  155.9538  140.3399  155.6431 H   0  0  0  0  0  0  0  0  0  0  0  0  # atno 8008 bound_to 7997
  155.6886  140.0746  157.2475 H   0  0  0  0  0  0  0  0  0  0  0  0  # atno 8009 bound_to 7997
  154.4127  140.1661  156.2049 H   0  0  0  0  0  0  0  0  0  0  0  0  # atno 8010 bound_to 7997
  139.5164  144.6441  151.5487 H   0  0  0  0  0  0  0  0  0  0  0  0  # atno 10167 bound_to 10162
  156.1777  130.6710  151.0263 H   0  0  0  0  0  0  0  0  0  0  0  0  # atno 10718 bound_to 10713
  154.8727  135.4052  154.3160 H   0  0  0  0  0  0  0  0  0  0  0  0  # atno 10763 bound_to 10752
  153.3996  135.7017  153.6441 H   0  0  0  0  0  0  0  0  0  0  0  0  # atno 10764 bound_to 10752
  153.5190  135.3691  155.2593 H   0  0  0  0  0  0  0  0  0  0  0  0  # atno 10765 bound_to 10752
  141.0297  133.6825  156.2558 H   0  0  0  0  0  0  0  0  0  0  0  0  # atno 11005 bound_to 11000
  144.6883  139.9388  143.7474 LP  0  0  0  0  0  0  0  0  0  0  0  0  # atno 17320 bound_to 7965
  146.0498  139.3500  143.0646 LP  0  0  0  0  0  0  0  0  0  0  0  0  # atno 17321 bound_to 7965
  140.6219  143.9241  150.6533 LP  0  0  0  0  0  0  0  0  0  0  0  0  # atno 17342 bound_to 10162
  140.2518  143.3588  152.1399 LP  0  0  0  0  0  0  0  0  0  0  0  0  # atno 17343 bound_to 10162
  157.6847  131.0828  150.7276 LP  0  0  0  0  0  0  0  0  0  0  0  0  # atno 17370 bound_to 10713
  156.7333  130.4716  149.5494 LP  0  0  0  0  0  0  0  0  0  0  0  0  # atno 17371 bound_to 10713
  140.6429  134.5147  157.5571 LP  0  0  0  0  0  0  0  0  0  0  0  0  # atno 17394 bound_to 11000
  139.9199  134.8169  156.1244 LP  0  0  0  0  0  0  0  0  0  0  0  0  # atno 17395 bound_to 11000

$$$$
