AV-unprocessed.smi:777|AV-procd|sdf|3702|dock8
  -GOLD-   22720 1123D 1   1.00000     0.00000
 Structure written by MMmdl.
 37 38  0  0  0  0  0  0  0  0  2 V2000
  153.5512  141.3395  159.9798 C   0  0  0  0  0  0  0  0  0  0  0  0
  152.7193  142.0965  158.9237 C   0  0  1  0  0  0  0  0  0  0  0  0
  151.5915  141.2462  158.3151 C   0  0  0  0  0  0  0  0  0  0  0  0
  150.4516  141.3055  158.7751 O   0  0  0  0  0  0  0  0  0  0  0  0
  151.9605  140.4677  157.2804 N   0  0  0  0  0  0  0  0  0  0  0  0
  151.1890  139.6544  156.3263 C   0  0  0  0  0  0  0  0  0  0  0  0
  152.2356  138.9858  155.4016 C   0  0  0  0  0  0  0  0  0  0  0  0
  153.4471  139.1802  155.6483 O   0  0  0  0  0  0  0  0  0  0  0  0
  151.8146  138.3183  154.4294 O   0  5  0  0  0  0  0  0  0  0  0  0
  150.2448  138.5731  156.9472 C   0  0  0  0  0  0  0  0  0  0  0  0
  149.0294  139.1585  157.6948 C   0  0  0  0  0  0  0  0  0  0  0  0
  148.2329  140.1208  156.8067 C   0  0  0  0  0  0  0  0  0  0  0  0
  149.1404  141.2277  156.2588 C   0  0  0  0  0  0  0  0  0  0  0  0
  150.3278  140.6360  155.4793 C   0  0  0  0  0  0  0  0  0  0  0  0
  152.1789  143.3482  159.4451 N   0  0  0  0  0  0  0  0  0  0  0  0
  152.3620  144.6227  158.9471 C   0  0  0  0  0  0  0  0  0  0  0  0
  151.6266  145.4756  159.7188 C   0  0  0  0  0  0  0  0  0  0  0  0
  151.0066  144.6197  160.6705 C   0  0  0  0  0  0  0  0  0  0  0  0
  151.3323  143.3492  160.5013 N   0  0  0  0  0  0  0  0  0  0  0  0
  154.0060  140.4441  159.5546 H   0  0  0  0  0  0  0  0  0  0  0  0
  152.9460  141.0292  160.8327 H   0  0  0  0  0  0  0  0  0  0  0  0
  154.3593  141.9655  160.3592 H   0  0  0  0  0  0  0  0  0  0  0  0
  153.3950  142.3549  158.1067 H   0  0  0  0  0  0  0  0  0  0  0  0
  152.9469  140.4926  157.0690 H   0  0  0  0  0  0  0  0  0  0  0  0
  149.8586  137.9440  156.1434 H   0  0  0  0  0  0  0  0  0  0  0  0
  150.7872  137.8879  157.5983 H   0  0  0  0  0  0  0  0  0  0  0  0
  148.3829  138.3486  158.0330 H   0  0  0  0  0  0  0  0  0  0  0  0
  149.3500  139.6838  158.5938 H   0  0  0  0  0  0  0  0  0  0  0  0
  147.7826  139.5711  155.9793 H   0  0  0  0  0  0  0  0  0  0  0  0
  147.4113  140.5580  157.3747 H   0  0  0  0  0  0  0  0  0  0  0  0
  148.5651  141.8873  155.6088 H   0  0  0  0  0  0  0  0  0  0  0  0
  149.5053  141.8465  157.0800 H   0  0  0  0  0  0  0  0  0  0  0  0
  150.9378  141.4578  155.1002 H   0  0  0  0  0  0  0  0  0  0  0  0
  149.9393  140.1204  154.5991 H   0  0  0  0  0  0  0  0  0  0  0  0
  152.9911  144.8136  158.0902 H   0  0  0  0  0  0  0  0  0  0  0  0
  151.5386  146.5468  159.6140 H   0  0  0  0  0  0  0  0  0  0  0  0
  150.3299  144.8814  161.4705 H   0  0  0  0  0  0  0  0  0  0  0  0
  1  2  1  0  0  0  0
  1 20  1  0  0  0  0
  1 21  1  0  0  0  0
  1 22  1  0  0  0  0
  2  3  1  0  0  0  0
  2 15  1  0  0  0  0
  2 23  1  0  0  0  0
  3  4  2  0  0  0  0
  3  5  1  0  0  0  0
  5  6  1  0  0  0  0
  5 24  1  0  0  0  0
  6 14  1  0  0  0  0
  6  7  1  0  0  0  0
  6 10  1  0  0  0  0
  7  8  2  0  0  0  0
  7  9  1  0  0  0  0
 10 11  1  0  0  0  0
 10 25  1  0  0  0  0
 10 26  1  0  0  0  0
 11 12  1  0  0  0  0
 11 27  1  0  0  0  0
 11 28  1  0  0  0  0
 12 13  1  0  0  0  0
 12 29  1  0  0  0  0
 12 30  1  0  0  0  0
 13 14  1  0  0  0  0
 13 31  1  0  0  0  0
 13 32  1  0  0  0  0
 14 33  1  0  0  0  0
 14 34  1  0  0  0  0
 15 19  1  0  0  0  0
 15 16  1  0  0  0  0
 16 17  2  0  0  0  0
 16 35  1  0  0  0  0
 17 18  1  0  0  0  0
 17 36  1  0  0  0  0
 18 19  2  0  0  0  0
 18 37  1  0  0  0  0
M  CHG  1   9  -1
M  END
> <s_m_source_file>
AV-unprocessed.smi

> <i_m_source_file_index>
777

> <i_lp_mmshare_version>
43012

> <i_f3d_flags>
0

> <s_epik_input>
bjFbY0hdW2NIXVtjSF1uMVtDQEhdKFtDSDNdKUMoPU8pW05IXUMyKEMoPU8pW09IXSlbQ0gyXVtDSDJdW0NIMl1bQ0gyXVtDSDJdMg==

> <s_epik_cmdline>
J2VwaWtfcHl0aG9uJywgJy1waCcsICc3LjAnLCAnLXRuJywgJzgnLCAnLW1hJywgJzIwMCcsICctbWV0YWxfYmluZGluZycsICctaW1hZScsICc8aW5maWxlLm1hZT4nLCAnLW9tYWUnLCAnPG91dGZpbGUubWFlPic=

> <r_lp_tautomer_probability>
1

> <r_epik_Ionization_Penalty>
0.000371068

> <r_epik_Ionization_Penalty_Charging>
0.000323848

> <r_epik_Ionization_Penalty_Neutral>
4.72198e-05

> <r_epik_State_Penalty>
0.000195685

> <r_epik_Charging_Adjusted_Penalty>
0.000519533

> <i_epik_Tot_Q>
-1

> <i_epik_Tot_abs_Q>
1

> <r_epik_Metal_State_Penalty>
-0

> <b_epik_Metal_Only>
0

> <s_lp_Force_Field>
OPLS_2005

> <r_lp_Energy>
12.5044

> <b_lp_Chiralities_Consistent>
1

> <s_lp_Variant>
AV-unprocessed.smi:777-2

> <Gold.Version>
5.8.1

> <Gold.Id.Protein>
6NUR|6NUR_protein|mol2

> <Gold.PLP.Fitness>
42.7568

> <Gold.PLP.PLP>
-38.2677

> <Gold.PLP.part.hbond>
-1.0976

> <Gold.PLP.part.metal>
0.0000

> <Gold.PLP.part.buried>
-4.8523

> <Gold.PLP.part.nonpolar>
-32.2779

> <Gold.PLP.part.repulsive>
0.3291

> <Gold.PLP.ligand.clash>
0.0000

> <Gold.PLP.ligand.torsion>
0.8432

> <Gold.PLP.Chemscore.Hbond>
2.0000

> <Gold.PLP.Chemscore.CHOScore>
0.0000

> <Gold.PLP.Chemscore.Metal>
0.0000

> <Gold.Chemscore.Hbonds>
donor molecule, donor type, donor heavy atom, donor atom, acceptor molecule, acceptor atom, score
      P1  H  7997  8008       L1     8  1.58

> <Gold.PLP.Chemscore.Internal.Correction>
0.1755

> <Gold.Rescore>
     Score         DG    S(hbond)    S(metal)    S(lipo)     H(rot)  DE(clash)    DE(int)     intcor
      9.23     -13.39       0.98        0.00      82.80       1.98       0.02       4.14       ----

> <Gold.Chemscore.Fitness>
9.2319

> <Gold.Chemscore.DG>
-13.3942

> <Gold.Chemscore.ZeroCoef>
-5.4800

> <Gold.Chemscore.Hbond>
0.9846

> <Gold.Chemscore.Metal>
0.0000

> <Gold.Chemscore.Lipo>
82.8010

> <Gold.Chemscore.Internal_Hbond>
0.0000

> <Gold.Chemscore.DEClash>
0.0236

> <Gold.Chemscore.DEInternal>
4.1386

> <Gold.Chemscore.Rot>
1.9774

> <Gold.Chemscore.Internal.Correction>
   9.000000E+99

> <Gold.Chemscore.Hbonds>
donor molecule, donor type, donor heavy atom, donor atom, acceptor molecule, acceptor atom, score
      P1  H  7997  8008       L1     8  0.73

> <Gold.Chemscore.Hbond.Weighted>
-3.2885

> <Gold.Chemscore.Metal.Weighted>
-0.0000

> <Gold.Chemscore.Lipo.Weighted>
-9.6877

> <Gold.Chemscore.Internal_Hbond.Weighted>
0.0000

> <Gold.Chemscore.DEClash.Weighted>
0.0236

> <Gold.Chemscore.DEInternal.Weighted>
4.1386

> <Gold.Chemscore.Rot.Weighted>
5.0620

> <Gold.Chemscore.Internal.Correction.Weighted>
   9.000000E+99

> <Gold.Protein.RotatedTorsions>
[ 6907 6896 6895 6894 ] final  -45.69 input  -60.11 | X-H torsion
[ 7974 7965 7964 7962 ] final  -59.71 input  175.53 | X-H torsion
[ 8008 7997 7996 7995 ] final  -41.61 input   59.86 | X-H torsion
[ 10167 10162 10161 10158 ] final  153.65 input  -65.29 | X-H torsion
[ 10718 10713 10712 10709 ] final  -35.74 input   66.30 | X-H torsion
[ 10763 10752 10751 10750 ] final  -71.13 input  -60.55 | X-H torsion
[ 11005 11000 10999 10996 ] final   51.47 input  -57.11 | X-H torsion

> <Gold.Protein.ActiveResidues>
 VAL166  LYS551  ARG553  GLY616  TRP617  ASP618  TYR619  PRO620  LYS621  CYS622 
 ASP623  PHE694  ASN695  SER759  ASP760  ASP761  ALA762  ILE779  LEU786  VAL792 
 PHE793  MET794  SER795  GLU796  ALA797  LYS798  CYS799  TRP800  GLU811  SER814 

> <Gold.Protein.RotatedAtoms>
  150.9192  134.8609  159.7477 H   0  0  0  0  0  0  0  0  0  0  0  0  # atno 6907 bound_to 6896
  152.4984  134.4244  159.9501 H   0  0  0  0  0  0  0  0  0  0  0  0  # atno 6908 bound_to 6896
  151.4279  133.3639  159.2800 H   0  0  0  0  0  0  0  0  0  0  0  0  # atno 6909 bound_to 6896
  145.8242  140.8521  143.0117 H   0  0  0  0  0  0  0  0  0  0  0  0  # atno 7974 bound_to 7965
  154.4003  140.1495  156.3219 H   0  0  0  0  0  0  0  0  0  0  0  0  # atno 8008 bound_to 7997
  155.8522  140.3457  155.5679 H   0  0  0  0  0  0  0  0  0  0  0  0  # atno 8009 bound_to 7997
  155.7972  140.0865  157.1967 H   0  0  0  0  0  0  0  0  0  0  0  0  # atno 8010 bound_to 7997
  139.4826  144.5254  151.7809 H   0  0  0  0  0  0  0  0  0  0  0  0  # atno 10167 bound_to 10162
  156.3350  130.4285  149.7838 H   0  0  0  0  0  0  0  0  0  0  0  0  # atno 10718 bound_to 10713
  154.4274  135.5972  153.6047 H   0  0  0  0  0  0  0  0  0  0  0  0  # atno 10763 bound_to 10752
  152.9797  135.5967  154.3881 H   0  0  0  0  0  0  0  0  0  0  0  0  # atno 10764 bound_to 10752
  154.3714  135.2841  155.2242 H   0  0  0  0  0  0  0  0  0  0  0  0  # atno 10765 bound_to 10752
  140.0930  134.5183  155.8834 H   0  0  0  0  0  0  0  0  0  0  0  0  # atno 11005 bound_to 11000
  144.6745  140.0578  143.7477 LP  0  0  0  0  0  0  0  0  0  0  0  0  # atno 17320 bound_to 7965
  145.9641  139.2822  143.1138 LP  0  0  0  0  0  0  0  0  0  0  0  0  # atno 17321 bound_to 7965
  140.4774  144.1500  150.5927 LP  0  0  0  0  0  0  0  0  0  0  0  0  # atno 17342 bound_to 10162
  140.4316  143.2566  151.9588 LP  0  0  0  0  0  0  0  0  0  0  0  0  # atno 17343 bound_to 10162
  156.5096  130.8166  151.3163 LP  0  0  0  0  0  0  0  0  0  0  0  0  # atno 17370 bound_to 10713
  157.7437  130.9918  150.2614 LP  0  0  0  0  0  0  0  0  0  0  0  0  # atno 17371 bound_to 10713
  141.2084  133.6673  156.6366 LP  0  0  0  0  0  0  0  0  0  0  0  0  # atno 17394 bound_to 11000
  140.3325  134.7917  157.4337 LP  0  0  0  0  0  0  0  0  0  0  0  0  # atno 17395 bound_to 11000

$$$$
