#       Name:                AV-unprocessed.smi:81
#       Creating user name   scv26
#       Creation time:       Thu Mar 26 17:16:08 2020


#       File generated by GOLD software.
#

@<TRIPOS>MOLECULE
AV-unprocessed.smi:81
    72    75     1
SMALL
NO_CHARGES


@<TRIPOS>ATOM
      1 ****        -2.9849  -3.2455  -1.2294 C.3            1 S1                 0.0000
      2 ****        -2.5981  -3.4045   0.2504 C.3            1 S1                 0.0000
      3 ****        -3.3056  -4.6212   0.8640 C.3            1 S1                 0.0000
      4 ****        -2.9129  -2.1309   1.0670 C.3            1 S1                 0.0000
      5 ****        -2.1675  -0.9444   0.6356 N.3            1 S1                 0.0000
      6 ****        -0.8179  -1.0608   0.7136 C.ar           1 S1                 0.0000
      7 ****        -0.2337  -1.4292   1.8842 N.ar           1 S1                 0.0000
      8 ****         1.0949  -1.5520   1.9591 C.ar           1 S1                 0.0000
      9 ****         2.0061  -1.3590   1.0031 N.ar           1 S1                 0.0000
     10 ****         1.4215  -0.9958  -0.1745 C.ar           1 S1                 0.0000
     11 ****         0.0275  -0.8305  -0.4046 C.ar           1 S1                 0.0000
     12 ****        -0.1988  -0.4715  -1.7271 N.2            1 S1                 0.0000
     13 ****         0.9959  -0.4273  -2.2507 C.2            1 S1                 0.0000
     14 ****         2.0286  -0.7137  -1.3857 N.pl3          1 S1                 0.0000
     15 ****         3.4488  -0.7368  -1.7006 C.3            1 S1                 0.0000
     16 ****         4.1821   0.6057  -1.4266 C.3            1 S1                 0.0000
     17 ****         4.1172   0.9100  -0.0461 O.3            1 S1                 0.0000
     18 ****         3.6300   1.7853  -2.2178 C.3            1 S1                 0.0000
     19 ****         4.3289   1.6346  -3.5653 C.3            1 S1                 0.0000
     20 ****         5.5908   1.0395  -3.2776 O.3            1 S1                 0.0000
     21 ****         5.6449   0.6327  -1.9123 C.3            1 S1                 0.0000
     22 ****         6.4487  -0.6678  -1.7643 C.3            1 S1                 0.0000
     23 ****        -2.7292   0.3564   1.0282 C.3            1 S1                 0.0000
     24 ****        -2.1100   1.5562   0.2799 C.3            1 S1                 0.0000
     25 ****        -2.8024   2.8693   0.6789 C.3            1 S1                 0.0000
     26 ****        -2.7372   3.0802   2.1464 N.4            1 S1                 1.0000
     27 ****        -3.2809   4.3941   2.5515 C.3            1 S1                 0.0000
     28 ****        -3.3518   1.9577   2.8978 C.3            1 S1                 0.0000
     29 ****        -2.6753   0.6218   2.5485 C.3            1 S1                 0.0000
     30 ****        -4.0507  -3.0437  -1.3410 H              1 S1                 0.0000
     31 ****        -2.7565  -4.1499  -1.7938 H              1 S1                 0.0000
     32 ****        -2.4408  -2.4261  -1.6989 H              1 S1                 0.0000
     33 ****        -1.5275  -3.6055   0.2986 H              1 S1                 0.0000
     34 ****        -4.3891  -4.5000   0.8490 H              1 S1                 0.0000
     35 ****        -3.0012  -4.7702   1.9005 H              1 S1                 0.0000
     36 ****        -3.0650  -5.5336   0.3178 H              1 S1                 0.0000
     37 ****        -3.9807  -1.9203   0.9997 H              1 S1                 0.0000
     38 ****        -2.7114  -2.3157   2.1231 H              1 S1                 0.0000
     39 ****         1.4839  -1.8474   2.9224 H              1 S1                 0.0000
     40 ****         1.1593  -0.1744  -3.2884 H              1 S1                 0.0000
     41 ****         3.9031  -1.5416  -1.1216 H              1 S1                 0.0000
     42 ****         3.5552  -1.0216  -2.7479 H              1 S1                 0.0000
     43 ****         4.5934   1.7117   0.1069 H              1 S1                 0.0000
     44 ****         2.5446   1.8171  -2.2974 H              1 S1                 0.0000
     45 ****         3.9455   2.7260  -1.7630 H              1 S1                 0.0000
     46 ****         3.7665   0.9644  -4.2163 H              1 S1                 0.0000
     47 ****         4.4458   2.5874  -4.0819 H              1 S1                 0.0000
     48 ****         6.1753   1.4269  -1.3835 H              1 S1                 0.0000
     49 ****         6.4667  -1.0003  -0.7262 H              1 S1                 0.0000
     50 ****         7.4806  -0.5209  -2.0829 H              1 S1                 0.0000
     51 ****         6.0329  -1.4720  -2.3713 H              1 S1                 0.0000
     52 ****        -3.7812   0.3200   0.7422 H              1 S1                 0.0000
     53 ****        -1.0448   1.6407   0.4989 H              1 S1                 0.0000
     54 ****        -2.1987   1.4113  -0.7973 H              1 S1                 0.0000
     55 ****        -2.3192   3.7036   0.1687 H              1 S1                 0.0000
     56 ****        -3.8444   2.8593   0.3547 H              1 S1                 0.0000
     57 ****        -4.3441   4.4671   2.3194 H              1 S1                 0.0000
     58 ****        -2.7613   5.2017   2.0350 H              1 S1                 0.0000
     59 ****        -3.1525   4.5497   3.6231 H              1 S1                 0.0000
     60 ****        -3.2594   2.1413   3.9690 H              1 S1                 0.0000
     61 ****        -4.4190   1.9081   2.6753 H              1 S1                 0.0000
     62 ****        -3.1665  -0.1833   3.0953 H              1 S1                 0.0000
     63 ****        -1.6419   0.6480   2.8951 H              1 S1                 0.0000
     64 ****        -1.7576   3.0885   2.3928 H              1 S1                 0.0000
     65 ****        -2.3335  -0.9279  -0.3504 LP             1 S1                 0.0000
     66 ****        -0.7983  -1.6084   2.6898 LP             1 S1                 0.0000
     67 ****         2.9917  -1.4669   1.1335 LP             1 S1                 0.0000
     68 ****        -1.0743  -0.2891  -2.1745 LP             1 S1                 0.0000
     69 ****         4.5282   0.1674   0.4827 LP             1 S1                 0.0000
     70 ****         3.1629   1.0267   0.2291 LP             1 S1                 0.0000
     71 ****         6.3170   1.7043  -3.4530 LP             1 S1                 0.0000
     72 ****         5.7209   0.2410  -3.8654 LP             1 S1                 0.0000
@<TRIPOS>BOND
    1    1    2 1     
    2    1   30 1     
    3    1   31 1     
    4    1   32 1     
    5    2    3 1     
    6    2    4 1     
    7    2   33 1     
    8    3   34 1     
    9    3   35 1     
   10    3   36 1     
   11    4    5 1     
   12    4   37 1     
   13    4   38 1     
   14    5    6 1     
   15    5   23 1     
   16    6   11 ar    
   17    6    7 ar    
   18    7    8 ar    
   19    8    9 ar    
   20    8   39 1     
   21    9   10 ar    
   22   10   14 1     
   23   10   11 ar    
   24   11   12 1     
   25   12   13 2     
   26   13   14 1     
   27   13   40 1     
   28   14   15 1     
   29   15   16 1     
   30   15   41 1     
   31   15   42 1     
   32   16   21 1     
   33   16   17 1     
   34   16   18 1     
   35   17   43 1     
   36   18   19 1     
   37   18   44 1     
   38   18   45 1     
   39   19   20 1     
   40   19   46 1     
   41   19   47 1     
   42   20   21 1     
   43   21   22 1     
   44   21   48 1     
   45   22   49 1     
   46   22   50 1     
   47   22   51 1     
   48   23   29 1     
   49   23   24 1     
   50   23   52 1     
   51   24   25 1     
   52   24   53 1     
   53   24   54 1     
   54   25   26 1     
   55   25   55 1     
   56   25   56 1     
   57   26   27 1     
   58   26   28 1     
   59   26   64 1     
   60   27   57 1     
   61   27   58 1     
   62   27   59 1     
   63   28   29 1     
   64   28   60 1     
   65   28   61 1     
   66   29   62 1     
   67   29   63 1     
   68    5   65 1     
   69    7   66 1     
   70    9   67 1     
   71   12   68 1     
   72   17   69 1     
   73   17   70 1     
   74   20   71 1     
   75   20   72 1     
@<TRIPOS>SUBSTRUCTURE
      1 S1             1
@<TRIPOS>SET
LONE_PAIRS      STATIC     ATOMS    <user>   **** ""
8 65 66 67 68 69 70 71 72
DONOR_HYDROGENS      STATIC     ATOMS    <user>   **** ""
2 43 64
ATOM$BLUE        STATIC     ATOMS    COLORGROUP SYSTEM
8 65 66 67 68 69 70 71 72
ATOM$RED        STATIC     ATOMS    COLORGROUP SYSTEM
2 43 64
