AV-unprocessed.smi:1733|AV-procd|sdf|6979|dock4
  -GOLD-   22720 8193D 1   1.00000     0.00000
 Structure written by MMmdl.
 53 55  0  0  0  0  0  0  0  0  2 V2000
  144.5919  136.5065  152.7009 O   0  0  0  0  0  0  0  0  0  0  0  0
  145.7843  136.3588  152.4334 C   0  0  0  0  0  0  0  0  0  0  0  0
  146.3090  135.2996  151.7930 N   0  0  0  0  0  0  0  0  0  0  0  0
  145.6314  134.1766  151.2453 C   0  0  0  0  0  0  0  0  0  0  0  0
  146.3948  133.2454  150.5067 C   0  0  0  0  0  0  0  0  0  0  0  0
  145.7590  132.1267  149.9304 C   0  0  0  0  0  0  0  0  0  0  0  0
  144.4272  131.9596  150.0785 N   0  3  0  0  0  0  0  0  0  0  0  0
  143.6537  132.8304  150.7618 C   0  0  0  0  0  0  0  0  0  0  0  0
  144.2334  133.9673  151.3610 C   0  0  0  0  0  0  0  0  0  0  0  0
  146.7350  137.2415  152.7720 N   0  0  0  0  0  0  0  0  0  0  0  0
  146.5077  138.4954  153.4845 C   0  0  0  0  0  0  0  0  0  0  0  0
  147.1153  139.6637  152.6782 C   0  0  0  0  0  0  0  0  0  0  0  0
  147.0795  140.9740  153.4837 C   0  0  0  0  0  0  0  0  0  0  0  0
  147.7897  140.7630  154.7560 N   0  0  0  0  0  0  0  0  0  0  0  0
  149.0266  141.2231  155.0738 C   0  0  0  0  0  0  0  0  0  0  0  0
  149.8386  141.6125  154.2332 O   0  0  0  0  0  0  0  0  0  0  0  0
  149.3019  141.2292  156.3896 N   0  0  0  0  0  0  0  0  0  0  0  0
  150.5433  141.6960  156.9989 C   0  0  0  0  0  0  0  0  0  0  0  0
  151.1965  140.5402  157.7804 C   0  0  0  0  0  0  0  0  0  0  0  0
  152.4769  140.9966  158.4981 C   0  0  0  0  0  0  0  0  0  0  0  0
  152.2017  142.1943  159.4207 C   0  0  0  0  0  0  0  0  0  0  0  0
  151.5565  143.3531  158.6453 C   0  0  0  0  0  0  0  0  0  0  0  0
  150.2755  142.8998  157.9270 C   0  0  0  0  0  0  0  0  0  0  0  0
  147.0757  139.7993  155.6020 C   0  0  0  0  0  0  0  0  0  0  0  0
  147.0975  138.4223  154.9123 C   0  0  0  0  0  0  0  0  0  0  0  0
  147.3165  135.2710  151.7348 H   0  0  0  0  0  0  0  0  0  0  0  0
  147.4602  133.3803  150.3858 H   0  0  0  0  0  0  0  0  0  0  0  0
  146.2718  131.3676  149.3577 H   0  0  0  0  0  0  0  0  0  0  0  0
  142.5997  132.5972  150.8035 H   0  0  0  0  0  0  0  0  0  0  0  0
  143.5947  134.6618  151.8855 H   0  0  0  0  0  0  0  0  0  0  0  0
  147.6899  137.0342  152.5182 H   0  0  0  0  0  0  0  0  0  0  0  0
  145.4343  138.6777  153.5658 H   0  0  0  0  0  0  0  0  0  0  0  0
  148.1497  139.4365  152.4144 H   0  0  0  0  0  0  0  0  0  0  0  0
  146.5763  139.7897  151.7384 H   0  0  0  0  0  0  0  0  0  0  0  0
  147.4776  141.7923  152.8837 H   0  0  0  0  0  0  0  0  0  0  0  0
  146.0453  141.2516  153.6926 H   0  0  0  0  0  0  0  0  0  0  0  0
  148.5871  140.8935  157.0185 H   0  0  0  0  0  0  0  0  0  0  0  0
  151.2313  142.0037  156.2089 H   0  0  0  0  0  0  0  0  0  0  0  0
  150.4934  140.1470  158.5164 H   0  0  0  0  0  0  0  0  0  0  0  0
  151.4291  139.7161  157.1049 H   0  0  0  0  0  0  0  0  0  0  0  0
  152.8934  140.1706  159.0754 H   0  0  0  0  0  0  0  0  0  0  0  0
  153.2320  141.2695  157.7598 H   0  0  0  0  0  0  0  0  0  0  0  0
  151.5429  141.8867  160.2338 H   0  0  0  0  0  0  0  0  0  0  0  0
  153.1300  142.5288  159.8843 H   0  0  0  0  0  0  0  0  0  0  0  0
  151.3298  144.1749  159.3249 H   0  0  0  0  0  0  0  0  0  0  0  0
  152.2658  143.7431  157.9141 H   0  0  0  0  0  0  0  0  0  0  0  0
  149.8658  143.7342  157.3565 H   0  0  0  0  0  0  0  0  0  0  0  0
  149.5209  142.6336  158.6684 H   0  0  0  0  0  0  0  0  0  0  0  0
  147.5007  139.7202  156.6037 H   0  0  0  0  0  0  0  0  0  0  0  0
  146.0464  140.1315  155.7444 H   0  0  0  0  0  0  0  0  0  0  0  0
  146.5437  137.6988  155.5117 H   0  0  0  0  0  0  0  0  0  0  0  0
  148.1271  138.0632  154.8693 H   0  0  0  0  0  0  0  0  0  0  0  0
  143.9859  131.1441  149.6523 H   0  0  0  0  0  0  0  0  0  0  0  0
  1  2  2  0  0  0  0
  2  3  1  0  0  0  0
  2 10  1  0  0  0  0
  3  4  1  0  0  0  0
  3 26  1  0  0  0  0
  4  9  1  0  0  0  0
  4  5  2  0  0  0  0
  5  6  1  0  0  0  0
  5 27  1  0  0  0  0
  6  7  2  0  0  0  0
  6 28  1  0  0  0  0
  7  8  1  0  0  0  0
  7 53  1  0  0  0  0
  8  9  2  0  0  0  0
  8 29  1  0  0  0  0
  9 30  1  0  0  0  0
 10 11  1  0  0  0  0
 10 31  1  0  0  0  0
 11 25  1  0  0  0  0
 11 12  1  0  0  0  0
 11 32  1  0  0  0  0
 12 13  1  0  0  0  0
 12 33  1  0  0  0  0
 12 34  1  0  0  0  0
 13 14  1  0  0  0  0
 13 35  1  0  0  0  0
 13 36  1  0  0  0  0
 14 15  1  0  0  0  0
 14 24  1  0  0  0  0
 15 16  2  0  0  0  0
 15 17  1  0  0  0  0
 17 18  1  0  0  0  0
 17 37  1  0  0  0  0
 18 23  1  0  0  0  0
 18 19  1  0  0  0  0
 18 38  1  0  0  0  0
 19 20  1  0  0  0  0
 19 39  1  0  0  0  0
 19 40  1  0  0  0  0
 20 21  1  0  0  0  0
 20 41  1  0  0  0  0
 20 42  1  0  0  0  0
 21 22  1  0  0  0  0
 21 43  1  0  0  0  0
 21 44  1  0  0  0  0
 22 23  1  0  0  0  0
 22 45  1  0  0  0  0
 22 46  1  0  0  0  0
 23 47  1  0  0  0  0
 23 48  1  0  0  0  0
 24 25  1  0  0  0  0
 24 49  1  0  0  0  0
 24 50  1  0  0  0  0
 25 51  1  0  0  0  0
 25 52  1  0  0  0  0
M  CHG  1   7   1
M  END
> <s_m_source_file>
AV-unprocessed.smi

> <i_m_source_file_index>
1733

> <i_lp_mmshare_version>
43012

> <i_f3d_flags>
0

> <s_epik_input>
W2NIXTFbY0hdbltjSF1bY0hdYzFbTkhdQyg9TylbTkhdW0NIXTJbQ0gyXVtDSDJdTihbQ0gyXVtDSDJdMilDKD1PKVtOSF1bQ0hdM1tDSDJdW0NIMl1bQ0gyXVtDSDJdW0NIMl0z

> <s_epik_cmdline>
J2VwaWtfcHl0aG9uJywgJy1waCcsICc3LjAnLCAnLXRuJywgJzgnLCAnLW1hJywgJzIwMCcsICctbWV0YWxfYmluZGluZycsICctaW1hZScsICc8aW5maWxlLm1hZT4nLCAnLW9tYWUnLCAnPG91dGZpbGUubWFlPic=

> <r_epik_Ionization_Penalty>
1.02331

> <r_epik_Ionization_Penalty_Charging>
1.02322

> <r_epik_Ionization_Penalty_Neutral>
8.7708e-05

> <r_epik_State_Penalty>
1.0737

> <r_epik_Charging_Adjusted_Penalty>
2.09692

> <i_epik_Tot_Q>
1

> <i_epik_Tot_abs_Q>
1

> <r_epik_Metal_State_Penalty>
1.17214

> <b_epik_Metal_Only>
0

> <s_lp_Force_Field>
OPLS_2005

> <r_lp_Energy>
47.1401

> <b_lp_Chiralities_Consistent>
1

> <s_lp_Variant>
AV-unprocessed.smi:1733-2

> <Gold.Version>
5.8.1

> <Gold.Id.Protein>
6NUR|6NUR_protein|mol2

> <Gold.PLP.Fitness>
47.4234

> <Gold.PLP.PLP>
-39.9006

> <Gold.PLP.part.hbond>
-4.0000

> <Gold.PLP.part.metal>
0.0000

> <Gold.PLP.part.buried>
-2.1101

> <Gold.PLP.part.nonpolar>
-33.7527

> <Gold.PLP.part.repulsive>
0.5788

> <Gold.PLP.ligand.clash>
0.0000

> <Gold.PLP.ligand.torsion>
0.2954

> <Gold.PLP.Chemscore.Hbond>
2.6913

> <Gold.PLP.Chemscore.CHOScore>
0.0000

> <Gold.PLP.Chemscore.Metal>
0.0000

> <Gold.Chemscore.Hbonds>
donor molecule, donor type, donor heavy atom, donor atom, acceptor molecule, acceptor atom, score
      L1  H     3    26       P1  7948  0.98
      L1  H    10    31       P1  7948  1.00
      P1  H  7989  7998       L1    16  0.22
      P1  H  8011  8017       L1    16  0.48

> <Gold.PLP.Chemscore.Internal.Correction>
0.0399

> <Gold.Rescore>
     Score         DG    S(hbond)    S(metal)    S(lipo)     H(rot)  DE(clash)    DE(int)     intcor
     20.84     -23.54       2.58        0.00     107.88       1.24       1.16       1.55       ----

> <Gold.Chemscore.Fitness>
20.8392

> <Gold.Chemscore.DG>
-23.5435

> <Gold.Chemscore.ZeroCoef>
-5.4800

> <Gold.Chemscore.Hbond>
2.5817

> <Gold.Chemscore.Metal>
0.0000

> <Gold.Chemscore.Lipo>
107.8778

> <Gold.Chemscore.Internal_Hbond>
0.0000

> <Gold.Chemscore.DEClash>
1.1555

> <Gold.Chemscore.DEInternal>
1.5488

> <Gold.Chemscore.Rot>
1.2426

> <Gold.Chemscore.Internal.Correction>
   9.000000E+99

> <Gold.Chemscore.Hbonds>
donor molecule, donor type, donor heavy atom, donor atom, acceptor molecule, acceptor atom, score
      L1  H     3    26       P1  7948  0.89
      L1  H    10    31       P1  7948  0.99
      P1  H  7989  7998       L1    16  0.22
      P1  H  8011  8017       L1    16  0.47

> <Gold.Chemscore.Hbond.Weighted>
-8.6230

> <Gold.Chemscore.Metal.Weighted>
-0.0000

> <Gold.Chemscore.Lipo.Weighted>
-12.6217

> <Gold.Chemscore.Internal_Hbond.Weighted>
0.0000

> <Gold.Chemscore.DEClash.Weighted>
1.1555

> <Gold.Chemscore.DEInternal.Weighted>
1.5488

> <Gold.Chemscore.Rot.Weighted>
3.1812

> <Gold.Chemscore.Internal.Correction.Weighted>
   9.000000E+99

> <Gold.Protein.RotatedTorsions>
[ 6907 6896 6895 6894 ] final  147.27 input  -60.11 | X-H torsion
[ 7974 7965 7964 7962 ] final   -0.68 input  175.53 | X-H torsion
[ 8008 7997 7996 7995 ] final -169.20 input   59.86 | X-H torsion
[ 10167 10162 10161 10158 ] final  102.72 input  -65.29 | X-H torsion
[ 10718 10713 10712 10709 ] final   83.41 input   66.30 | X-H torsion
[ 10763 10752 10751 10750 ] final  -65.66 input  -60.55 | X-H torsion
[ 11005 11000 10999 10996 ] final -133.99 input  -57.11 | X-H torsion

> <Gold.Protein.ActiveResidues>
 VAL166  LYS551  ARG553  GLY616  TRP617  ASP618  TYR619  PRO620  LYS621  CYS622 
 ASP623  PHE694  ASN695  SER759  ASP760  ASP761  ALA762  ILE779  LEU786  VAL792 
 PHE793  MET794  SER795  GLU796  ALA797  LYS798  CYS799  TRP800  GLU811  SER814 

> <Gold.Protein.RotatedAtoms>
  152.1570  133.4557  159.4841 H   0  0  0  0  0  0  0  0  0  0  0  0  # atno 6907 bound_to 6896
  150.6902  134.2119  159.4371 H   0  0  0  0  0  0  0  0  0  0  0  0  # atno 6908 bound_to 6896
  152.0019  134.9923  160.0616 H   0  0  0  0  0  0  0  0  0  0  0  0  # atno 6909 bound_to 6896
  146.2425  140.1307  142.8338 H   0  0  0  0  0  0  0  0  0  0  0  0  # atno 7974 bound_to 7965
  155.9017  140.1042  157.1345 H   0  0  0  0  0  0  0  0  0  0  0  0  # atno 8008 bound_to 7997
  154.4027  140.1291  156.4509 H   0  0  0  0  0  0  0  0  0  0  0  0  # atno 8009 bound_to 7997
  155.7415  140.3467  155.5109 H   0  0  0  0  0  0  0  0  0  0  0  0  # atno 8010 bound_to 7997
  139.7326  144.7032  151.0699 H   0  0  0  0  0  0  0  0  0  0  0  0  # atno 10167 bound_to 10162
  157.6878  131.0090  150.2520 H   0  0  0  0  0  0  0  0  0  0  0  0  # atno 10718 bound_to 10713
  154.3484  135.6142  153.5630 H   0  0  0  0  0  0  0  0  0  0  0  0  # atno 10763 bound_to 10752
  152.9800  135.5786  154.4772 H   0  0  0  0  0  0  0  0  0  0  0  0  # atno 10764 bound_to 10752
  154.4489  135.2852  155.1772 H   0  0  0  0  0  0  0  0  0  0  0  0  # atno 10765 bound_to 10752
  140.9031  134.1665  157.4446 H   0  0  0  0  0  0  0  0  0  0  0  0  # atno 11005 bound_to 11000
  145.0329  140.8885  143.5099 LP  0  0  0  0  0  0  0  0  0  0  0  0  # atno 17320 bound_to 7965
  145.1374  139.2593  143.5508 LP  0  0  0  0  0  0  0  0  0  0  0  0  # atno 17321 bound_to 7965
  140.7773  143.5025  150.9754 LP  0  0  0  0  0  0  0  0  0  0  0  0  # atno 17342 bound_to 10162
  139.8713  143.7189  152.3166 LP  0  0  0  0  0  0  0  0  0  0  0  0  # atno 17343 bound_to 10162
  156.3115  130.3772  149.7657 LP  0  0  0  0  0  0  0  0  0  0  0  0  # atno 17370 bound_to 10713
  156.5256  130.8235  151.3219 LP  0  0  0  0  0  0  0  0  0  0  0  0  # atno 17371 bound_to 10713
  139.8745  134.9906  156.5509 LP  0  0  0  0  0  0  0  0  0  0  0  0  # atno 17394 bound_to 11000
  140.8205  133.8357  155.8891 LP  0  0  0  0  0  0  0  0  0  0  0  0  # atno 17395 bound_to 11000

$$$$
