AV-unprocessed.smi:136|AV-procd|sdf|1173|dock10
  -GOLD-   2262018323D 1   1.00000     0.00000
 Structure written by MMmdl.
 54 58  0  0  0  0  0  0  0  0  1 V2000
  156.3711  141.5164  165.5435 O   0  0  0  0  0  0  0  0  0  0  0  0
  156.3741  140.5450  164.7849 C   0  0  0  0  0  0  0  0  0  0  0  0
  157.2955  139.3426  165.0803 C   0  0  0  0  0  0  0  0  0  0  0  0
  158.7315  139.6376  164.8817 N   0  0  0  0  0  0  0  0  0  0  0  0
  159.6445  139.3010  165.9115 C   0  0  0  0  0  0  0  0  0  0  0  0
  159.2642  138.7623  166.9520 O   0  0  0  0  0  0  0  0  0  0  0  0
  161.0383  139.6438  165.6537 C   0  0  0  0  0  0  0  0  0  0  0  0
  161.9741  139.3598  166.5753 F   0  0  0  0  0  0  0  0  0  0  0  0
  161.4058  140.2449  164.5034 C   0  0  0  0  0  0  0  0  0  0  0  0
  160.5031  140.5696  163.5063 N   0  0  0  0  0  0  0  0  0  0  0  0
  160.9293  141.2615  162.2283 C   0  0  2  0  0  0  0  0  0  0  0  0
  160.5461  140.4159  160.9986 C   0  0  0  0  0  0  0  0  0  0  0  0
  161.8507  140.3273  160.2321 C   0  0  0  0  0  0  0  0  0  0  0  0
  162.8792  140.4188  161.3491 C   0  0  0  0  0  0  0  0  0  0  0  0
  162.3212  141.4058  162.2061 O   0  0  0  0  0  0  0  0  0  0  0  0
  159.1331  140.2788  163.6856 C   0  0  0  0  0  0  0  0  0  0  0  0
  158.3088  140.5822  162.8199 O   0  0  0  0  0  0  0  0  0  0  0  0
  155.5832  140.4919  163.6901 N   0  0  0  0  0  0  0  0  0  0  0  0
  154.8454  141.5452  163.2571 N   0  0  0  0  0  0  0  0  0  0  0  0
  154.3280  141.2728  162.1165 C   0  0  0  0  0  0  0  0  0  0  0  0
  153.4654  142.1958  161.3456 C   0  0  0  0  0  0  0  0  0  0  0  0
  152.8494  143.2844  162.0043 C   0  0  0  0  0  0  0  0  0  0  0  0
  152.0265  144.1621  161.2717 C   0  0  0  0  0  0  0  0  0  0  0  0
  151.8206  143.9549  159.8929 C   0  0  0  0  0  0  0  0  0  0  0  0
  150.8103  145.0325  159.0015 Cl  0  0  0  0  0  0  0  0  0  0  0  0
  152.4386  142.8691  159.2409 C   0  0  0  0  0  0  0  0  0  0  0  0
  153.2639  141.9846  159.9627 C   0  0  0  0  0  0  0  0  0  0  0  0
  154.6703  139.9122  161.6098 C   0  0  0  0  0  0  0  0  0  0  0  0
  155.5197  139.3595  162.7569 C   0  0  2  0  0  0  0  0  0  0  0  0
  154.9445  138.1068  163.3545 C   0  0  0  0  0  0  0  0  0  0  0  0
  154.5844  137.7270  164.6201 C   0  0  0  0  0  0  0  0  0  0  0  0
  154.0887  136.3983  164.5183 C   0  0  0  0  0  0  0  0  0  0  0  0
  154.1763  136.0655  163.1972 C   0  0  0  0  0  0  0  0  0  0  0  0
  154.6925  137.0963  162.4746 O   0  0  0  0  0  0  0  0  0  0  0  0
  157.1046  138.9981  166.0978 H   0  0  0  0  0  0  0  0  0  0  0  0
  156.9908  138.5029  164.4532 H   0  0  0  0  0  0  0  0  0  0  0  0
  162.4528  140.4753  164.3791 H   0  0  0  0  0  0  0  0  0  0  0  0
  160.4629  142.2480  162.2572 H   0  0  0  0  0  0  0  0  0  0  0  0
  160.2203  139.4217  161.3092 H   0  0  0  0  0  0  0  0  0  0  0  0
  159.7452  140.8905  160.4311 H   0  0  0  0  0  0  0  0  0  0  0  0
  161.9391  139.4142  159.6429 H   0  0  0  0  0  0  0  0  0  0  0  0
  161.9513  141.1811  159.5609 H   0  0  0  0  0  0  0  0  0  0  0  0
  162.9668  139.4673  161.8752 H   0  0  0  0  0  0  0  0  0  0  0  0
  163.8676  140.7089  160.9925 H   0  0  0  0  0  0  0  0  0  0  0  0
  152.9941  143.4601  163.0605 H   0  0  0  0  0  0  0  0  0  0  0  0
  151.5521  144.9950  161.7699 H   0  0  0  0  0  0  0  0  0  0  0  0
  152.2796  142.7129  158.1839 H   0  0  0  0  0  0  0  0  0  0  0  0
  153.7262  141.1613  159.4390 H   0  0  0  0  0  0  0  0  0  0  0  0
  153.7703  139.3196  161.4384 H   0  0  0  0  0  0  0  0  0  0  0  0
  155.2375  139.9666  160.6800 H   0  0  0  0  0  0  0  0  0  0  0  0
  156.5278  139.1538  162.3921 H   0  0  0  0  0  0  0  0  0  0  0  0
  154.6697  138.3314  165.5111 H   0  0  0  0  0  0  0  0  0  0  0  0
  153.7145  135.7672  165.3106 H   0  0  0  0  0  0  0  0  0  0  0  0
  153.9278  135.1818  162.6282 H   0  0  0  0  0  0  0  0  0  0  0  0
  1  2  2  0  0  0  0
  2  3  1  0  0  0  0
  2 18  1  0  0  0  0
  3  4  1  0  0  0  0
  3 35  1  0  0  0  0
  3 36  1  0  0  0  0
  4 16  1  0  0  0  0
  4  5  1  0  0  0  0
  5  6  2  0  0  0  0
  5  7  1  0  0  0  0
  7  8  1  0  0  0  0
  7  9  2  0  0  0  0
  9 10  1  0  0  0  0
  9 37  1  0  0  0  0
 10 11  1  0  0  0  0
 10 16  1  0  0  0  0
 11 15  1  0  0  0  0
 11 12  1  0  0  0  0
 11 38  1  0  0  0  0
 12 13  1  0  0  0  0
 12 39  1  0  0  0  0
 12 40  1  0  0  0  0
 13 14  1  0  0  0  0
 13 41  1  0  0  0  0
 13 42  1  0  0  0  0
 14 15  1  0  0  0  0
 14 43  1  0  0  0  0
 14 44  1  0  0  0  0
 16 17  2  0  0  0  0
 18 29  1  0  0  0  0
 18 19  1  0  0  0  0
 19 20  2  0  0  0  0
 20 21  1  0  0  0  0
 20 28  1  0  0  0  0
 21 27  1  0  0  0  0
 21 22  2  0  0  0  0
 22 23  1  0  0  0  0
 22 45  1  0  0  0  0
 23 24  2  0  0  0  0
 23 46  1  0  0  0  0
 24 25  1  0  0  0  0
 24 26  1  0  0  0  0
 26 27  2  0  0  0  0
 26 47  1  0  0  0  0
 27 48  1  0  0  0  0
 28 29  1  0  0  0  0
 28 49  1  0  0  0  0
 28 50  1  0  0  0  0
 29 30  1  0  0  0  0
 29 51  1  0  0  0  0
 30 34  1  0  0  0  0
 30 31  2  0  0  0  0
 31 32  1  0  0  0  0
 31 52  1  0  0  0  0
 32 33  2  0  0  0  0
 32 53  1  0  0  0  0
 33 34  1  0  0  0  0
 33 54  1  0  0  0  0
M  END
> <s_m_source_file>
AV-unprocessed.smi

> <i_m_source_file_index>
136

> <i_lp_mmshare_version>
43012

> <i_f3d_flags>
0

> <s_epik_input>
bzFbY0hdW2NIXVtjSF1jMVtDQEBIXTJbQ0gyXUMoYzNbY0hdW2NIXWMoQ2wpW2NIXVtjSF0zKT1OTjJDKD1PKVtDSDJdbjRjKD1PKWMoRilbY0hdbihjND1PKVtDQEBIXTVbQ0gyXVtDSDJdW0NIMl1PNQ==

> <s_epik_cmdline>
J2VwaWtfcHl0aG9uJywgJy1waCcsICc3LjAnLCAnLXRuJywgJzgnLCAnLW1hJywgJzIwMCcsICctbWV0YWxfYmluZGluZycsICctaW1hZScsICc8aW5maWxlLm1hZT4nLCAnLW9tYWUnLCAnPG91dGZpbGUubWFlPic=

> <r_lp_tautomer_probability>
1

> <r_epik_Ionization_Penalty>
2.55467e-08

> <r_epik_Ionization_Penalty_Charging>
4.85705e-09

> <r_epik_Ionization_Penalty_Neutral>
2.06897e-08

> <r_epik_State_Penalty>
-0

> <r_epik_Charging_Adjusted_Penalty>
4.85705e-09

> <i_epik_Tot_Q>
0

> <i_epik_Tot_abs_Q>
0

> <r_epik_Metal_State_Penalty>
-0

> <b_epik_Metal_Only>
0

> <s_epik_Chemistry_Notes>
This compound has an imine and may undergo hydrolysis. This compound contains an acetal/aminal-like group ( X-CH(R)-Y where X, Y are N, S, or O) that may be acid/base labile, releasing an aldehyde.

> <s_lp_Force_Field>
OPLS_2005

> <r_lp_Energy>
40.0267

> <b_lp_Chiralities_Consistent>
1

> <s_lp_Variant>
AV-unprocessed.smi:136-3

> <Gold.Version>
5.8.1

> <Gold.Id.Protein>
6NUR|6NUR_protein|mol2

> <Gold.PLP.Fitness>
51.1389

> <Gold.PLP.PLP>
-52.0288

> <Gold.PLP.part.hbond>
-2.0000

> <Gold.PLP.part.metal>
0.0000

> <Gold.PLP.part.buried>
-5.5502

> <Gold.PLP.part.nonpolar>
-44.5256

> <Gold.PLP.part.repulsive>
0.0000

> <Gold.PLP.ligand.clash>
0.0000

> <Gold.PLP.ligand.torsion>
0.4838

> <Gold.PLP.Chemscore.Hbond>
0.0000

> <Gold.PLP.Chemscore.CHOScore>
0.0000

> <Gold.PLP.Chemscore.Metal>
0.0000

> <Gold.PLP.Chemscore.Internal.Correction>
0.0778

> <Gold.Rescore>
     Score         DG    S(hbond)    S(metal)    S(lipo)     H(rot)  DE(clash)    DE(int)     intcor
     12.98     -17.21       0.00        0.00     139.78       1.81       0.43       3.80       ----

> <Gold.Chemscore.Fitness>
12.9773

> <Gold.Chemscore.DG>
-17.2116

> <Gold.Chemscore.ZeroCoef>
-5.4800

> <Gold.Chemscore.Hbond>
0.0000

> <Gold.Chemscore.Metal>
0.0000

> <Gold.Chemscore.Lipo>
139.7772

> <Gold.Chemscore.Internal_Hbond>
0.0000

> <Gold.Chemscore.DEClash>
0.4348

> <Gold.Chemscore.DEInternal>
3.7995

> <Gold.Chemscore.Rot>
1.8056

> <Gold.Chemscore.Internal.Correction>
   9.000000E+99

> <Gold.Chemscore.Hbond.Weighted>
-0.0000

> <Gold.Chemscore.Metal.Weighted>
-0.0000

> <Gold.Chemscore.Lipo.Weighted>
-16.3539

> <Gold.Chemscore.Internal_Hbond.Weighted>
0.0000

> <Gold.Chemscore.DEClash.Weighted>
0.4348

> <Gold.Chemscore.DEInternal.Weighted>
3.7995

> <Gold.Chemscore.Rot.Weighted>
4.6223

> <Gold.Chemscore.Internal.Correction.Weighted>
   9.000000E+99

> <Gold.Protein.RotatedTorsions>
[ 6907 6896 6895 6894 ] final  166.20 input  -60.11 | X-H torsion
[ 7974 7965 7964 7962 ] final   29.64 input  175.53 | X-H torsion
[ 8008 7997 7996 7995 ] final  150.96 input   59.86 | X-H torsion
[ 10167 10162 10161 10158 ] final   29.46 input  -65.29 | X-H torsion
[ 10718 10713 10712 10709 ] final   52.75 input   66.30 | X-H torsion
[ 10763 10752 10751 10750 ] final -117.49 input  -60.55 | X-H torsion
[ 11005 11000 10999 10996 ] final  -83.18 input  -57.11 | X-H torsion

> <Gold.Protein.ActiveResidues>
 VAL166  LYS551  ARG553  GLY616  TRP617  ASP618  TYR619  PRO620  LYS621  CYS622 
 ASP623  PHE694  ASN695  SER759  ASP760  ASP761  ALA762  ILE779  LEU786  VAL792 
 PHE793  MET794  SER795  GLU796  ALA797  LYS798  CYS799  TRP800  GLU811  SER814 

> <Gold.Protein.RotatedAtoms>
  151.8825  133.3498  159.3770 H   0  0  0  0  0  0  0  0  0  0  0  0  # atno 6907 bound_to 6896
  150.7123  134.5004  159.5568 H   0  0  0  0  0  0  0  0  0  0  0  0  # atno 6908 bound_to 6896
  152.2558  134.8085  160.0489 H   0  0  0  0  0  0  0  0  0  0  0  0  # atno 6909 bound_to 6896
  146.1659  139.6895  142.9001 H   0  0  0  0  0  0  0  0  0  0  0  0  # atno 7974 bound_to 7965
  156.2694  140.2060  156.6100 H   0  0  0  0  0  0  0  0  0  0  0  0  # atno 8008 bound_to 7997
  154.6839  140.0537  157.0318 H   0  0  0  0  0  0  0  0  0  0  0  0  # atno 8009 bound_to 7997
  155.0961  140.3201  155.4563 H   0  0  0  0  0  0  0  0  0  0  0  0  # atno 8010 bound_to 7997
  140.4763  144.0685  150.6252 H   0  0  0  0  0  0  0  0  0  0  0  0  # atno 10167 bound_to 10162
  157.5104  130.8497  149.8427 H   0  0  0  0  0  0  0  0  0  0  0  0  # atno 10718 bound_to 10713
  154.8556  135.4308  154.1987 H   0  0  0  0  0  0  0  0  0  0  0  0  # atno 10763 bound_to 10752
  153.3039  135.6971  153.7183 H   0  0  0  0  0  0  0  0  0  0  0  0  # atno 10764 bound_to 10752
  153.6303  135.3486  155.3013 H   0  0  0  0  0  0  0  0  0  0  0  0  # atno 10765 bound_to 10752
  141.1659  133.7281  156.8681 H   0  0  0  0  0  0  0  0  0  0  0  0  # atno 11005 bound_to 11000
  145.4467  141.0426  143.2827 LP  0  0  0  0  0  0  0  0  0  0  0  0  # atno 17320 bound_to 7965
  144.8092  139.5993  143.7037 LP  0  0  0  0  0  0  0  0  0  0  0  0  # atno 17321 bound_to 7965
  140.3914  143.2750  152.0056 LP  0  0  0  0  0  0  0  0  0  0  0  0  # atno 17342 bound_to 10162
  139.4826  144.6074  151.7496 LP  0  0  0  0  0  0  0  0  0  0  0  0  # atno 17343 bound_to 10162
  156.0285  130.3772  150.1754 LP  0  0  0  0  0  0  0  0  0  0  0  0  # atno 17370 bound_to 10713
  156.9944  130.9903  151.3407 LP  0  0  0  0  0  0  0  0  0  0  0  0  # atno 17371 bound_to 10713
  140.1801  134.9039  157.2938 LP  0  0  0  0  0  0  0  0  0  0  0  0  # atno 17394 bound_to 11000
  140.2405  134.3801  155.7483 LP  0  0  0  0  0  0  0  0  0  0  0  0  # atno 17395 bound_to 11000

$$$$
