AV-unprocessed.smi:1867|AV-procd|sdf|7576|dock9
  -GOLD-   22720 9283D 1   1.00000     0.00000
 Structure written by MMmdl.
 52 55  0  0  0  0  0  0  0  0  4 V2000
  151.4496  136.5443  158.4569 O   0  0  0  0  0  0  0  0  0  0  0  0
  150.8748  136.7749  157.3946 C   0  0  0  0  0  0  0  0  0  0  0  0
  150.7808  138.0575  156.9643 N   0  0  0  0  0  0  0  0  0  0  0  0
  151.1717  139.2557  157.6192 C   0  0  0  0  0  0  0  0  0  0  0  0
  150.5197  140.4506  157.2508 C   0  0  0  0  0  0  0  0  0  0  0  0
  150.8559  141.6588  157.8946 C   0  0  0  0  0  0  0  0  0  0  0  0
  151.8393  141.6603  158.9116 C   0  0  0  0  0  0  0  0  0  0  0  0
  152.2192  142.8265  159.6022 N   0  0  0  0  0  0  0  0  0  0  0  0
  151.7320  144.1382  159.2068 C   0  0  0  0  0  0  0  0  0  0  0  0
  152.2379  145.0813  160.2972 C   0  0  0  0  0  0  0  0  0  0  0  0
  152.2311  144.2016  161.5476 C   0  0  0  0  0  0  0  0  0  0  0  0
  152.5456  142.7963  161.0209 C   0  0  0  0  0  0  0  0  0  0  0  0
  152.4252  140.4860  159.2466 N   0  3  0  0  0  0  0  0  0  0  0  0
  152.1340  139.3073  158.6549 C   0  0  0  0  0  0  0  0  0  0  0  0
  150.3577  135.7625  156.6339 N   0  5  0  0  0  0  0  0  0  0  0  0
  149.6268  135.8418  155.3612 C   0  0  2  0  0  0  0  0  0  0  0  0
  148.4380  136.8183  155.4446 C   0  0  0  0  0  0  0  0  0  0  0  0
  147.3264  136.1892  154.5825 C   0  0  0  0  0  0  0  0  0  0  0  0
  147.8870  134.9206  154.0777 N   0  3  2  0  0  0  0  0  0  0  0  0
  146.9333  133.8320  153.7710 C   0  0  0  0  0  0  0  0  0  0  0  0
  147.6991  132.6433  153.1552 C   0  0  0  0  0  0  0  0  0  0  0  0
  148.8794  132.1982  154.0434 C   0  0  0  0  0  0  0  0  0  0  0  0
  149.7909  133.3898  154.3986 C   0  0  0  0  0  0  0  0  0  0  0  0
  148.9385  134.5140  155.0238 C   0  0  1  0  0  0  0  0  0  0  0  0
  150.4121  138.1743  156.0320 H   0  0  0  0  0  0  0  0  0  0  0  0
  149.7658  140.4448  156.4770 H   0  0  0  0  0  0  0  0  0  0  0  0
  150.3486  142.5672  157.6057 H   0  0  0  0  0  0  0  0  0  0  0  0
  152.1011  144.4261  158.2218 H   0  0  0  0  0  0  0  0  0  0  0  0
  150.6414  144.1298  159.1803 H   0  0  0  0  0  0  0  0  0  0  0  0
  153.2588  145.3938  160.0724 H   0  0  0  0  0  0  0  0  0  0  0  0
  151.6253  145.9772  160.4018 H   0  0  0  0  0  0  0  0  0  0  0  0
  152.9379  144.5365  162.3073 H   0  0  0  0  0  0  0  0  0  0  0  0
  151.2347  144.2110  161.9914 H   0  0  0  0  0  0  0  0  0  0  0  0
  151.9735  142.0410  161.5610 H   0  0  0  0  0  0  0  0  0  0  0  0
  153.6061  142.5695  161.1335 H   0  0  0  0  0  0  0  0  0  0  0  0
  152.6712  138.4557  159.0450 H   0  0  0  0  0  0  0  0  0  0  0  0
  150.2635  136.1285  154.5221 H   0  0  0  0  0  0  0  0  0  0  0  0
  148.0805  136.9251  156.4703 H   0  0  0  0  0  0  0  0  0  0  0  0
  148.7162  137.8123  155.0927 H   0  0  0  0  0  0  0  0  0  0  0  0
  146.4406  135.9994  155.1914 H   0  0  0  0  0  0  0  0  0  0  0  0
  147.0319  136.8312  153.7514 H   0  0  0  0  0  0  0  0  0  0  0  0
  146.4158  133.5249  154.6814 H   0  0  0  0  0  0  0  0  0  0  0  0
  146.1765  134.1938  153.0743 H   0  0  0  0  0  0  0  0  0  0  0  0
  147.0198  131.8066  152.9896 H   0  0  0  0  0  0  0  0  0  0  0  0
  148.0789  132.9297  152.1737 H   0  0  0  0  0  0  0  0  0  0  0  0
  148.4937  131.7517  154.9608 H   0  0  0  0  0  0  0  0  0  0  0  0
  149.4559  131.4214  153.5404 H   0  0  0  0  0  0  0  0  0  0  0  0
  150.5696  133.0621  155.0899 H   0  0  0  0  0  0  0  0  0  0  0  0
  150.2980  133.7376  153.4964 H   0  0  0  0  0  0  0  0  0  0  0  0
  148.4514  134.1309  155.9242 H   0  0  0  0  0  0  0  0  0  0  0  0
  148.3665  135.1500  153.2191 H   0  0  0  0  0  0  0  0  0  0  0  0
  153.1243  140.4886  159.9891 H   0  0  0  0  0  0  0  0  0  0  0  0
  1  2  2  0  0  0  0
  2  3  1  0  0  0  0
  2 15  1  0  0  0  0
  3  4  1  0  0  0  0
  3 25  1  0  0  0  0
  4 14  1  0  0  0  0
  4  5  2  0  0  0  0
  5  6  1  0  0  0  0
  5 26  1  0  0  0  0
  6  7  2  0  0  0  0
  6 27  1  0  0  0  0
  7  8  1  0  0  0  0
  7 13  1  0  0  0  0
  8 12  1  0  0  0  0
  8  9  1  0  0  0  0
  9 10  1  0  0  0  0
  9 28  1  0  0  0  0
  9 29  1  0  0  0  0
 10 11  1  0  0  0  0
 10 30  1  0  0  0  0
 10 31  1  0  0  0  0
 11 12  1  0  0  0  0
 11 32  1  0  0  0  0
 11 33  1  0  0  0  0
 12 34  1  0  0  0  0
 12 35  1  0  0  0  0
 13 14  2  0  0  0  0
 13 52  1  0  0  0  0
 14 36  1  0  0  0  0
 15 16  1  0  0  0  0
 16 24  1  0  0  0  0
 16 17  1  0  0  0  0
 16 37  1  0  0  0  0
 17 18  1  0  0  0  0
 17 38  1  0  0  0  0
 17 39  1  0  0  0  0
 18 19  1  0  0  0  0
 18 40  1  0  0  0  0
 18 41  1  0  0  0  0
 19 24  1  0  0  0  0
 19 20  1  0  0  0  0
 19 51  1  0  0  0  0
 20 21  1  0  0  0  0
 20 42  1  0  0  0  0
 20 43  1  0  0  0  0
 21 22  1  0  0  0  0
 21 44  1  0  0  0  0
 21 45  1  0  0  0  0
 22 23  1  0  0  0  0
 22 46  1  0  0  0  0
 22 47  1  0  0  0  0
 23 24  1  0  0  0  0
 23 48  1  0  0  0  0
 23 49  1  0  0  0  0
 24 50  1  0  0  0  0
M  CHG  1  13   1
M  CHG  1  15  -1
M  CHG  1  19   1
M  END
> <s_m_source_file>
AV-unprocessed.smi

> <i_m_source_file_index>
1867

> <i_lp_mmshare_version>
43012

> <i_f3d_flags>
0

> <s_epik_input>
W0NIMl0xW0NIMl1bQ0gyXVtDSDJdW0NASF0oTjEyKVtDQEBIXShbQ0gyXVtDSDJdMilbTkhdQyg9TylbTkhdYzNbY0hdW2NIXWMobltjSF0zKU40W0NIMl1bQ0gyXVtDSDJdW0NIMl00

> <s_epik_cmdline>
J2VwaWtfcHl0aG9uJywgJy1waCcsICc3LjAnLCAnLXRuJywgJzgnLCAnLW1hJywgJzIwMCcsICctbWV0YWxfYmluZGluZycsICctaW1hZScsICc8aW5maWxlLm1hZT4nLCAnLW9tYWUnLCAnPG91dGZpbGUubWFlPic=

> <r_lp_tautomer_probability>
0.999994

> <r_epik_Ionization_Penalty>
8.56137

> <r_epik_Ionization_Penalty_Charging>
8.56136

> <r_epik_Ionization_Penalty_Neutral>
3.91889e-06

> <r_epik_State_Penalty>
8.16255

> <r_epik_Charging_Adjusted_Penalty>
16.7239

> <i_epik_Tot_Q>
1

> <i_epik_Tot_abs_Q>
3

> <r_epik_Metal_State_Penalty>
4.14279

> <b_epik_Metal_Only>
1

> <s_lp_Force_Field>
OPLS_2005

> <r_lp_Energy>
66.0689

> <b_lp_Chiralities_Consistent>
1

> <s_lp_Variant>
AV-unprocessed.smi:1867-17

> <Gold.Version>
5.8.1

> <Gold.Id.Protein>
6NUR|6NUR_protein|mol2

> <Gold.PLP.Fitness>
49.1858

> <Gold.PLP.PLP>
-42.0026

> <Gold.PLP.part.hbond>
-2.0000

> <Gold.PLP.part.metal>
0.0000

> <Gold.PLP.part.buried>
-5.9350

> <Gold.PLP.part.nonpolar>
-34.1585

> <Gold.PLP.part.repulsive>
0.1332

> <Gold.PLP.ligand.clash>
0.0000

> <Gold.PLP.ligand.torsion>
0.5044

> <Gold.PLP.Chemscore.Hbond>
2.6560

> <Gold.PLP.Chemscore.CHOScore>
0.0000

> <Gold.PLP.Chemscore.Metal>
0.0000

> <Gold.Chemscore.Hbonds>
donor molecule, donor type, donor heavy atom, donor atom, acceptor molecule, acceptor atom, score
      L1  H    19    51       P1  7948  2.00
      P1  H  6896  6908       L1     1  0.69

> <Gold.PLP.Chemscore.Internal.Correction>
0.2239

> <Gold.Rescore>
     Score         DG    S(hbond)    S(metal)    S(lipo)     H(rot)  DE(clash)    DE(int)     intcor
     16.99     -19.80       1.70        0.00      95.63       1.00       0.07       2.74       ----

> <Gold.Chemscore.Fitness>
16.9882

> <Gold.Chemscore.DG>
-19.7952

> <Gold.Chemscore.ZeroCoef>
-5.4800

> <Gold.Chemscore.Hbond>
1.7026

> <Gold.Chemscore.Metal>
0.0000

> <Gold.Chemscore.Lipo>
95.6294

> <Gold.Chemscore.Internal_Hbond>
0.0000

> <Gold.Chemscore.DEClash>
0.0699

> <Gold.Chemscore.DEInternal>
2.7371

> <Gold.Chemscore.Rot>
1.0000

> <Gold.Chemscore.Internal.Correction>
   9.000000E+99

> <Gold.Chemscore.Hbonds>
donor molecule, donor type, donor heavy atom, donor atom, acceptor molecule, acceptor atom, score
      L1  H    19    51       P1  7948  0.92
      P1  H  6896  6908       L1     1  0.65

> <Gold.Chemscore.Hbond.Weighted>
-5.6865

> <Gold.Chemscore.Metal.Weighted>
-0.0000

> <Gold.Chemscore.Lipo.Weighted>
-11.1886

> <Gold.Chemscore.Internal_Hbond.Weighted>
0.0000

> <Gold.Chemscore.DEClash.Weighted>
0.0699

> <Gold.Chemscore.DEInternal.Weighted>
2.7371

> <Gold.Chemscore.Rot.Weighted>
2.5600

> <Gold.Chemscore.Internal.Correction.Weighted>
   9.000000E+99

> <Gold.Protein.RotatedTorsions>
[ 6907 6896 6895 6894 ] final -135.86 input  -60.11 | X-H torsion
[ 7974 7965 7964 7962 ] final  -77.21 input  175.53 | X-H torsion
[ 8008 7997 7996 7995 ] final  108.72 input   59.86 | X-H torsion
[ 10167 10162 10161 10158 ] final   38.76 input  -65.29 | X-H torsion
[ 10718 10713 10712 10709 ] final   93.73 input   66.30 | X-H torsion
[ 10763 10752 10751 10750 ] final   21.75 input  -60.55 | X-H torsion
[ 11005 11000 10999 10996 ] final   29.12 input  -57.11 | X-H torsion

> <Gold.Protein.ActiveResidues>
 VAL166  LYS551  ARG553  GLY616  TRP617  ASP618  TYR619  PRO620  LYS621  CYS622 
 ASP623  PHE694  ASN695  SER759  ASP760  ASP761  ALA762  ILE779  LEU786  VAL792 
 PHE793  MET794  SER795  GLU796  ALA797  LYS798  CYS799  TRP800  GLU811  SER814 

> <Gold.Protein.RotatedAtoms>
  151.0030  133.6038  159.2692 H   0  0  0  0  0  0  0  0  0  0  0  0  # atno 6907 bound_to 6896
  151.3217  135.0819  159.9318 H   0  0  0  0  0  0  0  0  0  0  0  0  # atno 6908 bound_to 6896
  152.5279  133.9676  159.7801 H   0  0  0  0  0  0  0  0  0  0  0  0  # atno 6909 bound_to 6896
  145.6027  140.9405  143.1232 H   0  0  0  0  0  0  0  0  0  0  0  0  # atno 7974 bound_to 7965
  156.1924  140.3071  155.9360 H   0  0  0  0  0  0  0  0  0  0  0  0  # atno 8008 bound_to 7997
  155.3142  140.0452  157.3053 H   0  0  0  0  0  0  0  0  0  0  0  0  # atno 8009 bound_to 7997
  154.5469  140.2279  155.8558 H   0  0  0  0  0  0  0  0  0  0  0  0  # atno 8010 bound_to 7997
  140.3905  144.1858  150.6131 H   0  0  0  0  0  0  0  0  0  0  0  0  # atno 10167 bound_to 10162
  157.6953  131.0488  150.4079 H   0  0  0  0  0  0  0  0  0  0  0  0  # atno 10718 bound_to 10713
  153.0970  135.6662  153.9745 H   0  0  0  0  0  0  0  0  0  0  0  0  # atno 10763 bound_to 10752
  153.9326  135.3002  155.3446 H   0  0  0  0  0  0  0  0  0  0  0  0  # atno 10764 bound_to 10752
  154.7389  135.5089  153.9163 H   0  0  0  0  0  0  0  0  0  0  0  0  # atno 10765 bound_to 10752
  140.3083  134.2678  155.7739 H   0  0  0  0  0  0  0  0  0  0  0  0  # atno 11005 bound_to 11000
  144.7303  139.7747  143.7350 LP  0  0  0  0  0  0  0  0  0  0  0  0  # atno 17320 bound_to 7965
  146.1564  139.4663  143.0016 LP  0  0  0  0  0  0  0  0  0  0  0  0  # atno 17321 bound_to 7965
  140.4844  143.2368  151.8909 LP  0  0  0  0  0  0  0  0  0  0  0  0  # atno 17342 bound_to 10162
  139.4789  144.5234  151.8769 LP  0  0  0  0  0  0  0  0  0  0  0  0  # atno 17343 bound_to 10162
  156.4465  130.4002  149.6663 LP  0  0  0  0  0  0  0  0  0  0  0  0  # atno 17370 bound_to 10713
  156.3828  130.7587  151.2582 LP  0  0  0  0  0  0  0  0  0  0  0  0  # atno 17371 bound_to 10713
  141.2113  133.7692  156.9870 LP  0  0  0  0  0  0  0  0  0  0  0  0  # atno 17394 bound_to 11000
  140.1047  134.9514  157.1976 LP  0  0  0  0  0  0  0  0  0  0  0  0  # atno 17395 bound_to 11000

$$$$
