AV-unprocessed.smi:92|AV-procd|sdf|848|dock5
  -GOLD-   2262017283D 1   1.00000     0.00000
 Structure written by MMmdl.
 61 64  0  0  0  0  0  0  0  0  2 V2000
  151.3858  145.4378  159.9434 C   0  0  0  0  0  0  0  0  0  0  0  0
  151.7468  144.0636  160.5255 C   0  0  0  0  0  0  0  0  0  0  0  0
  151.8768  143.0195  159.4779 N   0  3  1  0  0  0  0  0  0  0  0  0
  152.8360  141.9533  159.8649 C   0  0  0  0  0  0  0  0  0  0  0  0
  153.0678  140.9672  158.7095 C   0  0  0  0  0  0  0  0  0  0  0  0
  151.7335  140.3667  158.2267 C   0  0  2  0  0  0  0  0  0  0  0  0
  151.8961  139.3176  157.2072 N   0  0  0  0  0  0  0  0  0  0  0  0
  152.3013  139.6392  155.8369 C   0  0  0  0  0  0  0  0  0  0  0  0
  151.1103  138.2184  157.3602 C   0  0  0  0  0  0  0  0  0  0  0  0
  150.4611  138.0261  158.5397 N   0  0  0  0  0  0  0  0  0  0  0  0
  149.7050  136.9413  158.7265 C   0  0  0  0  0  0  0  0  0  0  0  0
  149.4637  135.9390  157.8811 N   0  0  0  0  0  0  0  0  0  0  0  0
  150.1035  136.1249  156.6912 C   0  0  0  0  0  0  0  0  0  0  0  0
  150.9383  137.2279  156.3502 C   0  0  0  0  0  0  0  0  0  0  0  0
  151.4025  137.0804  155.0485 N   0  0  0  0  0  0  0  0  0  0  0  0
  150.8822  135.9533  154.6474 C   0  0  0  0  0  0  0  0  0  0  0  0
  150.0897  135.3091  155.5704 N   0  0  0  0  0  0  0  0  0  0  0  0
  149.4024  134.0615  155.3806 C   0  0  0  0  0  0  0  0  0  0  0  0
  149.6239  133.2130  154.1254 C   0  0  0  0  0  0  0  0  0  0  0  0
  148.1495  132.7494  154.1919 C   0  0  0  0  0  0  0  0  0  0  0  0
  147.3982  132.6552  152.8489 C   0  0  0  0  0  0  0  0  0  0  0  0
  147.6112  131.4212  152.1924 O   0  0  0  0  0  0  0  0  0  0  0  0
  147.9487  131.4083  154.9220 C   0  0  0  0  0  0  0  0  0  0  0  0
  148.6219  130.3517  154.2677 O   0  0  0  0  0  0  0  0  0  0  0  0
  147.9079  134.0138  155.0506 C   0  0  0  0  0  0  0  0  0  0  0  0
  150.7227  141.4863  157.8582 C   0  0  2  0  0  0  0  0  0  0  0  0
  151.0332  142.2573  156.5611 C   0  0  0  0  0  0  0  0  0  0  0  0
  150.5690  142.4499  159.0536 C   0  0  0  0  0  0  0  0  0  0  0  0
  151.3854  146.1967  160.7262 H   0  0  0  0  0  0  0  0  0  0  0  0
  150.3957  145.4455  159.4888 H   0  0  0  0  0  0  0  0  0  0  0  0
  152.1069  145.7463  159.1859 H   0  0  0  0  0  0  0  0  0  0  0  0
  152.6973  144.1674  161.0505 H   0  0  0  0  0  0  0  0  0  0  0  0
  151.0142  143.7557  161.2731 H   0  0  0  0  0  0  0  0  0  0  0  0
  153.7905  142.3986  160.1485 H   0  0  0  0  0  0  0  0  0  0  0  0
  152.4600  141.4251  160.7428 H   0  0  0  0  0  0  0  0  0  0  0  0
  153.5775  141.4859  157.8970 H   0  0  0  0  0  0  0  0  0  0  0  0
  153.7379  140.1723  159.0393 H   0  0  0  0  0  0  0  0  0  0  0  0
  151.3258  139.8749  159.1077 H   0  0  0  0  0  0  0  0  0  0  0  0
  152.5726  138.7310  155.2968 H   0  0  0  0  0  0  0  0  0  0  0  0
  153.1801  140.2824  155.8247 H   0  0  0  0  0  0  0  0  0  0  0  0
  151.5086  140.1335  155.2787 H   0  0  0  0  0  0  0  0  0  0  0  0
  149.2260  136.8637  159.6913 H   0  0  0  0  0  0  0  0  0  0  0  0
  151.0643  135.5601  153.6576 H   0  0  0  0  0  0  0  0  0  0  0  0
  149.6006  133.4616  156.2709 H   0  0  0  0  0  0  0  0  0  0  0  0
  149.8578  133.8140  153.2461 H   0  0  0  0  0  0  0  0  0  0  0  0
  150.3585  132.4167  154.2498 H   0  0  0  0  0  0  0  0  0  0  0  0
  146.3243  132.7736  152.9965 H   0  0  0  0  0  0  0  0  0  0  0  0
  147.7114  133.4463  152.1669 H   0  0  0  0  0  0  0  0  0  0  0  0
  148.1551  131.5732  151.4348 H   0  0  0  0  0  0  0  0  0  0  0  0
  148.3046  131.4659  155.9513 H   0  0  0  0  0  0  0  0  0  0  0  0
  146.8925  131.1438  154.9796 H   0  0  0  0  0  0  0  0  0  0  0  0
  149.0862  130.7054  153.5243 H   0  0  0  0  0  0  0  0  0  0  0  0
  147.2648  133.8648  155.9183 H   0  0  0  0  0  0  0  0  0  0  0  0
  147.5730  134.8748  154.4715 H   0  0  0  0  0  0  0  0  0  0  0  0
  149.7470  141.0210  157.7111 H   0  0  0  0  0  0  0  0  0  0  0  0
  152.0420  142.6694  156.5576 H   0  0  0  0  0  0  0  0  0  0  0  0
  150.3396  143.0876  156.4264 H   0  0  0  0  0  0  0  0  0  0  0  0
  150.9218  141.6193  155.6860 H   0  0  0  0  0  0  0  0  0  0  0  0
  150.1220  141.9213  159.8974 H   0  0  0  0  0  0  0  0  0  0  0  0
  149.8719  143.2438  158.7880 H   0  0  0  0  0  0  0  0  0  0  0  0
  152.2753  143.4756  158.6695 H   0  0  0  0  0  0  0  0  0  0  0  0
  1  2  1  0  0  0  0
  1 29  1  0  0  0  0
  1 30  1  0  0  0  0
  1 31  1  0  0  0  0
  2  3  1  0  0  0  0
  2 32  1  0  0  0  0
  2 33  1  0  0  0  0
  3 28  1  0  0  0  0
  3  4  1  0  0  0  0
  3 61  1  0  0  0  0
  4  5  1  0  0  0  0
  4 34  1  0  0  0  0
  4 35  1  0  0  0  0
  5  6  1  0  0  0  0
  5 36  1  0  0  0  0
  5 37  1  0  0  0  0
  6  7  1  0  0  0  0
  6 26  1  0  0  0  0
  6 38  1  0  0  0  0
  7  8  1  0  0  0  0
  7  9  1  0  0  0  0
  8 39  1  0  0  0  0
  8 40  1  0  0  0  0
  8 41  1  0  0  0  0
  9 14  1  0  0  0  0
  9 10  2  0  0  0  0
 10 11  1  0  0  0  0
 11 12  2  0  0  0  0
 11 42  1  0  0  0  0
 12 13  1  0  0  0  0
 13 17  1  0  0  0  0
 13 14  2  0  0  0  0
 14 15  1  0  0  0  0
 15 16  2  0  0  0  0
 16 17  1  0  0  0  0
 16 43  1  0  0  0  0
 17 18  1  0  0  0  0
 18 25  1  0  0  0  0
 18 19  1  0  0  0  0
 18 44  1  0  0  0  0
 19 20  1  0  0  0  0
 19 45  1  0  0  0  0
 19 46  1  0  0  0  0
 20 21  1  0  0  0  0
 20 23  1  0  0  0  0
 20 25  1  0  0  0  0
 21 22  1  0  0  0  0
 21 47  1  0  0  0  0
 21 48  1  0  0  0  0
 22 49  1  0  0  0  0
 23 24  1  0  0  0  0
 23 50  1  0  0  0  0
 23 51  1  0  0  0  0
 24 52  1  0  0  0  0
 25 53  1  0  0  0  0
 25 54  1  0  0  0  0
 26 27  1  0  0  0  0
 26 28  1  0  0  0  0
 26 55  1  0  0  0  0
 27 56  1  0  0  0  0
 27 57  1  0  0  0  0
 27 58  1  0  0  0  0
 28 59  1  0  0  0  0
 28 60  1  0  0  0  0
M  CHG  1   3   1
M  END
> <s_m_source_file>
AV-unprocessed.smi

> <i_m_source_file_index>
92

> <i_lp_mmshare_version>
43012

> <i_f3d_flags>
0

> <s_epik_input>
W0NIM11bQ0gyXU4xW0NIMl1bQ0gyXVtDQEhdKFtDQEBIXShbQ0gzXSlbQ0gyXTEpTihbQ0gzXSljKG5bY0hdbjIpYyhjMjMpbltjSF1uM1tDSF0oW0NIMl00KVtDSDJdQzQoW0NIMl1bT0hdKVtDSDJdW09IXQ==

> <s_epik_cmdline>
J2VwaWtfcHl0aG9uJywgJy1waCcsICc3LjAnLCAnLXRuJywgJzgnLCAnLW1hJywgJzIwMCcsICctbWV0YWxfYmluZGluZycsICctaW1hZScsICc8aW5maWxlLm1hZT4nLCAnLW9tYWUnLCAnPG91dGZpbGUubWFlPic=

> <r_lp_tautomer_probability>
1

> <r_epik_Ionization_Penalty>
0.00235514

> <r_epik_Ionization_Penalty_Charging>
0.00137877

> <r_epik_Ionization_Penalty_Neutral>
0.000976366

> <r_epik_State_Penalty>
-0

> <r_epik_Charging_Adjusted_Penalty>
0.00137877

> <i_epik_Tot_Q>
1

> <i_epik_Tot_abs_Q>
1

> <r_epik_Metal_State_Penalty>
-0

> <b_epik_Metal_Only>
0

> <s_lp_Force_Field>
OPLS_2005

> <r_lp_Energy>
56.4815

> <b_lp_Chiralities_Consistent>
1

> <s_lp_Variant>
AV-unprocessed.smi:92-8

> <Gold.Version>
5.8.1

> <Gold.Id.Protein>
6NUR|6NUR_protein|mol2

> <Gold.PLP.Fitness>
44.1817

> <Gold.PLP.PLP>
-39.9526

> <Gold.PLP.part.hbond>
-1.3088

> <Gold.PLP.part.metal>
0.0000

> <Gold.PLP.part.buried>
-3.5094

> <Gold.PLP.part.nonpolar>
-33.8900

> <Gold.PLP.part.repulsive>
0.1698

> <Gold.PLP.ligand.clash>
0.0698

> <Gold.PLP.ligand.torsion>
1.3876

> <Gold.PLP.Chemscore.Hbond>
0.9600

> <Gold.PLP.Chemscore.CHOScore>
0.9452

> <Gold.PLP.Chemscore.Metal>
0.0000

> <Gold.Chemscore.Hbonds>
donor molecule, donor type, donor heavy atom, donor atom, acceptor molecule, acceptor atom, score
      L1  H    22    49       P1 10747  0.88
      L1  C    16    43       P1  7949  0.90

> <Gold.PLP.Chemscore.Internal.Correction>
1.3583

> <Gold.Rescore>
     Score         DG    S(hbond)    S(metal)    S(lipo)     H(rot)  DE(clash)    DE(int)     intcor
      8.69     -12.77       0.99        0.00     104.48       3.22       0.11       3.97       ----

> <Gold.Chemscore.Fitness>
8.6950

> <Gold.Chemscore.DG>
-12.7711

> <Gold.Chemscore.ZeroCoef>
-5.4800

> <Gold.Chemscore.Hbond>
0.9924

> <Gold.Chemscore.Metal>
0.0000

> <Gold.Chemscore.Lipo>
104.4840

> <Gold.Chemscore.Internal_Hbond>
0.0000

> <Gold.Chemscore.DEClash>
0.1102

> <Gold.Chemscore.DEInternal>
3.9660

> <Gold.Chemscore.Rot>
3.2219

> <Gold.Chemscore.Internal.Correction>
   9.000000E+99

> <Gold.Chemscore.Hbonds>
donor molecule, donor type, donor heavy atom, donor atom, acceptor molecule, acceptor atom, score
      L1  H    22    49       P1 10747  0.85

> <Gold.Chemscore.Hbond.Weighted>
-3.3147

> <Gold.Chemscore.Metal.Weighted>
-0.0000

> <Gold.Chemscore.Lipo.Weighted>
-12.2246

> <Gold.Chemscore.Internal_Hbond.Weighted>
0.0000

> <Gold.Chemscore.DEClash.Weighted>
0.1102

> <Gold.Chemscore.DEInternal.Weighted>
3.9660

> <Gold.Chemscore.Rot.Weighted>
8.2482

> <Gold.Chemscore.Internal.Correction.Weighted>
   9.000000E+99

> <Gold.Protein.RotatedTorsions>
[ 6907 6896 6895 6894 ] final  -83.65 input  -60.11 | X-H torsion
[ 7974 7965 7964 7962 ] final  -36.07 input  175.53 | X-H torsion
[ 8008 7997 7996 7995 ] final -149.90 input   59.86 | X-H torsion
[ 10167 10162 10161 10158 ] final   14.41 input  -65.29 | X-H torsion
[ 10718 10713 10712 10709 ] final   98.65 input   66.30 | X-H torsion
[ 10763 10752 10751 10750 ] final  -78.64 input  -60.55 | X-H torsion
[ 11005 11000 10999 10996 ] final  154.08 input  -57.11 | X-H torsion

> <Gold.Protein.ActiveResidues>
 VAL166  LYS551  ARG553  GLY616  TRP617  ASP618  TYR619  PRO620  LYS621  CYS622 
 ASP623  PHE694  ASN695  SER759  ASP760  ASP761  ALA762  ILE779  LEU786  VAL792 
 PHE793  MET794  SER795  GLU796  ALA797  LYS798  CYS799  TRP800  GLU811  SER814 

> <Gold.Protein.RotatedAtoms>
  150.6883  134.3480  159.4896 H   0  0  0  0  0  0  0  0  0  0  0  0  # atno 6907 bound_to 6896
  152.1325  134.9122  160.0567 H   0  0  0  0  0  0  0  0  0  0  0  0  # atno 6908 bound_to 6896
  152.0286  133.3893  159.4325 H   0  0  0  0  0  0  0  0  0  0  0  0  # atno 6909 bound_to 6896
  146.0693  140.6234  142.8960 H   0  0  0  0  0  0  0  0  0  0  0  0  # atno 7974 bound_to 7965
  155.6151  140.0675  157.2695 H   0  0  0  0  0  0  0  0  0  0  0  0  # atno 8008 bound_to 7997
  154.4243  140.1794  156.1361 H   0  0  0  0  0  0  0  0  0  0  0  0  # atno 8009 bound_to 7997
  156.0054  140.3332  155.6891 H   0  0  0  0  0  0  0  0  0  0  0  0  # atno 8010 bound_to 7997
  140.5937  143.8744  150.6898 H   0  0  0  0  0  0  0  0  0  0  0  0  # atno 10167 bound_to 10162
  157.6891  131.0646  150.4828 H   0  0  0  0  0  0  0  0  0  0  0  0  # atno 10718 bound_to 10713
  154.5285  135.5723  153.6739 H   0  0  0  0  0  0  0  0  0  0  0  0  # atno 10763 bound_to 10752
  152.9933  135.6199  154.2661 H   0  0  0  0  0  0  0  0  0  0  0  0  # atno 10764 bound_to 10752
  154.2586  135.2857  155.2767 H   0  0  0  0  0  0  0  0  0  0  0  0  # atno 10765 bound_to 10752
  140.1456  134.8709  157.2388 H   0  0  0  0  0  0  0  0  0  0  0  0  # atno 11005 bound_to 11000
  144.7222  140.4409  143.7000 LP  0  0  0  0  0  0  0  0  0  0  0  0  # atno 17320 bound_to 7965
  145.6420  139.1551  143.2910 LP  0  0  0  0  0  0  0  0  0  0  0  0  # atno 17321 bound_to 7965
  140.2273  143.3762  152.1594 LP  0  0  0  0  0  0  0  0  0  0  0  0  # atno 17342 bound_to 10162
  139.5244  144.7083  151.5285 LP  0  0  0  0  0  0  0  0  0  0  0  0  # atno 17343 bound_to 10162
  156.5159  130.4150  149.6276 LP  0  0  0  0  0  0  0  0  0  0  0  0  # atno 17370 bound_to 10713
  156.3198  130.7274  151.2184 LP  0  0  0  0  0  0  0  0  0  0  0  0  # atno 17371 bound_to 10713
  140.2667  134.3507  155.7387 LP  0  0  0  0  0  0  0  0  0  0  0  0  # atno 17394 bound_to 11000
  141.2192  133.7400  156.9162 LP  0  0  0  0  0  0  0  0  0  0  0  0  # atno 17395 bound_to 11000

$$$$
