AV-unprocessed.smi:843|AV-procd|sdf|3921|dock2
  -GOLD-   22720 1383D 1   1.00000     0.00000
 Structure written by MMmdl.
 46 47  0  0  0  0  0  0  0  0  2 V2000
  146.3025  129.5211  152.5967 C   0  0  0  0  0  0  0  0  0  0  0  0
  145.5392  130.1633  151.4292 C   0  0  0  0  0  0  0  0  0  0  0  0
  145.3292  131.6211  151.6170 N   0  3  2  0  0  0  0  0  0  0  0  0
  144.6290  132.2385  150.4620 C   0  0  0  0  0  0  0  0  0  0  0  0
  144.2982  133.7156  150.7325 C   0  0  0  0  0  0  0  0  0  0  0  0
  145.5613  134.5273  151.0841 C   0  0  1  0  0  0  0  0  0  0  0  0
  145.2634  136.0031  151.4251 C   0  0  0  0  0  0  0  0  0  0  0  0
  146.4492  136.7313  151.8687 N   0  0  0  0  0  0  0  0  0  0  0  0
  146.4468  137.9265  152.4766 C   0  0  0  0  0  0  0  0  0  0  0  0
  145.4206  138.5668  152.7020 O   0  0  0  0  0  0  0  0  0  0  0  0
  147.6977  138.3133  152.7807 N   0  0  0  0  0  0  0  0  0  0  0  0
  148.1569  139.5062  153.4095 C   0  0  0  0  0  0  0  0  0  0  0  0
  147.4202  140.7154  153.4728 C   0  0  0  0  0  0  0  0  0  0  0  0
  147.9832  141.8261  154.1282 C   0  0  0  0  0  0  0  0  0  0  0  0
  149.2605  141.6912  154.7008 C   0  0  0  0  0  0  0  0  0  0  0  0
  149.9719  140.5467  154.6548 N   0  0  0  0  0  0  0  0  0  0  0  0
  149.4315  139.4739  154.0241 C   0  0  0  0  0  0  0  0  0  0  0  0
  150.1621  138.3011  153.9841 O   0  0  0  0  0  0  0  0  0  0  0  0
  151.4783  138.3003  154.5265 C   0  0  0  0  0  0  0  0  0  0  0  0
  146.2843  133.8352  152.2531 C   0  0  0  0  0  0  0  0  0  0  0  0
  146.5776  132.3574  151.9468 C   0  0  0  0  0  0  0  0  0  0  0  0
  146.3534  128.4394  152.4705 H   0  0  0  0  0  0  0  0  0  0  0  0
  145.8077  129.7186  153.5482 H   0  0  0  0  0  0  0  0  0  0  0  0
  147.3273  129.8846  152.6676 H   0  0  0  0  0  0  0  0  0  0  0  0
  146.0515  129.9763  150.4843 H   0  0  0  0  0  0  0  0  0  0  0  0
  144.5697  129.6687  151.3569 H   0  0  0  0  0  0  0  0  0  0  0  0
  145.2490  132.1488  149.5687 H   0  0  0  0  0  0  0  0  0  0  0  0
  143.7029  131.6989  150.2603 H   0  0  0  0  0  0  0  0  0  0  0  0
  143.8110  134.1316  149.8506 H   0  0  0  0  0  0  0  0  0  0  0  0
  143.5753  133.7859  151.5466 H   0  0  0  0  0  0  0  0  0  0  0  0
  146.2278  134.5097  150.2201 H   0  0  0  0  0  0  0  0  0  0  0  0
  144.7944  136.5041  150.5764 H   0  0  0  0  0  0  0  0  0  0  0  0
  144.5376  136.0489  152.2375 H   0  0  0  0  0  0  0  0  0  0  0  0
  147.3398  136.2791  151.7207 H   0  0  0  0  0  0  0  0  0  0  0  0
  148.4305  137.6762  152.5042 H   0  0  0  0  0  0  0  0  0  0  0  0
  146.4375  140.8227  153.0437 H   0  0  0  0  0  0  0  0  0  0  0  0
  147.4451  142.7603  154.1925 H   0  0  0  0  0  0  0  0  0  0  0  0
  149.7218  142.5232  155.2119 H   0  0  0  0  0  0  0  0  0  0  0  0
  151.9075  137.3032  154.4283 H   0  0  0  0  0  0  0  0  0  0  0  0
  151.4741  138.5545  155.5877 H   0  0  0  0  0  0  0  0  0  0  0  0
  152.1293  138.9951  153.9940 H   0  0  0  0  0  0  0  0  0  0  0  0
  147.2189  134.3532  152.4716 H   0  0  0  0  0  0  0  0  0  0  0  0
  145.6766  133.9038  153.1568 H   0  0  0  0  0  0  0  0  0  0  0  0
  147.0629  131.9112  152.8138 H   0  0  0  0  0  0  0  0  0  0  0  0
  147.2805  132.2789  151.1157 H   0  0  0  0  0  0  0  0  0  0  0  0
  144.7095  131.7212  152.4084 H   0  0  0  0  0  0  0  0  0  0  0  0
  1  2  1  0  0  0  0
  1 22  1  0  0  0  0
  1 23  1  0  0  0  0
  1 24  1  0  0  0  0
  2  3  1  0  0  0  0
  2 25  1  0  0  0  0
  2 26  1  0  0  0  0
  3 21  1  0  0  0  0
  3  4  1  0  0  0  0
  3 46  1  0  0  0  0
  4  5  1  0  0  0  0
  4 27  1  0  0  0  0
  4 28  1  0  0  0  0
  5  6  1  0  0  0  0
  5 29  1  0  0  0  0
  5 30  1  0  0  0  0
  6  7  1  0  0  0  0
  6 20  1  0  0  0  0
  6 31  1  0  0  0  0
  7  8  1  0  0  0  0
  7 32  1  0  0  0  0
  7 33  1  0  0  0  0
  8  9  1  0  0  0  0
  8 34  1  0  0  0  0
  9 10  2  0  0  0  0
  9 11  1  0  0  0  0
 11 12  1  0  0  0  0
 11 35  1  0  0  0  0
 12 17  1  0  0  0  0
 12 13  2  0  0  0  0
 13 14  1  0  0  0  0
 13 36  1  0  0  0  0
 14 15  2  0  0  0  0
 14 37  1  0  0  0  0
 15 16  1  0  0  0  0
 15 38  1  0  0  0  0
 16 17  2  0  0  0  0
 17 18  1  0  0  0  0
 18 19  1  0  0  0  0
 19 39  1  0  0  0  0
 19 40  1  0  0  0  0
 19 41  1  0  0  0  0
 20 21  1  0  0  0  0
 20 42  1  0  0  0  0
 20 43  1  0  0  0  0
 21 44  1  0  0  0  0
 21 45  1  0  0  0  0
M  CHG  1   3   1
M  END
> <s_m_source_file>
AV-unprocessed.smi

> <i_m_source_file_index>
843

> <i_lp_mmshare_version>
43012

> <i_f3d_flags>
0

> <s_epik_input>
W0NIM11bQ0gyXU4xW0NIMl1bQ0gyXVtDSF0oW0NIMl1bQ0gyXTEpW0NIMl1bTkhdQyg9TylbTkhdYzJbY0hdW2NIXVtjSF1uYzJPW0NIM10=

> <s_epik_cmdline>
J2VwaWtfcHl0aG9uJywgJy1waCcsICc3LjAnLCAnLXRuJywgJzgnLCAnLW1hJywgJzIwMCcsICctbWV0YWxfYmluZGluZycsICctaW1hZScsICc8aW5maWxlLm1hZT4nLCAnLW9tYWUnLCAnPG91dGZpbGUubWFlPic=

> <r_lp_tautomer_probability>
1

> <r_epik_Ionization_Penalty>
0.00115026

> <r_epik_Ionization_Penalty_Charging>
0.00106265

> <r_epik_Ionization_Penalty_Neutral>
8.76119e-05

> <r_epik_State_Penalty>
0.000695551

> <r_epik_Charging_Adjusted_Penalty>
0.0017582

> <i_epik_Tot_Q>
1

> <i_epik_Tot_abs_Q>
1

> <r_epik_Metal_State_Penalty>
-0

> <b_epik_Metal_Only>
0

> <s_lp_Force_Field>
OPLS_2005

> <r_lp_Energy>
20.0446

> <b_lp_Chiralities_Consistent>
1

> <s_lp_Variant>
AV-unprocessed.smi:843-1

> <Gold.Version>
5.8.1

> <Gold.Id.Protein>
6NUR|6NUR_protein|mol2

> <Gold.PLP.Fitness>
48.1997

> <Gold.PLP.PLP>
-37.0683

> <Gold.PLP.part.hbond>
-3.9969

> <Gold.PLP.part.metal>
0.0000

> <Gold.PLP.part.buried>
-0.0315

> <Gold.PLP.part.nonpolar>
-36.8356

> <Gold.PLP.part.repulsive>
4.1390

> <Gold.PLP.ligand.clash>
0.0000

> <Gold.PLP.ligand.torsion>
0.2418

> <Gold.PLP.Chemscore.Hbond>
2.8640

> <Gold.PLP.Chemscore.CHOScore>
0.9974

> <Gold.PLP.Chemscore.Metal>
0.0000

> <Gold.Chemscore.Hbonds>
donor molecule, donor type, donor heavy atom, donor atom, acceptor molecule, acceptor atom, score
      L1  H     8    34       P1  7948  1.00
      L1  H    11    35       P1  7948  1.00
      P1  H  7989  7998       L1    16  0.84
      L1  C    15    38       P1  8028  1.00

> <Gold.PLP.Chemscore.Internal.Correction>
0.0307

> <Gold.Rescore>
     Score         DG    S(hbond)    S(metal)    S(lipo)     H(rot)  DE(clash)    DE(int)     intcor
     15.76     -18.69       1.99        0.00      92.12       1.65       1.74       1.19       ----

> <Gold.Chemscore.Fitness>
15.7556

> <Gold.Chemscore.DG>
-18.6900

> <Gold.Chemscore.ZeroCoef>
-5.4800

> <Gold.Chemscore.Hbond>
1.9920

> <Gold.Chemscore.Metal>
0.0000

> <Gold.Chemscore.Lipo>
92.1250

> <Gold.Chemscore.Internal_Hbond>
0.0000

> <Gold.Chemscore.DEClash>
1.7415

> <Gold.Chemscore.DEInternal>
1.1929

> <Gold.Chemscore.Rot>
1.6492

> <Gold.Chemscore.Internal.Correction>
   9.000000E+99

> <Gold.Chemscore.Hbonds>
donor molecule, donor type, donor heavy atom, donor atom, acceptor molecule, acceptor atom, score
      L1  H     8    34       P1  7948  0.95
      L1  H    11    35       P1  7948  0.97
      P1  H  7989  7998       L1    16  0.14

> <Gold.Chemscore.Hbond.Weighted>
-6.6532

> <Gold.Chemscore.Metal.Weighted>
-0.0000

> <Gold.Chemscore.Lipo.Weighted>
-10.7786

> <Gold.Chemscore.Internal_Hbond.Weighted>
0.0000

> <Gold.Chemscore.DEClash.Weighted>
1.7415

> <Gold.Chemscore.DEInternal.Weighted>
1.1929

> <Gold.Chemscore.Rot.Weighted>
4.2219

> <Gold.Chemscore.Internal.Correction.Weighted>
   9.000000E+99

> <Gold.Protein.RotatedTorsions>
[ 6907 6896 6895 6894 ] final   61.81 input  -60.11 | X-H torsion
[ 7974 7965 7964 7962 ] final -134.81 input  175.53 | X-H torsion
[ 8008 7997 7996 7995 ] final   91.10 input   59.86 | X-H torsion
[ 10167 10162 10161 10158 ] final  -35.58 input  -65.29 | X-H torsion
[ 10718 10713 10712 10709 ] final  -48.94 input   66.30 | X-H torsion
[ 10763 10752 10751 10750 ] final -157.61 input  -60.55 | X-H torsion
[ 11005 11000 10999 10996 ] final  143.87 input  -57.11 | X-H torsion

> <Gold.Protein.ActiveResidues>
 VAL166  LYS551  ARG553  GLY616  TRP617  ASP618  TYR619  PRO620  LYS621  CYS622 
 ASP623  PHE694  ASN695  SER759  ASP760  ASP761  ALA762  ILE779  LEU786  VAL792 
 PHE793  MET794  SER795  GLU796  ALA797  LYS798  CYS799  TRP800  GLU811  SER814 

> <Gold.Protein.RotatedAtoms>
  152.4120  134.6107  160.0024 H   0  0  0  0  0  0  0  0  0  0  0  0  # atno 6907 bound_to 6896
  151.6282  133.3328  159.3111 H   0  0  0  0  0  0  0  0  0  0  0  0  # atno 6908 bound_to 6896
  150.8011  134.7145  159.6667 H   0  0  0  0  0  0  0  0  0  0  0  0  # atno 6909 bound_to 6896
  144.9069  140.6845  143.5049 H   0  0  0  0  0  0  0  0  0  0  0  0  # atno 7974 bound_to 7965
  156.0198  140.3341  155.7027 H   0  0  0  0  0  0  0  0  0  0  0  0  # atno 8008 bound_to 7997
  155.6038  140.0658  157.2743 H   0  0  0  0  0  0  0  0  0  0  0  0  # atno 8009 bound_to 7997
  154.4312  140.1805  156.1189 H   0  0  0  0  0  0  0  0  0  0  0  0  # atno 8010 bound_to 7997
  140.7162  143.3468  151.2240 H   0  0  0  0  0  0  0  0  0  0  0  0  # atno 10167 bound_to 10162
  156.1940  130.4154  149.9332 H   0  0  0  0  0  0  0  0  0  0  0  0  # atno 10718 bound_to 10713
  154.7622  135.3121  154.8356 H   0  0  0  0  0  0  0  0  0  0  0  0  # atno 10763 bound_to 10752
  153.9113  135.6805  153.4755 H   0  0  0  0  0  0  0  0  0  0  0  0  # atno 10764 bound_to 10752
  153.1224  135.4816  154.9149 H   0  0  0  0  0  0  0  0  0  0  0  0  # atno 10765 bound_to 10752
  140.0588  134.9216  157.1147 H   0  0  0  0  0  0  0  0  0  0  0  0  # atno 11005 bound_to 11000
  145.3520  139.1704  143.4429 LP  0  0  0  0  0  0  0  0  0  0  0  0  # atno 17320 bound_to 7965
  146.3138  140.3573  142.8661 LP  0  0  0  0  0  0  0  0  0  0  0  0  # atno 17321 bound_to 7965
  139.6989  143.9566  152.2896 LP  0  0  0  0  0  0  0  0  0  0  0  0  # atno 17342 bound_to 10162
  139.9253  144.6775  150.8419 LP  0  0  0  0  0  0  0  0  0  0  0  0  # atno 17343 bound_to 10162
  156.7063  130.8953  151.3605 LP  0  0  0  0  0  0  0  0  0  0  0  0  # atno 17370 bound_to 10713
  157.6946  130.9269  150.0609 LP  0  0  0  0  0  0  0  0  0  0  0  0  # atno 17371 bound_to 10713
  140.3803  134.2294  155.7171 LP  0  0  0  0  0  0  0  0  0  0  0  0  # atno 17394 bound_to 11000
  141.1964  133.8084  157.0675 LP  0  0  0  0  0  0  0  0  0  0  0  0  # atno 17395 bound_to 11000

$$$$
