AV-unprocessed.smi:1464|AV-procd|sdf|5946|dock5
  -GOLD-   22720 6 23D 1   1.00000     0.00000
 Structure written by MMmdl.
 41 42  0  0  0  0  0  0  0  0  1 V2000
  151.9720  144.0339  161.4615 C   0  0  0  0  0  0  0  0  0  0  0  0
  151.8511  144.7960  160.1258 C   0  0  1  0  0  0  0  0  0  0  0  0
  152.9290  144.3490  159.1172 C   0  0  0  0  0  0  0  0  0  0  0  0
  152.6450  142.9508  158.5466 C   0  0  0  0  0  0  0  0  0  0  0  0
  151.2519  142.8871  157.9061 C   0  0  0  0  0  0  0  0  0  0  0  0
  150.1446  143.3235  158.8885 C   0  0  2  0  0  0  0  0  0  0  0  0
  148.8543  143.3230  158.2018 N   0  0  0  0  0  0  0  0  0  0  0  0
  148.1339  142.2324  157.8989 C   0  0  0  0  0  0  0  0  0  0  0  0
  148.5033  141.0858  158.1572 O   0  0  0  0  0  0  0  0  0  0  0  0
  146.8044  142.4880  157.1743 C   0  0  0  0  0  0  0  0  0  0  0  0
  146.8979  142.3448  155.7143 N   0  0  0  0  0  0  0  0  0  0  0  0
  148.1236  141.8737  155.2686 N   0  0  0  0  0  0  0  0  0  0  0  0
  148.3236  141.6891  154.0075 C   0  0  0  0  0  0  0  0  0  0  0  0
  149.5504  141.2170  153.6095 O   0  0  0  0  0  0  0  0  0  0  0  0
  147.2889  141.9703  153.0363 C   0  0  0  0  0  0  0  0  0  0  0  0
  146.1001  142.4348  153.4798 C   0  0  0  0  0  0  0  0  0  0  0  0
  145.8394  142.6544  154.9037 C   0  0  0  0  0  0  0  0  0  0  0  0
  144.7669  143.0774  155.3352 O   0  0  0  0  0  0  0  0  0  0  0  0
  150.4412  144.7266  159.4791 C   0  0  1  0  0  0  0  0  0  0  0  0
  149.3342  145.2242  160.4300 C   0  0  0  0  0  0  0  0  0  0  0  0
  149.3662  140.5173  153.0022 H   0  0  0  0  0  0  0  0  0  0  0  0
  151.7281  142.9771  161.3574 H   0  0  0  0  0  0  0  0  0  0  0  0
  151.3128  144.4517  162.2222 H   0  0  0  0  0  0  0  0  0  0  0  0
  152.9872  144.0981  161.8538 H   0  0  0  0  0  0  0  0  0  0  0  0
  152.0525  145.8436  160.3547 H   0  0  0  0  0  0  0  0  0  0  0  0
  152.9703  145.0652  158.2954 H   0  0  0  0  0  0  0  0  0  0  0  0
  153.9152  144.3688  159.5823 H   0  0  0  0  0  0  0  0  0  0  0  0
  153.4026  142.6934  157.8059 H   0  0  0  0  0  0  0  0  0  0  0  0
  152.7228  142.2013  159.3345 H   0  0  0  0  0  0  0  0  0  0  0  0
  151.2343  143.5290  157.0239 H   0  0  0  0  0  0  0  0  0  0  0  0
  151.0628  141.8731  157.5512 H   0  0  0  0  0  0  0  0  0  0  0  0
  150.1025  142.6075  159.7109 H   0  0  0  0  0  0  0  0  0  0  0  0
  148.4767  144.2240  157.9467 H   0  0  0  0  0  0  0  0  0  0  0  0
  146.0397  141.8138  157.5652 H   0  0  0  0  0  0  0  0  0  0  0  0
  146.4681  143.4934  157.4338 H   0  0  0  0  0  0  0  0  0  0  0  0
  147.4707  141.8107  151.9837 H   0  0  0  0  0  0  0  0  0  0  0  0
  145.3185  142.6493  152.7658 H   0  0  0  0  0  0  0  0  0  0  0  0
  150.4559  145.4265  158.6418 H   0  0  0  0  0  0  0  0  0  0  0  0
  149.1567  144.5200  161.2430 H   0  0  0  0  0  0  0  0  0  0  0  0
  148.3880  145.3612  159.9061 H   0  0  0  0  0  0  0  0  0  0  0  0
  149.5985  146.1856  160.8710 H   0  0  0  0  0  0  0  0  0  0  0  0
  1  2  1  0  0  0  0
  1 22  1  0  0  0  0
  1 23  1  0  0  0  0
  1 24  1  0  0  0  0
  2 19  1  0  0  0  0
  2  3  1  0  0  0  0
  2 25  1  0  0  0  0
  3  4  1  0  0  0  0
  3 26  1  0  0  0  0
  3 27  1  0  0  0  0
  4  5  1  0  0  0  0
  4 28  1  0  0  0  0
  4 29  1  0  0  0  0
  5  6  1  0  0  0  0
  5 30  1  0  0  0  0
  5 31  1  0  0  0  0
  6  7  1  0  0  0  0
  6 19  1  0  0  0  0
  6 32  1  0  0  0  0
  7  8  1  0  0  0  0
  7 33  1  0  0  0  0
  8  9  2  0  0  0  0
  8 10  1  0  0  0  0
 10 34  1  0  0  0  0
 10 35  1  0  0  0  0
 10 11  1  0  0  0  0
 11 12  1  0  0  0  0
 11 17  1  0  0  0  0
 12 13  2  0  0  0  0
 13 14  1  0  0  0  0
 13 15  1  0  0  0  0
 14 21  1  0  0  0  0
 15 36  1  0  0  0  0
 15 16  2  0  0  0  0
 16 37  1  0  0  0  0
 16 17  1  0  0  0  0
 17 18  2  0  0  0  0
 19 20  1  0  0  0  0
 19 38  1  0  0  0  0
 20 39  1  0  0  0  0
 20 40  1  0  0  0  0
 20 41  1  0  0  0  0
M  END
> <s_m_source_file>
AV-unprocessed.smi

> <i_m_source_file_index>
1464

> <i_lp_mmshare_version>
43012

> <i_f3d_flags>
0

> <s_epik_input>
W0NIM11bQ0BASF0xW0NIMl1bQ0gyXVtDSDJdW0NASF0oW0NASF0xW0NIM10pW05IXUMoPU8pW0NIMl1uMltuSF1jKD1PKVtjSF1bY0hdYzI9Tw==

> <s_epik_cmdline>
J2VwaWtfcHl0aG9uJywgJy1waCcsICc3LjAnLCAnLXRuJywgJzgnLCAnLW1hJywgJzIwMCcsICctbWV0YWxfYmluZGluZycsICctaW1hZScsICc8aW5maWxlLm1hZT4nLCAnLW9tYWUnLCAnPG91dGZpbGUubWFlPic=

> <r_lp_tautomer_probability>
0.9996

> <r_epik_Ionization_Penalty>
2.10335

> <r_epik_Ionization_Penalty_Charging>
3.98079e-08

> <r_epik_Ionization_Penalty_Neutral>
2.10335

> <r_epik_State_Penalty>
1.67957

> <r_epik_Charging_Adjusted_Penalty>
1.67957

> <i_epik_Tot_Q>
0

> <i_epik_Tot_abs_Q>
0

> <r_epik_Metal_State_Penalty>
1.67957

> <b_epik_Metal_Only>
0

> <s_lp_Force_Field>
OPLS_2005

> <r_lp_Energy>
23.4663

> <b_lp_Chiralities_Consistent>
1

> <s_lp_Variant>
AV-unprocessed.smi:1464-12

> <Gold.Version>
5.8.1

> <Gold.Id.Protein>
6NUR|6NUR_protein|mol2

> <Gold.PLP.Fitness>
43.3779

> <Gold.PLP.PLP>
-37.7254

> <Gold.PLP.part.hbond>
-5.8986

> <Gold.PLP.part.metal>
0.0000

> <Gold.PLP.part.buried>
-4.0708

> <Gold.PLP.part.nonpolar>
-28.1014

> <Gold.PLP.part.repulsive>
0.8953

> <Gold.PLP.ligand.clash>
0.0000

> <Gold.PLP.ligand.torsion>
0.5995

> <Gold.PLP.Chemscore.Hbond>
2.2809

> <Gold.PLP.Chemscore.CHOScore>
0.0000

> <Gold.PLP.Chemscore.Metal>
0.0000

> <Gold.Chemscore.Hbonds>
donor molecule, donor type, donor heavy atom, donor atom, acceptor molecule, acceptor atom, score
      L1  H     7    33       P1  8029  0.70
      L1  H    14    21       P1  7957  0.82
      P1  H  7989  7998       L1    14  0.11
      P1  H  8011  8017       L1    14  0.53

> <Gold.PLP.Chemscore.Internal.Correction>
0.0087

> <Gold.Rescore>
     Score         DG    S(hbond)    S(metal)    S(lipo)     H(rot)  DE(clash)    DE(int)     intcor
     11.46     -14.83       1.04        0.00      98.82       2.22       1.96       1.41       ----

> <Gold.Chemscore.Fitness>
11.4594

> <Gold.Chemscore.DG>
-14.8338

> <Gold.Chemscore.ZeroCoef>
-5.4800

> <Gold.Chemscore.Hbond>
1.0422

> <Gold.Chemscore.Metal>
0.0000

> <Gold.Chemscore.Lipo>
98.8214

> <Gold.Chemscore.Internal_Hbond>
0.0000

> <Gold.Chemscore.DEClash>
1.9599

> <Gold.Chemscore.DEInternal>
1.4145

> <Gold.Chemscore.Rot>
2.2224

> <Gold.Chemscore.Internal.Correction>
   9.000000E+99

> <Gold.Chemscore.Hbonds>
donor molecule, donor type, donor heavy atom, donor atom, acceptor molecule, acceptor atom, score
      L1  H     7    33       P1  8029  0.07
      L1  H    14    21       P1  7957  0.79
      P1  H  7989  7998       L1    14  0.01
      P1  H  8011  8017       L1    14  0.01

> <Gold.Chemscore.Hbond.Weighted>
-3.4810

> <Gold.Chemscore.Metal.Weighted>
-0.0000

> <Gold.Chemscore.Lipo.Weighted>
-11.5621

> <Gold.Chemscore.Internal_Hbond.Weighted>
0.0000

> <Gold.Chemscore.DEClash.Weighted>
1.9599

> <Gold.Chemscore.DEInternal.Weighted>
1.4145

> <Gold.Chemscore.Rot.Weighted>
5.6893

> <Gold.Chemscore.Internal.Correction.Weighted>
   9.000000E+99

> <Gold.Protein.RotatedTorsions>
[ 6907 6896 6895 6894 ] final -163.32 input  -60.11 | X-H torsion
[ 7974 7965 7964 7962 ] final  105.93 input  175.53 | X-H torsion
[ 8008 7997 7996 7995 ] final -146.65 input   59.86 | X-H torsion
[ 10167 10162 10161 10158 ] final   28.20 input  -65.29 | X-H torsion
[ 10718 10713 10712 10709 ] final  166.59 input   66.30 | X-H torsion
[ 10763 10752 10751 10750 ] final  -81.91 input  -60.55 | X-H torsion
[ 11005 11000 10999 10996 ] final -104.22 input  -57.11 | X-H torsion

> <Gold.Protein.ActiveResidues>
 VAL166  LYS551  ARG553  GLY616  TRP617  ASP618  TYR619  PRO620  LYS621  CYS622 
 ASP623  PHE694  ASN695  SER759  ASP760  ASP761  ALA762  ILE779  LEU786  VAL792 
 PHE793  MET794  SER795  GLU796  ALA797  LYS798  CYS799  TRP800  GLU811  SER814 

> <Gold.Protein.RotatedAtoms>
  151.3941  133.3779  159.2724 H   0  0  0  0  0  0  0  0  0  0  0  0  # atno 6907 bound_to 6896
  150.9482  134.8886  159.7666 H   0  0  0  0  0  0  0  0  0  0  0  0  # atno 6908 bound_to 6896
  152.5101  134.3895  159.9431 H   0  0  0  0  0  0  0  0  0  0  0  0  # atno 6909 bound_to 6896
  145.3132  139.2534  143.3751 H   0  0  0  0  0  0  0  0  0  0  0  0  # atno 7974 bound_to 7965
  155.5629  140.0627  157.2824 H   0  0  0  0  0  0  0  0  0  0  0  0  # atno 8008 bound_to 7997
  154.4385  140.1882  156.0846 H   0  0  0  0  0  0  0  0  0  0  0  0  # atno 8009 bound_to 7997
  156.0433  140.3293  155.7272 H   0  0  0  0  0  0  0  0  0  0  0  0  # atno 8010 bound_to 7997
  140.4873  144.0522  150.6285 H   0  0  0  0  0  0  0  0  0  0  0  0  # atno 10167 bound_to 10162
  157.0637  131.0347  151.2637 H   0  0  0  0  0  0  0  0  0  0  0  0  # atno 10718 bound_to 10713
  154.5694  135.5609  153.7081 H   0  0  0  0  0  0  0  0  0  0  0  0  # atno 10763 bound_to 10752
  153.0043  135.6293  154.2135 H   0  0  0  0  0  0  0  0  0  0  0  0  # atno 10764 bound_to 10752
  154.2075  135.2875  155.2950 H   0  0  0  0  0  0  0  0  0  0  0  0  # atno 10765 bound_to 10752
  141.1110  133.8705  157.1584 H   0  0  0  0  0  0  0  0  0  0  0  0  # atno 11005 bound_to 11000
  146.3110  140.3673  142.8670 LP  0  0  0  0  0  0  0  0  0  0  0  0  # atno 17320 bound_to 7965
  144.8999  140.7629  143.5874 LP  0  0  0  0  0  0  0  0  0  0  0  0  # atno 17321 bound_to 7965
  140.3781  143.2818  152.0202 LP  0  0  0  0  0  0  0  0  0  0  0  0  # atno 17342 bound_to 10162
  139.4844  144.6177  151.7315 LP  0  0  0  0  0  0  0  0  0  0  0  0  # atno 17343 bound_to 10162
  157.4934  130.7836  149.7531 LP  0  0  0  0  0  0  0  0  0  0  0  0  # atno 17370 bound_to 10713
  155.9971  130.3902  150.2754 LP  0  0  0  0  0  0  0  0  0  0  0  0  # atno 17371 bound_to 10713
  140.0004  135.0030  157.0178 LP  0  0  0  0  0  0  0  0  0  0  0  0  # atno 17394 bound_to 11000
  140.4774  134.1324  155.7212 LP  0  0  0  0  0  0  0  0  0  0  0  0  # atno 17395 bound_to 11000

$$$$
