#       Name:                AV-unprocessed.smi:281
#       Creating user name   scv26
#       Creation time:       Thu Mar 26 21:39:36 2020


#       File generated by GOLD software.
#

@<TRIPOS>MOLECULE
AV-unprocessed.smi:281
    67    71     1
SMALL
NO_CHARGES


@<TRIPOS>ATOM
      1 ****        -4.2169  -2.5137  -1.8808 C.3            1 S1                 0.0000
      2 ****        -3.5563  -1.8795  -0.6530 C.3            1 S1                 0.0000
      3 ****        -2.0227  -1.9092  -0.7389 C.3            1 S1                 0.0000
      4 ****        -1.4642  -1.2255   0.4163 N.3            1 S1                 0.0000
      5 ****        -0.1278  -1.3564   0.5427 C.ar           1 S1                 0.0000
      6 ****         0.3240  -2.0434   1.6197 N.ar           1 S1                 0.0000
      7 ****         1.6380  -2.1990   1.8079 C.ar           1 S1                 0.0000
      8 ****         2.6482  -1.7536   1.0571 N.ar           1 S1                 0.0000
      9 ****         2.1940  -1.0606  -0.0268 C.ar           1 S1                 0.0000
     10 ****         0.8319  -0.8210  -0.3620 C.ar           1 S1                 0.0000
     11 ****         0.7550  -0.0878  -1.5399 N.2            1 S1                 0.0000
     12 ****         2.0011   0.0992  -1.8794 C.2            1 S1                 0.0000
     13 ****         2.9319  -0.4406  -1.0200 N.pl3          1 S1                 0.0000
     14 ****         4.3796  -0.3712  -1.1445 C.3            1 S1                 0.0000
     15 ****         4.9947   0.8728  -0.4612 C.3            1 S1                 0.0000
     16 ****         4.7260   0.8203   0.9291 O.3            1 S1                 0.0000
     17 ****         4.4751   2.2021  -1.0051 C.3            1 S1                 0.0000
     18 ****         5.6869   3.1163  -0.8937 C.3            1 S1                 0.0000
     19 ****         6.7526   2.2551  -1.2546 O.3            1 S1                 0.0000
     20 ****         6.5200   0.9837  -0.6582 C.3            1 S1                 0.0000
     21 ****        -1.9332   0.1478   0.5305 C.3            1 S1                 0.0000
     22 ****        -3.4811   0.2060   0.5552 C.3            1 S1                 0.0000
     23 ****        -3.9585   1.6452   0.4500 C.3            1 S1                 0.0000
     24 ****        -3.8573   2.1399   1.8882 C.3            1 S1                 0.0000
     25 ****        -4.0876   0.9962   2.7045 O.3            1 S1                 0.0000
     26 ****        -4.0815  -0.1978   1.9219 C.3            1 S1                 0.0000
     27 ****        -5.5454  -0.6762   1.8746 C.3            1 S1                 0.0000
     28 ****        -4.0047  -0.5255  -0.5590 O.3            1 S1                 0.0000
     29 ****        -3.9178  -3.5560  -1.9936 H              1 S1                 0.0000
     30 ****        -3.9425  -1.9844  -2.7940 H              1 S1                 0.0000
     31 ****        -5.3034  -2.4871  -1.7939 H              1 S1                 0.0000
     32 ****        -3.8689  -2.4350   0.2311 H              1 S1                 0.0000
     33 ****        -1.6671  -2.9402  -0.7675 H              1 S1                 0.0000
     34 ****        -1.6889  -1.4241  -1.6570 H              1 S1                 0.0000
     35 ****         1.9210  -2.7580   2.6875 H              1 S1                 0.0000
     36 ****         2.2766   0.6463  -2.7692 H              1 S1                 0.0000
     37 ****         4.8070  -1.2834  -0.7257 H              1 S1                 0.0000
     38 ****         4.6287  -0.3773  -2.2066 H              1 S1                 0.0000
     39 ****         5.1330   1.5664   1.3421 H              1 S1                 0.0000
     40 ****         4.2130   2.1023  -2.0591 H              1 S1                 0.0000
     41 ****         3.5981   2.5830  -0.4797 H              1 S1                 0.0000
     42 ****         5.6261   3.9818  -1.5539 H              1 S1                 0.0000
     43 ****         5.8233   3.4675   0.1302 H              1 S1                 0.0000
     44 ****         7.0604   0.9264   0.2883 H              1 S1                 0.0000
     45 ****         6.9165   0.2017  -1.3066 H              1 S1                 0.0000
     46 ****        -1.5152   0.6057   1.4281 H              1 S1                 0.0000
     47 ****        -1.5615   0.7202  -0.3202 H              1 S1                 0.0000
     48 ****        -3.3804   2.2490  -0.2502 H              1 S1                 0.0000
     49 ****        -4.9995   1.6747   0.1258 H              1 S1                 0.0000
     50 ****        -2.8567   2.5218   2.0942 H              1 S1                 0.0000
     51 ****        -4.5723   2.9338   2.1048 H              1 S1                 0.0000
     52 ****        -3.4748  -0.9594   2.4130 H              1 S1                 0.0000
     53 ****        -5.6564  -1.6032   1.3146 H              1 S1                 0.0000
     54 ****        -6.1992   0.0653   1.4159 H              1 S1                 0.0000
     55 ****        -5.9192  -0.8634   2.8815 H              1 S1                 0.0000
     56 ****        -1.8286  -1.7071   1.2133 LP             1 S1                 0.0000
     57 ****        -0.3250  -2.4335   2.2729 LP             1 S1                 0.0000
     58 ****         3.6145  -1.9082   1.2630 LP             1 S1                 0.0000
     59 ****        -0.0662   0.2247  -2.0175 LP             1 S1                 0.0000
     60 ****         5.1004  -0.0236   1.3132 LP             1 S1                 0.0000
     61 ****         3.7382   0.8470   1.0828 LP             1 S1                 0.0000
     62 ****         7.6181   2.6309  -0.9235 LP             1 S1                 0.0000
     63 ****         6.7891   2.1606  -2.2495 LP             1 S1                 0.0000
     64 ****        -4.9761   1.0884   3.1542 LP             1 S1                 0.0000
     65 ****        -3.3682   0.9377   3.3966 LP             1 S1                 0.0000
     66 ****        -5.0020  -0.5327  -0.4851 LP             1 S1                 0.0000
     67 ****        -3.7360  -0.0502  -1.3968 LP             1 S1                 0.0000
@<TRIPOS>BOND
    1    1    2 1     
    2    1   29 1     
    3    1   30 1     
    4    1   31 1     
    5    2   28 1     
    6    2    3 1     
    7    2   32 1     
    8    3    4 1     
    9    3   33 1     
   10    3   34 1     
   11    4    5 1     
   12    4   21 1     
   13    5   10 ar    
   14    5    6 ar    
   15    6    7 ar    
   16    7    8 ar    
   17    7   35 1     
   18    8    9 ar    
   19    9   13 1     
   20    9   10 ar    
   21   10   11 1     
   22   11   12 2     
   23   12   13 1     
   24   12   36 1     
   25   13   14 1     
   26   14   15 1     
   27   14   37 1     
   28   14   38 1     
   29   15   20 1     
   30   15   16 1     
   31   15   17 1     
   32   16   39 1     
   33   17   18 1     
   34   17   40 1     
   35   17   41 1     
   36   18   19 1     
   37   18   42 1     
   38   18   43 1     
   39   19   20 1     
   40   20   44 1     
   41   20   45 1     
   42   21   22 1     
   43   21   46 1     
   44   21   47 1     
   45   22   26 1     
   46   22   23 1     
   47   22   28 1     
   48   23   24 1     
   49   23   48 1     
   50   23   49 1     
   51   24   25 1     
   52   24   50 1     
   53   24   51 1     
   54   25   26 1     
   55   26   27 1     
   56   26   52 1     
   57   27   53 1     
   58   27   54 1     
   59   27   55 1     
   60    4   56 1     
   61    6   57 1     
   62    8   58 1     
   63   11   59 1     
   64   16   60 1     
   65   16   61 1     
   66   19   62 1     
   67   19   63 1     
   68   25   64 1     
   69   25   65 1     
   70   28   66 1     
   71   28   67 1     
@<TRIPOS>SUBSTRUCTURE
      1 S1             1
@<TRIPOS>SET
LONE_PAIRS      STATIC     ATOMS    <user>   **** ""
12 56 57 58 59 60 61 62 63 64 65 66 67
DONOR_HYDROGENS      STATIC     ATOMS    <user>   **** ""
1 39
ATOM$BLUE        STATIC     ATOMS    COLORGROUP SYSTEM
12 56 57 58 59 60 61 62 63 64 65 66 67
ATOM$RED        STATIC     ATOMS    COLORGROUP SYSTEM
1 39
