#       Name:                AV-unprocessed.smi:2923
#       Creating user name   scv26
#       Creation time:       Fri Mar 27 16:10:40 2020


#       File generated by GOLD software.
#

@<TRIPOS>MOLECULE
AV-unprocessed.smi:2923
    51    53     1
SMALL
NO_CHARGES


@<TRIPOS>ATOM
      1 ****        -6.9314   0.3431   0.6531 C.3            1 S1                 0.0000
      2 ****        -6.0769   1.3937   0.1133 N.pl3          1 S1                 0.0000
      3 ****        -6.6539   2.6829  -0.2536 C.3            1 S1                 0.0000
      4 ****        -4.6806   1.1950   0.0159 C.ar           1 S1                 0.0000
      5 ****        -4.0779  -0.0262   0.4082 C.ar           1 S1                 0.0000
      6 ****        -2.6824  -0.1758   0.2960 C.ar           1 S1                 0.0000
      7 ****        -1.9162   0.8968  -0.2151 C.ar           1 S1                 0.0000
      8 ****        -0.5020   0.8788  -0.3529 N.am           1 S1                 0.0000
      9 ****         0.3205  -0.1824  -0.4080 C.2            1 S1                 0.0000
     10 ****        -0.0346  -1.3608  -0.4168 O.2            1 S1                 0.0000
     11 ****         1.6024   0.2015  -0.4686 N.am           1 S1                 0.0000
     12 ****         2.7348  -0.7168  -0.5372 C.3            1 S1                 0.0000
     13 ****         4.0781   0.0150  -0.6817 C.3            1 S1                 0.0000
     14 ****         4.8884  -0.1473  -1.9389 C.3            1 S1                 0.0000
     15 ****         5.8707  -1.2626  -1.5700 C.3            1 S1                 0.0000
     16 ****         5.2452  -1.9500  -0.4887 O.3            1 S1                 0.0000
     17 ****         4.6258  -0.9696   0.3404 C.3            1 S1                 0.0000
     18 ****         3.1962  -1.2805   0.8315 C.3            1 S1                 0.0000
     19 ****         2.7839  -0.5086   2.0933 C.3            1 S1                 0.0000
     20 ****         2.8828  -2.7541   1.0944 C.3            1 S1                 0.0000
     21 ****        -2.6010   2.0752  -0.5695 C.ar           1 S1                 0.0000
     22 ****        -3.9379   2.2227  -0.4637 N.ar           1 S1                 0.0000
     23 ****        -6.6359   0.0943   1.6727 H              1 S1                 0.0000
     24 ****        -6.8661  -0.5559   0.0398 H              1 S1                 0.0000
     25 ****        -7.9761   0.6534   0.6765 H              1 S1                 0.0000
     26 ****        -6.2366   3.4784   0.3645 H              1 S1                 0.0000
     27 ****        -7.7356   2.6878  -0.1190 H              1 S1                 0.0000
     28 ****        -6.4471   2.9116  -1.2996 H              1 S1                 0.0000
     29 ****        -4.6555  -0.8502   0.7990 H              1 S1                 0.0000
     30 ****        -2.2318  -1.1015   0.6182 H              1 S1                 0.0000
     31 ****        -0.0664   1.7842  -0.4507 H              1 S1                 0.0000
     32 ****         1.8107   1.1891  -0.4622 H              1 S1                 0.0000
     33 ****         2.6195  -1.5006  -1.2894 H              1 S1                 0.0000
     34 ****         4.0513   1.0310  -0.2833 H              1 S1                 0.0000
     35 ****         4.2551  -0.4479  -2.7742 H              1 S1                 0.0000
     36 ****         5.4086   0.7674  -2.2244 H              1 S1                 0.0000
     37 ****         6.0818  -1.9317  -2.4044 H              1 S1                 0.0000
     38 ****         6.8151  -0.8413  -1.2224 H              1 S1                 0.0000
     39 ****         5.3019  -0.5238   1.0717 H              1 S1                 0.0000
     40 ****         3.3393  -0.8502   2.9672 H              1 S1                 0.0000
     41 ****         1.7227  -0.6316   2.3133 H              1 S1                 0.0000
     42 ****         2.9729   0.5607   1.9942 H              1 S1                 0.0000
     43 ****         3.4601  -3.1428   1.9337 H              1 S1                 0.0000
     44 ****         3.1140  -3.3752   0.2286 H              1 S1                 0.0000
     45 ****         1.8267  -2.9037   1.3209 H              1 S1                 0.0000
     46 ****        -2.0615   2.9291  -0.9529 H              1 S1                 0.0000
     47 ****        -1.0073  -1.5902  -0.3812 LP             1 S1                 0.0000
     48 ****         0.6495  -2.0889  -0.4595 LP             1 S1                 0.0000
     49 ****         5.9295  -2.4572   0.0351 LP             1 S1                 0.0000
     50 ****         4.5567  -2.5845  -0.8400 LP             1 S1                 0.0000
     51 ****        -4.3756   3.0797  -0.7357 LP             1 S1                 0.0000
@<TRIPOS>BOND
    1    1    2 1     
    2    1   23 1     
    3    1   24 1     
    4    1   25 1     
    5    2    3 1     
    6    2    4 1     
    7    3   26 1     
    8    3   27 1     
    9    3   28 1     
   10    4   22 ar    
   11    4    5 ar    
   12    5    6 ar    
   13    5   29 1     
   14    6    7 ar    
   15    6   30 1     
   16    7    8 1     
   17    7   21 ar    
   18    8    9 am    
   19    8   31 1     
   20    9   10 2     
   21    9   11 am    
   22   11   12 1     
   23   11   32 1     
   24   12   18 1     
   25   12   13 1     
   26   12   33 1     
   27   13   17 1     
   28   13   14 1     
   29   13   34 1     
   30   14   15 1     
   31   14   35 1     
   32   14   36 1     
   33   15   16 1     
   34   15   37 1     
   35   15   38 1     
   36   16   17 1     
   37   17   18 1     
   38   17   39 1     
   39   18   19 1     
   40   18   20 1     
   41   19   40 1     
   42   19   41 1     
   43   19   42 1     
   44   20   43 1     
   45   20   44 1     
   46   20   45 1     
   47   21   22 ar    
   48   21   46 1     
   49   10   47 1     
   50   10   48 1     
   51   16   49 1     
   52   16   50 1     
   53   22   51 1     
@<TRIPOS>SUBSTRUCTURE
      1 S1             1
@<TRIPOS>SET
LONE_PAIRS      STATIC     ATOMS    <user>   **** ""
5 47 48 49 50 51
DONOR_HYDROGENS      STATIC     ATOMS    <user>   **** ""
2 31 32
ATOM$BLUE        STATIC     ATOMS    COLORGROUP SYSTEM
5 47 48 49 50 51
ATOM$RED        STATIC     ATOMS    COLORGROUP SYSTEM
2 31 32
