AV-unprocessed.smi:1075|AV-procd|sdf|4694|dock10
  -GOLD-   22720 3213D 1   1.00000     0.00000
 Structure written by MMmdl.
 50 51  0  0  0  0  0  0  0  0  1 V2000
  153.0939  141.4920  162.5890 C   0  0  0  0  0  0  0  0  0  0  0  0
  152.7374  142.4065  161.4518 C   0  0  0  0  0  0  0  0  0  0  0  0
  152.3772  143.6512  161.7123 N   0  0  0  0  0  0  0  0  0  0  0  0
  152.1394  144.2001  160.5053 N   0  0  0  0  0  0  0  0  0  0  0  0
  151.7191  145.5859  160.4287 C   0  0  0  0  0  0  0  0  0  0  0  0
  152.3554  143.3017  159.4778 C   0  0  0  0  0  0  0  0  0  0  0  0
  152.1718  143.6835  158.0426 C   0  0  0  0  0  0  0  0  0  0  0  0
  152.7385  142.1170  160.0551 C   0  0  0  0  0  0  0  0  0  0  0  0
  153.1059  140.7956  159.4085 C   0  0  1  0  0  0  0  0  0  0  0  0
  154.2018  140.0557  160.1995 C   0  0  0  0  0  0  0  0  0  0  0  0
  151.8393  139.9513  159.1861 C   0  0  0  0  0  0  0  0  0  0  0  0
  150.7225  140.4265  159.3932 O   0  0  0  0  0  0  0  0  0  0  0  0
  152.0455  138.6893  158.7672 N   0  0  0  0  0  0  0  0  0  0  0  0
  151.0611  137.6457  158.4532 C   0  0  1  0  0  0  0  0  0  0  0  0
  150.5135  137.0297  159.7589 C   0  0  0  0  0  0  0  0  0  0  0  0
  149.8953  138.3218  157.6924 C   0  0  0  0  0  0  0  0  0  0  0  0
  150.3139  138.8646  156.3128 C   0  0  0  0  0  0  0  0  0  0  0  0
  150.9327  137.7629  155.4333 C   0  0  1  0  0  0  0  0  0  0  0  0
  151.3697  138.3129  154.0684 C   0  0  0  0  0  0  0  0  0  0  0  0
  152.1020  137.0813  156.1676 C   0  0  0  0  0  0  0  0  0  0  0  0
  151.6694  136.5455  157.5449 C   0  0  0  0  0  0  0  0  0  0  0  0
  154.1208  141.1380  162.4950 H   0  0  0  0  0  0  0  0  0  0  0  0
  152.4415  140.6188  162.6052 H   0  0  0  0  0  0  0  0  0  0  0  0
  153.0034  141.9907  163.5547 H   0  0  0  0  0  0  0  0  0  0  0  0
  152.5287  146.1908  160.0199 H   0  0  0  0  0  0  0  0  0  0  0  0
  151.4583  145.9651  161.4178 H   0  0  0  0  0  0  0  0  0  0  0  0
  150.8469  145.6711  159.7804 H   0  0  0  0  0  0  0  0  0  0  0  0
  152.7386  143.0287  157.3817 H   0  0  0  0  0  0  0  0  0  0  0  0
  152.5127  144.7022  157.8581 H   0  0  0  0  0  0  0  0  0  0  0  0
  151.1212  143.6203  157.7594 H   0  0  0  0  0  0  0  0  0  0  0  0
  153.5134  140.9750  158.4131 H   0  0  0  0  0  0  0  0  0  0  0  0
  153.8791  139.8008  161.2087 H   0  0  0  0  0  0  0  0  0  0  0  0
  155.0972  140.6716  160.2862 H   0  0  0  0  0  0  0  0  0  0  0  0
  154.4932  139.1299  159.7018 H   0  0  0  0  0  0  0  0  0  0  0  0
  153.0099  138.4201  158.6363 H   0  0  0  0  0  0  0  0  0  0  0  0
  149.7069  136.3249  159.5540 H   0  0  0  0  0  0  0  0  0  0  0  0
  150.1159  137.7979  160.4233 H   0  0  0  0  0  0  0  0  0  0  0  0
  151.2800  136.4831  160.3080 H   0  0  0  0  0  0  0  0  0  0  0  0
  149.0855  137.6042  157.5529 H   0  0  0  0  0  0  0  0  0  0  0  0
  149.4767  139.1330  158.2901 H   0  0  0  0  0  0  0  0  0  0  0  0
  149.4436  139.2910  155.8131 H   0  0  0  0  0  0  0  0  0  0  0  0
  151.0237  139.6838  156.4357 H   0  0  0  0  0  0  0  0  0  0  0  0
  150.1653  137.0086  155.2530 H   0  0  0  0  0  0  0  0  0  0  0  0
  152.1426  139.0746  154.1764 H   0  0  0  0  0  0  0  0  0  0  0  0
  150.5294  138.7639  153.5404 H   0  0  0  0  0  0  0  0  0  0  0  0
  151.7695  137.5203  153.4354 H   0  0  0  0  0  0  0  0  0  0  0  0
  152.4875  136.2589  155.5645 H   0  0  0  0  0  0  0  0  0  0  0  0
  152.9276  137.7841  156.2868 H   0  0  0  0  0  0  0  0  0  0  0  0
  152.5162  136.0610  158.0308 H   0  0  0  0  0  0  0  0  0  0  0  0
  150.9310  135.7567  157.3942 H   0  0  0  0  0  0  0  0  0  0  0  0
  1  2  1  0  0  0  0
  1 22  1  0  0  0  0
  1 23  1  0  0  0  0
  1 24  1  0  0  0  0
  2  8  1  0  0  0  0
  2  3  2  0  0  0  0
  3  4  1  0  0  0  0
  4  5  1  0  0  0  0
  4  6  1  0  0  0  0
  5 25  1  0  0  0  0
  5 26  1  0  0  0  0
  5 27  1  0  0  0  0
  6  7  1  0  0  0  0
  6  8  2  0  0  0  0
  7 28  1  0  0  0  0
  7 29  1  0  0  0  0
  7 30  1  0  0  0  0
  8  9  1  0  0  0  0
  9 10  1  0  0  0  0
  9 11  1  0  0  0  0
  9 31  1  0  0  0  0
 10 32  1  0  0  0  0
 10 33  1  0  0  0  0
 10 34  1  0  0  0  0
 11 12  2  0  0  0  0
 11 13  1  0  0  0  0
 13 14  1  0  0  0  0
 13 35  1  0  0  0  0
 14 21  1  0  0  0  0
 14 15  1  0  0  0  0
 14 16  1  0  0  0  0
 15 36  1  0  0  0  0
 15 37  1  0  0  0  0
 15 38  1  0  0  0  0
 16 17  1  0  0  0  0
 16 39  1  0  0  0  0
 16 40  1  0  0  0  0
 17 18  1  0  0  0  0
 17 41  1  0  0  0  0
 17 42  1  0  0  0  0
 18 19  1  0  0  0  0
 18 20  1  0  0  0  0
 18 43  1  0  0  0  0
 19 44  1  0  0  0  0
 19 45  1  0  0  0  0
 19 46  1  0  0  0  0
 20 21  1  0  0  0  0
 20 47  1  0  0  0  0
 20 48  1  0  0  0  0
 21 49  1  0  0  0  0
 21 50  1  0  0  0  0
M  END
> <s_m_source_file>
AV-unprocessed.smi

> <i_m_source_file_index>
1075

> <i_lp_mmshare_version>
43012

> <i_f3d_flags>
0

> <s_epik_input>
W0NIM11jMW5uKFtDSDNdKWMoW0NIM10pYzFbQ0BIXShbQ0gzXSlDKD1PKVtOSF1bQ0BAXTIoW0NIM10pW0NIMl1bQ0gyXVtDQEBIXShbQ0gzXSlbQ0gyXVtDSDJdMg==

> <s_epik_cmdline>
J2VwaWtfcHl0aG9uJywgJy1waCcsICc3LjAnLCAnLXRuJywgJzgnLCAnLW1hJywgJzIwMCcsICctbWV0YWxfYmluZGluZycsICctaW1hZScsICc8aW5maWxlLm1hZT4nLCAnLW9tYWUnLCAnPG91dGZpbGUubWFlPic=

> <r_lp_tautomer_probability>
1

> <r_epik_Ionization_Penalty>
0.00502928

> <r_epik_Ionization_Penalty_Charging>
0

> <r_epik_Ionization_Penalty_Neutral>
0.00502928

> <r_epik_State_Penalty>
0.0036576

> <r_epik_Charging_Adjusted_Penalty>
0.0036576

> <i_epik_Tot_Q>
0

> <i_epik_Tot_abs_Q>
0

> <r_epik_Metal_State_Penalty>
-0

> <b_epik_Metal_Only>
0

> <s_lp_Force_Field>
OPLS_2005

> <r_lp_Energy>
4.5461

> <b_lp_Chiralities_Consistent>
1

> <s_lp_Variant>
AV-unprocessed.smi:1075-2

> <Gold.Version>
5.8.1

> <Gold.Id.Protein>
6NUR|6NUR_protein|mol2

> <Gold.PLP.Fitness>
36.6349

> <Gold.PLP.PLP>
-39.2249

> <Gold.PLP.part.hbond>
-0.9787

> <Gold.PLP.part.metal>
0.0000

> <Gold.PLP.part.buried>
-0.4087

> <Gold.PLP.part.nonpolar>
-37.7798

> <Gold.PLP.part.repulsive>
0.2083

> <Gold.PLP.ligand.clash>
0.0019

> <Gold.PLP.ligand.torsion>
1.3405

> <Gold.PLP.Chemscore.Hbond>
0.0000

> <Gold.PLP.Chemscore.CHOScore>
0.0000

> <Gold.PLP.Chemscore.Metal>
0.0000

> <Gold.PLP.Chemscore.Internal.Correction>
0.0930

> <Gold.Rescore>
     Score         DG    S(hbond)    S(metal)    S(lipo)     H(rot)  DE(clash)    DE(int)     intcor
     14.25     -17.16       0.00        0.00     126.78       1.23       0.54       2.37       ----

> <Gold.Chemscore.Fitness>
14.2539

> <Gold.Chemscore.DG>
-17.1592

> <Gold.Chemscore.ZeroCoef>
-5.4800

> <Gold.Chemscore.Hbond>
0.0000

> <Gold.Chemscore.Metal>
0.0000

> <Gold.Chemscore.Lipo>
126.7801

> <Gold.Chemscore.Internal_Hbond>
0.0000

> <Gold.Chemscore.DEClash>
0.5354

> <Gold.Chemscore.DEInternal>
2.3699

> <Gold.Chemscore.Rot>
1.2321

> <Gold.Chemscore.Internal.Correction>
   9.000000E+99

> <Gold.Chemscore.Hbond.Weighted>
-0.0000

> <Gold.Chemscore.Metal.Weighted>
-0.0000

> <Gold.Chemscore.Lipo.Weighted>
-14.8333

> <Gold.Chemscore.Internal_Hbond.Weighted>
0.0000

> <Gold.Chemscore.DEClash.Weighted>
0.5354

> <Gold.Chemscore.DEInternal.Weighted>
2.3699

> <Gold.Chemscore.Rot.Weighted>
3.1541

> <Gold.Chemscore.Internal.Correction.Weighted>
   9.000000E+99

> <Gold.Protein.RotatedTorsions>
[ 6907 6896 6895 6894 ] final -177.10 input  -60.11 | X-H torsion
[ 7974 7965 7964 7962 ] final  -44.93 input  175.53 | X-H torsion
[ 8008 7997 7996 7995 ] final   41.66 input   59.86 | X-H torsion
[ 10167 10162 10161 10158 ] final  119.05 input  -65.29 | X-H torsion
[ 10718 10713 10712 10709 ] final  -25.66 input   66.30 | X-H torsion
[ 10763 10752 10751 10750 ] final -172.02 input  -60.55 | X-H torsion
[ 11005 11000 10999 10996 ] final  153.04 input  -57.11 | X-H torsion

> <Gold.Protein.ActiveResidues>
 VAL166  LYS551  ARG553  GLY616  TRP617  ASP618  TYR619  PRO620  LYS621  CYS622 
 ASP623  PHE694  ASN695  SER759  ASP760  ASP761  ALA762  ILE779  LEU786  VAL792 
 PHE793  MET794  SER795  GLU796  ALA797  LYS798  CYS799  TRP800  GLU811  SER814 

> <Gold.Protein.RotatedAtoms>
  151.6155  133.3343  159.3076 H   0  0  0  0  0  0  0  0  0  0  0  0  # atno 6907 bound_to 6896
  150.8134  134.7305  159.6719 H   0  0  0  0  0  0  0  0  0  0  0  0  # atno 6908 bound_to 6896
  152.4230  134.5925  160.0029 H   0  0  0  0  0  0  0  0  0  0  0  0  # atno 6909 bound_to 6896
  145.9872  140.7220  142.9335 H   0  0  0  0  0  0  0  0  0  0  0  0  # atno 7974 bound_to 7965
  155.2733  140.3367  155.4263 H   0  0  0  0  0  0  0  0  0  0  0  0  # atno 8008 bound_to 7997
  156.2123  140.1775  156.7710 H   0  0  0  0  0  0  0  0  0  0  0  0  # atno 8009 bound_to 7997
  154.5703  140.0671  156.8939 H   0  0  0  0  0  0  0  0  0  0  0  0  # atno 8010 bound_to 7997
  139.6071  144.7073  151.2928 H   0  0  0  0  0  0  0  0  0  0  0  0  # atno 10167 bound_to 10162
  156.4614  130.4505  149.6926 H   0  0  0  0  0  0  0  0  0  0  0  0  # atno 10718 bound_to 10713
  154.6240  135.2878  155.0293 H   0  0  0  0  0  0  0  0  0  0  0  0  # atno 10763 bound_to 10752
  154.1477  135.6508  153.4960 H   0  0  0  0  0  0  0  0  0  0  0  0  # atno 10764 bound_to 10752
  153.0249  135.5348  154.7041 H   0  0  0  0  0  0  0  0  0  0  0  0  # atno 10765 bound_to 10752
  140.1362  134.8769  157.2270 H   0  0  0  0  0  0  0  0  0  0  0  0  # atno 11005 bound_to 11000
  144.6878  140.3008  143.7263 LP  0  0  0  0  0  0  0  0  0  0  0  0  # atno 17320 bound_to 7965
  145.7684  139.1848  143.2227 LP  0  0  0  0  0  0  0  0  0  0  0  0  # atno 17321 bound_to 7965
  140.7293  143.6912  150.7920 LP  0  0  0  0  0  0  0  0  0  0  0  0  # atno 17342 bound_to 10162
  140.0500  143.5260  152.2678 LP  0  0  0  0  0  0  0  0  0  0  0  0  # atno 17343 bound_to 10162
  156.3713  130.7532  151.2515 LP  0  0  0  0  0  0  0  0  0  0  0  0  # atno 17370 bound_to 10713
  157.7497  131.0322  150.4217 LP  0  0  0  0  0  0  0  0  0  0  0  0  # atno 17371 bound_to 10713
  140.2780  134.3383  155.7352 LP  0  0  0  0  0  0  0  0  0  0  0  0  # atno 17394 bound_to 11000
  141.2178  133.7461  156.9321 LP  0  0  0  0  0  0  0  0  0  0  0  0  # atno 17395 bound_to 11000

$$$$
