AV-unprocessed.smi:1940|AV-procd|sdf|7841|dock8
  -GOLD-   22720 9583D 1   1.00000     0.00000
 Structure written by MMmdl.
 50 52  0  0  0  0  0  0  0  0  2 V2000
  146.5767  138.2176  150.6241 C   0  0  0  0  0  0  0  0  0  0  0  0
  146.2817  138.0919  152.1266 C   0  0  2  0  0  0  0  0  0  0  0  0
  147.5133  138.3562  152.8672 N   0  0  0  0  0  0  0  0  0  0  0  0
  147.7313  139.3959  153.6853 C   0  0  0  0  0  0  0  0  0  0  0  0
  146.9056  140.2825  153.9016 O   0  0  0  0  0  0  0  0  0  0  0  0
  148.9513  139.3212  154.2438 N   0  0  0  0  0  0  0  0  0  0  0  0
  149.5800  140.2426  155.1237 C   0  0  0  0  0  0  0  0  0  0  0  0
  150.4637  139.7246  156.0947 C   0  0  0  0  0  0  0  0  0  0  0  0
  151.1314  140.6019  156.9729 C   0  0  0  0  0  0  0  0  0  0  0  0
  150.9128  141.9937  156.8588 C   0  0  0  0  0  0  0  0  0  0  0  0
  151.5395  142.9412  157.6787 N   0  0  0  0  0  0  0  0  0  0  0  0
  150.5998  143.9137  158.2308 C   0  0  0  0  0  0  0  0  0  0  0  0
  151.3451  145.0355  158.9743 C   0  0  0  0  0  0  0  0  0  0  0  0
  152.2850  144.4554  160.0434 C   0  0  0  0  0  0  0  0  0  0  0  0
  153.2332  143.4237  159.4118 C   0  0  0  0  0  0  0  0  0  0  0  0
  152.4415  142.3408  158.6592 C   0  0  0  0  0  0  0  0  0  0  0  0
  150.0640  142.4527  155.9137 N   0  3  0  0  0  0  0  0  0  0  0  0
  149.4031  141.6464  155.0547 C   0  0  0  0  0  0  0  0  0  0  0  0
  145.7437  136.6981  152.5068 C   0  0  2  0  0  0  0  0  0  0  0  0
  144.4090  136.3290  151.8576 C   0  0  0  0  0  0  0  0  0  0  0  0
  143.8802  135.2885  152.8172 C   0  0  0  0  0  0  0  0  0  0  0  0
  144.3115  135.8608  154.1637 C   0  0  0  0  0  0  0  0  0  0  0  0
  145.4886  136.6231  153.9086 O   0  0  0  0  0  0  0  0  0  0  0  0
  145.6747  138.0808  150.0278 H   0  0  0  0  0  0  0  0  0  0  0  0
  147.3067  137.4756  150.2990 H   0  0  0  0  0  0  0  0  0  0  0  0
  146.9751  139.2043  150.3853 H   0  0  0  0  0  0  0  0  0  0  0  0
  145.5234  138.8354  152.3788 H   0  0  0  0  0  0  0  0  0  0  0  0
  148.2532  137.6782  152.7592 H   0  0  0  0  0  0  0  0  0  0  0  0
  149.4798  138.4855  154.0406 H   0  0  0  0  0  0  0  0  0  0  0  0
  150.6298  138.6599  156.1712 H   0  0  0  0  0  0  0  0  0  0  0  0
  151.8033  140.2067  157.7207 H   0  0  0  0  0  0  0  0  0  0  0  0
  149.9965  144.3395  157.4279 H   0  0  0  0  0  0  0  0  0  0  0  0
  149.9136  143.4106  158.9136 H   0  0  0  0  0  0  0  0  0  0  0  0
  151.9236  145.6248  158.2613 H   0  0  0  0  0  0  0  0  0  0  0  0
  150.6301  145.7187  159.4336 H   0  0  0  0  0  0  0  0  0  0  0  0
  152.8568  145.2536  160.5174 H   0  0  0  0  0  0  0  0  0  0  0  0
  151.6978  143.9813  160.8308 H   0  0  0  0  0  0  0  0  0  0  0  0
  153.9124  143.9263  158.7218 H   0  0  0  0  0  0  0  0  0  0  0  0
  153.8554  142.9653  160.1809 H   0  0  0  0  0  0  0  0  0  0  0  0
  151.8682  141.7452  159.3710 H   0  0  0  0  0  0  0  0  0  0  0  0
  153.1310  141.6615  158.1559 H   0  0  0  0  0  0  0  0  0  0  0  0
  148.7766  142.1608  154.3419 H   0  0  0  0  0  0  0  0  0  0  0  0
  146.4806  135.9302  152.2651 H   0  0  0  0  0  0  0  0  0  0  0  0
  143.7386  137.1894  151.8347 H   0  0  0  0  0  0  0  0  0  0  0  0
  144.5189  135.9520  150.8404 H   0  0  0  0  0  0  0  0  0  0  0  0
  142.8028  135.1392  152.7418 H   0  0  0  0  0  0  0  0  0  0  0  0
  144.3724  134.3314  152.6393 H   0  0  0  0  0  0  0  0  0  0  0  0
  143.5457  136.5304  154.5567 H   0  0  0  0  0  0  0  0  0  0  0  0
  144.4940  135.0828  154.9050 H   0  0  0  0  0  0  0  0  0  0  0  0
  149.9192  143.4602  155.8398 H   0  0  0  0  0  0  0  0  0  0  0  0
  1  2  1  0  0  0  0
  1 24  1  0  0  0  0
  1 25  1  0  0  0  0
  1 26  1  0  0  0  0
  2  3  1  0  0  0  0
  2 19  1  0  0  0  0
  2 27  1  0  0  0  0
  3  4  1  0  0  0  0
  3 28  1  0  0  0  0
  4  5  2  0  0  0  0
  4  6  1  0  0  0  0
  6  7  1  0  0  0  0
  6 29  1  0  0  0  0
  7 18  1  0  0  0  0
  7  8  2  0  0  0  0
  8  9  1  0  0  0  0
  8 30  1  0  0  0  0
  9 10  2  0  0  0  0
  9 31  1  0  0  0  0
 10 11  1  0  0  0  0
 10 17  1  0  0  0  0
 11 16  1  0  0  0  0
 11 12  1  0  0  0  0
 12 13  1  0  0  0  0
 12 32  1  0  0  0  0
 12 33  1  0  0  0  0
 13 14  1  0  0  0  0
 13 34  1  0  0  0  0
 13 35  1  0  0  0  0
 14 15  1  0  0  0  0
 14 36  1  0  0  0  0
 14 37  1  0  0  0  0
 15 16  1  0  0  0  0
 15 38  1  0  0  0  0
 15 39  1  0  0  0  0
 16 40  1  0  0  0  0
 16 41  1  0  0  0  0
 17 18  2  0  0  0  0
 17 50  1  0  0  0  0
 18 42  1  0  0  0  0
 19 23  1  0  0  0  0
 19 20  1  0  0  0  0
 19 43  1  0  0  0  0
 20 21  1  0  0  0  0
 20 44  1  0  0  0  0
 20 45  1  0  0  0  0
 21 22  1  0  0  0  0
 21 46  1  0  0  0  0
 21 47  1  0  0  0  0
 22 23  1  0  0  0  0
 22 48  1  0  0  0  0
 22 49  1  0  0  0  0
M  CHG  1  17   1
M  END
> <s_m_source_file>
AV-unprocessed.smi

> <i_m_source_file_index>
1940

> <i_lp_mmshare_version>
43012

> <i_f3d_flags>
0

> <s_epik_input>
TzFbQ0gyXVtDSDJdW0NIMl1bQ0BIXTFbQ0BIXShbQ0gzXSlbTkhdQyg9TylbTkhdYzJbY0hdW2NIXWMobltjSF0yKU4zW0NIMl1bQ0gyXVtDSDJdW0NIMl1bQ0gyXTM=

> <s_epik_cmdline>
J2VwaWtfcHl0aG9uJywgJy1waCcsICc3LjAnLCAnLXRuJywgJzgnLCAnLW1hJywgJzIwMCcsICctbWV0YWxfYmluZGluZycsICctaW1hZScsICc8aW5maWxlLm1hZT4nLCAnLW9tYWUnLCAnPG91dGZpbGUubWFlPic=

> <r_lp_tautomer_probability>
0.999994

> <r_epik_Ionization_Penalty>
1.10603

> <r_epik_Ionization_Penalty_Charging>
1.10601

> <r_epik_Ionization_Penalty_Neutral>
1.929e-05

> <r_epik_State_Penalty>
1.16358

> <r_epik_Charging_Adjusted_Penalty>
2.26959

> <i_epik_Tot_Q>
1

> <i_epik_Tot_abs_Q>
1

> <r_epik_Metal_State_Penalty>
1.25013

> <b_epik_Metal_Only>
0

> <s_lp_Force_Field>
OPLS_2005

> <r_lp_Energy>
41.0283

> <b_lp_Chiralities_Consistent>
1

> <s_lp_Variant>
AV-unprocessed.smi:1940-5

> <Gold.Version>
5.8.1

> <Gold.Id.Protein>
6NUR|6NUR_protein|mol2

> <Gold.PLP.Fitness>
46.0714

> <Gold.PLP.PLP>
-37.6742

> <Gold.PLP.part.hbond>
-2.6372

> <Gold.PLP.part.metal>
0.0000

> <Gold.PLP.part.buried>
1.2927

> <Gold.PLP.part.nonpolar>
-37.2547

> <Gold.PLP.part.repulsive>
0.5215

> <Gold.PLP.ligand.clash>
0.0000

> <Gold.PLP.ligand.torsion>
0.3757

> <Gold.PLP.Chemscore.Hbond>
3.0000

> <Gold.PLP.Chemscore.CHOScore>
0.0000

> <Gold.PLP.Chemscore.Metal>
0.0000

> <Gold.Chemscore.Hbonds>
donor molecule, donor type, donor heavy atom, donor atom, acceptor molecule, acceptor atom, score
      L1  H     3    28       P1  7948  0.99
      L1  H    17    50       P1  8028  1.98

> <Gold.PLP.Chemscore.Internal.Correction>
0.1485

> <Gold.Rescore>
     Score         DG    S(hbond)    S(metal)    S(lipo)     H(rot)  DE(clash)    DE(int)     intcor
     19.43     -22.50       1.93        0.00     120.10       1.36       1.89       1.18       ----

> <Gold.Chemscore.Fitness>
19.4262

> <Gold.Chemscore.DG>
-22.4956

> <Gold.Chemscore.ZeroCoef>
-5.4800

> <Gold.Chemscore.Hbond>
1.9275

> <Gold.Chemscore.Metal>
0.0000

> <Gold.Chemscore.Lipo>
120.0995

> <Gold.Chemscore.Internal_Hbond>
0.0000

> <Gold.Chemscore.DEClash>
1.8851

> <Gold.Chemscore.DEInternal>
1.1843

> <Gold.Chemscore.Rot>
1.3571

> <Gold.Chemscore.Internal.Correction>
   9.000000E+99

> <Gold.Chemscore.Hbonds>
donor molecule, donor type, donor heavy atom, donor atom, acceptor molecule, acceptor atom, score
      L1  H     3    28       P1  7948  0.93
      L1  H    17    50       P1  8028  0.94

> <Gold.Chemscore.Hbond.Weighted>
-6.4380

> <Gold.Chemscore.Metal.Weighted>
-0.0000

> <Gold.Chemscore.Lipo.Weighted>
-14.0516

> <Gold.Chemscore.Internal_Hbond.Weighted>
0.0000

> <Gold.Chemscore.DEClash.Weighted>
1.8851

> <Gold.Chemscore.DEInternal.Weighted>
1.1843

> <Gold.Chemscore.Rot.Weighted>
3.4741

> <Gold.Chemscore.Internal.Correction.Weighted>
   9.000000E+99

> <Gold.Protein.RotatedTorsions>
[ 6907 6896 6895 6894 ] final  171.00 input  -60.11 | X-H torsion
[ 7974 7965 7964 7962 ] final  129.75 input  175.53 | X-H torsion
[ 8008 7997 7996 7995 ] final  -63.22 input   59.86 | X-H torsion
[ 10167 10162 10161 10158 ] final  101.00 input  -65.29 | X-H torsion
[ 10718 10713 10712 10709 ] final  -96.25 input   66.30 | X-H torsion
[ 10763 10752 10751 10750 ] final  114.75 input  -60.55 | X-H torsion
[ 11005 11000 10999 10996 ] final   60.92 input  -57.11 | X-H torsion

> <Gold.Protein.ActiveResidues>
 VAL166  LYS551  ARG553  GLY616  TRP617  ASP618  TYR619  PRO620  LYS621  CYS622 
 ASP623  PHE694  ASN695  SER759  ASP760  ASP761  ALA762  ILE779  LEU786  VAL792 
 PHE793  MET794  SER795  GLU796  ALA797  LYS798  CYS799  TRP800  GLU811  SER814 

> <Gold.Protein.RotatedAtoms>
  151.8071  133.3377  159.3544 H   0  0  0  0  0  0  0  0  0  0  0  0  # atno 6907 bound_to 6896
  150.7338  134.5699  159.5894 H   0  0  0  0  0  0  0  0  0  0  0  0  # atno 6908 bound_to 6896
  152.3101  134.7508  160.0389 H   0  0  0  0  0  0  0  0  0  0  0  0  # atno 6909 bound_to 6896
  145.0253  139.4094  143.5177 H   0  0  0  0  0  0  0  0  0  0  0  0  # atno 7974 bound_to 7965
  154.4542  140.0979  156.6708 H   0  0  0  0  0  0  0  0  0  0  0  0  # atno 8008 bound_to 7997
  155.5190  140.3478  155.4384 H   0  0  0  0  0  0  0  0  0  0  0  0  # atno 8009 bound_to 7997
  156.0743  140.1357  156.9779 H   0  0  0  0  0  0  0  0  0  0  0  0  # atno 8010 bound_to 7997
  139.7477  144.6993  151.0480 H   0  0  0  0  0  0  0  0  0  0  0  0  # atno 10167 bound_to 10162
  156.0058  130.5143  150.6198 H   0  0  0  0  0  0  0  0  0  0  0  0  # atno 10718 bound_to 10713
  153.5119  135.3616  155.2591 H   0  0  0  0  0  0  0  0  0  0  0  0  # atno 10763 bound_to 10752
  154.8741  135.4025  154.3358 H   0  0  0  0  0  0  0  0  0  0  0  0  # atno 10764 bound_to 10752
  153.4013  135.7075  153.6491 H   0  0  0  0  0  0  0  0  0  0  0  0  # atno 10765 bound_to 10752
  140.0197  134.6171  155.9657 H   0  0  0  0  0  0  0  0  0  0  0  0  # atno 11005 bound_to 11000
  146.3491  139.9774  142.8699 LP  0  0  0  0  0  0  0  0  0  0  0  0  # atno 17320 bound_to 7965
  145.1841  140.9781  143.4249 LP  0  0  0  0  0  0  0  0  0  0  0  0  # atno 17321 bound_to 7965
  140.7794  143.4847  150.9971 LP  0  0  0  0  0  0  0  0  0  0  0  0  # atno 17342 bound_to 10162
  139.8535  143.7407  152.3177 LP  0  0  0  0  0  0  0  0  0  0  0  0  # atno 17343 bound_to 10162
  157.4015  131.0810  151.1304 LP  0  0  0  0  0  0  0  0  0  0  0  0  # atno 17370 bound_to 10713
  157.1964  130.6375  149.5722 LP  0  0  0  0  0  0  0  0  0  0  0  0  # atno 17371 bound_to 10713
  141.1766  133.6541  156.4853 LP  0  0  0  0  0  0  0  0  0  0  0  0  # atno 17394 bound_to 11000
  140.4408  134.7017  157.4991 LP  0  0  0  0  0  0  0  0  0  0  0  0  # atno 17395 bound_to 11000

$$$$
