AV-unprocessed.smi:2591|AV-procd|sdf|10158|dock7
  -GOLD-   2272014173D 1   1.00000     0.00000
 Structure written by MMmdl.
 34 35  0  0  0  0  0  0  0  0  1 V2000
  152.8416  142.6481  162.6643 C   0  0  0  0  0  0  0  0  0  0  0  0
  152.9552  143.0618  161.2740 N   0  0  0  0  0  0  0  0  0  0  0  0
  152.1406  144.2357  160.9923 C   0  0  0  0  0  0  0  0  0  0  0  0
  152.2606  144.6670  159.5210 C   0  0  0  0  0  0  0  0  0  0  0  0
  151.9080  143.5780  158.6729 O   0  0  0  0  0  0  0  0  0  0  0  0
  152.7122  142.4162  158.8834 C   0  0  2  0  0  0  0  0  0  0  0  0
  152.2697  141.3215  157.9016 C   0  0  0  0  0  0  0  0  0  0  0  0
  152.7657  140.1957  157.9668 O   0  0  0  0  0  0  0  0  0  0  0  0
  151.3495  141.6935  156.9910 N   0  0  0  0  0  0  0  0  0  0  0  0
  150.7630  140.9138  155.9593 C   0  0  0  0  0  0  0  0  0  0  0  0
  149.5089  141.3748  155.5005 C   0  0  0  0  0  0  0  0  0  0  0  0
  148.8415  140.6789  154.4694 C   0  0  0  0  0  0  0  0  0  0  0  0
  147.4888  141.1502  153.9583 C   0  0  0  0  0  0  0  0  0  0  0  0
  146.5253  140.8672  154.8355 F   0  0  0  0  0  0  0  0  0  0  0  0
  147.5251  142.4687  153.7704 F   0  0  0  0  0  0  0  0  0  0  0  0
  147.1874  140.5591  152.8014 F   0  0  0  0  0  0  0  0  0  0  0  0
  149.4532  139.5255  153.9379 C   0  0  0  0  0  0  0  0  0  0  0  0
  150.7011  139.1329  154.4540 C   0  0  0  0  0  0  0  0  0  0  0  0
  151.3400  139.8054  155.4333 N   0  0  0  0  0  0  0  0  0  0  0  0
  152.5925  141.9837  160.3630 C   0  0  0  0  0  0  0  0  0  0  0  0
  153.1468  143.4534  163.3333 H   0  0  0  0  0  0  0  0  0  0  0  0
  153.4830  141.7892  162.8645 H   0  0  0  0  0  0  0  0  0  0  0  0
  151.8157  142.3709  162.9106 H   0  0  0  0  0  0  0  0  0  0  0  0
  151.0949  144.0249  161.2222 H   0  0  0  0  0  0  0  0  0  0  0  0
  152.4428  145.0604  161.6387 H   0  0  0  0  0  0  0  0  0  0  0  0
  151.5976  145.5076  159.3167 H   0  0  0  0  0  0  0  0  0  0  0  0
  153.2759  144.9973  159.2969 H   0  0  0  0  0  0  0  0  0  0  0  0
  153.7519  142.6600  158.6572 H   0  0  0  0  0  0  0  0  0  0  0  0
  151.0329  142.6505  157.0481 H   0  0  0  0  0  0  0  0  0  0  0  0
  149.0622  142.2573  155.9357 H   0  0  0  0  0  0  0  0  0  0  0  0
  148.9805  138.9509  153.1548 H   0  0  0  0  0  0  0  0  0  0  0  0
  151.1996  138.2544  154.0718 H   0  0  0  0  0  0  0  0  0  0  0  0
  153.2369  141.1229  160.5468 H   0  0  0  0  0  0  0  0  0  0  0  0
  151.5709  141.6578  160.5676 H   0  0  0  0  0  0  0  0  0  0  0  0
  1  2  1  0  0  0  0
  1 21  1  0  0  0  0
  1 22  1  0  0  0  0
  1 23  1  0  0  0  0
  2 20  1  0  0  0  0
  2  3  1  0  0  0  0
  3  4  1  0  0  0  0
  3 24  1  0  0  0  0
  3 25  1  0  0  0  0
  4  5  1  0  0  0  0
  4 26  1  0  0  0  0
  4 27  1  0  0  0  0
  5  6  1  0  0  0  0
  6  7  1  0  0  0  0
  6 20  1  0  0  0  0
  6 28  1  0  0  0  0
  7  8  2  0  0  0  0
  7  9  1  0  0  0  0
  9 10  1  0  0  0  0
  9 29  1  0  0  0  0
 10 19  1  0  0  0  0
 10 11  2  0  0  0  0
 11 12  1  0  0  0  0
 11 30  1  0  0  0  0
 12 13  1  0  0  0  0
 12 17  2  0  0  0  0
 13 14  1  0  0  0  0
 13 15  1  0  0  0  0
 13 16  1  0  0  0  0
 17 18  1  0  0  0  0
 17 31  1  0  0  0  0
 18 19  2  0  0  0  0
 18 32  1  0  0  0  0
 20 33  1  0  0  0  0
 20 34  1  0  0  0  0
M  END
> <s_m_source_file>
AV-unprocessed.smi

> <i_m_source_file_index>
2591

> <i_lp_mmshare_version>
43012

> <i_f3d_flags>
0

> <s_epik_input>
W0NIM11OMVtDSDJdW0NIMl1PW0NASF0oW0NIMl0xKUMoPU8pW05IXWMyW2NIXWMoQyhGKShGKUYpW2NIXVtjSF1uMg==

> <s_epik_cmdline>
J2VwaWtfcHl0aG9uJywgJy1waCcsICc3LjAnLCAnLXRuJywgJzgnLCAnLW1hJywgJzIwMCcsICctbWV0YWxfYmluZGluZycsICctaW1hZScsICc8aW5maWxlLm1hZT4nLCAnLW9tYWUnLCAnPG91dGZpbGUubWFlPic=

> <r_epik_Ionization_Penalty>
0.526245

> <r_epik_Ionization_Penalty_Charging>
0

> <r_epik_Ionization_Penalty_Neutral>
0.526245

> <r_epik_State_Penalty>
0.534659

> <r_epik_Charging_Adjusted_Penalty>
0.534659

> <i_epik_Tot_Q>
0

> <i_epik_Tot_abs_Q>
0

> <r_epik_Metal_State_Penalty>
0.534657

> <b_epik_Metal_Only>
0

> <s_lp_Force_Field>
OPLS_2005

> <r_lp_Energy>
21.9247

> <b_lp_Chiralities_Consistent>
1

> <s_lp_Variant>
AV-unprocessed.smi:2591-6

> <Gold.Version>
5.8.1

> <Gold.Id.Protein>
6NUR|6NUR_protein|mol2

> <Gold.PLP.Fitness>
45.0854

> <Gold.PLP.PLP>
-42.9667

> <Gold.PLP.part.hbond>
-1.2820

> <Gold.PLP.part.metal>
0.0000

> <Gold.PLP.part.buried>
-2.9681

> <Gold.PLP.part.nonpolar>
-37.9049

> <Gold.PLP.part.repulsive>
0.1921

> <Gold.PLP.ligand.clash>
0.4538

> <Gold.PLP.ligand.torsion>
0.7466

> <Gold.PLP.Chemscore.Hbond>
0.9920

> <Gold.PLP.Chemscore.CHOScore>
0.0000

> <Gold.PLP.Chemscore.Metal>
0.0000

> <Gold.Chemscore.Hbonds>
donor molecule, donor type, donor heavy atom, donor atom, acceptor molecule, acceptor atom, score
      P1  H  7997  8008       L1     8  0.98

> <Gold.PLP.Chemscore.Internal.Correction>
1.0897

> <Gold.Rescore>
     Score         DG    S(hbond)    S(metal)    S(lipo)     H(rot)  DE(clash)    DE(int)     intcor
     15.08     -16.51       0.86        0.00      91.54       1.00       0.06       1.37       ----

> <Gold.Chemscore.Fitness>
15.0813

> <Gold.Chemscore.DG>
-16.5132

> <Gold.Chemscore.ZeroCoef>
-5.4800

> <Gold.Chemscore.Hbond>
0.8633

> <Gold.Chemscore.Metal>
0.0000

> <Gold.Chemscore.Lipo>
91.5365

> <Gold.Chemscore.Internal_Hbond>
0.0000

> <Gold.Chemscore.DEClash>
0.0573

> <Gold.Chemscore.DEInternal>
1.3746

> <Gold.Chemscore.Rot>
1.0000

> <Gold.Chemscore.Internal.Correction>
   9.000000E+99

> <Gold.Chemscore.Hbonds>
donor molecule, donor type, donor heavy atom, donor atom, acceptor molecule, acceptor atom, score
      P1  H  7997  8008       L1     8  0.71

> <Gold.Chemscore.Hbond.Weighted>
-2.8834

> <Gold.Chemscore.Metal.Weighted>
-0.0000

> <Gold.Chemscore.Lipo.Weighted>
-10.7098

> <Gold.Chemscore.Internal_Hbond.Weighted>
0.0000

> <Gold.Chemscore.DEClash.Weighted>
0.0573

> <Gold.Chemscore.DEInternal.Weighted>
1.3746

> <Gold.Chemscore.Rot.Weighted>
2.5600

> <Gold.Chemscore.Internal.Correction.Weighted>
   9.000000E+99

> <Gold.Protein.RotatedTorsions>
[ 6907 6896 6895 6894 ] final  -41.06 input  -60.11 | X-H torsion
[ 7974 7965 7964 7962 ] final   14.44 input  175.53 | X-H torsion
[ 8008 7997 7996 7995 ] final  -79.24 input   59.86 | X-H torsion
[ 10167 10162 10161 10158 ] final   39.74 input  -65.29 | X-H torsion
[ 10718 10713 10712 10709 ] final  -37.62 input   66.30 | X-H torsion
[ 10763 10752 10751 10750 ] final   41.72 input  -60.55 | X-H torsion
[ 11005 11000 10999 10996 ] final   14.67 input  -57.11 | X-H torsion

> <Gold.Protein.ActiveResidues>
 VAL166  LYS551  ARG553  GLY616  TRP617  ASP618  TYR619  PRO620  LYS621  CYS622 
 ASP623  PHE694  ASN695  SER759  ASP760  ASP761  ALA762  ILE779  LEU786  VAL792 
 PHE793  MET794  SER795  GLU796  ALA797  LYS798  CYS799  TRP800  GLU811  SER814 

> <Gold.Protein.RotatedAtoms>
  150.9711  134.9084  159.7788 H   0  0  0  0  0  0  0  0  0  0  0  0  # atno 6907 bound_to 6896
  152.5190  134.3539  159.9271 H   0  0  0  0  0  0  0  0  0  0  0  0  # atno 6908 bound_to 6896
  151.3548  133.3871  159.2718 H   0  0  0  0  0  0  0  0  0  0  0  0  # atno 6909 bound_to 6896
  146.2305  139.9040  142.8535 H   0  0  0  0  0  0  0  0  0  0  0  0  # atno 7974 bound_to 7965
  154.5766  140.0681  156.9043 H   0  0  0  0  0  0  0  0  0  0  0  0  # atno 8008 bound_to 7997
  155.2537  140.3353  155.4261 H   0  0  0  0  0  0  0  0  0  0  0  0  # atno 8009 bound_to 7997
  156.2158  140.1778  156.7576 H   0  0  0  0  0  0  0  0  0  0  0  0  # atno 8010 bound_to 7997
  140.3810  144.1980  150.6131 H   0  0  0  0  0  0  0  0  0  0  0  0  # atno 10167 bound_to 10162
  156.3131  130.4255  149.8031 H   0  0  0  0  0  0  0  0  0  0  0  0  # atno 10718 bound_to 10713
  152.9901  135.6153  154.2833 H   0  0  0  0  0  0  0  0  0  0  0  0  # atno 10763 bound_to 10752
  154.2561  135.2784  155.2799 H   0  0  0  0  0  0  0  0  0  0  0  0  # atno 10764 bound_to 10752
  154.5246  135.5805  153.6766 H   0  0  0  0  0  0  0  0  0  0  0  0  # atno 10765 bound_to 10752
  140.4669  134.1071  155.7726 H   0  0  0  0  0  0  0  0  0  0  0  0  # atno 11005 bound_to 11000
  145.2295  140.9967  143.3999 LP  0  0  0  0  0  0  0  0  0  0  0  0  # atno 17320 bound_to 7965
  144.9542  139.4049  143.6387 LP  0  0  0  0  0  0  0  0  0  0  0  0  # atno 17321 bound_to 7965
  140.4938  143.2339  151.8780 LP  0  0  0  0  0  0  0  0  0  0  0  0  # atno 17342 bound_to 10162
  139.4795  144.5137  151.8898 LP  0  0  0  0  0  0  0  0  0  0  0  0  # atno 17343 bound_to 10162
  156.5367  130.8281  151.3255 LP  0  0  0  0  0  0  0  0  0  0  0  0  # atno 17370 bound_to 10713
  157.7395  130.9833  150.2321 LP  0  0  0  0  0  0  0  0  0  0  0  0  # atno 17371 bound_to 10713
  141.1595  133.8819  157.1886 LP  0  0  0  0  0  0  0  0  0  0  0  0  # atno 17394 bound_to 11000
  139.9910  135.0064  156.9974 LP  0  0  0  0  0  0  0  0  0  0  0  0  # atno 17395 bound_to 11000

$$$$
