AV-unprocessed.smi:1831|AV-procd|sdf|7460|dock9
  -GOLD-   22720 9153D 1   1.00000     0.00000
 Structure written by MMmdl.
 40 41  0  0  0  0  0  0  0  0  3 V2000
  153.0234  141.4287  159.6149 C   0  0  0  0  0  0  0  0  0  0  0  0
  152.5057  140.3482  158.7290 C   0  0  0  0  0  0  0  0  0  0  0  0
  153.3081  139.5493  158.0218 N   0  0  0  0  0  0  0  0  0  0  0  0
  152.5964  138.6207  157.2760 N   0  0  0  0  0  0  0  0  0  0  0  0
  151.2698  138.7249  157.4350 C   0  0  0  0  0  0  0  0  0  0  0  0
  150.4017  137.9189  156.8019 N   0  5  0  0  0  0  0  0  0  0  0  0
  150.8544  137.0120  155.9088 C   0  0  0  0  0  0  0  0  0  0  0  0
  151.9368  137.0446  155.3197 O   0  0  0  0  0  0  0  0  0  0  0  0
  150.0184  135.9808  155.7209 N   0  0  0  0  0  0  0  0  0  0  0  0
  150.2801  134.7836  154.9222 C   0  0  0  0  0  0  0  0  0  0  0  0
  149.1132  133.7637  154.9448 C   0  0  2  0  0  0  0  0  0  0  0  0
  149.2366  132.6610  153.8826 C   0  0  0  0  0  0  0  0  0  0  0  0
  148.2189  133.0117  152.7861 C   0  0  0  0  0  0  0  0  0  0  0  0
  147.5672  134.2784  153.1896 N   0  3  1  0  0  0  0  0  0  0  0  0
  146.1819  134.4815  152.6836 C   0  0  0  0  0  0  0  0  0  0  0  0
  146.1077  134.2654  151.1604 C   0  0  0  0  0  0  0  0  0  0  0  0
  145.6580  135.8870  153.0320 C   0  0  0  0  0  0  0  0  0  0  0  0
  147.7407  134.3807  154.6536 C   0  0  0  0  0  0  0  0  0  0  0  0
  150.7922  140.0220  158.5296 S   0  0  0  0  0  0  0  0  0  0  0  0
  153.5731  140.9951  160.4504 H   0  0  0  0  0  0  0  0  0  0  0  0
  152.1998  142.0240  160.0094 H   0  0  0  0  0  0  0  0  0  0  0  0
  153.6913  142.0846  159.0561 H   0  0  0  0  0  0  0  0  0  0  0  0
  149.1364  136.0119  156.2113 H   0  0  0  0  0  0  0  0  0  0  0  0
  150.4482  135.1111  153.8959 H   0  0  0  0  0  0  0  0  0  0  0  0
  151.2088  134.3039  155.2351 H   0  0  0  0  0  0  0  0  0  0  0  0
  149.0973  133.3151  155.9390 H   0  0  0  0  0  0  0  0  0  0  0  0
  150.2496  132.5788  153.4868 H   0  0  0  0  0  0  0  0  0  0  0  0
  148.9863  131.6924  154.3174 H   0  0  0  0  0  0  0  0  0  0  0  0
  148.6993  133.1295  151.8142 H   0  0  0  0  0  0  0  0  0  0  0  0
  147.4816  132.2119  152.7028 H   0  0  0  0  0  0  0  0  0  0  0  0
  145.5326  133.7477  153.1635 H   0  0  0  0  0  0  0  0  0  0  0  0
  145.1011  134.4553  150.7867 H   0  0  0  0  0  0  0  0  0  0  0  0
  146.3613  133.2434  150.8794 H   0  0  0  0  0  0  0  0  0  0  0  0
  146.7873  134.9343  150.6317 H   0  0  0  0  0  0  0  0  0  0  0  0
  144.6695  136.0535  152.6026 H   0  0  0  0  0  0  0  0  0  0  0  0
  146.3202  136.6636  152.6474 H   0  0  0  0  0  0  0  0  0  0  0  0
  145.5619  136.0313  154.1080 H   0  0  0  0  0  0  0  0  0  0  0  0
  146.9639  133.7938  155.1466 H   0  0  0  0  0  0  0  0  0  0  0  0
  147.6602  135.4057  155.0153 H   0  0  0  0  0  0  0  0  0  0  0  0
  148.1365  135.0170  152.7985 H   0  0  0  0  0  0  0  0  0  0  0  0
  1  2  1  0  0  0  0
  1 20  1  0  0  0  0
  1 21  1  0  0  0  0
  1 22  1  0  0  0  0
  2 19  1  0  0  0  0
  2  3  2  0  0  0  0
  3  4  1  0  0  0  0
  4  5  2  0  0  0  0
  5  6  1  0  0  0  0
  5 19  1  0  0  0  0
  6  7  1  0  0  0  0
  7  8  2  0  0  0  0
  7  9  1  0  0  0  0
  9 10  1  0  0  0  0
  9 23  1  0  0  0  0
 10 11  1  0  0  0  0
 10 24  1  0  0  0  0
 10 25  1  0  0  0  0
 11 18  1  0  0  0  0
 11 12  1  0  0  0  0
 11 26  1  0  0  0  0
 12 13  1  0  0  0  0
 12 27  1  0  0  0  0
 12 28  1  0  0  0  0
 13 14  1  0  0  0  0
 13 29  1  0  0  0  0
 13 30  1  0  0  0  0
 14 15  1  0  0  0  0
 14 18  1  0  0  0  0
 14 40  1  0  0  0  0
 15 16  1  0  0  0  0
 15 17  1  0  0  0  0
 15 31  1  0  0  0  0
 16 32  1  0  0  0  0
 16 33  1  0  0  0  0
 16 34  1  0  0  0  0
 17 35  1  0  0  0  0
 17 36  1  0  0  0  0
 17 37  1  0  0  0  0
 18 38  1  0  0  0  0
 18 39  1  0  0  0  0
M  CHG  1   6  -1
M  CHG  1  14   1
M  END
> <s_m_source_file>
AV-unprocessed.smi

> <i_m_source_file_index>
1831

> <i_lp_mmshare_version>
43012

> <i_f3d_flags>
0

> <s_epik_input>
W0NIM11jMW5uYyhzMSlbTkhdQyg9TylbTkhdW0NIMl1bQ0BASF0yW0NIMl1bQ0gyXU4oW0NIMl0yKVtDSF0oW0NIM10pW0NIM10=

> <s_epik_cmdline>
J2VwaWtfcHl0aG9uJywgJy1waCcsICc3LjAnLCAnLXRuJywgJzgnLCAnLW1hJywgJzIwMCcsICctbWV0YWxfYmluZGluZycsICctaW1hZScsICc8aW5maWxlLm1hZT4nLCAnLW9tYWUnLCAnPG91dGZpbGUubWFlPic=

> <r_lp_tautomer_probability>
1

> <r_epik_Ionization_Penalty>
4.24531

> <r_epik_Ionization_Penalty_Charging>
4.11954

> <r_epik_Ionization_Penalty_Neutral>
0.125766

> <r_epik_State_Penalty>
4.11879

> <r_epik_Charging_Adjusted_Penalty>
8.23833

> <i_epik_Tot_Q>
0

> <i_epik_Tot_abs_Q>
2

> <r_epik_Metal_State_Penalty>
0.659341

> <b_epik_Metal_Only>
1

> <s_lp_Force_Field>
OPLS_2005

> <r_lp_Energy>
22.0545

> <b_lp_Chiralities_Consistent>
1

> <s_lp_Variant>
AV-unprocessed.smi:1831-5

> <Gold.Version>
5.8.1

> <Gold.Id.Protein>
6NUR|6NUR_protein|mol2

> <Gold.PLP.Fitness>
38.7770

> <Gold.PLP.PLP>
-27.1709

> <Gold.PLP.part.hbond>
-3.0000

> <Gold.PLP.part.metal>
0.0000

> <Gold.PLP.part.buried>
-4.9164

> <Gold.PLP.part.nonpolar>
-20.3346

> <Gold.PLP.part.repulsive>
0.1277

> <Gold.PLP.ligand.clash>
0.0000

> <Gold.PLP.ligand.torsion>
0.2088

> <Gold.PLP.Chemscore.Hbond>
3.9920

> <Gold.PLP.Chemscore.CHOScore>
0.0000

> <Gold.PLP.Chemscore.Metal>
0.0000

> <Gold.Chemscore.Hbonds>
donor molecule, donor type, donor heavy atom, donor atom, acceptor molecule, acceptor atom, score
      L1  H    14    40       P1  7948  2.00
      P1  H  7997  8008       L1     3  1.00
      P1  H 10752 10763       L1     8  0.99

> <Gold.PLP.Chemscore.Internal.Correction>
0.0477

> <Gold.Rescore>
     Score         DG    S(hbond)    S(metal)    S(lipo)     H(rot)  DE(clash)    DE(int)     intcor
     16.20     -18.13       2.92        0.00      57.80       1.51       0.00       1.93       ----

> <Gold.Chemscore.Fitness>
16.1987

> <Gold.Chemscore.DG>
-18.1313

> <Gold.Chemscore.ZeroCoef>
-5.4800

> <Gold.Chemscore.Hbond>
2.9227

> <Gold.Chemscore.Metal>
0.0000

> <Gold.Chemscore.Lipo>
57.8031

> <Gold.Chemscore.Internal_Hbond>
0.0000

> <Gold.Chemscore.DEClash>
0.0000

> <Gold.Chemscore.DEInternal>
1.9326

> <Gold.Chemscore.Rot>
1.5131

> <Gold.Chemscore.Internal.Correction>
   9.000000E+99

> <Gold.Chemscore.Hbonds>
donor molecule, donor type, donor heavy atom, donor atom, acceptor molecule, acceptor atom, score
      L1  H    14    40       P1  7948  0.91
      P1  H  7997  8008       L1     3  0.35
      P1  H 10752 10763       L1     8  0.94

> <Gold.Chemscore.Hbond.Weighted>
-9.7618

> <Gold.Chemscore.Metal.Weighted>
-0.0000

> <Gold.Chemscore.Lipo.Weighted>
-6.7630

> <Gold.Chemscore.Internal_Hbond.Weighted>
0.0000

> <Gold.Chemscore.DEClash.Weighted>
0.0000

> <Gold.Chemscore.DEInternal.Weighted>
1.9326

> <Gold.Chemscore.Rot.Weighted>
3.8735

> <Gold.Chemscore.Internal.Correction.Weighted>
   9.000000E+99

> <Gold.Protein.RotatedTorsions>
[ 6907 6896 6895 6894 ] final -146.86 input  -60.11 | X-H torsion
[ 7974 7965 7964 7962 ] final  139.30 input  175.53 | X-H torsion
[ 8008 7997 7996 7995 ] final  -77.71 input   59.86 | X-H torsion
[ 10167 10162 10161 10158 ] final  -92.44 input  -65.29 | X-H torsion
[ 10718 10713 10712 10709 ] final   78.31 input   66.30 | X-H torsion
[ 10763 10752 10751 10750 ] final   66.91 input  -60.55 | X-H torsion
[ 11005 11000 10999 10996 ] final   92.82 input  -57.11 | X-H torsion

> <Gold.Protein.ActiveResidues>
 VAL166  LYS551  ARG553  GLY616  TRP617  ASP618  TYR619  PRO620  LYS621  CYS622 
 ASP623  PHE694  ASN695  SER759  ASP760  ASP761  ALA762  ILE779  LEU786  VAL792 
 PHE793  MET794  SER795  GLU796  ALA797  LYS798  CYS799  TRP800  GLU811  SER814 

> <Gold.Protein.RotatedAtoms>
  151.1476  133.4929  159.2595 H   0  0  0  0  0  0  0  0  0  0  0  0  # atno 6907 bound_to 6896
  151.1588  135.0263  159.8711 H   0  0  0  0  0  0  0  0  0  0  0  0  # atno 6908 bound_to 6896
  152.5463  134.1352  159.8509 H   0  0  0  0  0  0  0  0  0  0  0  0  # atno 6909 bound_to 6896
  144.9291  139.5070  143.5626 H   0  0  0  0  0  0  0  0  0  0  0  0  # atno 7974 bound_to 7965
  154.5621  140.0706  156.8835 H   0  0  0  0  0  0  0  0  0  0  0  0  # atno 8008 bound_to 7997
  155.2792  140.3370  155.4241 H   0  0  0  0  0  0  0  0  0  0  0  0  # atno 8009 bound_to 7997
  156.2051  140.1737  156.7803 H   0  0  0  0  0  0  0  0  0  0  0  0  # atno 8010 bound_to 7997
  140.3347  143.2975  151.9902 H   0  0  0  0  0  0  0  0  0  0  0  0  # atno 10167 bound_to 10162
  157.6740  130.9862  150.1769 H   0  0  0  0  0  0  0  0  0  0  0  0  # atno 10718 bound_to 10713
  153.0161  135.5303  154.6897 H   0  0  0  0  0  0  0  0  0  0  0  0  # atno 10763 bound_to 10752
  154.6035  135.2870  155.0512 H   0  0  0  0  0  0  0  0  0  0  0  0  # atno 10764 bound_to 10752
  154.1561  135.6555  153.5027 H   0  0  0  0  0  0  0  0  0  0  0  0  # atno 10765 bound_to 10752
  139.8818  134.8755  156.3629 H   0  0  0  0  0  0  0  0  0  0  0  0  # atno 11005 bound_to 11000
  146.3239  139.8228  142.8923 LP  0  0  0  0  0  0  0  0  0  0  0  0  # atno 17320 bound_to 7965
  145.3171  141.0234  143.3521 LP  0  0  0  0  0  0  0  0  0  0  0  0  # atno 17321 bound_to 7965
  139.4850  144.6206  151.7263 LP  0  0  0  0  0  0  0  0  0  0  0  0  # atno 17342 bound_to 10162
  140.5364  144.0649  150.6072 LP  0  0  0  0  0  0  0  0  0  0  0  0  # atno 17343 bound_to 10162
  156.2510  130.3700  149.8232 LP  0  0  0  0  0  0  0  0  0  0  0  0  # atno 17370 bound_to 10713
  156.6005  130.8544  151.3430 LP  0  0  0  0  0  0  0  0  0  0  0  0  # atno 17371 bound_to 10713
  140.9517  133.7446  156.0281 LP  0  0  0  0  0  0  0  0  0  0  0  0  # atno 17394 bound_to 11000
  140.8097  134.3413  157.5415 LP  0  0  0  0  0  0  0  0  0  0  0  0  # atno 17395 bound_to 11000

$$$$
