AV-unprocessed.smi:1809|AV-procd|sdf|7311|dock1
  -GOLD-   22720 8563D 1   1.00000     0.00000
 Structure written by MMmdl.
 40 42  0  0  0  0  0  0  0  0  2 V2000
  150.8744  142.2605  156.5975 C   0  0  0  0  0  0  0  0  0  0  0  0
  150.5242  141.1157  155.7096 C   0  0  0  0  0  0  0  0  0  0  0  0
  151.4369  140.2473  155.2571 N   0  0  0  0  0  0  0  0  0  0  0  0
  150.8758  139.2660  154.4517 N   0  0  0  0  0  0  0  0  0  0  0  0
  149.5517  139.4246  154.3196 C   0  0  0  0  0  0  0  0  0  0  0  0
  148.7267  138.5577  153.5547 N   0  0  0  0  0  0  0  0  0  0  0  0
  147.3859  138.5612  153.4529 C   0  0  0  0  0  0  0  0  0  0  0  0
  146.6285  139.3346  154.0396 O   0  0  0  0  0  0  0  0  0  0  0  0
  146.9579  137.6012  152.6202 N   0  0  0  0  0  0  0  0  0  0  0  0
  145.5588  137.2969  152.3323 C   0  0  0  0  0  0  0  0  0  0  0  0
  145.3690  135.9024  151.7057 C   0  0  2  0  0  0  0  0  0  0  0  0
  143.9685  135.6830  151.0930 C   0  0  0  0  0  0  0  0  0  0  0  0
  143.7621  134.2823  150.6575 N   0  3  1  0  0  0  0  0  0  0  0  0
  144.3347  133.9087  149.3455 C   0  0  0  0  0  0  0  0  0  0  0  0
  144.6818  132.4141  149.4366 C   0  0  0  0  0  0  0  0  0  0  0  0
  144.2242  131.9715  150.8309 C   0  0  0  0  0  0  0  0  0  0  0  0
  144.1851  133.2668  151.6430 C   0  0  1  0  0  0  0  0  0  0  0  0
  145.5607  133.6154  152.2526 C   0  0  0  0  0  0  0  0  0  0  0  0
  145.5575  134.9479  152.7438 O   0  0  0  0  0  0  0  0  0  0  0  0
  148.8761  140.7959  155.1827 S   0  0  0  0  0  0  0  0  0  0  0  0
  151.8768  142.6250  156.3710 H   0  0  0  0  0  0  0  0  0  0  0  0
  150.8426  141.9451  157.6405 H   0  0  0  0  0  0  0  0  0  0  0  0
  150.1672  143.0781  156.4562 H   0  0  0  0  0  0  0  0  0  0  0  0
  149.2157  137.8464  153.0317 H   0  0  0  0  0  0  0  0  0  0  0  0
  147.6497  137.0130  152.1785 H   0  0  0  0  0  0  0  0  0  0  0  0
  145.0201  137.3400  153.2792 H   0  0  0  0  0  0  0  0  0  0  0  0
  145.1140  138.0662  151.6984 H   0  0  0  0  0  0  0  0  0  0  0  0
  146.1387  135.7586  150.9455 H   0  0  0  0  0  0  0  0  0  0  0  0
  143.2090  135.9139  151.8411 H   0  0  0  0  0  0  0  0  0  0  0  0
  143.7914  136.3517  150.2503 H   0  0  0  0  0  0  0  0  0  0  0  0
  143.6116  134.1117  148.5552 H   0  0  0  0  0  0  0  0  0  0  0  0
  145.2335  134.4878  149.1292 H   0  0  0  0  0  0  0  0  0  0  0  0
  144.2017  131.8309  148.6502 H   0  0  0  0  0  0  0  0  0  0  0  0
  145.7589  132.2775  149.3334 H   0  0  0  0  0  0  0  0  0  0  0  0
  143.2187  131.5539  150.7658 H   0  0  0  0  0  0  0  0  0  0  0  0
  144.8695  131.2085  151.2679 H   0  0  0  0  0  0  0  0  0  0  0  0
  143.4444  133.2073  152.4415 H   0  0  0  0  0  0  0  0  0  0  0  0
  145.7845  132.9376  153.0767 H   0  0  0  0  0  0  0  0  0  0  0  0
  146.3646  133.4963  151.5243 H   0  0  0  0  0  0  0  0  0  0  0  0
  142.7654  134.1593  150.5475 H   0  0  0  0  0  0  0  0  0  0  0  0
  1  2  1  0  0  0  0
  1 21  1  0  0  0  0
  1 22  1  0  0  0  0
  1 23  1  0  0  0  0
  2 20  1  0  0  0  0
  2  3  2  0  0  0  0
  3  4  1  0  0  0  0
  4  5  2  0  0  0  0
  5  6  1  0  0  0  0
  5 20  1  0  0  0  0
  6  7  1  0  0  0  0
  6 24  1  0  0  0  0
  7  8  2  0  0  0  0
  7  9  1  0  0  0  0
  9 10  1  0  0  0  0
  9 25  1  0  0  0  0
 10 11  1  0  0  0  0
 10 26  1  0  0  0  0
 10 27  1  0  0  0  0
 11 19  1  0  0  0  0
 11 12  1  0  0  0  0
 11 28  1  0  0  0  0
 12 13  1  0  0  0  0
 12 29  1  0  0  0  0
 12 30  1  0  0  0  0
 13 17  1  0  0  0  0
 13 14  1  0  0  0  0
 13 40  1  0  0  0  0
 14 15  1  0  0  0  0
 14 31  1  0  0  0  0
 14 32  1  0  0  0  0
 15 16  1  0  0  0  0
 15 33  1  0  0  0  0
 15 34  1  0  0  0  0
 16 17  1  0  0  0  0
 16 35  1  0  0  0  0
 16 36  1  0  0  0  0
 17 18  1  0  0  0  0
 17 37  1  0  0  0  0
 18 19  1  0  0  0  0
 18 38  1  0  0  0  0
 18 39  1  0  0  0  0
M  CHG  1  13   1
M  END
> <s_m_source_file>
AV-unprocessed.smi

> <i_m_source_file_index>
1809

> <i_lp_mmshare_version>
43012

> <i_f3d_flags>
0

> <s_epik_input>
W0NIM11jMW5uYyhzMSlbTkhdQyg9TylbTkhdW0NIMl1bQ0BIXShbQ0gyXTIpT1tDSDJdW0NAQEhdKE4yMylbQ0gyXVtDSDJdW0NIMl0z

> <s_epik_cmdline>
J2VwaWtfcHl0aG9uJywgJy1waCcsICc3LjAnLCAnLXRuJywgJzgnLCAnLW1hJywgJzIwMCcsICctbWV0YWxfYmluZGluZycsICctaW1hZScsICc8aW5maWxlLm1hZT4nLCAnLW9tYWUnLCAnPG91dGZpbGUubWFlPic=

> <r_lp_tautomer_probability>
1

> <r_epik_Ionization_Penalty>
0.112474

> <r_epik_Ionization_Penalty_Charging>
0.108916

> <r_epik_Ionization_Penalty_Neutral>
0.00355844

> <r_epik_State_Penalty>
0.0565397

> <r_epik_Charging_Adjusted_Penalty>
0.165456

> <i_epik_Tot_Q>
1

> <i_epik_Tot_abs_Q>
1

> <r_epik_Metal_State_Penalty>
0.422831

> <b_epik_Metal_Only>
0

> <s_lp_Force_Field>
OPLS_2005

> <r_lp_Energy>
35.5904

> <b_lp_Chiralities_Consistent>
1

> <s_lp_Variant>
AV-unprocessed.smi:1809-3

> <Gold.Version>
5.8.1

> <Gold.Id.Protein>
6NUR|6NUR_protein|mol2

> <Gold.PLP.Fitness>
45.7169

> <Gold.PLP.PLP>
-34.4743

> <Gold.PLP.part.hbond>
-5.9482

> <Gold.PLP.part.metal>
0.0000

> <Gold.PLP.part.buried>
-0.4168

> <Gold.PLP.part.nonpolar>
-27.7948

> <Gold.PLP.part.repulsive>
0.5143

> <Gold.PLP.ligand.clash>
0.0000

> <Gold.PLP.ligand.torsion>
0.2236

> <Gold.PLP.Chemscore.Hbond>
3.8960

> <Gold.PLP.Chemscore.CHOScore>
0.0000

> <Gold.PLP.Chemscore.Metal>
0.0000

> <Gold.Chemscore.Hbonds>
donor molecule, donor type, donor heavy atom, donor atom, acceptor molecule, acceptor atom, score
      L1  H     6    24       P1  7948  0.90
      L1  H     9    25       P1  7948  1.00
      L1  H    13    40       P1 10186  1.98

> <Gold.PLP.Chemscore.Internal.Correction>
0.0017

> <Gold.Rescore>
     Score         DG    S(hbond)    S(metal)    S(lipo)     H(rot)  DE(clash)    DE(int)     intcor
     18.40     -20.23       2.72        0.00      77.79       1.34       0.39       1.44       ----

> <Gold.Chemscore.Fitness>
18.3988

> <Gold.Chemscore.DG>
-20.2316

> <Gold.Chemscore.ZeroCoef>
-5.4800

> <Gold.Chemscore.Hbond>
2.7181

> <Gold.Chemscore.Metal>
0.0000

> <Gold.Chemscore.Lipo>
77.7878

> <Gold.Chemscore.Internal_Hbond>
0.0000

> <Gold.Chemscore.DEClash>
0.3919

> <Gold.Chemscore.DEInternal>
1.4409

> <Gold.Chemscore.Rot>
1.3391

> <Gold.Chemscore.Internal.Correction>
   9.000000E+99

> <Gold.Chemscore.Hbonds>
donor molecule, donor type, donor heavy atom, donor atom, acceptor molecule, acceptor atom, score
      L1  H     6    24       P1  7948  0.85
      L1  H     9    25       P1  7948  0.93
      L1  H    13    40       P1 10186  0.67

> <Gold.Chemscore.Hbond.Weighted>
-9.0785

> <Gold.Chemscore.Metal.Weighted>
-0.0000

> <Gold.Chemscore.Lipo.Weighted>
-9.1012

> <Gold.Chemscore.Internal_Hbond.Weighted>
0.0000

> <Gold.Chemscore.DEClash.Weighted>
0.3919

> <Gold.Chemscore.DEInternal.Weighted>
1.4409

> <Gold.Chemscore.Rot.Weighted>
3.4281

> <Gold.Chemscore.Internal.Correction.Weighted>
   9.000000E+99

> <Gold.Protein.RotatedTorsions>
[ 6907 6896 6895 6894 ] final -166.39 input  -60.11 | X-H torsion
[ 7974 7965 7964 7962 ] final  169.30 input  175.53 | X-H torsion
[ 8008 7997 7996 7995 ] final  118.09 input   59.86 | X-H torsion
[ 10167 10162 10161 10158 ] final   33.13 input  -65.29 | X-H torsion
[ 10718 10713 10712 10709 ] final   69.67 input   66.30 | X-H torsion
[ 10763 10752 10751 10750 ] final  179.93 input  -60.55 | X-H torsion
[ 11005 11000 10999 10996 ] final -169.36 input  -57.11 | X-H torsion

> <Gold.Protein.ActiveResidues>
 VAL166  LYS551  ARG553  GLY616  TRP617  ASP618  TYR619  PRO620  LYS621  CYS622 
 ASP623  PHE694  ASN695  SER759  ASP760  ASP761  ALA762  ILE779  LEU786  VAL792 
 PHE793  MET794  SER795  GLU796  ALA797  LYS798  CYS799  TRP800  GLU811  SER814 

> <Gold.Protein.RotatedAtoms>
  151.4428  133.3638  159.2783 H   0  0  0  0  0  0  0  0  0  0  0  0  # atno 6907 bound_to 6896
  150.9145  134.8564  159.7458 H   0  0  0  0  0  0  0  0  0  0  0  0  # atno 6908 bound_to 6896
  152.4950  134.4361  159.9580 H   0  0  0  0  0  0  0  0  0  0  0  0  # atno 6909 bound_to 6896
  144.7360  139.9034  143.6410 H   0  0  0  0  0  0  0  0  0  0  0  0  # atno 7974 bound_to 7965
  156.2528  140.2882  156.0780 H   0  0  0  0  0  0  0  0  0  0  0  0  # atno 8008 bound_to 7997
  155.1598  140.0399  157.2857 H   0  0  0  0  0  0  0  0  0  0  0  0  # atno 8009 bound_to 7997
  154.6401  140.2520  155.7339 H   0  0  0  0  0  0  0  0  0  0  0  0  # atno 8010 bound_to 7997
  140.4436  144.1152  150.6178 H   0  0  0  0  0  0  0  0  0  0  0  0  # atno 10167 bound_to 10162
  157.6358  130.9438  150.0545 H   0  0  0  0  0  0  0  0  0  0  0  0  # atno 10718 bound_to 10713
  154.5270  135.2797  155.1213 H   0  0  0  0  0  0  0  0  0  0  0  0  # atno 10763 bound_to 10752
  154.2748  135.6297  153.5327 H   0  0  0  0  0  0  0  0  0  0  0  0  # atno 10764 bound_to 10752
  152.9949  135.5637  154.5774 H   0  0  0  0  0  0  0  0  0  0  0  0  # atno 10765 bound_to 10752
  140.5316  134.5611  157.5076 H   0  0  0  0  0  0  0  0  0  0  0  0  # atno 11005 bound_to 11000
  146.1055  139.4054  143.0320 LP  0  0  0  0  0  0  0  0  0  0  0  0  # atno 17320 bound_to 7965
  145.7518  140.9969  143.1246 LP  0  0  0  0  0  0  0  0  0  0  0  0  # atno 17321 bound_to 7965
  140.4290  143.2577  151.9620 LP  0  0  0  0  0  0  0  0  0  0  0  0  # atno 17342 bound_to 10162
  139.4791  144.5761  151.8009 LP  0  0  0  0  0  0  0  0  0  0  0  0  # atno 17343 bound_to 10162
  156.1597  130.3643  149.9317 LP  0  0  0  0  0  0  0  0  0  0  0  0  # atno 17370 bound_to 10713
  156.7318  130.9046  151.3626 LP  0  0  0  0  0  0  0  0  0  0  0  0  # atno 17371 bound_to 10713
  139.9551  134.7549  156.0359 LP  0  0  0  0  0  0  0  0  0  0  0  0  # atno 17394 bound_to 11000
  141.1278  133.6594  156.3383 LP  0  0  0  0  0  0  0  0  0  0  0  0  # atno 17395 bound_to 11000

$$$$
