AV-unprocessed.smi:1762|AV-procd|sdf|7124|dock9
  -GOLD-   22720 8363D 1   1.00000     0.00000
 Structure written by MMmdl.
 52 53  0  0  0  0  0  0  0  0  3 V2000
  150.1647  134.5552  154.1514 C   0  0  0  0  0  0  0  0  0  0  0  0
  149.9622  135.4653  155.3761 C   0  0  1  0  0  0  0  0  0  0  0  0
  149.9851  136.9675  155.0311 C   0  0  0  0  0  0  0  0  0  0  0  0
  148.7403  137.3880  154.3297 N   0  3  2  0  0  0  0  0  0  0  0  0
  148.7073  138.8254  153.8960 C   0  0  2  0  0  0  0  0  0  0  0  0
  149.1278  139.7584  155.0583 C   0  0  0  0  0  0  0  0  0  0  0  0
  148.2984  140.0208  155.9361 O   0  0  0  0  0  0  0  0  0  0  0  0
  150.4289  140.1369  154.9382 N   0  5  0  0  0  0  0  0  0  0  0  0
  151.2477  140.6344  156.0419 C   0  0  0  0  0  0  0  0  0  0  0  0
  150.6999  141.9889  156.5483 C   0  0  0  0  0  0  0  0  0  0  0  0
  151.3576  142.5283  157.8172 C   0  0  0  0  0  0  0  0  0  0  0  0
  152.1133  141.6745  158.6534 C   0  0  0  0  0  0  0  0  0  0  0  0
  152.6909  142.2095  159.8205 C   0  0  0  0  0  0  0  0  0  0  0  0
  152.4884  143.5712  160.1146 C   0  0  0  0  0  0  0  0  0  0  0  0
  151.7128  144.3402  159.2245 C   0  0  0  0  0  0  0  0  0  0  0  0
  151.1532  143.8378  158.1031 N   0  0  0  0  0  0  0  0  0  0  0  0
  147.3503  139.2882  153.2640 C   0  0  0  0  0  0  0  0  0  0  0  0
  147.0435  138.5891  151.9249 C   0  0  0  0  0  0  0  0  0  0  0  0
  147.2018  140.8168  153.1105 C   0  0  0  0  0  0  0  0  0  0  0  0
  147.5675  137.0010  155.1644 C   0  0  0  0  0  0  0  0  0  0  0  0
  147.5684  135.4909  155.4513 C   0  0  2  0  0  0  0  0  0  0  0  0
  146.4046  135.0808  156.3607 C   0  0  0  0  0  0  0  0  0  0  0  0
  148.7816  135.1371  156.1051 O   0  0  0  0  0  0  0  0  0  0  0  0
  151.1413  134.7293  153.6990 H   0  0  0  0  0  0  0  0  0  0  0  0
  149.4168  134.7281  153.3779 H   0  0  0  0  0  0  0  0  0  0  0  0
  150.1170  133.5037  154.4353 H   0  0  0  0  0  0  0  0  0  0  0  0
  150.7946  135.2692  156.0526 H   0  0  0  0  0  0  0  0  0  0  0  0
  150.0932  137.5558  155.9437 H   0  0  0  0  0  0  0  0  0  0  0  0
  150.8735  137.1511  154.4305 H   0  0  0  0  0  0  0  0  0  0  0  0
  149.4475  138.8976  153.0948 H   0  0  0  0  0  0  0  0  0  0  0  0
  151.2810  139.9243  156.8684 H   0  0  0  0  0  0  0  0  0  0  0  0
  152.2860  140.7833  155.7413 H   0  0  0  0  0  0  0  0  0  0  0  0
  150.8215  142.7342  155.7612 H   0  0  0  0  0  0  0  0  0  0  0  0
  149.6241  141.9118  156.7127 H   0  0  0  0  0  0  0  0  0  0  0  0
  152.2541  140.6342  158.3988 H   0  0  0  0  0  0  0  0  0  0  0  0
  153.2783  141.5859  160.4782 H   0  0  0  0  0  0  0  0  0  0  0  0
  152.9170  144.0152  161.0007 H   0  0  0  0  0  0  0  0  0  0  0  0
  151.5352  145.3873  159.4202 H   0  0  0  0  0  0  0  0  0  0  0  0
  146.5511  138.9524  153.9234 H   0  0  0  0  0  0  0  0  0  0  0  0
  147.7191  138.9101  151.1312 H   0  0  0  0  0  0  0  0  0  0  0  0
  146.0281  138.8082  151.5938 H   0  0  0  0  0  0  0  0  0  0  0  0
  147.1313  137.5061  152.0176 H   0  0  0  0  0  0  0  0  0  0  0  0
  147.8716  141.2142  152.3483 H   0  0  0  0  0  0  0  0  0  0  0  0
  147.4088  141.3458  154.0401 H   0  0  0  0  0  0  0  0  0  0  0  0
  146.1864  141.0763  152.8100 H   0  0  0  0  0  0  0  0  0  0  0  0
  147.5871  137.5645  156.0989 H   0  0  0  0  0  0  0  0  0  0  0  0
  146.6271  137.2469  154.6723 H   0  0  0  0  0  0  0  0  0  0  0  0
  147.4748  134.9397  154.5152 H   0  0  0  0  0  0  0  0  0  0  0  0
  145.4450  135.3221  155.9026 H   0  0  0  0  0  0  0  0  0  0  0  0
  146.4545  135.5933  157.3219 H   0  0  0  0  0  0  0  0  0  0  0  0
  146.4193  134.0079  156.5534 H   0  0  0  0  0  0  0  0  0  0  0  0
  148.6865  136.8440  153.4804 H   0  0  0  0  0  0  0  0  0  0  0  0
  1  2  1  0  0  0  0
  1 24  1  0  0  0  0
  1 25  1  0  0  0  0
  1 26  1  0  0  0  0
  2 23  1  0  0  0  0
  2  3  1  0  0  0  0
  2 27  1  0  0  0  0
  3  4  1  0  0  0  0
  3 28  1  0  0  0  0
  3 29  1  0  0  0  0
  4  5  1  0  0  0  0
  4 20  1  0  0  0  0
  4 52  1  0  0  0  0
  5  6  1  0  0  0  0
  5 17  1  0  0  0  0
  5 30  1  0  0  0  0
  6  7  2  0  0  0  0
  6  8  1  0  0  0  0
  8  9  1  0  0  0  0
  9 10  1  0  0  0  0
  9 31  1  0  0  0  0
  9 32  1  0  0  0  0
 10 11  1  0  0  0  0
 10 33  1  0  0  0  0
 10 34  1  0  0  0  0
 11 16  1  0  0  0  0
 11 12  2  0  0  0  0
 12 13  1  0  0  0  0
 12 35  1  0  0  0  0
 13 14  2  0  0  0  0
 13 36  1  0  0  0  0
 14 15  1  0  0  0  0
 14 37  1  0  0  0  0
 15 16  2  0  0  0  0
 15 38  1  0  0  0  0
 17 18  1  0  0  0  0
 17 19  1  0  0  0  0
 17 39  1  0  0  0  0
 18 40  1  0  0  0  0
 18 41  1  0  0  0  0
 18 42  1  0  0  0  0
 19 43  1  0  0  0  0
 19 44  1  0  0  0  0
 19 45  1  0  0  0  0
 20 21  1  0  0  0  0
 20 46  1  0  0  0  0
 20 47  1  0  0  0  0
 21 22  1  0  0  0  0
 21 23  1  0  0  0  0
 21 48  1  0  0  0  0
 22 49  1  0  0  0  0
 22 50  1  0  0  0  0
 22 51  1  0  0  0  0
M  CHG  1   4   1
M  CHG  1   8  -1
M  END
> <s_m_source_file>
AV-unprocessed.smi

> <i_m_source_file_index>
1762

> <i_lp_mmshare_version>
43012

> <i_f3d_flags>
0

> <s_epik_input>
W0NIM11bQ0BASF0xW0NIMl1OKFtDSDJdW0NASF0oTzEpW0NIM10pW0NAQEhdKFtDSF0oW0NIM10pW0NIM10pQyg9TylbTkhdW0NIMl1bQ0gyXWMyW2NIXVtjSF1bY0hdW2NIXW4y

> <s_epik_cmdline>
J2VwaWtfcHl0aG9uJywgJy1waCcsICc3LjAnLCAnLXRuJywgJzgnLCAnLW1hJywgJzIwMCcsICctbWV0YWxfYmluZGluZycsICctaW1hZScsICc8aW5maWxlLm1hZT4nLCAnLW9tYWUnLCAnPG91dGZpbGUubWFlPic=

> <r_epik_Ionization_Penalty>
7.82966

> <r_epik_Ionization_Penalty_Charging>
7.7461

> <r_epik_Ionization_Penalty_Neutral>
0.0835571

> <r_epik_State_Penalty>
8.52273

> <r_epik_Charging_Adjusted_Penalty>
16.2688

> <i_epik_Tot_Q>
0

> <i_epik_Tot_abs_Q>
2

> <r_epik_Metal_State_Penalty>
4.47451

> <b_epik_Metal_Only>
1

> <s_lp_Force_Field>
OPLS_2005

> <r_lp_Energy>
24.9826

> <b_lp_Chiralities_Consistent>
1

> <s_lp_Variant>
AV-unprocessed.smi:1762-26

> <Gold.Version>
5.8.1

> <Gold.Id.Protein>
6NUR|6NUR_protein|mol2

> <Gold.PLP.Fitness>
45.4127

> <Gold.PLP.PLP>
-39.5102

> <Gold.PLP.part.hbond>
-2.0000

> <Gold.PLP.part.metal>
0.0000

> <Gold.PLP.part.buried>
-2.3537

> <Gold.PLP.part.nonpolar>
-35.0918

> <Gold.PLP.part.repulsive>
0.2567

> <Gold.PLP.ligand.clash>
0.0000

> <Gold.PLP.ligand.torsion>
1.0498

> <Gold.PLP.Chemscore.Hbond>
2.5500

> <Gold.PLP.Chemscore.CHOScore>
0.0000

> <Gold.PLP.Chemscore.Metal>
0.0000

> <Gold.Chemscore.Hbonds>
donor molecule, donor type, donor heavy atom, donor atom, acceptor molecule, acceptor atom, score
      L1  H     4    52       P1  7948  2.00
      P1  H  7989  7998       L1     8  0.75

> <Gold.PLP.Chemscore.Internal.Correction>
0.3521

> <Gold.Rescore>
     Score         DG    S(hbond)    S(metal)    S(lipo)     H(rot)  DE(clash)    DE(int)     intcor
     17.30     -18.24       1.00        0.00     115.60       1.60       0.15       0.79       ----

> <Gold.Chemscore.Fitness>
17.3047

> <Gold.Chemscore.DG>
-18.2445

> <Gold.Chemscore.ZeroCoef>
-5.4800

> <Gold.Chemscore.Hbond>
0.9997

> <Gold.Chemscore.Metal>
0.0000

> <Gold.Chemscore.Lipo>
115.5950

> <Gold.Chemscore.Internal_Hbond>
0.0000

> <Gold.Chemscore.DEClash>
0.1455

> <Gold.Chemscore.DEInternal>
0.7942

> <Gold.Chemscore.Rot>
1.6012

> <Gold.Chemscore.Internal.Correction>
   9.000000E+99

> <Gold.Chemscore.Hbonds>
donor molecule, donor type, donor heavy atom, donor atom, acceptor molecule, acceptor atom, score
      L1  H     4    52       P1  7948  1.00
      P1  H  7989  7998       L1     8  0.09

> <Gold.Chemscore.Hbond.Weighted>
-3.3388

> <Gold.Chemscore.Metal.Weighted>
-0.0000

> <Gold.Chemscore.Lipo.Weighted>
-13.5246

> <Gold.Chemscore.Internal_Hbond.Weighted>
0.0000

> <Gold.Chemscore.DEClash.Weighted>
0.1455

> <Gold.Chemscore.DEInternal.Weighted>
0.7942

> <Gold.Chemscore.Rot.Weighted>
4.0990

> <Gold.Chemscore.Internal.Correction.Weighted>
   9.000000E+99

> <Gold.Protein.RotatedTorsions>
[ 6907 6896 6895 6894 ] final  110.18 input  -60.11 | X-H torsion
[ 7974 7965 7964 7962 ] final  -78.33 input  175.53 | X-H torsion
[ 8008 7997 7996 7995 ] final   96.83 input   59.86 | X-H torsion
[ 10167 10162 10161 10158 ] final   69.96 input  -65.29 | X-H torsion
[ 10718 10713 10712 10709 ] final -106.60 input   66.30 | X-H torsion
[ 10763 10752 10751 10750 ] final  133.58 input  -60.55 | X-H torsion
[ 11005 11000 10999 10996 ] final  134.79 input  -57.11 | X-H torsion

> <Gold.Protein.ActiveResidues>
 VAL166  LYS551  ARG553  GLY616  TRP617  ASP618  TYR619  PRO620  LYS621  CYS622 
 ASP623  PHE694  ASN695  SER759  ASP760  ASP761  ALA762  ILE779  LEU786  VAL792 
 PHE793  MET794  SER795  GLU796  ALA797  LYS798  CYS799  TRP800  GLU811  SER814 

> <Gold.Protein.RotatedAtoms>
  152.5032  133.8837  159.7358 H   0  0  0  0  0  0  0  0  0  0  0  0  # atno 6907 bound_to 6896
  150.9293  133.6777  159.2821 H   0  0  0  0  0  0  0  0  0  0  0  0  # atno 6908 bound_to 6896
  151.4127  135.0992  159.9642 H   0  0  0  0  0  0  0  0  0  0  0  0  # atno 6909 bound_to 6896
  145.5879  140.9435  143.1308 H   0  0  0  0  0  0  0  0  0  0  0  0  # atno 7974 bound_to 7965
  156.0837  140.3267  155.7727 H   0  0  0  0  0  0  0  0  0  0  0  0  # atno 8008 bound_to 7997
  155.5110  140.0577  157.2940 H   0  0  0  0  0  0  0  0  0  0  0  0  # atno 8009 bound_to 7997
  154.4597  140.1960  156.0296 H   0  0  0  0  0  0  0  0  0  0  0  0  # atno 8010 bound_to 7997
  140.0621  144.5224  150.7287 H   0  0  0  0  0  0  0  0  0  0  0  0  # atno 10167 bound_to 10162
  156.0397  130.5621  150.7703 H   0  0  0  0  0  0  0  0  0  0  0  0  # atno 10718 bound_to 10713
  153.8095  135.3131  155.3399 H   0  0  0  0  0  0  0  0  0  0  0  0  # atno 10763 bound_to 10752
  154.8057  135.4699  154.0389 H   0  0  0  0  0  0  0  0  0  0  0  0  # atno 10764 bound_to 10752
  153.1763  135.6886  153.8627 H   0  0  0  0  0  0  0  0  0  0  0  0  # atno 10765 bound_to 10752
  139.9937  134.9505  156.9916 H   0  0  0  0  0  0  0  0  0  0  0  0  # atno 11005 bound_to 11000
  144.7364  139.7573  143.7327 LP  0  0  0  0  0  0  0  0  0  0  0  0  # atno 17320 bound_to 7965
  146.1668  139.4803  142.9953 LP  0  0  0  0  0  0  0  0  0  0  0  0  # atno 17321 bound_to 7965
  140.7167  143.2551  151.4412 LP  0  0  0  0  0  0  0  0  0  0  0  0  # atno 17342 bound_to 10162
  139.5887  144.1546  152.2062 LP  0  0  0  0  0  0  0  0  0  0  0  0  # atno 17343 bound_to 10162
  157.5199  131.0931  151.0092 LP  0  0  0  0  0  0  0  0  0  0  0  0  # atno 17370 bound_to 10713
  157.0425  130.5755  149.5358 LP  0  0  0  0  0  0  0  0  0  0  0  0  # atno 17371 bound_to 10713
  140.4859  134.1242  155.7224 LP  0  0  0  0  0  0  0  0  0  0  0  0  # atno 17394 bound_to 11000
  141.1587  133.8834  157.1907 LP  0  0  0  0  0  0  0  0  0  0  0  0  # atno 17395 bound_to 11000

$$$$
