AV-unprocessed.smi:1933|AV-procd|sdf|7820|dock4
  -GOLD-   22720 9563D 1   1.00000     0.00000
 Structure written by MMmdl.
 48 50  0  0  0  0  0  0  0  0  2 V2000
  148.3737  132.9083  154.9085 O   0  0  0  0  0  0  0  0  0  0  0  0
  148.5150  133.8716  154.1550 C   0  0  0  0  0  0  0  0  0  0  0  0
  149.1839  134.9846  154.4907 N   0  0  0  0  0  0  0  0  0  0  0  0
  149.8452  135.2271  155.7696 C   0  0  0  0  0  0  0  0  0  0  0  0
  149.2471  136.4292  156.5536 C   0  0  1  0  0  0  0  0  0  0  0  0
  149.3786  136.3158  158.1009 C   0  0  2  0  0  0  0  0  0  0  0  0
  148.4355  135.3239  158.7858 C   0  0  0  0  0  0  0  0  0  0  0  0
  148.0287  135.9974  160.0997 C   0  0  0  0  0  0  0  0  0  0  0  0
  148.8220  137.1702  160.1786 O   0  0  0  0  0  0  0  0  0  0  0  0
  149.0475  137.6094  158.8530 C   0  0  0  0  0  0  0  0  0  0  0  0
  149.8246  137.7282  156.0909 N   0  3  0  0  0  0  0  0  0  0  0  0
  151.2902  137.8940  156.2652 C   0  0  0  0  0  0  0  0  0  0  0  0
  151.6934  139.3399  155.9337 C   0  0  0  0  0  0  0  0  0  0  0  0
  151.2947  139.6497  154.6032 O   0  0  0  0  0  0  0  0  0  0  0  0
  149.8849  139.5627  154.4301 C   0  0  0  0  0  0  0  0  0  0  0  0
  149.4112  138.1288  154.7239 C   0  0  0  0  0  0  0  0  0  0  0  0
  148.0051  133.9689  152.9151 N   0  0  0  0  0  0  0  0  0  0  0  0
  147.1346  133.0625  152.2555 C   0  0  0  0  0  0  0  0  0  0  0  0
  146.5649  133.3946  150.9997 C   0  0  0  0  0  0  0  0  0  0  0  0
  145.6895  132.4844  150.3767 C   0  0  0  0  0  0  0  0  0  0  0  0
  145.3947  131.2732  151.0269 C   0  0  0  0  0  0  0  0  0  0  0  0
  145.9867  131.0326  152.2801 C   0  0  0  0  0  0  0  0  0  0  0  0
  146.8258  131.9030  152.8808 N   0  0  0  0  0  0  0  0  0  0  0  0
  149.2424  135.7225  153.8041 H   0  0  0  0  0  0  0  0  0  0  0  0
  149.8243  134.3268  156.3847 H   0  0  0  0  0  0  0  0  0  0  0  0
  150.8946  135.4096  155.5412 H   0  0  0  0  0  0  0  0  0  0  0  0
  148.1788  136.4718  156.3353 H   0  0  0  0  0  0  0  0  0  0  0  0
  150.4005  136.0345  158.3598 H   0  0  0  0  0  0  0  0  0  0  0  0
  147.5478  135.1196  158.1864 H   0  0  0  0  0  0  0  0  0  0  0  0
  148.9359  134.3747  158.9768 H   0  0  0  0  0  0  0  0  0  0  0  0
  146.9740  136.2756  160.0782 H   0  0  0  0  0  0  0  0  0  0  0  0
  148.1937  135.3571  160.9667 H   0  0  0  0  0  0  0  0  0  0  0  0
  149.8561  138.3399  158.8157 H   0  0  0  0  0  0  0  0  0  0  0  0
  148.1415  138.0772  158.4630 H   0  0  0  0  0  0  0  0  0  0  0  0
  151.5841  137.6583  157.2875 H   0  0  0  0  0  0  0  0  0  0  0  0
  151.8310  137.2133  155.6069 H   0  0  0  0  0  0  0  0  0  0  0  0
  151.2418  140.0421  156.6364 H   0  0  0  0  0  0  0  0  0  0  0  0
  152.7740  139.4575  156.0154 H   0  0  0  0  0  0  0  0  0  0  0  0
  149.3825  140.2793  155.0819 H   0  0  0  0  0  0  0  0  0  0  0  0
  149.6375  139.8373  153.4046 H   0  0  0  0  0  0  0  0  0  0  0  0
  149.8316  137.4446  153.9864 H   0  0  0  0  0  0  0  0  0  0  0  0
  148.3259  138.0779  154.6303 H   0  0  0  0  0  0  0  0  0  0  0  0
  148.1335  134.8558  152.4510 H   0  0  0  0  0  0  0  0  0  0  0  0
  146.7767  134.3341  150.5117 H   0  0  0  0  0  0  0  0  0  0  0  0
  145.2480  132.7155  149.4185 H   0  0  0  0  0  0  0  0  0  0  0  0
  144.7275  130.5509  150.5803 H   0  0  0  0  0  0  0  0  0  0  0  0
  145.7806  130.1181  152.8163 H   0  0  0  0  0  0  0  0  0  0  0  0
  149.4045  138.4197  156.6957 H   0  0  0  0  0  0  0  0  0  0  0  0
  1  2  2  0  0  0  0
  2  3  1  0  0  0  0
  2 17  1  0  0  0  0
  3  4  1  0  0  0  0
  3 24  1  0  0  0  0
  4  5  1  0  0  0  0
  4 25  1  0  0  0  0
  4 26  1  0  0  0  0
  5  6  1  0  0  0  0
  5 11  1  0  0  0  0
  5 27  1  0  0  0  0
  6 10  1  0  0  0  0
  6  7  1  0  0  0  0
  6 28  1  0  0  0  0
  7  8  1  0  0  0  0
  7 29  1  0  0  0  0
  7 30  1  0  0  0  0
  8  9  1  0  0  0  0
  8 31  1  0  0  0  0
  8 32  1  0  0  0  0
  9 10  1  0  0  0  0
 10 33  1  0  0  0  0
 10 34  1  0  0  0  0
 11 16  1  0  0  0  0
 11 12  1  0  0  0  0
 11 48  1  0  0  0  0
 12 13  1  0  0  0  0
 12 35  1  0  0  0  0
 12 36  1  0  0  0  0
 13 14  1  0  0  0  0
 13 37  1  0  0  0  0
 13 38  1  0  0  0  0
 14 15  1  0  0  0  0
 15 16  1  0  0  0  0
 15 39  1  0  0  0  0
 15 40  1  0  0  0  0
 16 41  1  0  0  0  0
 16 42  1  0  0  0  0
 17 18  1  0  0  0  0
 17 43  1  0  0  0  0
 18 23  1  0  0  0  0
 18 19  2  0  0  0  0
 19 20  1  0  0  0  0
 19 44  1  0  0  0  0
 20 21  2  0  0  0  0
 20 45  1  0  0  0  0
 21 22  1  0  0  0  0
 21 46  1  0  0  0  0
 22 23  2  0  0  0  0
 22 47  1  0  0  0  0
M  CHG  1  11   1
M  END
> <s_m_source_file>
AV-unprocessed.smi

> <i_m_source_file_index>
1933

> <i_lp_mmshare_version>
43012

> <i_f3d_flags>
0

> <s_epik_input>
bjFbY0hdW2NIXVtjSF1bY0hdYzFbTkhdQyg9TylbTkhdW0NIMl1bQ0BIXShbQ0BASF0yW0NIMl1bQ0gyXU9bQ0gyXTIpTjNbQ0gyXVtDSDJdT1tDSDJdW0NIMl0z

> <s_epik_cmdline>
J2VwaWtfcHl0aG9uJywgJy1waCcsICc3LjAnLCAnLXRuJywgJzgnLCAnLW1hJywgJzIwMCcsICctbWV0YWxfYmluZGluZycsICctaW1hZScsICc8aW5maWxlLm1hZT4nLCAnLW9tYWUnLCAnPG91dGZpbGUubWFlPic=

> <r_epik_Ionization_Penalty>
0.983294

> <r_epik_Ionization_Penalty_Charging>
0.98326

> <r_epik_Ionization_Penalty_Neutral>
3.39688e-05

> <r_epik_State_Penalty>
1.0303

> <r_epik_Charging_Adjusted_Penalty>
2.01356

> <i_epik_Tot_Q>
1

> <i_epik_Tot_abs_Q>
1

> <r_epik_Metal_State_Penalty>
1.0303

> <b_epik_Metal_Only>
0

> <s_lp_Force_Field>
OPLS_2005

> <r_lp_Energy>
43.6882

> <b_lp_Chiralities_Consistent>
1

> <s_lp_Variant>
AV-unprocessed.smi:1933-6

> <Gold.Version>
5.8.1

> <Gold.Id.Protein>
6NUR|6NUR_protein|mol2

> <Gold.PLP.Fitness>
44.0697

> <Gold.PLP.PLP>
-34.6130

> <Gold.PLP.part.hbond>
-4.3077

> <Gold.PLP.part.metal>
0.0000

> <Gold.PLP.part.buried>
-6.1434

> <Gold.PLP.part.nonpolar>
-25.3010

> <Gold.PLP.part.repulsive>
0.2452

> <Gold.PLP.ligand.clash>
0.0000

> <Gold.PLP.ligand.torsion>
0.6737

> <Gold.PLP.Chemscore.Hbond>
3.5150

> <Gold.PLP.Chemscore.CHOScore>
0.0000

> <Gold.PLP.Chemscore.Metal>
0.0000

> <Gold.Chemscore.Hbonds>
donor molecule, donor type, donor heavy atom, donor atom, acceptor molecule, acceptor atom, score
      L1  H     3    24       P1  7948  0.91
      L1  H    17    43       P1  7948  1.00
      P1  H  6931  6943       L1     9  0.56
      P1  H  7989  7998       L1    14  1.00

> <Gold.PLP.Chemscore.Internal.Correction>
0.2592

> <Gold.Rescore>
     Score         DG    S(hbond)    S(metal)    S(lipo)     H(rot)  DE(clash)    DE(int)     intcor
     17.73     -19.82       3.05        0.00      74.20       1.77       0.00       2.08       ----

> <Gold.Chemscore.Fitness>
17.7310

> <Gold.Chemscore.DG>
-19.8157

> <Gold.Chemscore.ZeroCoef>
-5.4800

> <Gold.Chemscore.Hbond>
3.0472

> <Gold.Chemscore.Metal>
0.0000

> <Gold.Chemscore.Lipo>
74.2026

> <Gold.Chemscore.Internal_Hbond>
0.0000

> <Gold.Chemscore.DEClash>
0.0000

> <Gold.Chemscore.DEInternal>
2.0847

> <Gold.Chemscore.Rot>
1.7671

> <Gold.Chemscore.Internal.Correction>
   9.000000E+99

> <Gold.Chemscore.Hbonds>
donor molecule, donor type, donor heavy atom, donor atom, acceptor molecule, acceptor atom, score
      L1  H     3    24       P1  7948  0.59
      L1  H    17    43       P1  7948  0.60
      P1  H  6931  6943       L1     9  0.52
      P1  H  7989  7998       L1    14  0.26

> <Gold.Chemscore.Hbond.Weighted>
-10.1777

> <Gold.Chemscore.Metal.Weighted>
-0.0000

> <Gold.Chemscore.Lipo.Weighted>
-8.6817

> <Gold.Chemscore.Internal_Hbond.Weighted>
0.0000

> <Gold.Chemscore.DEClash.Weighted>
0.0000

> <Gold.Chemscore.DEInternal.Weighted>
2.0847

> <Gold.Chemscore.Rot.Weighted>
4.5238

> <Gold.Chemscore.Internal.Correction.Weighted>
   9.000000E+99

> <Gold.Protein.RotatedTorsions>
[ 6907 6896 6895 6894 ] final  151.46 input  -60.11 | X-H torsion
[ 7974 7965 7964 7962 ] final  -38.68 input  175.53 | X-H torsion
[ 8008 7997 7996 7995 ] final -102.95 input   59.86 | X-H torsion
[ 10167 10162 10161 10158 ] final   -7.75 input  -65.29 | X-H torsion
[ 10718 10713 10712 10709 ] final -127.06 input   66.30 | X-H torsion
[ 10763 10752 10751 10750 ] final  -78.58 input  -60.55 | X-H torsion
[ 11005 11000 10999 10996 ] final  155.56 input  -57.11 | X-H torsion

> <Gold.Protein.ActiveResidues>
 VAL166  LYS551  ARG553  GLY616  TRP617  ASP618  TYR619  PRO620  LYS621  CYS622 
 ASP623  PHE694  ASN695  SER759  ASP760  ASP761  ALA762  ILE779  LEU786  VAL792 
 PHE793  MET794  SER795  GLU796  ALA797  LYS798  CYS799  TRP800  GLU811  SER814 

> <Gold.Protein.RotatedAtoms>
  152.1003  133.4246  159.4583 H   0  0  0  0  0  0  0  0  0  0  0  0  # atno 6907 bound_to 6896
  150.6864  134.2769  159.4620 H   0  0  0  0  0  0  0  0  0  0  0  0  # atno 6908 bound_to 6896
  152.0628  134.9583  160.0625 H   0  0  0  0  0  0  0  0  0  0  0  0  # atno 6909 bound_to 6896
  146.0465  140.6539  142.9062 H   0  0  0  0  0  0  0  0  0  0  0  0  # atno 7974 bound_to 7965
  154.8639  140.0425  157.1683 H   0  0  0  0  0  0  0  0  0  0  0  0  # atno 8008 bound_to 7997
  154.8810  140.2972  155.5404 H   0  0  0  0  0  0  0  0  0  0  0  0  # atno 8009 bound_to 7997
  156.2999  140.2411  156.3813 H   0  0  0  0  0  0  0  0  0  0  0  0  # atno 8010 bound_to 7997
  140.7038  143.6046  150.8764 H   0  0  0  0  0  0  0  0  0  0  0  0  # atno 10167 bound_to 10162
  156.1822  130.6739  151.0319 H   0  0  0  0  0  0  0  0  0  0  0  0  # atno 10718 bound_to 10713
  154.5277  135.5725  153.6732 H   0  0  0  0  0  0  0  0  0  0  0  0  # atno 10763 bound_to 10752
  152.9932  135.6197  154.2671 H   0  0  0  0  0  0  0  0  0  0  0  0  # atno 10764 bound_to 10752
  154.2595  135.2856  155.2763 H   0  0  0  0  0  0  0  0  0  0  0  0  # atno 10765 bound_to 10752
  140.1593  134.8621  157.2554 H   0  0  0  0  0  0  0  0  0  0  0  0  # atno 11005 bound_to 11000
  144.7100  140.4003  143.7088 LP  0  0  0  0  0  0  0  0  0  0  0  0  # atno 17320 bound_to 7965
  145.6797  139.1616  143.2708 LP  0  0  0  0  0  0  0  0  0  0  0  0  # atno 17321 bound_to 7965
  139.9770  143.5993  152.2955 LP  0  0  0  0  0  0  0  0  0  0  0  0  # atno 17342 bound_to 10162
  139.6601  144.7662  151.1980 LP  0  0  0  0  0  0  0  0  0  0  0  0  # atno 17343 bound_to 10162
  157.6875  131.0820  150.7201 LP  0  0  0  0  0  0  0  0  0  0  0  0  # atno 17370 bound_to 10713
  156.7257  130.4694  149.5511 LP  0  0  0  0  0  0  0  0  0  0  0  0  # atno 17371 bound_to 10713
  140.2509  134.3684  155.7442 LP  0  0  0  0  0  0  0  0  0  0  0  0  # atno 17394 bound_to 11000
  141.2208  133.7316  156.8934 LP  0  0  0  0  0  0  0  0  0  0  0  0  # atno 17395 bound_to 11000

$$$$
