#       Name:                AV-unprocessed.smi:109
#       Creating user name   scv26
#       Creation time:       Thu Mar 26 18:08:22 2020


#       File generated by GOLD software.
#

@<TRIPOS>MOLECULE
AV-unprocessed.smi:109
    71    74     1
SMALL
NO_CHARGES


@<TRIPOS>ATOM
      1 ****        -1.9814   3.1219  -3.9789 O.3            1 S1                 0.0000
      2 ****        -1.5445   2.7136  -2.7006 C.3            1 S1                 0.0000
      3 ****        -2.7583   2.4399  -1.7959 C.3            1 S1                 0.0000
      4 ****        -2.3940   2.0719  -0.3362 C.3            1 S1                 0.0000
      5 ****        -1.5960   0.8433  -0.3265 N.pl3          1 S1                 0.0000
      6 ****        -0.2511   0.8538  -0.1879 C.ar           1 S1                 0.0000
      7 ****         0.4396   2.0131  -0.0299 N.ar           1 S1                 0.0000
      8 ****         1.7698   1.9891   0.0979 C.ar           1 S1                 0.0000
      9 ****         2.5899   0.9356   0.0970 N.ar           1 S1                 0.0000
     10 ****         1.8989  -0.2304  -0.0583 C.ar           1 S1                 0.0000
     11 ****         0.4901  -0.3556  -0.2073 C.ar           1 S1                 0.0000
     12 ****         0.1490  -1.6953  -0.3461 N.2            1 S1                 0.0000
     13 ****         1.2939  -2.3213  -0.2807 C.2            1 S1                 0.0000
     14 ****         2.3969  -1.5128  -0.1087 N.pl3          1 S1                 0.0000
     15 ****         3.8366  -1.8993  -0.0034 C.3            1 S1                 0.0000
     16 ****         3.8979  -3.1684   0.5566 O.3            1 S1                 0.0000
     17 ****         5.1287  -3.7542   0.1668 C.3            1 S1                 0.0000
     18 ****         5.0759  -5.2747   0.3788 C.3            1 S1                 0.0000
     19 ****         5.3586  -5.5837   1.7264 O.3            1 S1                 0.0000
     20 ****         5.2437  -3.3431  -1.3075 C.3            1 S1                 0.0000
     21 ****         6.6045  -3.2278  -1.6736 O.3            1 S1                 0.0000
     22 ****         4.5495  -1.9813  -1.3702 C.3            1 S1                 0.0000
     23 ****         3.6786  -1.9077  -2.4857 O.3            1 S1                 0.0000
     24 ****        -3.6323   1.8875   0.5877 C.3            1 S1                 0.0000
     25 ****        -4.5762   3.1163   0.6027 C.3            1 S1                 0.0000
     26 ****        -5.7700   2.9295   1.5539 C.3            1 S1                 0.0000
     27 ****        -5.3077   2.6079   2.9799 C.3            1 S1                 0.0000
     28 ****        -4.3959   1.3754   2.9854 C.3            1 S1                 0.0000
     29 ****        -3.1986   1.5672   2.0417 C.3            1 S1                 0.0000
     30 ****         4.2880  -1.1713   0.6725 H              1 S1                 0.0000
     31 ****         5.9362  -3.3015   0.7471 H              1 S1                 0.0000
     32 ****         4.7380  -4.0699  -1.9457 H              1 S1                 0.0000
     33 ****         5.2638  -1.1582  -1.4239 H              1 S1                 0.0000
     34 ****        -2.4925   2.4241  -4.3592 H              1 S1                 0.0000
     35 ****        -0.9270   1.8228  -2.8157 H              1 S1                 0.0000
     36 ****        -0.9164   3.4965  -2.2747 H              1 S1                 0.0000
     37 ****        -3.3650   3.3436  -1.8078 H              1 S1                 0.0000
     38 ****        -3.3722   1.6506  -2.2322 H              1 S1                 0.0000
     39 ****        -1.8237   2.9030   0.0781 H              1 S1                 0.0000
     40 ****        -2.1219  -0.0129  -0.4288 H              1 S1                 0.0000
     41 ****         2.2443   2.9518   0.2179 H              1 S1                 0.0000
     42 ****         1.3655  -3.3964  -0.3607 H              1 S1                 0.0000
     43 ****         4.1075  -5.6834   0.0885 H              1 S1                 0.0000
     44 ****         5.8326  -5.7656  -0.2338 H              1 S1                 0.0000
     45 ****         5.3335  -6.5224   1.8324 H              1 S1                 0.0000
     46 ****         7.0104  -4.0780  -1.5983 H              1 S1                 0.0000
     47 ****         3.0057  -2.5631  -2.3837 H              1 S1                 0.0000
     48 ****        -4.2061   1.0377   0.2139 H              1 S1                 0.0000
     49 ****        -4.0169   4.0077   0.8898 H              1 S1                 0.0000
     50 ****        -4.9804   3.3076  -0.3900 H              1 S1                 0.0000
     51 ****        -6.3850   3.8297   1.5581 H              1 S1                 0.0000
     52 ****        -6.4062   2.1235   1.1862 H              1 S1                 0.0000
     53 ****        -4.7738   3.4635   3.3952 H              1 S1                 0.0000
     54 ****        -6.1712   2.4369   3.6235 H              1 S1                 0.0000
     55 ****        -4.0423   1.1807   3.9984 H              1 S1                 0.0000
     56 ****        -4.9644   0.4954   2.6817 H              1 S1                 0.0000
     57 ****        -2.5904   0.6633   2.0742 H              1 S1                 0.0000
     58 ****        -2.5662   2.3719   2.4196 H              1 S1                 0.0000
     59 ****        -1.1905   3.3155  -4.5595 LP             1 S1                 0.0000
     60 ****        -2.5435   3.9449  -3.8961 LP             1 S1                 0.0000
     61 ****        -0.0481   2.8859  -0.0092 LP             1 S1                 0.0000
     62 ****         3.5832   0.9938   0.1973 LP             1 S1                 0.0000
     63 ****        -0.7620  -2.0892  -0.4679 LP             1 S1                 0.0000
     64 ****         3.1360  -3.7242   0.2241 LP             1 S1                 0.0000
     65 ****         3.8527  -3.1030   1.5534 LP             1 S1                 0.0000
     66 ****         4.6747  -5.1593   2.3199 LP             1 S1                 0.0000
     67 ****         6.2670  -5.2417   1.9670 LP             1 S1                 0.0000
     68 ****         7.0633  -2.5804  -1.0650 LP             1 S1                 0.0000
     69 ****         6.6732  -2.9041  -2.6173 LP             1 S1                 0.0000
     70 ****         4.1920  -2.0791  -3.3266 LP             1 S1                 0.0000
     71 ****         3.2616  -0.9998  -2.5290 LP             1 S1                 0.0000
@<TRIPOS>BOND
    1    1    2 1     
    2    1   34 1     
    3    2    3 1     
    4    2   35 1     
    5    2   36 1     
    6    3    4 1     
    7    3   37 1     
    8    3   38 1     
    9    4    5 1     
   10    4   24 1     
   11    4   39 1     
   12    5    6 1     
   13    5   40 1     
   14    6   11 ar    
   15    6    7 ar    
   16    7    8 ar    
   17    8    9 ar    
   18    8   41 1     
   19    9   10 ar    
   20   10   14 1     
   21   10   11 ar    
   22   11   12 1     
   23   12   13 2     
   24   13   14 1     
   25   13   42 1     
   26   14   15 1     
   27   15   30 1     
   28   15   22 1     
   29   15   16 1     
   30   16   17 1     
   31   17   31 1     
   32   17   18 1     
   33   17   20 1     
   34   18   19 1     
   35   18   43 1     
   36   18   44 1     
   37   19   45 1     
   38   20   32 1     
   39   20   21 1     
   40   20   22 1     
   41   21   46 1     
   42   22   33 1     
   43   22   23 1     
   44   23   47 1     
   45   24   29 1     
   46   24   25 1     
   47   24   48 1     
   48   25   26 1     
   49   25   49 1     
   50   25   50 1     
   51   26   27 1     
   52   26   51 1     
   53   26   52 1     
   54   27   28 1     
   55   27   53 1     
   56   27   54 1     
   57   28   29 1     
   58   28   55 1     
   59   28   56 1     
   60   29   57 1     
   61   29   58 1     
   62    1   59 1     
   63    1   60 1     
   64    7   61 1     
   65    9   62 1     
   66   12   63 1     
   67   16   64 1     
   68   16   65 1     
   69   19   66 1     
   70   19   67 1     
   71   21   68 1     
   72   21   69 1     
   73   23   70 1     
   74   23   71 1     
@<TRIPOS>SUBSTRUCTURE
      1 S1             1
@<TRIPOS>SET
LONE_PAIRS      STATIC     ATOMS    <user>   **** ""
13 59 60 61 62 63 64 65 66 67 68 69 70 71
DONOR_HYDROGENS      STATIC     ATOMS    <user>   **** ""
5 34 40 45 46 47
ATOM$BLUE        STATIC     ATOMS    COLORGROUP SYSTEM
13 59 60 61 62 63 64 65 66 67 68 69 70 71
ATOM$RED        STATIC     ATOMS    COLORGROUP SYSTEM
5 34 40 45 46 47
