AV-unprocessed.smi:37|AV-procd|sdf|315|dock7
  -GOLD-   2262016133D 1   1.00000     0.00000
 Structure written by MMmdl.
 44 45  0  0  0  0  0  0  0  0  1 V2000
  144.7000  140.7719  160.7207 C   0  0  0  0  0  0  0  0  0  0  0  0
  144.1168  139.4016  160.3502 C   0  0  0  0  0  0  0  0  0  0  0  0
  145.1867  138.3129  160.3084 C   0  0  0  0  0  0  0  0  0  0  0  0
  145.8544  138.0310  161.3038 O   0  0  0  0  0  0  0  0  0  0  0  0
  145.2955  137.7399  159.0994 O   0  0  0  0  0  0  0  0  0  0  0  0
  146.1551  136.6259  158.9273 C   0  0  0  0  0  0  0  0  0  0  0  0
  147.5140  137.1133  158.3983 C   0  0  2  0  0  0  0  0  0  0  0  0
  147.4255  137.1573  156.9692 O   0  0  0  0  0  0  0  0  0  0  0  0
  148.4695  136.4476  156.3719 C   0  0  1  0  0  0  0  0  0  0  0  0
  149.6129  137.3849  156.0202 N   0  0  0  0  0  0  0  0  0  0  0  0
  149.5173  138.7685  156.1323 C   0  0  0  0  0  0  0  0  0  0  0  0
  150.5291  139.6074  155.8057 C   0  0  0  0  0  0  0  0  0  0  0  0
  150.3612  140.9336  155.9432 F   0  0  0  0  0  0  0  0  0  0  0  0
  151.7952  139.0879  155.2986 C   0  0  0  0  0  0  0  0  0  0  0  0
  152.7699  139.7672  154.9826 O   0  0  0  0  0  0  0  0  0  0  0  0
  151.8397  137.6966  155.1793 N   0  0  0  0  0  0  0  0  0  0  0  0
  150.8036  136.8213  155.5079 C   0  0  0  0  0  0  0  0  0  0  0  0
  150.9488  135.6102  155.3469 O   0  0  0  0  0  0  0  0  0  0  0  0
  148.9083  135.4140  157.4100 C   0  0  2  0  0  0  0  0  0  0  0  0
  147.7013  133.8280  157.3013 Br  0  0  0  0  0  0  0  0  0  0  0  0
  148.6998  136.1815  158.7077 C   0  0  2  0  0  0  0  0  0  0  0  0
  148.4884  135.3302  159.8280 O   0  0  0  0  0  0  0  0  0  0  0  0
  148.2288  135.8510  161.0406 C   0  0  0  0  0  0  0  0  0  0  0  0
  148.2640  137.0452  161.3373 O   0  0  0  0  0  0  0  0  0  0  0  0
  147.8749  134.7831  162.0723 C   0  0  0  0  0  0  0  0  0  0  0  0
  146.5254  135.0610  162.7486 C   0  0  0  0  0  0  0  0  0  0  0  0
  152.6921  137.2915  154.8206 H   0  0  0  0  0  0  0  0  0  0  0  0
  143.9287  141.5410  160.6810 H   0  0  0  0  0  0  0  0  0  0  0  0
  145.4936  141.0650  160.0322 H   0  0  0  0  0  0  0  0  0  0  0  0
  145.1125  140.7711  161.7302 H   0  0  0  0  0  0  0  0  0  0  0  0
  143.3479  139.1154  161.0680 H   0  0  0  0  0  0  0  0  0  0  0  0
  143.6341  139.4575  159.3742 H   0  0  0  0  0  0  0  0  0  0  0  0
  146.2771  136.1333  159.8926 H   0  0  0  0  0  0  0  0  0  0  0  0
  145.7104  135.9038  158.2420 H   0  0  0  0  0  0  0  0  0  0  0  0
  147.7215  138.1062  158.7986 H   0  0  0  0  0  0  0  0  0  0  0  0
  148.1489  136.0226  155.4188 H   0  0  0  0  0  0  0  0  0  0  0  0
  148.6074  139.2257  156.4876 H   0  0  0  0  0  0  0  0  0  0  0  0
  149.9320  135.0690  157.2672 H   0  0  0  0  0  0  0  0  0  0  0  0
  149.5716  136.8155  158.8787 H   0  0  0  0  0  0  0  0  0  0  0  0
  147.8496  133.8108  161.5798 H   0  0  0  0  0  0  0  0  0  0  0  0
  148.6666  134.7391  162.8206 H   0  0  0  0  0  0  0  0  0  0  0  0
  146.2776  134.2663  163.4521 H   0  0  0  0  0  0  0  0  0  0  0  0
  145.7191  135.1180  162.0165 H   0  0  0  0  0  0  0  0  0  0  0  0
  146.5418  135.9991  163.3046 H   0  0  0  0  0  0  0  0  0  0  0  0
  1  2  1  0  0  0  0
  1 28  1  0  0  0  0
  1 29  1  0  0  0  0
  1 30  1  0  0  0  0
  2  3  1  0  0  0  0
  2 31  1  0  0  0  0
  2 32  1  0  0  0  0
  3  4  2  0  0  0  0
  3  5  1  0  0  0  0
  5  6  1  0  0  0  0
  6  7  1  0  0  0  0
  6 33  1  0  0  0  0
  6 34  1  0  0  0  0
  7 21  1  0  0  0  0
  7  8  1  0  0  0  0
  7 35  1  0  0  0  0
  8  9  1  0  0  0  0
  9 10  1  0  0  0  0
  9 19  1  0  0  0  0
  9 36  1  0  0  0  0
 10 17  1  0  0  0  0
 10 11  1  0  0  0  0
 11 12  2  0  0  0  0
 11 37  1  0  0  0  0
 12 13  1  0  0  0  0
 12 14  1  0  0  0  0
 14 15  2  0  0  0  0
 14 16  1  0  0  0  0
 16 27  1  0  0  0  0
 16 17  1  0  0  0  0
 17 18  2  0  0  0  0
 19 20  1  0  0  0  0
 19 21  1  0  0  0  0
 19 38  1  0  0  0  0
 21 22  1  0  0  0  0
 21 39  1  0  0  0  0
 22 23  1  0  0  0  0
 23 24  2  0  0  0  0
 23 25  1  0  0  0  0
 25 26  1  0  0  0  0
 25 40  1  0  0  0  0
 25 41  1  0  0  0  0
 26 42  1  0  0  0  0
 26 43  1  0  0  0  0
 26 44  1  0  0  0  0
M  END
> <s_m_source_file>
AV-unprocessed.smi

> <i_m_source_file_index>
37

> <i_lp_mmshare_version>
43012

> <i_f3d_flags>
0

> <s_epik_input>
W0NIM11bQ0gyXUMoPU8pT1tDSDJdW0NAQEhdMU9bQ0BASF0objJbY0hdYyhGKWMoPU8pW25IXWMyPU8pW0NAQEhdKEJyKVtDQEhdMU9DKD1PKVtDSDJdW0NIM10=

> <s_epik_cmdline>
J2VwaWtfcHl0aG9uJywgJy1waCcsICc3LjAnLCAnLXRuJywgJzgnLCAnLW1hJywgJzIwMCcsICctbWV0YWxfYmluZGluZycsICctaW1hZScsICc8aW5maWxlLm1hZT4nLCAnLW9tYWUnLCAnPG91dGZpbGUubWFlPic=

> <r_lp_tautomer_probability>
0.999537

> <r_epik_Ionization_Penalty>
0.104106

> <r_epik_Ionization_Penalty_Charging>
0.104106

> <r_epik_Ionization_Penalty_Neutral>
3.94675e-16

> <r_epik_State_Penalty>
0.0940182

> <r_epik_Charging_Adjusted_Penalty>
0.198124

> <i_epik_Tot_Q>
0

> <i_epik_Tot_abs_Q>
0

> <r_epik_Metal_State_Penalty>
3.05314

> <b_epik_Metal_Only>
0

> <s_epik_Chemistry_Notes>
This compound has an ester and may undergo hydrolysis at high or low pH. This compound contains an acetal/aminal-like group ( X-CH(R)-Y where X, Y are N, S, or O) that may be acid/base labile, releasing an aldehyde.

> <s_lp_Force_Field>
OPLS_2005

> <r_lp_Energy>
24.3846

> <b_lp_Chiralities_Consistent>
1

> <s_lp_Variant>
AV-unprocessed.smi:37-13

> <Gold.Version>
5.8.1

> <Gold.Id.Protein>
6NUR|6NUR_protein|mol2

> <Gold.PLP.Fitness>
40.7667

> <Gold.PLP.PLP>
-29.3824

> <Gold.PLP.part.hbond>
-6.0358

> <Gold.PLP.part.metal>
0.0000

> <Gold.PLP.part.buried>
-5.0443

> <Gold.PLP.part.nonpolar>
-19.2630

> <Gold.PLP.part.repulsive>
0.2789

> <Gold.PLP.ligand.clash>
0.0000

> <Gold.PLP.ligand.torsion>
0.7050

> <Gold.PLP.Chemscore.Hbond>
4.2016

> <Gold.PLP.Chemscore.CHOScore>
0.0000

> <Gold.PLP.Chemscore.Metal>
0.0000

> <Gold.Chemscore.Hbonds>
donor molecule, donor type, donor heavy atom, donor atom, acceptor molecule, acceptor atom, score
      P1  H  6931  6943       L1    24  1.00
      P1  H  6934  6947       L1     4  0.68
      P1  H  7989  7998       L1    15  0.25
      P1  H  7997  8008       L1    15  1.00
      P1  H 10752 10764       L1    18  0.80

> <Gold.PLP.Chemscore.Internal.Correction>
0.1896

> <Gold.Rescore>
     Score         DG    S(hbond)    S(metal)    S(lipo)     H(rot)  DE(clash)    DE(int)     intcor
      9.26     -13.61       3.75        0.00      35.24       3.33       0.67       3.68       ----

> <Gold.Chemscore.Fitness>
9.2614

> <Gold.Chemscore.DG>
-13.6106

> <Gold.Chemscore.ZeroCoef>
-5.4800

> <Gold.Chemscore.Hbond>
3.7524

> <Gold.Chemscore.Metal>
0.0000

> <Gold.Chemscore.Lipo>
35.2421

> <Gold.Chemscore.Internal_Hbond>
0.0000

> <Gold.Chemscore.DEClash>
0.6713

> <Gold.Chemscore.DEInternal>
3.6779

> <Gold.Chemscore.Rot>
3.3303

> <Gold.Chemscore.Internal.Correction>
   9.000000E+99

> <Gold.Chemscore.Hbonds>
donor molecule, donor type, donor heavy atom, donor atom, acceptor molecule, acceptor atom, score
      P1  H  6931  6943       L1    24  0.93
      P1  H  6934  6947       L1    24  0.22
      P1  H  7989  7998       L1    15  0.03
      P1  H  7997  8008       L1    15  0.99
      P1  H 10752 10764       L1    18  0.23

> <Gold.Chemscore.Hbond.Weighted>
-12.5328

> <Gold.Chemscore.Metal.Weighted>
-0.0000

> <Gold.Chemscore.Lipo.Weighted>
-4.1233

> <Gold.Chemscore.Internal_Hbond.Weighted>
0.0000

> <Gold.Chemscore.DEClash.Weighted>
0.6713

> <Gold.Chemscore.DEInternal.Weighted>
3.6779

> <Gold.Chemscore.Rot.Weighted>
8.5256

> <Gold.Chemscore.Internal.Correction.Weighted>
   9.000000E+99

> <Gold.Protein.RotatedTorsions>
[ 6907 6896 6895 6894 ] final -173.81 input  -60.11 | X-H torsion
[ 7974 7965 7964 7962 ] final -129.99 input  175.53 | X-H torsion
[ 8008 7997 7996 7995 ] final  -12.71 input   59.86 | X-H torsion
[ 10167 10162 10161 10158 ] final  -59.27 input  -65.29 | X-H torsion
[ 10718 10713 10712 10709 ] final   65.98 input   66.30 | X-H torsion
[ 10763 10752 10751 10750 ] final  -45.70 input  -60.55 | X-H torsion
[ 11005 11000 10999 10996 ] final    1.03 input  -57.11 | X-H torsion

> <Gold.Protein.ActiveResidues>
 VAL166  LYS551  ARG553  GLY616  TRP617  ASP618  TYR619  PRO620  LYS621  CYS622 
 ASP623  PHE694  ASN695  SER759  ASP760  ASP761  ALA762  ILE779  LEU786  VAL792 
 PHE793  MET794  SER795  GLU796  ALA797  LYS798  CYS799  TRP800  GLU811  SER814 

> <Gold.Protein.RotatedAtoms>
  151.5622  133.3401  159.2973 H   0  0  0  0  0  0  0  0  0  0  0  0  # atno 6907 bound_to 6896
  150.8416  134.7713  159.6948 H   0  0  0  0  0  0  0  0  0  0  0  0  # atno 6908 bound_to 6896
  152.4482  134.5457  159.9903 H   0  0  0  0  0  0  0  0  0  0  0  0  # atno 6909 bound_to 6896
  144.9518  140.7352  143.4783 H   0  0  0  0  0  0  0  0  0  0  0  0  # atno 7974 bound_to 7965
  154.5354  140.2269  155.8732 H   0  0  0  0  0  0  0  0  0  0  0  0  # atno 8008 bound_to 7997
  156.1806  140.3101  155.9104 H   0  0  0  0  0  0  0  0  0  0  0  0  # atno 8009 bound_to 7997
  155.3366  140.0448  157.3034 H   0  0  0  0  0  0  0  0  0  0  0  0  # atno 8010 bound_to 7997
  140.6145  143.2398  151.5630 H   0  0  0  0  0  0  0  0  0  0  0  0  # atno 10167 bound_to 10162
  157.6140  130.9243  150.0048 H   0  0  0  0  0  0  0  0  0  0  0  0  # atno 10718 bound_to 10713
  154.0328  135.6654  153.4782 H   0  0  0  0  0  0  0  0  0  0  0  0  # atno 10763 bound_to 10752
  153.0533  135.5071  154.7917 H   0  0  0  0  0  0  0  0  0  0  0  0  # atno 10764 bound_to 10752
  154.6867  135.3054  154.9502 H   0  0  0  0  0  0  0  0  0  0  0  0  # atno 10765 bound_to 10752
  140.6200  133.9670  155.8220 H   0  0  0  0  0  0  0  0  0  0  0  0  # atno 11005 bound_to 11000
  145.2833  139.1910  143.4779 LP  0  0  0  0  0  0  0  0  0  0  0  0  # atno 17320 bound_to 7965
  146.3323  140.2798  142.8610 LP  0  0  0  0  0  0  0  0  0  0  0  0  # atno 17321 bound_to 7965
  139.5387  144.2707  152.1307 LP  0  0  0  0  0  0  0  0  0  0  0  0  # atno 17342 bound_to 10162
  140.1913  144.4749  150.6477 LP  0  0  0  0  0  0  0  0  0  0  0  0  # atno 17343 bound_to 10162
  156.1254  130.3644  149.9817 LP  0  0  0  0  0  0  0  0  0  0  0  0  # atno 17370 bound_to 10713
  156.7889  130.9249  151.3646 LP  0  0  0  0  0  0  0  0  0  0  0  0  # atno 17371 bound_to 10713
  141.0749  134.0150  157.3472 LP  0  0  0  0  0  0  0  0  0  0  0  0  # atno 17394 bound_to 11000
  139.9157  135.0196  156.7872 LP  0  0  0  0  0  0  0  0  0  0  0  0  # atno 17395 bound_to 11000

$$$$
