AV-unprocessed.smi:2027|AV-procd|sdf|8211|dock7
  -GOLD-   2272010473D 1   1.00000     0.00000
 Structure written by MMmdl.
 50 52  0  0  0  0  0  0  0  0  2 V2000
  153.5249  142.3539  160.4066 C   0  0  0  0  0  0  0  0  0  0  0  0
  152.4926  142.0392  159.3382 C   0  0  0  0  0  0  0  0  0  0  0  0
  152.3501  140.7058  158.8922 C   0  0  0  0  0  0  0  0  0  0  0  0
  151.4024  140.3711  157.9005 C   0  0  0  0  0  0  0  0  0  0  0  0
  151.1002  139.1511  157.3204 N   0  0  0  0  0  0  0  0  0  0  0  0
  150.1359  139.4894  156.4696 C   0  0  0  0  0  0  0  0  0  0  0  0
  149.7784  140.7874  156.4274 N   0  0  0  0  0  0  0  0  0  0  0  0
  148.7621  141.3871  155.5814 C   0  0  0  0  0  0  0  0  0  0  0  0
  148.4327  140.5207  154.3504 C   0  0  2  0  0  0  0  0  0  0  0  0
  149.4152  140.7254  153.3523 O   0  0  0  0  0  0  0  0  0  0  0  0
  147.0570  140.8755  153.7562 C   0  0  0  0  0  0  0  0  0  0  0  0
  146.4506  139.7251  153.0343 N   0  3  1  0  0  0  0  0  0  0  0  0
  147.1153  139.4490  151.7395 C   0  0  0  0  0  0  0  0  0  0  0  0
  146.3230  138.5021  153.8656 C   0  0  0  0  0  0  0  0  0  0  0  0
  145.4866  137.4563  153.1766 C   0  0  0  0  0  0  0  0  0  0  0  0
  144.1114  137.5396  152.8146 C   0  0  0  0  0  0  0  0  0  0  0  0
  143.6658  136.4405  152.2296 N   0  0  0  0  0  0  0  0  0  0  0  0
  144.7373  135.6228  152.1883 N   0  0  0  0  0  0  0  0  0  0  0  0
  144.6088  134.3079  151.5971 C   0  0  0  0  0  0  0  0  0  0  0  0
  145.8504  136.2090  152.7510 C   0  0  0  0  0  0  0  0  0  0  0  0
  150.5932  141.4149  157.3641 C   0  0  0  0  0  0  0  0  0  0  0  0
  150.7258  142.7454  157.7992 C   0  0  0  0  0  0  0  0  0  0  0  0
  151.6801  143.0632  158.7881 C   0  0  0  0  0  0  0  0  0  0  0  0
  151.8188  144.5041  159.2467 C   0  0  0  0  0  0  0  0  0  0  0  0
  154.0005  141.4467  160.7803 H   0  0  0  0  0  0  0  0  0  0  0  0
  153.0598  142.8587  161.2536 H   0  0  0  0  0  0  0  0  0  0  0  0
  154.3046  143.0004  160.0031 H   0  0  0  0  0  0  0  0  0  0  0  0
  152.9707  139.9262  159.3091 H   0  0  0  0  0  0  0  0  0  0  0  0
  149.6630  138.7513  155.8382 H   0  0  0  0  0  0  0  0  0  0  0  0
  147.8651  141.5422  156.1829 H   0  0  0  0  0  0  0  0  0  0  0  0
  149.1047  142.3766  155.2750 H   0  0  0  0  0  0  0  0  0  0  0  0
  148.4584  139.4711  154.6440 H   0  0  0  0  0  0  0  0  0  0  0  0
  149.2126  140.1722  152.6121 H   0  0  0  0  0  0  0  0  0  0  0  0
  146.3751  141.2127  154.5383 H   0  0  0  0  0  0  0  0  0  0  0  0
  147.1842  141.7288  153.0895 H   0  0  0  0  0  0  0  0  0  0  0  0
  148.1405  139.1090  151.8918 H   0  0  0  0  0  0  0  0  0  0  0  0
  147.1413  140.3376  151.1094 H   0  0  0  0  0  0  0  0  0  0  0  0
  146.5789  138.6759  151.1882 H   0  0  0  0  0  0  0  0  0  0  0  0
  147.3170  138.0982  154.0626 H   0  0  0  0  0  0  0  0  0  0  0  0
  145.9104  138.7705  154.8395 H   0  0  0  0  0  0  0  0  0  0  0  0
  143.4257  138.3602  152.9660 H   0  0  0  0  0  0  0  0  0  0  0  0
  145.5688  133.7911  151.6208 H   0  0  0  0  0  0  0  0  0  0  0  0
  144.2811  134.3988  150.5607 H   0  0  0  0  0  0  0  0  0  0  0  0
  143.8767  133.7226  152.1544 H   0  0  0  0  0  0  0  0  0  0  0  0
  146.7989  135.6947  152.8043 H   0  0  0  0  0  0  0  0  0  0  0  0
  150.1003  143.5158  157.3729 H   0  0  0  0  0  0  0  0  0  0  0  0
  151.1827  145.1702  158.6631 H   0  0  0  0  0  0  0  0  0  0  0  0
  152.8481  144.8460  159.1361 H   0  0  0  0  0  0  0  0  0  0  0  0
  151.5325  144.5988  160.2945 H   0  0  0  0  0  0  0  0  0  0  0  0
  145.5037  140.0026  152.8163 H   0  0  0  0  0  0  0  0  0  0  0  0
  1  2  1  0  0  0  0
  1 25  1  0  0  0  0
  1 26  1  0  0  0  0
  1 27  1  0  0  0  0
  2 23  1  0  0  0  0
  2  3  2  0  0  0  0
  3  4  1  0  0  0  0
  3 28  1  0  0  0  0
  4 21  2  0  0  0  0
  4  5  1  0  0  0  0
  5  6  2  0  0  0  0
  6  7  1  0  0  0  0
  6 29  1  0  0  0  0
  7  8  1  0  0  0  0
  7 21  1  0  0  0  0
  8  9  1  0  0  0  0
  8 30  1  0  0  0  0
  8 31  1  0  0  0  0
  9 10  1  0  0  0  0
  9 11  1  0  0  0  0
  9 32  1  0  0  0  0
 10 33  1  0  0  0  0
 11 12  1  0  0  0  0
 11 34  1  0  0  0  0
 11 35  1  0  0  0  0
 12 13  1  0  0  0  0
 12 14  1  0  0  0  0
 12 50  1  0  0  0  0
 13 36  1  0  0  0  0
 13 37  1  0  0  0  0
 13 38  1  0  0  0  0
 14 15  1  0  0  0  0
 14 39  1  0  0  0  0
 14 40  1  0  0  0  0
 15 20  2  0  0  0  0
 15 16  1  0  0  0  0
 16 17  2  0  0  0  0
 16 41  1  0  0  0  0
 17 18  1  0  0  0  0
 18 19  1  0  0  0  0
 18 20  1  0  0  0  0
 19 42  1  0  0  0  0
 19 43  1  0  0  0  0
 19 44  1  0  0  0  0
 20 45  1  0  0  0  0
 21 22  1  0  0  0  0
 22 23  2  0  0  0  0
 22 46  1  0  0  0  0
 23 24  1  0  0  0  0
 24 47  1  0  0  0  0
 24 48  1  0  0  0  0
 24 49  1  0  0  0  0
M  CHG  1  12   1
M  END
> <s_m_source_file>
AV-unprocessed.smi

> <i_m_source_file_index>
2027

> <i_lp_mmshare_version>
43012

> <i_f3d_flags>
0

> <s_epik_input>
W0NIM11jKFtjSF0xKWMoW0NIM10pW2NIXWMoYzEyKW4oW2NIXW4yKVtDSDJdW0NASF0oW09IXSlbQ0gyXU4oW0NIM10pW0NIMl1jM1tjSF1ubihbQ0gzXSlbY0hdMw==

> <s_epik_cmdline>
J2VwaWtfcHl0aG9uJywgJy1waCcsICc3LjAnLCAnLXRuJywgJzgnLCAnLW1hJywgJzIwMCcsICctbWV0YWxfYmluZGluZycsICctaW1hZScsICc8aW5maWxlLm1hZT4nLCAnLW9tYWUnLCAnPG91dGZpbGUubWFlPic=

> <r_lp_tautomer_probability>
1

> <r_epik_Ionization_Penalty>
0.646578

> <r_epik_Ionization_Penalty_Charging>
0.559419

> <r_epik_Ionization_Penalty_Neutral>
0.087159

> <r_epik_State_Penalty>
0.661677

> <r_epik_Charging_Adjusted_Penalty>
1.2211

> <i_epik_Tot_Q>
1

> <i_epik_Tot_abs_Q>
1

> <r_epik_Metal_State_Penalty>
0.649174

> <b_epik_Metal_Only>
0

> <s_lp_Force_Field>
OPLS_2005

> <r_lp_Energy>
8.87495

> <b_lp_Chiralities_Consistent>
1

> <s_lp_Variant>
AV-unprocessed.smi:2027-3

> <Gold.Version>
5.8.1

> <Gold.Id.Protein>
6NUR|6NUR_protein|mol2

> <Gold.PLP.Fitness>
58.4292

> <Gold.PLP.PLP>
-42.7865

> <Gold.PLP.part.hbond>
-3.0084

> <Gold.PLP.part.metal>
0.0000

> <Gold.PLP.part.buried>
-0.5375

> <Gold.PLP.part.nonpolar>
-39.0588

> <Gold.PLP.part.repulsive>
0.1787

> <Gold.PLP.ligand.clash>
0.0000

> <Gold.PLP.ligand.torsion>
0.8700

> <Gold.PLP.Chemscore.Hbond>
3.7530

> <Gold.PLP.Chemscore.CHOScore>
1.9836

> <Gold.PLP.Chemscore.Metal>
0.0000

> <Gold.Chemscore.Hbonds>
donor molecule, donor type, donor heavy atom, donor atom, acceptor molecule, acceptor atom, score
      L1  H    10    33       P1  7957  0.72
      L1  H    12    50       P1 10175  2.00
      P1  H  7989  7998       L1    10  0.18
      P1  H  8011  8017       L1    10  0.85
      L1  C    16    41       P1 10175  1.00
      L1  C    20    45       P1  7948  1.00

> <Gold.PLP.Chemscore.Internal.Correction>
0.1730

> <Gold.Rescore>
     Score         DG    S(hbond)    S(metal)    S(lipo)     H(rot)  DE(clash)    DE(int)     intcor
     19.46     -20.75       2.21        0.00     122.30       2.50       0.26       1.02       ----

> <Gold.Chemscore.Fitness>
19.4636

> <Gold.Chemscore.DG>
-20.7497

> <Gold.Chemscore.ZeroCoef>
-5.4800

> <Gold.Chemscore.Hbond>
2.2073

> <Gold.Chemscore.Metal>
0.0000

> <Gold.Chemscore.Lipo>
122.3023

> <Gold.Chemscore.Internal_Hbond>
0.0000

> <Gold.Chemscore.DEClash>
0.2634

> <Gold.Chemscore.DEInternal>
1.0227

> <Gold.Chemscore.Rot>
2.5047

> <Gold.Chemscore.Internal.Correction>
   9.000000E+99

> <Gold.Chemscore.Hbonds>
donor molecule, donor type, donor heavy atom, donor atom, acceptor molecule, acceptor atom, score
      L1  H    10    33       P1  7957  0.68
      L1  H    12    50       P1 10175  0.99
      P1  H  7989  7998       L1    10  0.12
      P1  H  8011  8017       L1    10  0.14

> <Gold.Chemscore.Hbond.Weighted>
-7.3723

> <Gold.Chemscore.Metal.Weighted>
-0.0000

> <Gold.Chemscore.Lipo.Weighted>
-14.3094

> <Gold.Chemscore.Internal_Hbond.Weighted>
0.0000

> <Gold.Chemscore.DEClash.Weighted>
0.2634

> <Gold.Chemscore.DEInternal.Weighted>
1.0227

> <Gold.Chemscore.Rot.Weighted>
6.4120

> <Gold.Chemscore.Internal.Correction.Weighted>
   9.000000E+99

> <Gold.Protein.RotatedTorsions>
[ 6907 6896 6895 6894 ] final  -53.00 input  -60.11 | X-H torsion
[ 7974 7965 7964 7962 ] final   19.67 input  175.53 | X-H torsion
[ 8008 7997 7996 7995 ] final -105.89 input   59.86 | X-H torsion
[ 10167 10162 10161 10158 ] final  141.07 input  -65.29 | X-H torsion
[ 10718 10713 10712 10709 ] final -139.88 input   66.30 | X-H torsion
[ 10763 10752 10751 10750 ] final   67.14 input  -60.55 | X-H torsion
[ 11005 11000 10999 10996 ] final  -66.31 input  -57.11 | X-H torsion

> <Gold.Protein.ActiveResidues>
 VAL166  LYS551  ARG553  GLY616  TRP617  ASP618  TYR619  PRO620  LYS621  CYS622 
 ASP623  PHE694  ASN695  SER759  ASP760  ASP761  ALA762  ILE779  LEU786  VAL792 
 PHE793  MET794  SER795  GLU796  ALA797  LYS798  CYS799  TRP800  GLU811  SER814 

> <Gold.Protein.RotatedAtoms>
  150.8466  134.7777  159.6975 H   0  0  0  0  0  0  0  0  0  0  0  0  # atno 6907 bound_to 6896
  152.4541  134.5326  159.9825 H   0  0  0  0  0  0  0  0  0  0  0  0  # atno 6908 bound_to 6896
  151.5455  133.3388  159.2979 H   0  0  0  0  0  0  0  0  0  0  0  0  # atno 6909 bound_to 6896
  146.2140  139.8280  142.8666 H   0  0  0  0  0  0  0  0  0  0  0  0  # atno 7974 bound_to 7965
  154.9065  140.0411  157.1922 H   0  0  0  0  0  0  0  0  0  0  0  0  # atno 8008 bound_to 7997
  154.8391  140.2911  155.5650 H   0  0  0  0  0  0  0  0  0  0  0  0  # atno 8009 bound_to 7997
  156.2991  140.2486  156.3330 H   0  0  0  0  0  0  0  0  0  0  0  0  # atno 8010 bound_to 7997
  139.5031  144.6194  151.6086 H   0  0  0  0  0  0  0  0  0  0  0  0  # atno 10167 bound_to 10162
  156.3159  130.7507  151.1594 H   0  0  0  0  0  0  0  0  0  0  0  0  # atno 10718 bound_to 10713
  153.0172  135.5295  154.6932 H   0  0  0  0  0  0  0  0  0  0  0  0  # atno 10763 bound_to 10752
  154.6061  135.2873  155.0485 H   0  0  0  0  0  0  0  0  0  0  0  0  # atno 10764 bound_to 10752
  154.1524  135.6561  153.5019 H   0  0  0  0  0  0  0  0  0  0  0  0  # atno 10765 bound_to 10752
  141.1479  133.6697  156.6120 H   0  0  0  0  0  0  0  0  0  0  0  0  # atno 11005 bound_to 11000
  145.3027  141.0199  143.3599 LP  0  0  0  0  0  0  0  0  0  0  0  0  # atno 17320 bound_to 7965
  144.8994  139.4670  143.6640 LP  0  0  0  0  0  0  0  0  0  0  0  0  # atno 17321 bound_to 7965
  140.5892  143.9809  150.6314 LP  0  0  0  0  0  0  0  0  0  0  0  0  # atno 17342 bound_to 10162
  140.2984  143.3277  152.0995 LP  0  0  0  0  0  0  0  0  0  0  0  0  # atno 17343 bound_to 10162
  157.7401  131.0521  150.5186 LP  0  0  0  0  0  0  0  0  0  0  0  0  # atno 17370 bound_to 10713
  156.5332  130.4190  149.6191 LP  0  0  0  0  0  0  0  0  0  0  0  0  # atno 17371 bound_to 10713
  140.3607  134.7690  157.4531 LP  0  0  0  0  0  0  0  0  0  0  0  0  # atno 17394 bound_to 11000
  140.0788  134.5760  155.8563 LP  0  0  0  0  0  0  0  0  0  0  0  0  # atno 17395 bound_to 11000

$$$$
