AV-unprocessed.smi:2047|AV-procd|sdf|8318|dock2
  -GOLD-   2272010583D 1   1.00000     0.00000
 Structure written by MMmdl.
 43 45  0  0  0  0  0  0  0  0  2 V2000
  148.7510  137.0383  156.2561 O   0  0  0  0  0  0  0  0  0  0  0  0
  148.4845  136.8362  155.0719 C   0  0  0  0  0  0  0  0  0  0  0  0
  147.5357  135.9978  154.6219 N   0  0  0  0  0  0  0  0  0  0  0  0
  146.6298  135.1940  155.3732 C   0  0  0  0  0  0  0  0  0  0  0  0
  146.6039  135.1814  156.7919 C   0  0  0  0  0  0  0  0  0  0  0  0
  145.6647  134.3768  157.4669 C   0  0  0  0  0  0  0  0  0  0  0  0
  144.7583  133.6055  156.7169 C   0  0  0  0  0  0  0  0  0  0  0  0
  144.7975  133.6505  155.3689 N   0  3  0  0  0  0  0  0  0  0  0  0
  145.6809  134.4064  154.6715 C   0  0  0  0  0  0  0  0  0  0  0  0
  145.6402  134.3780  153.2666 N   0  0  0  0  0  0  0  0  0  0  0  0
  144.3986  134.8279  152.6593 C   0  0  0  0  0  0  0  0  0  0  0  0
  144.4572  134.3441  151.2082 C   0  0  0  0  0  0  0  0  0  0  0  0
  145.4617  133.1850  151.2193 C   0  0  0  0  0  0  0  0  0  0  0  0
  145.9336  133.0847  152.6723 C   0  0  0  0  0  0  0  0  0  0  0  0
  149.1305  137.4281  154.0574 N   0  0  0  0  0  0  0  0  0  0  0  0
  150.2120  138.3977  154.2063 C   0  0  1  0  0  0  0  0  0  0  0  0
  149.8069  139.5413  155.1548 C   0  0  0  0  0  0  0  0  0  0  0  0
  151.0676  140.3170  155.5553 C   0  0  0  0  0  0  0  0  0  0  0  0
  152.4355  139.0967  155.5598 S   0  0  0  0  0  0  0  0  0  0  0  0
  153.4891  139.5583  154.6436 O   0  0  0  0  0  0  0  0  0  0  0  0
  152.7499  138.7137  156.9446 O   0  0  0  0  0  0  0  0  0  0  0  0
  151.4853  137.7445  154.7679 C   0  0  0  0  0  0  0  0  0  0  0  0
  147.4950  135.8732  153.6209 H   0  0  0  0  0  0  0  0  0  0  0  0
  147.2774  135.7857  157.3795 H   0  0  0  0  0  0  0  0  0  0  0  0
  145.6378  134.3567  158.5468 H   0  0  0  0  0  0  0  0  0  0  0  0
  144.0051  132.9633  157.1500 H   0  0  0  0  0  0  0  0  0  0  0  0
  143.5386  134.3876  153.1653 H   0  0  0  0  0  0  0  0  0  0  0  0
  144.3051  135.9129  152.7167 H   0  0  0  0  0  0  0  0  0  0  0  0
  143.4746  134.0399  150.8465 H   0  0  0  0  0  0  0  0  0  0  0  0
  144.8186  135.1412  150.5572 H   0  0  0  0  0  0  0  0  0  0  0  0
  145.0183  132.2493  150.8776 H   0  0  0  0  0  0  0  0  0  0  0  0
  146.3011  133.4135  150.5614 H   0  0  0  0  0  0  0  0  0  0  0  0
  146.9982  132.8562  152.7339 H   0  0  0  0  0  0  0  0  0  0  0  0
  145.3886  132.2941  153.1900 H   0  0  0  0  0  0  0  0  0  0  0  0
  148.8538  137.1979  153.1140 H   0  0  0  0  0  0  0  0  0  0  0  0
  150.4455  138.8389  153.2353 H   0  0  0  0  0  0  0  0  0  0  0  0
  149.0609  140.1974  154.7048 H   0  0  0  0  0  0  0  0  0  0  0  0
  149.3580  139.1197  156.0554 H   0  0  0  0  0  0  0  0  0  0  0  0
  151.3025  141.0814  154.8141 H   0  0  0  0  0  0  0  0  0  0  0  0
  150.9832  140.7938  156.5319 H   0  0  0  0  0  0  0  0  0  0  0  0
  151.2472  137.0114  155.5394 H   0  0  0  0  0  0  0  0  0  0  0  0
  152.0901  137.2591  154.0014 H   0  0  0  0  0  0  0  0  0  0  0  0
  144.1265  133.0851  154.8485 H   0  0  0  0  0  0  0  0  0  0  0  0
  1  2  2  0  0  0  0
  2  3  1  0  0  0  0
  2 15  1  0  0  0  0
  3  4  1  0  0  0  0
  3 23  1  0  0  0  0
  4  9  1  0  0  0  0
  4  5  2  0  0  0  0
  5  6  1  0  0  0  0
  5 24  1  0  0  0  0
  6  7  2  0  0  0  0
  6 25  1  0  0  0  0
  7  8  1  0  0  0  0
  7 26  1  0  0  0  0
  8  9  2  0  0  0  0
  8 43  1  0  0  0  0
  9 10  1  0  0  0  0
 10 14  1  0  0  0  0
 10 11  1  0  0  0  0
 11 12  1  0  0  0  0
 11 27  1  0  0  0  0
 11 28  1  0  0  0  0
 12 13  1  0  0  0  0
 12 29  1  0  0  0  0
 12 30  1  0  0  0  0
 13 14  1  0  0  0  0
 13 31  1  0  0  0  0
 13 32  1  0  0  0  0
 14 33  1  0  0  0  0
 14 34  1  0  0  0  0
 15 16  1  0  0  0  0
 15 35  1  0  0  0  0
 16 22  1  0  0  0  0
 16 17  1  0  0  0  0
 16 36  1  0  0  0  0
 17 18  1  0  0  0  0
 17 37  1  0  0  0  0
 17 38  1  0  0  0  0
 18 19  1  0  0  0  0
 18 39  1  0  0  0  0
 18 40  1  0  0  0  0
 19 20  2  0  0  0  0
 19 21  2  0  0  0  0
 19 22  1  0  0  0  0
 22 41  1  0  0  0  0
 22 42  1  0  0  0  0
M  CHG  1   8   1
M  END
> <s_m_source_file>
AV-unprocessed.smi

> <i_m_source_file_index>
2047

> <i_lp_mmshare_version>
43012

> <i_f3d_flags>
0

> <s_epik_input>
Tz1TMSg9TylbQ0gyXVtDSDJdW0NASF0oW0NIMl0xKVtOSF1DKD1PKVtOSF1jMltjSF1bY0hdW2NIXW5jMk4zW0NIMl1bQ0gyXVtDSDJdW0NIMl0z

> <s_epik_cmdline>
J2VwaWtfcHl0aG9uJywgJy1waCcsICc3LjAnLCAnLXRuJywgJzgnLCAnLW1hJywgJzIwMCcsICctbWV0YWxfYmluZGluZycsICctaW1hZScsICc8aW5maWxlLm1hZT4nLCAnLW9tYWUnLCAnPG91dGZpbGUubWFlPic=

> <r_lp_tautomer_probability>
0.999994

> <r_epik_Ionization_Penalty>
1.20225

> <r_epik_Ionization_Penalty_Charging>
1.20223

> <r_epik_Ionization_Penalty_Neutral>
2.10783e-05

> <r_epik_State_Penalty>
1.26794

> <r_epik_Charging_Adjusted_Penalty>
2.47017

> <i_epik_Tot_Q>
1

> <i_epik_Tot_abs_Q>
1

> <r_epik_Metal_State_Penalty>
1.34322

> <b_epik_Metal_Only>
0

> <s_lp_Force_Field>
OPLS_2005

> <r_lp_Energy>
42.594

> <b_lp_Chiralities_Consistent>
1

> <s_lp_Variant>
AV-unprocessed.smi:2047-4

> <Gold.Version>
5.8.1

> <Gold.Id.Protein>
6NUR|6NUR_protein|mol2

> <Gold.PLP.Fitness>
38.3286

> <Gold.PLP.PLP>
-25.8363

> <Gold.PLP.part.hbond>
-5.2121

> <Gold.PLP.part.metal>
0.0000

> <Gold.PLP.part.buried>
-2.6866

> <Gold.PLP.part.nonpolar>
-18.8357

> <Gold.PLP.part.repulsive>
0.1392

> <Gold.PLP.ligand.clash>
0.0000

> <Gold.PLP.ligand.torsion>
0.0812

> <Gold.PLP.Chemscore.Hbond>
4.2106

> <Gold.PLP.Chemscore.CHOScore>
0.0000

> <Gold.PLP.Chemscore.Metal>
0.0000

> <Gold.Chemscore.Hbonds>
donor molecule, donor type, donor heavy atom, donor atom, acceptor molecule, acceptor atom, score
      L1  H     3    23       P1  7948  0.22
      L1  H     8    43       P1 10957  2.00
      L1  H    15    35       P1  7948  0.98
      P1  H  7997  8009       L1    20  1.00

> <Gold.PLP.Chemscore.Internal.Correction>
0.0228

> <Gold.Rescore>
     Score         DG    S(hbond)    S(metal)    S(lipo)     H(rot)  DE(clash)    DE(int)     intcor
     15.41     -18.18       3.02        0.00      49.87       1.26       0.20       2.57       ----

> <Gold.Chemscore.Fitness>
15.4096

> <Gold.Chemscore.DG>
-18.1792

> <Gold.Chemscore.ZeroCoef>
-5.4800

> <Gold.Chemscore.Hbond>
3.0203

> <Gold.Chemscore.Metal>
0.0000

> <Gold.Chemscore.Lipo>
49.8663

> <Gold.Chemscore.Internal_Hbond>
0.0000

> <Gold.Chemscore.DEClash>
0.2030

> <Gold.Chemscore.DEInternal>
2.5666

> <Gold.Chemscore.Rot>
1.2590

> <Gold.Chemscore.Internal.Correction>
   9.000000E+99

> <Gold.Chemscore.Hbonds>
donor molecule, donor type, donor heavy atom, donor atom, acceptor molecule, acceptor atom, score
      L1  H     3    23       P1  7948  0.22
      L1  H     8    43       P1 10957  0.94
      L1  H    15    35       P1  7948  0.90
      P1  H  7997  8009       L1    20  0.30

> <Gold.Chemscore.Hbond.Weighted>
-10.0879

> <Gold.Chemscore.Metal.Weighted>
-0.0000

> <Gold.Chemscore.Lipo.Weighted>
-5.8344

> <Gold.Chemscore.Internal_Hbond.Weighted>
0.0000

> <Gold.Chemscore.DEClash.Weighted>
0.2030

> <Gold.Chemscore.DEInternal.Weighted>
2.5666

> <Gold.Chemscore.Rot.Weighted>
3.2231

> <Gold.Chemscore.Internal.Correction.Weighted>
   9.000000E+99

> <Gold.Protein.RotatedTorsions>
[ 6907 6896 6895 6894 ] final -141.01 input  -60.11 | X-H torsion
[ 7974 7965 7964 7962 ] final  136.27 input  175.53 | X-H torsion
[ 8008 7997 7996 7995 ] final -124.11 input   59.86 | X-H torsion
[ 10167 10162 10161 10158 ] final   92.48 input  -65.29 | X-H torsion
[ 10718 10713 10712 10709 ] final   33.70 input   66.30 | X-H torsion
[ 10763 10752 10751 10750 ] final  102.86 input  -60.55 | X-H torsion
[ 11005 11000 10999 10996 ] final   75.04 input  -57.11 | X-H torsion

> <Gold.Protein.ActiveResidues>
 VAL166  LYS551  ARG553  GLY616  TRP617  ASP618  TYR619  PRO620  LYS621  CYS622 
 ASP623  PHE694  ASN695  SER759  ASP760  ASP761  ALA762  ILE779  LEU786  VAL792 
 PHE793  MET794  SER795  GLU796  ALA797  LYS798  CYS799  TRP800  GLU811  SER814 

> <Gold.Protein.RotatedAtoms>
  151.0681  133.5488  159.2628 H   0  0  0  0  0  0  0  0  0  0  0  0  # atno 6907 bound_to 6896
  151.2438  135.0597  159.9045 H   0  0  0  0  0  0  0  0  0  0  0  0  # atno 6908 bound_to 6896
  152.5407  134.0452  159.8139 H   0  0  0  0  0  0  0  0  0  0  0  0  # atno 6909 bound_to 6896
  144.9581  139.4741  143.5493 H   0  0  0  0  0  0  0  0  0  0  0  0  # atno 7974 bound_to 7965
  155.1915  140.0413  157.2901 H   0  0  0  0  0  0  0  0  0  0  0  0  # atno 8008 bound_to 7997
  154.6135  140.2483  155.7610 H   0  0  0  0  0  0  0  0  0  0  0  0  # atno 8009 bound_to 7997
  156.2393  140.2909  156.0409 H   0  0  0  0  0  0  0  0  0  0  0  0  # atno 8010 bound_to 7997
  139.8273  144.6703  150.9444 H   0  0  0  0  0  0  0  0  0  0  0  0  # atno 10167 bound_to 10162
  157.3012  130.7351  149.6668 H   0  0  0  0  0  0  0  0  0  0  0  0  # atno 10718 bound_to 10713
  153.3451  135.3996  155.1602 H   0  0  0  0  0  0  0  0  0  0  0  0  # atno 10763 bound_to 10752
  154.8651  135.3643  154.5295 H   0  0  0  0  0  0  0  0  0  0  0  0  # atno 10764 bound_to 10752
  153.5743  135.7078  153.5551 H   0  0  0  0  0  0  0  0  0  0  0  0  # atno 10765 bound_to 10752
  139.9362  134.7484  156.1222 H   0  0  0  0  0  0  0  0  0  0  0  0  # atno 11005 bound_to 11000
  146.3344  139.8713  142.8839 LP  0  0  0  0  0  0  0  0  0  0  0  0  # atno 17320 bound_to 7965
  145.2741  141.0118  143.3755 LP  0  0  0  0  0  0  0  0  0  0  0  0  # atno 17321 bound_to 7965
  140.7809  143.4034  151.1111 LP  0  0  0  0  0  0  0  0  0  0  0  0  # atno 17342 bound_to 10162
  139.7690  143.8522  152.3116 LP  0  0  0  0  0  0  0  0  0  0  0  0  # atno 17343 bound_to 10162
  155.9671  130.4279  150.4766 LP  0  0  0  0  0  0  0  0  0  0  0  0  # atno 17370 bound_to 10713
  157.2747  131.0594  151.2237 LP  0  0  0  0  0  0  0  0  0  0  0  0  # atno 17371 bound_to 10713
  141.0977  133.6689  156.2682 LP  0  0  0  0  0  0  0  0  0  0  0  0  # atno 17394 bound_to 11000
  140.6069  134.5498  157.5527 LP  0  0  0  0  0  0  0  0  0  0  0  0  # atno 17395 bound_to 11000

$$$$
