#       Name:                AV-unprocessed.smi:1146
#       Creating user name   scv26
#       Creation time:       Fri Mar 27 03:46:00 2020


#       File generated by GOLD software.
#

@<TRIPOS>MOLECULE
AV-unprocessed.smi:1146
    51    52     1
SMALL
NO_CHARGES


@<TRIPOS>ATOM
      1 ****        -2.9294   3.5547  -1.2304 C.3            1 S1                 0.0000
      2 ****        -2.5010   3.1731   0.1920 C.3            1 S1                 0.0000
      3 ****        -1.3066   2.3321   0.1784 N.am           1 S1                 0.0000
      4 ****        -0.0222   2.7572   0.2155 C.2            1 S1                 0.0000
      5 ****         0.3486   3.9298   0.2646 O.2            1 S1                 0.0000
      6 ****         0.7837   1.6693   0.1870 N.am           1 S1                 0.0000
      7 ****         2.2492   1.6749   0.2006 C.3            1 S1                 0.0000
      8 ****         2.8700   1.7902   1.6181 C.3            1 S1                 0.0000
      9 ****         2.1400   0.9685   2.6984 C.3            1 S1                 0.0000
     10 ****         4.3573   1.4009   1.5694 C.3            1 S1                 0.0000
     11 ****         2.8499   3.1509   2.0022 O.3            1 S1                 0.0000
     12 ****        -0.0106   0.5135   0.1153 C.ar           1 S1                 0.0000
     13 ****         0.3370  -0.8481   0.0644 C.ar           1 S1                 0.0000
     14 ****        -0.7285  -1.7770   0.0003 C.ar           1 S1                 0.0000
     15 ****        -0.3753  -3.5276  -0.0764 S.o2           1 S1                 0.0000
     16 ****         1.0764  -3.7325  -0.2030 O.2            1 S1                 0.0000
     17 ****        -1.1256  -4.1733   1.0120 O.2            1 S1                 0.0000
     18 ****        -1.1090  -3.9869  -1.5775 N.3            1 S1                 0.0000
     19 ****        -1.7212  -5.3166  -1.6665 C.3            1 S1                 0.0000
     20 ****        -0.4554  -3.5438  -2.8127 C.3            1 S1                 0.0000
     21 ****        -2.0817  -1.3501  -0.0203 C.ar           1 S1                 0.0000
     22 ****        -2.3993   0.0268   0.0346 C.ar           1 S1                 0.0000
     23 ****        -1.3258   0.9323   0.1068 C.ar           1 S1                 0.0000
     24 ****        -3.8185   4.1852  -1.2109 H              1 S1                 0.0000
     25 ****        -3.1623   2.6698  -1.8235 H              1 S1                 0.0000
     26 ****        -2.1424   4.1069  -1.7449 H              1 S1                 0.0000
     27 ****        -2.3109   4.0753   0.7753 H              1 S1                 0.0000
     28 ****        -3.3127   2.6523   0.7004 H              1 S1                 0.0000
     29 ****         2.5912   0.7518  -0.2671 H              1 S1                 0.0000
     30 ****         2.6212   2.4715  -0.4464 H              1 S1                 0.0000
     31 ****         2.1214  -0.0906   2.4405 H              1 S1                 0.0000
     32 ****         1.1091   1.2959   2.8357 H              1 S1                 0.0000
     33 ****         2.6358   1.0606   3.6653 H              1 S1                 0.0000
     34 ****         4.4817   0.3558   1.2837 H              1 S1                 0.0000
     35 ****         4.8373   1.5340   2.5399 H              1 S1                 0.0000
     36 ****         4.9053   2.0067   0.8462 H              1 S1                 0.0000
     37 ****         1.9566   3.4591   1.9764 H              1 S1                 0.0000
     38 ****         1.3674  -1.1697   0.0775 H              1 S1                 0.0000
     39 ****        -2.2874  -5.4200  -2.5926 H              1 S1                 0.0000
     40 ****        -2.4076  -5.4782  -0.8355 H              1 S1                 0.0000
     41 ****        -0.9511  -6.0881  -1.6385 H              1 S1                 0.0000
     42 ****        -1.1309  -3.6439  -3.6629 H              1 S1                 0.0000
     43 ****         0.4380  -4.1398  -3.0015 H              1 S1                 0.0000
     44 ****        -0.1628  -2.4967  -2.7339 H              1 S1                 0.0000
     45 ****        -2.8754  -2.0805  -0.0770 H              1 S1                 0.0000
     46 ****        -3.4253   0.3634   0.0206 H              1 S1                 0.0000
     47 ****        -0.3264   4.6674   0.2803 LP             1 S1                 0.0000
     48 ****         1.3249   4.1449   0.2889 LP             1 S1                 0.0000
     49 ****         3.4096   3.6874   1.3706 LP             1 S1                 0.0000
     50 ****         3.2117   3.2443   2.9298 LP             1 S1                 0.0000
     51 ****        -1.9068  -3.3876  -1.5123 LP             1 S1                 0.0000
@<TRIPOS>BOND
    1    1    2 1     
    2    1   24 1     
    3    1   25 1     
    4    1   26 1     
    5    2    3 1     
    6    2   27 1     
    7    2   28 1     
    8    3   23 1     
    9    3    4 am    
   10    4    5 2     
   11    4    6 am    
   12    6    7 1     
   13    6   12 1     
   14    7    8 1     
   15    7   29 1     
   16    7   30 1     
   17    8    9 1     
   18    8   10 1     
   19    8   11 1     
   20    9   31 1     
   21    9   32 1     
   22    9   33 1     
   23   10   34 1     
   24   10   35 1     
   25   10   36 1     
   26   11   37 1     
   27   12   23 ar    
   28   12   13 ar    
   29   13   14 ar    
   30   13   38 1     
   31   14   15 1     
   32   14   21 ar    
   33   15   16 2     
   34   15   17 2     
   35   15   18 1     
   36   18   19 1     
   37   18   20 1     
   38   19   39 1     
   39   19   40 1     
   40   19   41 1     
   41   20   42 1     
   42   20   43 1     
   43   20   44 1     
   44   21   22 ar    
   45   21   45 1     
   46   22   23 ar    
   47   22   46 1     
   48    5   47 1     
   49    5   48 1     
   50   11   49 1     
   51   11   50 1     
   52   18   51 1     
@<TRIPOS>SUBSTRUCTURE
      1 S1             1
@<TRIPOS>SET
LONE_PAIRS      STATIC     ATOMS    <user>   **** ""
7 47 48 49 50 16 17 51
DONOR_HYDROGENS      STATIC     ATOMS    <user>   **** ""
1 37
ATOM$BLUE        STATIC     ATOMS    COLORGROUP SYSTEM
7 47 48 49 50 16 17 51
ATOM$RED        STATIC     ATOMS    COLORGROUP SYSTEM
1 37
