AV-unprocessed.smi:278|AV-procd|sdf|2093|dock8
  -GOLD-   2262021373D 1   1.00000     0.00000
 Structure written by MMmdl.
 50 54  0  0  0  0  0  0  0  0  1 V2000
  153.3864  138.9749  155.6078 O   0  0  0  0  0  0  0  0  0  0  0  0
  152.1302  138.3565  156.0575 S   0  0  0  0  0  0  0  0  0  0  0  0
  151.7316  137.0262  155.5719 O   0  0  0  0  0  0  0  0  0  0  0  0
  152.0876  138.3609  157.8917 C   0  0  0  0  0  0  0  0  0  0  0  0
  151.1635  139.5165  158.2977 C   0  0  0  0  0  0  0  0  0  0  0  0
  150.1113  139.7329  157.1948 C   0  0  2  0  0  0  0  0  0  0  0  0
  148.9975  138.6805  157.1817 C   0  0  0  0  0  0  0  0  0  0  0  0
  148.5770  138.5898  155.7907 N   0  0  0  0  0  0  0  0  0  0  0  0
  147.6730  137.6599  155.3850 C   0  0  0  0  0  0  0  0  0  0  0  0
  147.5388  136.5202  156.1145 N   0  0  0  0  0  0  0  0  0  0  0  0
  146.6588  135.5818  155.7549 C   0  0  0  0  0  0  0  0  0  0  0  0
  145.8184  135.5800  154.7197 N   0  0  0  0  0  0  0  0  0  0  0  0
  145.9361  136.7237  153.9872 C   0  0  0  0  0  0  0  0  0  0  0  0
  146.8279  137.8053  154.2442 C   0  0  0  0  0  0  0  0  0  0  0  0
  146.6459  138.7959  153.2841 N   0  0  0  0  0  0  0  0  0  0  0  0
  145.7113  138.3254  152.5049 C   0  0  0  0  0  0  0  0  0  0  0  0
  145.2251  137.0885  152.8575 N   0  0  0  0  0  0  0  0  0  0  0  0
  144.1812  136.3418  152.1770 C   0  0  0  0  0  0  0  0  0  0  0  0
  144.7405  135.4183  151.0767 C   0  0  2  0  0  0  0  0  0  0  0  0
  144.8329  136.1367  149.8608 O   0  0  0  0  0  0  0  0  0  0  0  0
  143.8776  134.1533  150.8891 C   0  0  1  0  0  0  0  0  0  0  0  0
  144.1169  133.3209  149.6249 C   0  0  0  0  0  0  0  0  0  0  0  0
  143.5993  131.9694  150.0629 C   0  0  0  0  0  0  0  0  0  0  0  0
  144.0601  131.9151  151.5177 C   0  0  0  0  0  0  0  0  0  0  0  0
  144.0329  133.2603  151.9886 O   0  0  0  0  0  0  0  0  0  0  0  0
  149.6416  139.0423  154.9056 C   0  0  0  0  0  0  0  0  0  0  0  0
  150.7595  139.5661  155.8190 C   0  0  2  0  0  0  0  0  0  0  0  0
  149.6605  140.7231  157.2758 H   0  0  0  0  0  0  0  0  0  0  0  0
  151.1918  140.4979  155.4534 H   0  0  0  0  0  0  0  0  0  0  0  0
  151.6795  137.4049  158.2201 H   0  0  0  0  0  0  0  0  0  0  0  0
  153.0967  138.4622  158.2916 H   0  0  0  0  0  0  0  0  0  0  0  0
  150.7050  139.3438  159.2719 H   0  0  0  0  0  0  0  0  0  0  0  0
  151.7612  140.4243  158.3873 H   0  0  0  0  0  0  0  0  0  0  0  0
  149.3678  137.7082  157.5096 H   0  0  0  0  0  0  0  0  0  0  0  0
  148.1709  138.9679  157.8325 H   0  0  0  0  0  0  0  0  0  0  0  0
  146.6215  134.7079  156.3886 H   0  0  0  0  0  0  0  0  0  0  0  0
  145.3432  138.8743  151.6504 H   0  0  0  0  0  0  0  0  0  0  0  0
  143.6431  135.7563  152.9235 H   0  0  0  0  0  0  0  0  0  0  0  0
  143.4618  137.0460  151.7570 H   0  0  0  0  0  0  0  0  0  0  0  0
  145.7480  135.1124  151.3615 H   0  0  0  0  0  0  0  0  0  0  0  0
  144.2514  136.8802  149.9093 H   0  0  0  0  0  0  0  0  0  0  0  0
  142.8263  134.4458  150.9056 H   0  0  0  0  0  0  0  0  0  0  0  0
  143.5972  133.7156  148.7514 H   0  0  0  0  0  0  0  0  0  0  0  0
  145.1774  133.2431  149.3838 H   0  0  0  0  0  0  0  0  0  0  0  0
  142.5099  131.9505  150.0118 H   0  0  0  0  0  0  0  0  0  0  0  0
  143.9852  131.1456  149.4618 H   0  0  0  0  0  0  0  0  0  0  0  0
  143.4344  131.2653  152.1299 H   0  0  0  0  0  0  0  0  0  0  0  0
  145.0861  131.5499  151.5764 H   0  0  0  0  0  0  0  0  0  0  0  0
  149.9927  138.2535  154.2403 H   0  0  0  0  0  0  0  0  0  0  0  0
  149.2542  139.8518  154.2865 H   0  0  0  0  0  0  0  0  0  0  0  0
  1  2  2  0  0  0  0
  2 27  1  0  0  0  0
  2  3  2  0  0  0  0
  2  4  1  0  0  0  0
  4  5  1  0  0  0  0
  4 30  1  0  0  0  0
  4 31  1  0  0  0  0
  5  6  1  0  0  0  0
  5 32  1  0  0  0  0
  5 33  1  0  0  0  0
  6 28  1  0  0  0  0
  6 27  1  0  0  0  0
  6  7  1  0  0  0  0
  7  8  1  0  0  0  0
  7 34  1  0  0  0  0
  7 35  1  0  0  0  0
  8  9  1  0  0  0  0
  8 26  1  0  0  0  0
  9 14  1  0  0  0  0
  9 10  2  0  0  0  0
 10 11  1  0  0  0  0
 11 12  2  0  0  0  0
 11 36  1  0  0  0  0
 12 13  1  0  0  0  0
 13 17  1  0  0  0  0
 13 14  2  0  0  0  0
 14 15  1  0  0  0  0
 15 16  2  0  0  0  0
 16 17  1  0  0  0  0
 16 37  1  0  0  0  0
 17 18  1  0  0  0  0
 18 19  1  0  0  0  0
 18 38  1  0  0  0  0
 18 39  1  0  0  0  0
 19 20  1  0  0  0  0
 19 21  1  0  0  0  0
 19 40  1  0  0  0  0
 20 41  1  0  0  0  0
 21 25  1  0  0  0  0
 21 22  1  0  0  0  0
 21 42  1  0  0  0  0
 22 23  1  0  0  0  0
 22 43  1  0  0  0  0
 22 44  1  0  0  0  0
 23 24  1  0  0  0  0
 23 45  1  0  0  0  0
 23 46  1  0  0  0  0
 24 25  1  0  0  0  0
 24 47  1  0  0  0  0
 24 48  1  0  0  0  0
 26 27  1  0  0  0  0
 26 49  1  0  0  0  0
 26 50  1  0  0  0  0
 27 29  1  0  0  0  0
M  END
> <s_m_source_file>
AV-unprocessed.smi

> <i_m_source_file_index>
278

> <i_lp_mmshare_version>
43012

> <i_f3d_flags>
0

> <s_epik_input>
W0NIMl0xW0NIMl1TKD1PKSg9TylbQ0BASF0oW0NAQEhdMTIpW0NIMl1OKFtDSDJdMiljKG5bY0hdbjMpYyhjMzQpbltjSF1uNFtDSDJdW0NASF0oW09IXSlbQ0BASF01W0NIMl1bQ0gyXVtDSDJdTzU=

> <s_epik_cmdline>
J2VwaWtfcHl0aG9uJywgJy1waCcsICc3LjAnLCAnLXRuJywgJzgnLCAnLW1hJywgJzIwMCcsICctbWV0YWxfYmluZGluZycsICctaW1hZScsICc8aW5maWxlLm1hZT4nLCAnLW9tYWUnLCAnPG91dGZpbGUubWFlPic=

> <r_lp_tautomer_probability>
1

> <r_epik_Ionization_Penalty>
0.000636766

> <r_epik_Ionization_Penalty_Charging>
0

> <r_epik_Ionization_Penalty_Neutral>
0.000636766

> <r_epik_State_Penalty>
0.000329976

> <r_epik_Charging_Adjusted_Penalty>
0.000329976

> <i_epik_Tot_Q>
0

> <i_epik_Tot_abs_Q>
0

> <r_epik_Metal_State_Penalty>
-0

> <b_epik_Metal_Only>
0

> <s_lp_Force_Field>
OPLS_2005

> <r_lp_Energy>
51.4583

> <b_lp_Chiralities_Consistent>
1

> <s_lp_Variant>
AV-unprocessed.smi:278-7

> <Gold.Version>
5.8.1

> <Gold.Id.Protein>
6NUR|6NUR_protein|mol2

> <Gold.PLP.Fitness>
46.5398

> <Gold.PLP.PLP>
-36.8906

> <Gold.PLP.part.hbond>
-3.7222

> <Gold.PLP.part.metal>
0.0000

> <Gold.PLP.part.buried>
-2.3612

> <Gold.PLP.part.nonpolar>
-32.0545

> <Gold.PLP.part.repulsive>
0.5701

> <Gold.PLP.ligand.clash>
0.0000

> <Gold.PLP.ligand.torsion>
1.6023

> <Gold.PLP.Chemscore.Hbond>
2.5840

> <Gold.PLP.Chemscore.CHOScore>
1.6188

> <Gold.PLP.Chemscore.Metal>
0.0000

> <Gold.Chemscore.Hbonds>
donor molecule, donor type, donor heavy atom, donor atom, acceptor molecule, acceptor atom, score
      L1  H    20    41       P1 10171  1.00
      P1  H  7997  8009       L1     1  0.80
      P1  H 10752 10763       L1     3  0.84
      L1  C    16    37       P1 10171  1.00
      L1  C    16    37       P1 10175  0.57

> <Gold.PLP.Chemscore.Internal.Correction>
0.2455

> <Gold.Rescore>
     Score         DG    S(hbond)    S(metal)    S(lipo)     H(rot)  DE(clash)    DE(int)     intcor
     14.90     -17.42       2.29        0.00      83.31       2.13       0.57       1.95       ----

> <Gold.Chemscore.Fitness>
14.9022

> <Gold.Chemscore.DG>
-17.4232

> <Gold.Chemscore.ZeroCoef>
-5.4800

> <Gold.Chemscore.Hbond>
2.2937

> <Gold.Chemscore.Metal>
0.0000

> <Gold.Chemscore.Lipo>
83.3058

> <Gold.Chemscore.Internal_Hbond>
0.0000

> <Gold.Chemscore.DEClash>
0.5716

> <Gold.Chemscore.DEInternal>
1.9494

> <Gold.Chemscore.Rot>
2.1346

> <Gold.Chemscore.Internal.Correction>
   9.000000E+99

> <Gold.Chemscore.Hbonds>
donor molecule, donor type, donor heavy atom, donor atom, acceptor molecule, acceptor atom, score
      L1  H    20    41       P1 10171  0.98
      P1  H  7997  8009       L1     1  0.80
      P1  H 10752 10763       L1     3  0.82

> <Gold.Chemscore.Hbond.Weighted>
-7.6611

> <Gold.Chemscore.Metal.Weighted>
-0.0000

> <Gold.Chemscore.Lipo.Weighted>
-9.7468

> <Gold.Chemscore.Internal_Hbond.Weighted>
0.0000

> <Gold.Chemscore.DEClash.Weighted>
0.5716

> <Gold.Chemscore.DEInternal.Weighted>
1.9494

> <Gold.Chemscore.Rot.Weighted>
5.4646

> <Gold.Chemscore.Internal.Correction.Weighted>
   9.000000E+99

> <Gold.Protein.RotatedTorsions>
[ 6907 6896 6895 6894 ] final  119.28 input  -60.11 | X-H torsion
[ 7974 7965 7964 7962 ] final   52.70 input  175.53 | X-H torsion
[ 8008 7997 7996 7995 ] final -125.91 input   59.86 | X-H torsion
[ 10167 10162 10161 10158 ] final   76.73 input  -65.29 | X-H torsion
[ 10718 10713 10712 10709 ] final  -68.27 input   66.30 | X-H torsion
[ 10763 10752 10751 10750 ] final   73.29 input  -60.55 | X-H torsion
[ 11005 11000 10999 10996 ] final  177.95 input  -57.11 | X-H torsion

> <Gold.Protein.ActiveResidues>
 VAL166  LYS551  ARG553  GLY616  TRP617  ASP618  TYR619  PRO620  LYS621  CYS622 
 ASP623  PHE694  ASN695  SER759  ASP760  ASP761  ALA762  ILE779  LEU786  VAL792 
 PHE793  MET794  SER795  GLU796  ALA797  LYS798  CYS799  TRP800  GLU811  SER814 

> <Gold.Protein.RotatedAtoms>
  152.4483  133.7579  159.6729 H   0  0  0  0  0  0  0  0  0  0  0  0  # atno 6907 bound_to 6896
  150.8388  133.7959  159.3075 H   0  0  0  0  0  0  0  0  0  0  0  0  # atno 6908 bound_to 6896
  151.5590  135.1068  160.0020 H   0  0  0  0  0  0  0  0  0  0  0  0  # atno 6909 bound_to 6896
  145.9786  139.4220  143.0146 H   0  0  0  0  0  0  0  0  0  0  0  0  # atno 7974 bound_to 7965
  155.2209  140.0422  157.2948 H   0  0  0  0  0  0  0  0  0  0  0  0  # atno 8008 bound_to 7997
  154.5950  140.2437  155.7840 H   0  0  0  0  0  0  0  0  0  0  0  0  # atno 8009 bound_to 7997
  156.2284  140.2946  156.0134 H   0  0  0  0  0  0  0  0  0  0  0  0  # atno 8010 bound_to 7997
  139.9892  144.5770  150.7833 H   0  0  0  0  0  0  0  0  0  0  0  0  # atno 10167 bound_to 10162
  156.0514  130.4292  150.1976 H   0  0  0  0  0  0  0  0  0  0  0  0  # atno 10718 bound_to 10713
  153.0512  135.5068  154.7872 H   0  0  0  0  0  0  0  0  0  0  0  0  # atno 10763 bound_to 10752
  154.6732  135.2956  154.9715 H   0  0  0  0  0  0  0  0  0  0  0  0  # atno 10764 bound_to 10752
  154.0526  135.6702  153.4855 H   0  0  0  0  0  0  0  0  0  0  0  0  # atno 10765 bound_to 10752
  140.3897  134.6873  157.4500 H   0  0  0  0  0  0  0  0  0  0  0  0  # atno 11005 bound_to 11000
  145.7802  140.9859  143.1103 LP  0  0  0  0  0  0  0  0  0  0  0  0  # atno 17320 bound_to 7965
  144.6855  139.9555  143.7479 LP  0  0  0  0  0  0  0  0  0  0  0  0  # atno 17321 bound_to 7965
  140.7461  143.2885  151.3395 LP  0  0  0  0  0  0  0  0  0  0  0  0  # atno 17342 bound_to 10162
  139.6353  144.0643  152.2510 LP  0  0  0  0  0  0  0  0  0  0  0  0  # atno 17343 bound_to 10162
  157.0059  130.9936  151.3379 LP  0  0  0  0  0  0  0  0  0  0  0  0  # atno 17370 bound_to 10713
  157.5443  130.8140  149.8067 LP  0  0  0  0  0  0  0  0  0  0  0  0  # atno 17371 bound_to 10713
  140.0416  134.6260  155.8974 LP  0  0  0  0  0  0  0  0  0  0  0  0  # atno 17394 bound_to 11000
  141.1895  133.6565  156.5370 LP  0  0  0  0  0  0  0  0  0  0  0  0  # atno 17395 bound_to 11000

$$$$
