#       Name:                AV-unprocessed.smi:3348
#       Creating user name   scv26
#       Creation time:       Fri Mar 27 19:35:04 2020


#       File generated by GOLD software.
#

@<TRIPOS>MOLECULE
AV-unprocessed.smi:3348
    50    51     1
SMALL
NO_CHARGES


@<TRIPOS>ATOM
      1 ****        -1.8102   3.1607   2.6371 C.3            1 S1                 0.0000
      2 ****        -0.9000   2.8476   1.4414 C.3            1 S1                 0.0000
      3 ****        -1.7430   2.7701   0.1450 C.3            1 S1                 0.0000
      4 ****        -0.9600   2.7025  -1.0751 N.pl3          1 S1                 0.0000
      5 ****        -0.7972   1.6309  -1.9286 C.2            1 S1                 0.0000
      6 ****         0.0235   2.0390  -2.9403 C.2            1 S1                 0.0000
      7 ****         0.3071   3.3958  -2.6183 C.2            1 S1                 0.0000
      8 ****        -0.2860   3.7916  -1.5034 N.2            1 S1                 0.0000
      9 ****        -0.1848   1.5951   1.7049 N.3            1 S1                 0.0000
     10 ****         1.1350   1.4833   1.0830 C.3            1 S1                 0.0000
     11 ****         1.6786   0.0584   1.2085 C.3            1 S1                 0.0000
     12 ****         0.9900  -0.7450   0.2621 O.3            1 S1                 0.0000
     13 ****         1.4197  -2.0992   0.1869 C.3            1 S1                 0.0000
     14 ****         0.8317  -2.9273   1.3500 C.3            1 S1                 0.0000
     15 ****        -0.7015  -3.0061   1.2703 C.3            1 S1                 0.0000
     16 ****        -1.1578  -3.5692  -0.0839 C.3            1 S1                 0.0000
     17 ****        -0.5767  -2.7560  -1.2517 C.3            1 S1                 0.0000
     18 ****         0.9615  -2.6713  -1.1740 C.3            1 S1                 0.0000
     19 ****         1.5498  -1.8882  -2.3583 C.3            1 S1                 0.0000
     20 ****        -2.3343   4.1064   2.4944 H              1 S1                 0.0000
     21 ****        -1.2344   3.2433   3.5596 H              1 S1                 0.0000
     22 ****        -2.5612   2.3829   2.7811 H              1 S1                 0.0000
     23 ****        -0.1854   3.6681   1.3597 H              1 S1                 0.0000
     24 ****        -2.4075   1.9053   0.1783 H              1 S1                 0.0000
     25 ****        -2.3886   3.6461   0.0699 H              1 S1                 0.0000
     26 ****        -1.2663   0.6764  -1.7417 H              1 S1                 0.0000
     27 ****         0.3686   1.4566  -3.7816 H              1 S1                 0.0000
     28 ****         0.9225   4.1005  -3.1577 H              1 S1                 0.0000
     29 ****        -0.0946   1.4564   2.7063 H              1 S1                 0.0000
     30 ****         1.1206   1.7674   0.0338 H              1 S1                 0.0000
     31 ****         1.8195   2.1748   1.5750 H              1 S1                 0.0000
     32 ****         2.7444   0.0565   0.9766 H              1 S1                 0.0000
     33 ****         1.5621  -0.3136   2.2265 H              1 S1                 0.0000
     34 ****         2.5097  -2.1378   0.2281 H              1 S1                 0.0000
     35 ****         1.2427  -3.9369   1.3121 H              1 S1                 0.0000
     36 ****         1.1350  -2.5207   2.3141 H              1 S1                 0.0000
     37 ****        -1.0844  -3.6285   2.0793 H              1 S1                 0.0000
     38 ****        -1.1278  -2.0127   1.4171 H              1 S1                 0.0000
     39 ****        -0.8420  -4.6095  -0.1713 H              1 S1                 0.0000
     40 ****        -2.2469  -3.5715  -0.1375 H              1 S1                 0.0000
     41 ****        -0.8780  -3.2107  -2.1960 H              1 S1                 0.0000
     42 ****        -1.0042  -1.7527  -1.2451 H              1 S1                 0.0000
     43 ****         1.3479  -3.6893  -1.2455 H              1 S1                 0.0000
     44 ****         1.1910  -0.8587  -2.3749 H              1 S1                 0.0000
     45 ****         1.2751  -2.3487  -3.3075 H              1 S1                 0.0000
     46 ****         2.6384  -1.8602  -2.3082 H              1 S1                 0.0000
     47 ****        -0.2445   4.6940  -1.0746 LP             1 S1                 0.0000
     48 ****        -0.7438   0.8826   1.2806 LP             1 S1                 0.0000
     49 ****         1.1114  -0.3318  -0.6404 LP             1 S1                 0.0000
     50 ****         0.0192  -0.7418   0.5023 LP             1 S1                 0.0000
@<TRIPOS>BOND
    1    1    2 1     
    2    1   20 1     
    3    1   21 1     
    4    1   22 1     
    5    2    3 1     
    6    2    9 1     
    7    2   23 1     
    8    3    4 1     
    9    3   24 1     
   10    3   25 1     
   11    4    8 1     
   12    4    5 1     
   13    5    6 2     
   14    5   26 1     
   15    6    7 1     
   16    6   27 1     
   17    7    8 2     
   18    7   28 1     
   19    9   10 1     
   20    9   29 1     
   21   10   11 1     
   22   10   30 1     
   23   10   31 1     
   24   11   12 1     
   25   11   32 1     
   26   11   33 1     
   27   12   13 1     
   28   13   18 1     
   29   13   14 1     
   30   13   34 1     
   31   14   15 1     
   32   14   35 1     
   33   14   36 1     
   34   15   16 1     
   35   15   37 1     
   36   15   38 1     
   37   16   17 1     
   38   16   39 1     
   39   16   40 1     
   40   17   18 1     
   41   17   41 1     
   42   17   42 1     
   43   18   19 1     
   44   18   43 1     
   45   19   44 1     
   46   19   45 1     
   47   19   46 1     
   48    8   47 1     
   49    9   48 1     
   50   12   49 1     
   51   12   50 1     
@<TRIPOS>SUBSTRUCTURE
      1 S1             1
@<TRIPOS>SET
LONE_PAIRS      STATIC     ATOMS    <user>   **** ""
4 47 48 49 50
DONOR_HYDROGENS      STATIC     ATOMS    <user>   **** ""
1 29
ATOM$BLUE        STATIC     ATOMS    COLORGROUP SYSTEM
4 47 48 49 50
ATOM$RED        STATIC     ATOMS    COLORGROUP SYSTEM
1 29
