AV-unprocessed.smi:3331|AV-procd|sdf|12826|dock1
  -GOLD-   2272019203D 1   1.00000     0.00000
 Structure written by MMmdl.
 46 47  0  0  0  0  0  0  0  0  1 V2000
  151.0235  142.0652  156.3764 C   0  0  0  0  0  0  0  0  0  0  0  0
  150.5098  140.6724  155.9868 C   0  0  2  0  0  0  0  0  0  0  0  0
  151.6759  139.6871  155.7459 C   0  0  0  0  0  0  0  0  0  0  0  0
  151.2039  138.3132  155.2193 C   0  0  1  0  0  0  0  0  0  0  0  0
  150.6046  137.4384  156.3347 C   0  0  0  0  0  0  0  0  0  0  0  0
  150.2384  138.5069  154.0291 C   0  0  0  0  0  0  0  0  0  0  0  0
  149.1225  139.3780  154.4294 N   0  0  0  0  0  0  0  0  0  0  0  0
  147.8265  139.0036  154.5889 C   0  0  0  0  0  0  0  0  0  0  0  0
  146.9617  139.8023  154.9541 O   0  0  0  0  0  0  0  0  0  0  0  0
  147.4088  137.5456  154.2997 C   0  0  1  0  0  0  0  0  0  0  0  0
  146.8976  136.8376  155.5744 C   0  0  0  0  0  0  0  0  0  0  0  0
  146.3968  137.5220  153.2307 N   0  0  0  0  0  0  0  0  0  0  0  0
  145.8714  136.1863  152.9757 C   0  0  0  0  0  0  0  0  0  0  0  0
  145.4382  136.0573  151.5057 C   0  0  0  0  0  0  0  0  0  0  0  0
  145.3354  134.6726  151.0792 N   0  0  0  0  0  0  0  0  0  0  0  0
  144.2451  134.0216  150.5413 C   0  0  0  0  0  0  0  0  0  0  0  0
  144.6215  132.7321  150.2963 C   0  0  0  0  0  0  0  0  0  0  0  0
  145.9769  132.6885  150.7271 C   0  0  0  0  0  0  0  0  0  0  0  0
  146.4006  133.8504  151.1976 N   0  0  0  0  0  0  0  0  0  0  0  0
  149.5965  140.7326  154.7448 C   0  0  0  0  0  0  0  0  0  0  0  0
  151.6257  142.5028  155.5798 H   0  0  0  0  0  0  0  0  0  0  0  0
  151.6404  142.0185  157.2743 H   0  0  0  0  0  0  0  0  0  0  0  0
  150.1961  142.7455  156.5804 H   0  0  0  0  0  0  0  0  0  0  0  0
  149.9155  140.3007  156.8228 H   0  0  0  0  0  0  0  0  0  0  0  0
  152.3545  140.1219  155.0106 H   0  0  0  0  0  0  0  0  0  0  0  0
  152.2628  139.5626  156.6568 H   0  0  0  0  0  0  0  0  0  0  0  0
  152.0829  137.7845  154.8482 H   0  0  0  0  0  0  0  0  0  0  0  0
  149.7143  137.8885  156.7739 H   0  0  0  0  0  0  0  0  0  0  0  0
  151.3248  137.2827  157.1383 H   0  0  0  0  0  0  0  0  0  0  0  0
  150.3246  136.4568  155.9520 H   0  0  0  0  0  0  0  0  0  0  0  0
  150.7703  138.9847  153.2049 H   0  0  0  0  0  0  0  0  0  0  0  0
  149.9307  137.5409  153.6343 H   0  0  0  0  0  0  0  0  0  0  0  0
  148.2981  137.0049  153.9764 H   0  0  0  0  0  0  0  0  0  0  0  0
  147.5931  136.9647  156.4051 H   0  0  0  0  0  0  0  0  0  0  0  0
  146.7897  135.7638  155.4251 H   0  0  0  0  0  0  0  0  0  0  0  0
  145.9285  137.2271  155.8893 H   0  0  0  0  0  0  0  0  0  0  0  0
  146.7760  137.8815  152.3661 H   0  0  0  0  0  0  0  0  0  0  0  0
  146.6471  135.4488  153.1860 H   0  0  0  0  0  0  0  0  0  0  0  0
  145.0281  135.9637  153.6287 H   0  0  0  0  0  0  0  0  0  0  0  0
  144.4856  136.5633  151.3384 H   0  0  0  0  0  0  0  0  0  0  0  0
  146.1678  136.5508  150.8629 H   0  0  0  0  0  0  0  0  0  0  0  0
  143.3042  134.5259  150.3768 H   0  0  0  0  0  0  0  0  0  0  0  0
  144.0206  131.9408  149.8739 H   0  0  0  0  0  0  0  0  0  0  0  0
  146.6604  131.8524  150.7134 H   0  0  0  0  0  0  0  0  0  0  0  0
  148.7805  141.4354  154.9181 H   0  0  0  0  0  0  0  0  0  0  0  0
  150.1465  141.1300  153.8903 H   0  0  0  0  0  0  0  0  0  0  0  0
  1  2  1  0  0  0  0
  1 21  1  0  0  0  0
  1 22  1  0  0  0  0
  1 23  1  0  0  0  0
  2 20  1  0  0  0  0
  2  3  1  0  0  0  0
  2 24  1  0  0  0  0
  3  4  1  0  0  0  0
  3 25  1  0  0  0  0
  3 26  1  0  0  0  0
  4  5  1  0  0  0  0
  4  6  1  0  0  0  0
  4 27  1  0  0  0  0
  5 28  1  0  0  0  0
  5 29  1  0  0  0  0
  5 30  1  0  0  0  0
  6  7  1  0  0  0  0
  6 31  1  0  0  0  0
  6 32  1  0  0  0  0
  7  8  1  0  0  0  0
  7 20  1  0  0  0  0
  8  9  2  0  0  0  0
  8 10  1  0  0  0  0
 10 11  1  0  0  0  0
 10 12  1  0  0  0  0
 10 33  1  0  0  0  0
 11 34  1  0  0  0  0
 11 35  1  0  0  0  0
 11 36  1  0  0  0  0
 12 13  1  0  0  0  0
 12 37  1  0  0  0  0
 13 14  1  0  0  0  0
 13 38  1  0  0  0  0
 13 39  1  0  0  0  0
 14 15  1  0  0  0  0
 14 40  1  0  0  0  0
 14 41  1  0  0  0  0
 15 19  1  0  0  0  0
 15 16  1  0  0  0  0
 16 17  2  0  0  0  0
 16 42  1  0  0  0  0
 17 18  1  0  0  0  0
 17 43  1  0  0  0  0
 18 19  2  0  0  0  0
 18 44  1  0  0  0  0
 20 45  1  0  0  0  0
 20 46  1  0  0  0  0
M  END
> <s_m_source_file>
AV-unprocessed.smi

> <i_m_source_file_index>
3331

> <i_lp_mmshare_version>
43012

> <i_f3d_flags>
0

> <s_epik_input>
W0NIM11bQ0BASF0xW0NIMl1bQ0BASF0oW0NIM10pW0NIMl1OKFtDSDJdMSlDKD1PKVtDQEhdKFtDSDNdKVtOSF1bQ0gyXVtDSDJdbjJbY0hdW2NIXVtjSF1uMg==

> <s_epik_cmdline>
J2VwaWtfcHl0aG9uJywgJy1waCcsICc3LjAnLCAnLXRuJywgJzgnLCAnLW1hJywgJzIwMCcsICctbWV0YWxfYmluZGluZycsICctaW1hZScsICc8aW5maWxlLm1hZT4nLCAnLW9tYWUnLCAnPG91dGZpbGUubWFlPic=

> <r_lp_tautomer_probability>
1

> <r_epik_Ionization_Penalty>
0.767994

> <r_epik_Ionization_Penalty_Charging>
0

> <r_epik_Ionization_Penalty_Neutral>
0.767994

> <r_epik_State_Penalty>
0.795453

> <r_epik_Charging_Adjusted_Penalty>
0.795453

> <i_epik_Tot_Q>
0

> <i_epik_Tot_abs_Q>
0

> <r_epik_Metal_State_Penalty>
0.794784

> <b_epik_Metal_Only>
0

> <s_lp_Force_Field>
OPLS_2005

> <r_lp_Energy>
31.6007

> <b_lp_Chiralities_Consistent>
1

> <s_lp_Variant>
AV-unprocessed.smi:3331-10

> <Gold.Version>
5.8.1

> <Gold.Id.Protein>
6NUR|6NUR_protein|mol2

> <Gold.PLP.Fitness>
38.1821

> <Gold.PLP.PLP>
-32.7093

> <Gold.PLP.part.hbond>
-0.8491

> <Gold.PLP.part.metal>
0.0000

> <Gold.PLP.part.buried>
-3.3446

> <Gold.PLP.part.nonpolar>
-29.1395

> <Gold.PLP.part.repulsive>
0.2767

> <Gold.PLP.ligand.clash>
0.0000

> <Gold.PLP.ligand.torsion>
0.3246

> <Gold.PLP.Chemscore.Hbond>
0.0000

> <Gold.PLP.Chemscore.CHOScore>
1.9997

> <Gold.PLP.Chemscore.Metal>
0.0000

> <Gold.Chemscore.Hbonds>
donor molecule, donor type, donor heavy atom, donor atom, acceptor molecule, acceptor atom, score
      L1  C    16    42       P1 10186  1.00
      L1  C    18    44       P1 10747  0.94

> <Gold.PLP.Chemscore.Internal.Correction>
0.1231

> <Gold.Rescore>
     Score         DG    S(hbond)    S(metal)    S(lipo)     H(rot)  DE(clash)    DE(int)     intcor
     10.68     -11.12       0.00        0.00      84.59       1.66       0.10       0.33       ----

> <Gold.Chemscore.Fitness>
10.6817

> <Gold.Chemscore.DG>
-11.1153

> <Gold.Chemscore.ZeroCoef>
-5.4800

> <Gold.Chemscore.Hbond>
0.0000

> <Gold.Chemscore.Metal>
0.0000

> <Gold.Chemscore.Lipo>
84.5930

> <Gold.Chemscore.Internal_Hbond>
0.0000

> <Gold.Chemscore.DEClash>
0.1013

> <Gold.Chemscore.DEInternal>
0.3323

> <Gold.Chemscore.Rot>
1.6649

> <Gold.Chemscore.Internal.Correction>
   9.000000E+99

> <Gold.Chemscore.Hbond.Weighted>
-0.0000

> <Gold.Chemscore.Metal.Weighted>
-0.0000

> <Gold.Chemscore.Lipo.Weighted>
-9.8974

> <Gold.Chemscore.Internal_Hbond.Weighted>
0.0000

> <Gold.Chemscore.DEClash.Weighted>
0.1013

> <Gold.Chemscore.DEInternal.Weighted>
0.3323

> <Gold.Chemscore.Rot.Weighted>
4.2621

> <Gold.Chemscore.Internal.Correction.Weighted>
   9.000000E+99

> <Gold.Protein.RotatedTorsions>
[ 6907 6896 6895 6894 ] final -164.75 input  -60.11 | X-H torsion
[ 7974 7965 7964 7962 ] final -133.92 input  175.53 | X-H torsion
[ 8008 7997 7996 7995 ] final -123.99 input   59.86 | X-H torsion
[ 10167 10162 10161 10158 ] final  174.99 input  -65.29 | X-H torsion
[ 10718 10713 10712 10709 ] final  110.85 input   66.30 | X-H torsion
[ 10763 10752 10751 10750 ] final   38.28 input  -60.55 | X-H torsion
[ 11005 11000 10999 10996 ] final -156.45 input  -57.11 | X-H torsion

> <Gold.Protein.ActiveResidues>
 VAL166  LYS551  ARG553  GLY616  TRP617  ASP618  TYR619  PRO620  LYS621  CYS622 
 ASP623  PHE694  ASN695  SER759  ASP760  ASP761  ALA762  ILE779  LEU786  VAL792 
 PHE793  MET794  SER795  GLU796  ALA797  LYS798  CYS799  TRP800  GLU811  SER814 

> <Gold.Protein.RotatedAtoms>
  151.4168  133.3710  159.2750 H   0  0  0  0  0  0  0  0  0  0  0  0  # atno 6907 bound_to 6896
  150.9322  134.8738  159.7569 H   0  0  0  0  0  0  0  0  0  0  0  0  # atno 6908 bound_to 6896
  152.5033  134.4113  159.9502 H   0  0  0  0  0  0  0  0  0  0  0  0  # atno 6909 bound_to 6896
  144.9149  140.6942  143.5001 H   0  0  0  0  0  0  0  0  0  0  0  0  # atno 7974 bound_to 7965
  155.1895  140.0413  157.2897 H   0  0  0  0  0  0  0  0  0  0  0  0  # atno 8008 bound_to 7997
  154.6148  140.2486  155.7595 H   0  0  0  0  0  0  0  0  0  0  0  0  # atno 8009 bound_to 7997
  156.2400  140.2907  156.0428 H   0  0  0  0  0  0  0  0  0  0  0  0  # atno 8010 bound_to 7997
  139.5161  144.3083  152.0315 H   0  0  0  0  0  0  0  0  0  0  0  0  # atno 10167 bound_to 10162
  157.6474  131.0940  150.6663 H   0  0  0  0  0  0  0  0  0  0  0  0  # atno 10718 bound_to 10713
  153.0006  135.6254  154.2280 H   0  0  0  0  0  0  0  0  0  0  0  0  # atno 10763 bound_to 10752
  154.2022  135.2803  155.2988 H   0  0  0  0  0  0  0  0  0  0  0  0  # atno 10764 bound_to 10752
  154.5674  135.5687  153.7122 H   0  0  0  0  0  0  0  0  0  0  0  0  # atno 10765 bound_to 10752
  140.6754  134.4202  157.5229 H   0  0  0  0  0  0  0  0  0  0  0  0  # atno 11005 bound_to 11000
  145.3392  139.1737  143.4495 LP  0  0  0  0  0  0  0  0  0  0  0  0  # atno 17320 bound_to 7965
  146.3177  140.3431  142.8649 LP  0  0  0  0  0  0  0  0  0  0  0  0  # atno 17321 bound_to 7965
  140.2529  144.4150  150.6215 LP  0  0  0  0  0  0  0  0  0  0  0  0  # atno 17342 bound_to 10162
  140.6212  143.2176  151.6690 LP  0  0  0  0  0  0  0  0  0  0  0  0  # atno 17343 bound_to 10162
  156.6978  130.4614  149.5581 LP  0  0  0  0  0  0  0  0  0  0  0  0  # atno 17370 bound_to 10713
  156.1816  130.6502  151.0958 LP  0  0  0  0  0  0  0  0  0  0  0  0  # atno 17371 bound_to 10713
  139.8968  134.8651  156.2071 LP  0  0  0  0  0  0  0  0  0  0  0  0  # atno 17394 bound_to 11000
  141.0359  133.6963  156.1512 LP  0  0  0  0  0  0  0  0  0  0  0  0  # atno 17395 bound_to 11000

$$$$
