AV-unprocessed.smi:281|AV-procd|sdf|2112|dock3
  -GOLD-   2262021403D 1   1.00000     0.00000
 Structure written by MMmdl.
 55 59  0  0  0  0  0  0  0  0  1 V2000
  147.2255  141.6541  153.8673 C   0  0  0  0  0  0  0  0  0  0  0  0
  147.6468  140.4191  154.6698 C   0  0  1  0  0  0  0  0  0  0  0  0
  146.9543  139.1444  154.1680 C   0  0  0  0  0  0  0  0  0  0  0  0
  147.4483  137.9842  154.9025 N   0  0  0  0  0  0  0  0  0  0  0  0
  146.7742  136.8134  154.7551 C   0  0  0  0  0  0  0  0  0  0  0  0
  146.7968  135.8874  155.7520 N   0  0  0  0  0  0  0  0  0  0  0  0
  146.1304  134.7366  155.6246 C   0  0  0  0  0  0  0  0  0  0  0  0
  145.3891  134.3117  154.6007 N   0  0  0  0  0  0  0  0  0  0  0  0
  145.3632  135.2313  153.5944 C   0  0  0  0  0  0  0  0  0  0  0  0
  146.0242  136.4928  153.5870 C   0  0  0  0  0  0  0  0  0  0  0  0
  145.7829  137.1411  152.3815 N   0  0  0  0  0  0  0  0  0  0  0  0
  145.0179  136.3169  151.7202 C   0  0  0  0  0  0  0  0  0  0  0  0
  144.7052  135.1500  152.3793 N   0  0  0  0  0  0  0  0  0  0  0  0
  143.8777  134.0613  151.8828 C   0  0  0  0  0  0  0  0  0  0  0  0
  144.3688  133.4597  150.5408 C   0  0  2  0  0  0  0  0  0  0  0  0
  144.0136  134.3163  149.4718 O   0  0  0  0  0  0  0  0  0  0  0  0
  143.7924  132.0758  150.2894 C   0  0  0  0  0  0  0  0  0  0  0  0
  144.7604  131.1656  151.0403 C   0  0  0  0  0  0  0  0  0  0  0  0
  146.0208  131.8280  151.0094 O   0  0  0  0  0  0  0  0  0  0  0  0
  145.8718  133.1504  150.5004 C   0  0  0  0  0  0  0  0  0  0  0  0
  148.9018  137.8567  154.8499 C   0  0  0  0  0  0  0  0  0  0  0  0
  149.6154  139.1685  155.2711 C   0  0  2  0  0  0  0  0  0  0  0  0
  151.0935  139.1117  154.8958 C   0  0  0  0  0  0  0  0  0  0  0  0
  151.7617  139.9808  155.9474 C   0  0  0  0  0  0  0  0  0  0  0  0
  151.0581  139.6118  157.1174 O   0  0  0  0  0  0  0  0  0  0  0  0
  149.6760  139.5141  156.7907 C   0  0  2  0  0  0  0  0  0  0  0  0
  149.0187  138.5262  157.7650 C   0  0  0  0  0  0  0  0  0  0  0  0
  149.0598  140.2664  154.5390 O   0  0  0  0  0  0  0  0  0  0  0  0
  146.1505  141.8215  153.9411 H   0  0  0  0  0  0  0  0  0  0  0  0
  147.4756  141.5436  152.8117 H   0  0  0  0  0  0  0  0  0  0  0  0
  147.7271  142.5486  154.2369 H   0  0  0  0  0  0  0  0  0  0  0  0
  147.3822  140.5842  155.7146 H   0  0  0  0  0  0  0  0  0  0  0  0
  145.8755  139.2392  154.2988 H   0  0  0  0  0  0  0  0  0  0  0  0
  147.1445  139.0091  153.1021 H   0  0  0  0  0  0  0  0  0  0  0  0
  146.2001  134.0604  156.4638 H   0  0  0  0  0  0  0  0  0  0  0  0
  144.6553  136.5414  150.7275 H   0  0  0  0  0  0  0  0  0  0  0  0
  143.8359  133.2917  152.6545 H   0  0  0  0  0  0  0  0  0  0  0  0
  142.8587  134.4351  151.7736 H   0  0  0  0  0  0  0  0  0  0  0  0
  143.0714  134.3336  149.4007 H   0  0  0  0  0  0  0  0  0  0  0  0
  142.7584  131.9654  150.6183 H   0  0  0  0  0  0  0  0  0  0  0  0
  143.8300  131.8337  149.2259 H   0  0  0  0  0  0  0  0  0  0  0  0
  144.4529  131.0514  152.0803 H   0  0  0  0  0  0  0  0  0  0  0  0
  144.8223  130.1716  150.5969 H   0  0  0  0  0  0  0  0  0  0  0  0
  146.2304  133.1385  149.4698 H   0  0  0  0  0  0  0  0  0  0  0  0
  146.4885  133.8634  151.0454 H   0  0  0  0  0  0  0  0  0  0  0  0
  149.2599  137.0231  155.4523 H   0  0  0  0  0  0  0  0  0  0  0  0
  149.1702  137.6185  153.8197 H   0  0  0  0  0  0  0  0  0  0  0  0
  151.4704  138.0922  154.9917 H   0  0  0  0  0  0  0  0  0  0  0  0
  151.2950  139.4445  153.8769 H   0  0  0  0  0  0  0  0  0  0  0  0
  152.8305  139.7879  156.0404 H   0  0  0  0  0  0  0  0  0  0  0  0
  151.6132  141.0416  155.7389 H   0  0  0  0  0  0  0  0  0  0  0  0
  149.2526  140.5045  156.9619 H   0  0  0  0  0  0  0  0  0  0  0  0
  147.9495  138.4316  157.5774 H   0  0  0  0  0  0  0  0  0  0  0  0
  149.1383  138.8657  158.7939 H   0  0  0  0  0  0  0  0  0  0  0  0
  149.4703  137.5368  157.6951 H   0  0  0  0  0  0  0  0  0  0  0  0
  1  2  1  0  0  0  0
  1 29  1  0  0  0  0
  1 30  1  0  0  0  0
  1 31  1  0  0  0  0
  2 28  1  0  0  0  0
  2  3  1  0  0  0  0
  2 32  1  0  0  0  0
  3  4  1  0  0  0  0
  3 33  1  0  0  0  0
  3 34  1  0  0  0  0
  4  5  1  0  0  0  0
  4 21  1  0  0  0  0
  5 10  1  0  0  0  0
  5  6  2  0  0  0  0
  6  7  1  0  0  0  0
  7  8  2  0  0  0  0
  7 35  1  0  0  0  0
  8  9  1  0  0  0  0
  9 13  1  0  0  0  0
  9 10  2  0  0  0  0
 10 11  1  0  0  0  0
 11 12  2  0  0  0  0
 12 13  1  0  0  0  0
 12 36  1  0  0  0  0
 13 14  1  0  0  0  0
 14 15  1  0  0  0  0
 14 37  1  0  0  0  0
 14 38  1  0  0  0  0
 15 20  1  0  0  0  0
 15 16  1  0  0  0  0
 15 17  1  0  0  0  0
 16 39  1  0  0  0  0
 17 18  1  0  0  0  0
 17 40  1  0  0  0  0
 17 41  1  0  0  0  0
 18 19  1  0  0  0  0
 18 42  1  0  0  0  0
 18 43  1  0  0  0  0
 19 20  1  0  0  0  0
 20 44  1  0  0  0  0
 20 45  1  0  0  0  0
 21 22  1  0  0  0  0
 21 46  1  0  0  0  0
 21 47  1  0  0  0  0
 22 26  1  0  0  0  0
 22 23  1  0  0  0  0
 22 28  1  0  0  0  0
 23 24  1  0  0  0  0
 23 48  1  0  0  0  0
 23 49  1  0  0  0  0
 24 25  1  0  0  0  0
 24 50  1  0  0  0  0
 24 51  1  0  0  0  0
 25 26  1  0  0  0  0
 26 27  1  0  0  0  0
 26 52  1  0  0  0  0
 27 53  1  0  0  0  0
 27 54  1  0  0  0  0
 27 55  1  0  0  0  0
M  END
> <s_m_source_file>
AV-unprocessed.smi

> <i_m_source_file_index>
281

> <i_lp_mmshare_version>
43012

> <i_f3d_flags>
0

> <s_epik_input>
W0NIM11bQ0BASF0xT1tDSDJdW0NIMl1bQ0BAXTEyW0NIMl1OKFtDSDJdW0NASF0oTzIpW0NIM10pYyhuW2NIXW4zKWMoYzM0KW5bY0hdbjRbQ0gyXVtDQEBdNShbT0hdKVtDSDJdW0NIMl1PW0NIMl01

> <s_epik_cmdline>
J2VwaWtfcHl0aG9uJywgJy1waCcsICc3LjAnLCAnLXRuJywgJzgnLCAnLW1hJywgJzIwMCcsICctbWV0YWxfYmluZGluZycsICctaW1hZScsICc8aW5maWxlLm1hZT4nLCAnLW9tYWUnLCAnPG91dGZpbGUubWFlPic=

> <r_lp_tautomer_probability>
1

> <r_epik_Ionization_Penalty>
0.00571331

> <r_epik_Ionization_Penalty_Charging>
0

> <r_epik_Ionization_Penalty_Neutral>
0.00571331

> <r_epik_State_Penalty>
0.00399586

> <r_epik_Charging_Adjusted_Penalty>
0.00399586

> <i_epik_Tot_Q>
0

> <i_epik_Tot_abs_Q>
0

> <r_epik_Metal_State_Penalty>
-0

> <b_epik_Metal_Only>
0

> <s_lp_Force_Field>
OPLS_2005

> <r_lp_Energy>
53.9998

> <b_lp_Chiralities_Consistent>
1

> <s_lp_Variant>
AV-unprocessed.smi:281-12

> <Gold.Version>
5.8.1

> <Gold.Id.Protein>
6NUR|6NUR_protein|mol2

> <Gold.PLP.Fitness>
41.2136

> <Gold.PLP.PLP>
-36.3889

> <Gold.PLP.part.hbond>
-2.0000

> <Gold.PLP.part.metal>
0.0000

> <Gold.PLP.part.buried>
-6.9193

> <Gold.PLP.part.nonpolar>
-28.3251

> <Gold.PLP.part.repulsive>
0.6618

> <Gold.PLP.ligand.clash>
0.0000

> <Gold.PLP.ligand.torsion>
0.6810

> <Gold.PLP.Chemscore.Hbond>
0.9750

> <Gold.PLP.Chemscore.CHOScore>
0.9963

> <Gold.PLP.Chemscore.Metal>
0.0000

> <Gold.Chemscore.Hbonds>
donor molecule, donor type, donor heavy atom, donor atom, acceptor molecule, acceptor atom, score
      L1  H    16    39       P1 10186  0.91
      L1  C    12    36       P1 10171  1.00

> <Gold.PLP.Chemscore.Internal.Correction>
0.2728

> <Gold.Rescore>
     Score         DG    S(hbond)    S(metal)    S(lipo)     H(rot)  DE(clash)    DE(int)     intcor
     11.97     -13.91       0.98        0.00      89.78       2.09       0.10       1.84       ----

> <Gold.Chemscore.Fitness>
11.9727

> <Gold.Chemscore.DG>
-13.9110

> <Gold.Chemscore.ZeroCoef>
-5.4800

> <Gold.Chemscore.Hbond>
0.9834

> <Gold.Chemscore.Metal>
0.0000

> <Gold.Chemscore.Lipo>
89.7758

> <Gold.Chemscore.Internal_Hbond>
0.0000

> <Gold.Chemscore.DEClash>
0.0958

> <Gold.Chemscore.DEInternal>
1.8424

> <Gold.Chemscore.Rot>
2.0927

> <Gold.Chemscore.Internal.Correction>
   9.000000E+99

> <Gold.Chemscore.Hbonds>
donor molecule, donor type, donor heavy atom, donor atom, acceptor molecule, acceptor atom, score
      L1  H    16    39       P1 10186  0.88

> <Gold.Chemscore.Hbond.Weighted>
-3.2845

> <Gold.Chemscore.Metal.Weighted>
-0.0000

> <Gold.Chemscore.Lipo.Weighted>
-10.5038

> <Gold.Chemscore.Internal_Hbond.Weighted>
0.0000

> <Gold.Chemscore.DEClash.Weighted>
0.0958

> <Gold.Chemscore.DEInternal.Weighted>
1.8424

> <Gold.Chemscore.Rot.Weighted>
5.3573

> <Gold.Chemscore.Internal.Correction.Weighted>
   9.000000E+99

> <Gold.Protein.RotatedTorsions>
[ 6907 6896 6895 6894 ] final   89.10 input  -60.11 | X-H torsion
[ 7974 7965 7964 7962 ] final  123.37 input  175.53 | X-H torsion
[ 8008 7997 7996 7995 ] final -126.87 input   59.86 | X-H torsion
[ 10167 10162 10161 10158 ] final  -47.61 input  -65.29 | X-H torsion
[ 10718 10713 10712 10709 ] final  -74.92 input   66.30 | X-H torsion
[ 10763 10752 10751 10750 ] final   70.62 input  -60.55 | X-H torsion
[ 11005 11000 10999 10996 ] final -150.36 input  -57.11 | X-H torsion

> <Gold.Protein.ActiveResidues>
 VAL166  LYS551  ARG553  GLY616  TRP617  ASP618  TYR619  PRO620  LYS621  CYS622 
 ASP623  PHE694  ASN695  SER759  ASP760  ASP761  ALA762  ILE779  LEU786  VAL792 
 PHE793  MET794  SER795  GLU796  ALA797  LYS798  CYS799  TRP800  GLU811  SER814 

> <Gold.Protein.RotatedAtoms>
  152.5433  134.2018  159.8714 H   0  0  0  0  0  0  0  0  0  0  0  0  # atno 6907 bound_to 6896
  151.2006  133.4606  159.2604 H   0  0  0  0  0  0  0  0  0  0  0  0  # atno 6908 bound_to 6896
  151.0993  134.9975  159.8496 H   0  0  0  0  0  0  0  0  0  0  0  0  # atno 6909 bound_to 6896
  145.0967  139.3547  143.4833 H   0  0  0  0  0  0  0  0  0  0  0  0  # atno 7974 bound_to 7965
  155.2369  140.0427  157.2970 H   0  0  0  0  0  0  0  0  0  0  0  0  # atno 8008 bound_to 7997
  154.5853  140.2412  155.7966 H   0  0  0  0  0  0  0  0  0  0  0  0  # atno 8009 bound_to 7997
  156.2222  140.2966  155.9987 H   0  0  0  0  0  0  0  0  0  0  0  0  # atno 8010 bound_to 7997
  140.6767  143.2776  151.3952 H   0  0  0  0  0  0  0  0  0  0  0  0  # atno 10167 bound_to 10162
  156.0225  130.4428  150.2965 H   0  0  0  0  0  0  0  0  0  0  0  0  # atno 10718 bound_to 10713
  153.0352  135.5167  154.7469 H   0  0  0  0  0  0  0  0  0  0  0  0  # atno 10763 bound_to 10752
  154.6451  135.2917  155.0058 H   0  0  0  0  0  0  0  0  0  0  0  0  # atno 10764 bound_to 10752
  154.0962  135.6643  153.4913 H   0  0  0  0  0  0  0  0  0  0  0  0  # atno 10765 bound_to 10752
  140.7410  134.3514  157.5147 H   0  0  0  0  0  0  0  0  0  0  0  0  # atno 11005 bound_to 11000
  146.3530  140.0826  142.8617 LP  0  0  0  0  0  0  0  0  0  0  0  0  # atno 17320 bound_to 7965
  145.1002  140.9341  143.4717 LP  0  0  0  0  0  0  0  0  0  0  0  0  # atno 17321 bound_to 7965
  139.6064  144.1188  152.2253 LP  0  0  0  0  0  0  0  0  0  0  0  0  # atno 17342 bound_to 10162
  140.0588  144.5873  150.7279 LP  0  0  0  0  0  0  0  0  0  0  0  0  # atno 17343 bound_to 10162
  157.1068  131.0210  151.3064 LP  0  0  0  0  0  0  0  0  0  0  0  0  # atno 17370 bound_to 10713
  157.4736  130.7723  149.7347 LP  0  0  0  0  0  0  0  0  0  0  0  0  # atno 17371 bound_to 10713
  139.8806  134.9081  156.2960 LP  0  0  0  0  0  0  0  0  0  0  0  0  # atno 17394 bound_to 11000
  140.9836  133.7252  156.0709 LP  0  0  0  0  0  0  0  0  0  0  0  0  # atno 17395 bound_to 11000

$$$$
