AV-unprocessed.smi:816|AV-procd|sdf|3826|dock2
  -GOLD-   22720 1263D 1   1.00000     0.00000
 Structure written by MMmdl.
 40 41  0  0  0  0  0  0  0  0  1 V2000
  147.9792  142.2868  157.1584 C   0  0  0  0  0  0  0  0  0  0  0  0
  148.6972  141.1509  156.4809 C   0  0  0  0  0  0  0  0  0  0  0  0
  147.9712  140.3392  155.7848 N   0  0  0  0  0  0  0  0  0  0  0  0
  148.5288  139.2632  155.1223 N   0  0  0  0  0  0  0  0  0  0  0  0
  147.5560  138.4404  154.3948 C   0  0  0  0  0  0  0  0  0  0  0  0
  146.9836  139.1844  153.1668 C   0  0  2  0  0  0  0  0  0  0  0  0
  145.9731  140.0741  153.5971 O   0  0  0  0  0  0  0  0  0  0  0  0
  146.3381  138.2275  152.1532 C   0  0  0  0  0  0  0  0  0  0  0  0
  145.2937  137.5133  152.8020 O   0  0  0  0  0  0  0  0  0  0  0  0
  144.9183  136.2917  152.2865 C   0  0  0  0  0  0  0  0  0  0  0  0
  145.8906  135.5813  151.5529 C   0  0  0  0  0  0  0  0  0  0  0  0
  145.5960  134.3230  150.9931 C   0  0  0  0  0  0  0  0  0  0  0  0
  144.3161  133.7592  151.1615 C   0  0  0  0  0  0  0  0  0  0  0  0
  144.0081  132.4606  150.5860 C   0  0  0  0  0  0  0  0  0  0  0  0
  143.7630  131.4267  150.1280 N   0  0  0  0  0  0  0  0  0  0  0  0
  143.3350  134.4605  151.8901 C   0  0  0  0  0  0  0  0  0  0  0  0
  143.6316  135.7188  152.4493 C   0  0  0  0  0  0  0  0  0  0  0  0
  149.8528  138.9401  155.1417 C   0  0  0  0  0  0  0  0  0  0  0  0
  150.3032  137.9547  154.5553 O   0  0  0  0  0  0  0  0  0  0  0  0
  150.6714  139.8680  155.9255 C   0  0  0  0  0  0  0  0  0  0  0  0
  152.0675  139.5726  155.9640 C   0  0  0  0  0  0  0  0  0  0  0  0
  153.1954  139.3136  155.9951 N   0  0  0  0  0  0  0  0  0  0  0  0
  150.1376  140.9341  156.5727 C   0  0  0  0  0  0  0  0  0  0  0  0
  150.9430  141.9248  157.4023 C   0  0  0  0  0  0  0  0  0  0  0  0
  148.2968  143.2443  156.7459 H   0  0  0  0  0  0  0  0  0  0  0  0
  148.1845  142.2936  158.2288 H   0  0  0  0  0  0  0  0  0  0  0  0
  146.8976  142.2161  157.0340 H   0  0  0  0  0  0  0  0  0  0  0  0
  148.0667  137.5332  154.0656 H   0  0  0  0  0  0  0  0  0  0  0  0
  146.7601  138.0789  155.0490 H   0  0  0  0  0  0  0  0  0  0  0  0
  147.7610  139.7602  152.6621 H   0  0  0  0  0  0  0  0  0  0  0  0
  145.3385  140.1664  152.9023 H   0  0  0  0  0  0  0  0  0  0  0  0
  145.9551  138.7889  151.2989 H   0  0  0  0  0  0  0  0  0  0  0  0
  147.0834  137.5187  151.7879 H   0  0  0  0  0  0  0  0  0  0  0  0
  146.8750  136.0055  151.4190 H   0  0  0  0  0  0  0  0  0  0  0  0
  146.3576  133.7961  150.4361 H   0  0  0  0  0  0  0  0  0  0  0  0
  142.3493  134.0385  152.0250 H   0  0  0  0  0  0  0  0  0  0  0  0
  142.8528  136.2252  152.9987 H   0  0  0  0  0  0  0  0  0  0  0  0
  152.0139  141.7294  157.3535 H   0  0  0  0  0  0  0  0  0  0  0  0
  150.6464  141.8731  158.4504 H   0  0  0  0  0  0  0  0  0  0  0  0
  150.7827  142.9436  157.0484 H   0  0  0  0  0  0  0  0  0  0  0  0
  1  2  1  0  0  0  0
  1 25  1  0  0  0  0
  1 26  1  0  0  0  0
  1 27  1  0  0  0  0
  2 23  1  0  0  0  0
  2  3  2  0  0  0  0
  3  4  1  0  0  0  0
  4  5  1  0  0  0  0
  4 18  1  0  0  0  0
  5  6  1  0  0  0  0
  5 28  1  0  0  0  0
  5 29  1  0  0  0  0
  6  7  1  0  0  0  0
  6  8  1  0  0  0  0
  6 30  1  0  0  0  0
  7 31  1  0  0  0  0
  8  9  1  0  0  0  0
  8 32  1  0  0  0  0
  8 33  1  0  0  0  0
  9 10  1  0  0  0  0
 10 17  1  0  0  0  0
 10 11  2  0  0  0  0
 11 12  1  0  0  0  0
 11 34  1  0  0  0  0
 12 13  2  0  0  0  0
 12 35  1  0  0  0  0
 13 14  1  0  0  0  0
 13 16  1  0  0  0  0
 14 15  3  0  0  0  0
 16 17  2  0  0  0  0
 16 36  1  0  0  0  0
 17 37  1  0  0  0  0
 18 19  2  0  0  0  0
 18 20  1  0  0  0  0
 20 21  1  0  0  0  0
 20 23  2  0  0  0  0
 21 22  3  0  0  0  0
 23 24  1  0  0  0  0
 24 38  1  0  0  0  0
 24 39  1  0  0  0  0
 24 40  1  0  0  0  0
M  END
> <s_m_source_file>
AV-unprocessed.smi

> <i_m_source_file_index>
816

> <i_lp_mmshare_version>
43012

> <i_f3d_flags>
0

> <s_epik_input>
TiNDYyhjMVtDSDNdKWMoPU8pbihuYzFbQ0gzXSlbQ0gyXVtDQEhdKFtPSF0pW0NIMl1PYzJbY0hdW2NIXWMoQyNOKVtjSF1bY0hdMg==

> <s_epik_cmdline>
J2VwaWtfcHl0aG9uJywgJy1waCcsICc3LjAnLCAnLXRuJywgJzgnLCAnLW1hJywgJzIwMCcsICctbWV0YWxfYmluZGluZycsICctaW1hZScsICc8aW5maWxlLm1hZT4nLCAnLW9tYWUnLCAnPG91dGZpbGUubWFlPic=

> <r_lp_tautomer_probability>
1

> <r_epik_Ionization_Penalty>
1.1732e-07

> <r_epik_Ionization_Penalty_Charging>
1.4567e-10

> <r_epik_Ionization_Penalty_Neutral>
1.17174e-07

> <r_epik_State_Penalty>
-0

> <r_epik_Charging_Adjusted_Penalty>
1.4567e-10

> <i_epik_Tot_Q>
0

> <i_epik_Tot_abs_Q>
0

> <r_epik_Metal_State_Penalty>
-0

> <b_epik_Metal_Only>
0

> <s_lp_Force_Field>
OPLS_2005

> <r_lp_Energy>
30.0039

> <b_lp_Chiralities_Consistent>
1

> <s_lp_Variant>
AV-unprocessed.smi:816-1

> <Gold.Version>
5.8.1

> <Gold.Id.Protein>
6NUR|6NUR_protein|mol2

> <Gold.PLP.Fitness>
45.6670

> <Gold.PLP.PLP>
-38.2211

> <Gold.PLP.part.hbond>
-2.7696

> <Gold.PLP.part.metal>
0.0000

> <Gold.PLP.part.buried>
-6.4938

> <Gold.PLP.part.nonpolar>
-32.7518

> <Gold.PLP.part.repulsive>
1.3627

> <Gold.PLP.ligand.clash>
0.0000

> <Gold.PLP.ligand.torsion>
0.7425

> <Gold.PLP.Chemscore.Hbond>
2.9600

> <Gold.PLP.Chemscore.CHOScore>
0.0000

> <Gold.PLP.Chemscore.Metal>
0.0000

> <Gold.Chemscore.Hbonds>
donor molecule, donor type, donor heavy atom, donor atom, acceptor molecule, acceptor atom, score
      L1  H     7    31       P1 10175  0.94
      P1  H  7997  8009       L1    22  0.75
      P1  H 10785 10796       L1    15  0.78

> <Gold.PLP.Chemscore.Internal.Correction>
0.0508

> <Gold.Rescore>
     Score         DG    S(hbond)    S(metal)    S(lipo)     H(rot)  DE(clash)    DE(int)     intcor
     16.05     -16.87       2.78        0.00      75.26       2.62       0.11       0.71       ----

> <Gold.Chemscore.Fitness>
16.0482

> <Gold.Chemscore.DG>
-16.8736

> <Gold.Chemscore.ZeroCoef>
-5.4800

> <Gold.Chemscore.Hbond>
2.7845

> <Gold.Chemscore.Metal>
0.0000

> <Gold.Chemscore.Lipo>
75.2648

> <Gold.Chemscore.Internal_Hbond>
0.0000

> <Gold.Chemscore.DEClash>
0.1109

> <Gold.Chemscore.DEInternal>
0.7144

> <Gold.Chemscore.Rot>
2.6222

> <Gold.Chemscore.Internal.Correction>
   9.000000E+99

> <Gold.Chemscore.Hbonds>
donor molecule, donor type, donor heavy atom, donor atom, acceptor molecule, acceptor atom, score
      L1  H     7    31       P1 10175  0.89
      P1  H  7997  8009       L1    22  0.75
      P1  H 10785 10796       L1    15  0.76

> <Gold.Chemscore.Hbond.Weighted>
-9.3003

> <Gold.Chemscore.Metal.Weighted>
-0.0000

> <Gold.Chemscore.Lipo.Weighted>
-8.8060

> <Gold.Chemscore.Internal_Hbond.Weighted>
0.0000

> <Gold.Chemscore.DEClash.Weighted>
0.1109

> <Gold.Chemscore.DEInternal.Weighted>
0.7144

> <Gold.Chemscore.Rot.Weighted>
6.7127

> <Gold.Chemscore.Internal.Correction.Weighted>
   9.000000E+99

> <Gold.Protein.RotatedTorsions>
[ 6907 6896 6895 6894 ] final  153.25 input  -60.11 | X-H torsion
[ 7974 7965 7964 7962 ] final   84.14 input  175.53 | X-H torsion
[ 8008 7997 7996 7995 ] final -153.21 input   59.86 | X-H torsion
[ 10167 10162 10161 10158 ] final  162.21 input  -65.29 | X-H torsion
[ 10718 10713 10712 10709 ] final  139.21 input   66.30 | X-H torsion
[ 10763 10752 10751 10750 ] final -125.99 input  -60.55 | X-H torsion
[ 11005 11000 10999 10996 ] final  158.87 input  -57.11 | X-H torsion

> <Gold.Protein.ActiveResidues>
 VAL166  LYS551  ARG553  GLY616  TRP617  ASP618  TYR619  PRO620  LYS621  CYS622 
 ASP623  PHE694  ASN695  SER759  ASP760  ASP761  ALA762  ILE779  LEU786  VAL792 
 PHE793  MET794  SER795  GLU796  ALA797  LYS798  CYS799  TRP800  GLU811  SER814 

> <Gold.Protein.RotatedAtoms>
  152.0754  133.4126  159.4477 H   0  0  0  0  0  0  0  0  0  0  0  0  # atno 6907 bound_to 6896
  150.6863  134.3044  159.4729 H   0  0  0  0  0  0  0  0  0  0  0  0  # atno 6908 bound_to 6896
  152.0880  134.9426  160.0623 H   0  0  0  0  0  0  0  0  0  0  0  0  # atno 6909 bound_to 6896
  145.6027  139.2355  143.2237 H   0  0  0  0  0  0  0  0  0  0  0  0  # atno 7974 bound_to 7965
  155.6673  140.0729  157.2533 H   0  0  0  0  0  0  0  0  0  0  0  0  # atno 8008 bound_to 7997
  154.4130  140.1705  156.1892 H   0  0  0  0  0  0  0  0  0  0  0  0  # atno 8009 bound_to 7997
  155.9647  140.3367  155.6524 H   0  0  0  0  0  0  0  0  0  0  0  0  # atno 8010 bound_to 7997
  139.4858  144.4460  151.8891 H   0  0  0  0  0  0  0  0  0  0  0  0  # atno 10167 bound_to 10162
  157.4169  131.1034  151.0395 H   0  0  0  0  0  0  0  0  0  0  0  0  # atno 10718 bound_to 10713
  154.8741  135.4010  154.3358 H   0  0  0  0  0  0  0  0  0  0  0  0  # atno 10763 bound_to 10752
  153.4165  135.7022  153.6328 H   0  0  0  0  0  0  0  0  0  0  0  0  # atno 10764 bound_to 10752
  153.5009  135.3728  155.2509 H   0  0  0  0  0  0  0  0  0  0  0  0  # atno 10765 bound_to 10752
  140.1907  134.8409  157.2909 H   0  0  0  0  0  0  0  0  0  0  0  0  # atno 11005 bound_to 11000
  146.1564  140.6852  142.9298 LP  0  0  0  0  0  0  0  0  0  0  0  0  # atno 17320 bound_to 7965
  144.7303  140.4651  143.6943 LP  0  0  0  0  0  0  0  0  0  0  0  0  # atno 17321 bound_to 7965
  140.3915  144.2610  150.5899 LP  0  0  0  0  0  0  0  0  0  0  0  0  # atno 17342 bound_to 10162
  140.5142  143.2282  151.8489 LP  0  0  0  0  0  0  0  0  0  0  0  0  # atno 17343 bound_to 10162
  157.1340  130.6114  149.5537 LP  0  0  0  0  0  0  0  0  0  0  0  0  # atno 17370 bound_to 10713
  155.9868  130.4904  150.7095 LP  0  0  0  0  0  0  0  0  0  0  0  0  # atno 17371 bound_to 10713
  140.2163  134.4077  155.7587 LP  0  0  0  0  0  0  0  0  0  0  0  0  # atno 17394 bound_to 11000
  141.2226  133.7143  156.8419 LP  0  0  0  0  0  0  0  0  0  0  0  0  # atno 17395 bound_to 11000

$$$$
