AV-unprocessed.smi:2157|AV-procd|sdf|8785|dock5
  -GOLD-   2272011563D 1   1.00000     0.00000
 Structure written by MMmdl.
 41 42  0  0  0  0  0  0  0  0  1 V2000
  153.0860  142.0657  161.2508 C   0  0  0  0  0  0  0  0  0  0  0  0
  152.8681  142.5836  159.8220 C   0  0  2  0  0  0  0  0  0  0  0  0
  152.5233  144.0851  159.8143 C   0  0  0  0  0  0  0  0  0  0  0  0
  152.2973  144.6049  158.3858 C   0  0  0  0  0  0  0  0  0  0  0  0
  151.2118  143.7933  157.6624 C   0  0  0  0  0  0  0  0  0  0  0  0
  151.5496  142.2916  157.6542 C   0  0  2  0  0  0  0  0  0  0  0  0
  150.4713  141.5494  157.0082 N   0  0  0  0  0  0  0  0  0  0  0  0
  150.6010  140.7955  155.9060 C   0  0  0  0  0  0  0  0  0  0  0  0
  151.6707  140.6428  155.3145 O   0  0  0  0  0  0  0  0  0  0  0  0
  149.3277  140.0889  155.4217 C   0  0  0  0  0  0  0  0  0  0  0  0
  148.1596  140.9775  155.3730 N   0  0  0  0  0  0  0  0  0  0  0  0
  147.7212  141.4659  154.1558 C   0  0  0  0  0  0  0  0  0  0  0  0
  146.6684  142.3023  154.0245 C   0  0  0  0  0  0  0  0  0  0  0  0
  145.9132  142.7448  155.1904 C   0  0  0  0  0  0  0  0  0  0  0  0
  144.9583  143.5189  155.1161 O   0  0  0  0  0  0  0  0  0  0  0  0
  146.3745  142.2194  156.4216 N   0  0  0  0  0  0  0  0  0  0  0  0
  145.6988  142.6080  157.6422 C   0  0  0  0  0  0  0  0  0  0  0  0
  147.4873  141.3591  156.5537 C   0  0  0  0  0  0  0  0  0  0  0  0
  147.8706  140.9545  157.6543 O   0  0  0  0  0  0  0  0  0  0  0  0
  151.7789  141.7755  159.0900 C   0  0  0  0  0  0  0  0  0  0  0  0
  152.1843  142.1742  161.8539 H   0  0  0  0  0  0  0  0  0  0  0  0
  153.8874  142.6123  161.7488 H   0  0  0  0  0  0  0  0  0  0  0  0
  153.3602  141.0103  161.2483 H   0  0  0  0  0  0  0  0  0  0  0  0
  153.8049  142.4507  159.2787 H   0  0  0  0  0  0  0  0  0  0  0  0
  151.6267  144.2609  160.4103 H   0  0  0  0  0  0  0  0  0  0  0  0
  153.3246  144.6541  160.2873 H   0  0  0  0  0  0  0  0  0  0  0  0
  152.0167  145.6583  158.4141 H   0  0  0  0  0  0  0  0  0  0  0  0
  153.2306  144.5487  157.8241 H   0  0  0  0  0  0  0  0  0  0  0  0
  150.2518  143.9557  158.1551 H   0  0  0  0  0  0  0  0  0  0  0  0
  151.1010  144.1583  156.6405 H   0  0  0  0  0  0  0  0  0  0  0  0
  152.4681  142.1554  157.0797 H   0  0  0  0  0  0  0  0  0  0  0  0
  149.5571  141.6148  157.4318 H   0  0  0  0  0  0  0  0  0  0  0  0
  149.5231  139.6815  154.4288 H   0  0  0  0  0  0  0  0  0  0  0  0
  149.1196  139.2262  156.0573 H   0  0  0  0  0  0  0  0  0  0  0  0
  148.2513  141.1707  153.2619 H   0  0  0  0  0  0  0  0  0  0  0  0
  146.3827  142.6514  153.0430 H   0  0  0  0  0  0  0  0  0  0  0  0
  145.5711  141.7175  158.2605 H   0  0  0  0  0  0  0  0  0  0  0  0
  144.7129  143.0187  157.4249 H   0  0  0  0  0  0  0  0  0  0  0  0
  146.3322  143.3483  158.1335 H   0  0  0  0  0  0  0  0  0  0  0  0
  152.0617  140.7222  159.0640 H   0  0  0  0  0  0  0  0  0  0  0  0
  150.8454  141.8296  159.6522 H   0  0  0  0  0  0  0  0  0  0  0  0
  1  2  1  0  0  0  0
  1 21  1  0  0  0  0
  1 22  1  0  0  0  0
  1 23  1  0  0  0  0
  2 20  1  0  0  0  0
  2  3  1  0  0  0  0
  2 24  1  0  0  0  0
  3  4  1  0  0  0  0
  3 25  1  0  0  0  0
  3 26  1  0  0  0  0
  4  5  1  0  0  0  0
  4 27  1  0  0  0  0
  4 28  1  0  0  0  0
  5  6  1  0  0  0  0
  5 29  1  0  0  0  0
  5 30  1  0  0  0  0
  6  7  1  0  0  0  0
  6 20  1  0  0  0  0
  6 31  1  0  0  0  0
  7  8  1  0  0  0  0
  7 32  1  0  0  0  0
  8  9  2  0  0  0  0
  8 10  1  0  0  0  0
 10 11  1  0  0  0  0
 10 33  1  0  0  0  0
 10 34  1  0  0  0  0
 11 18  1  0  0  0  0
 11 12  1  0  0  0  0
 12 13  2  0  0  0  0
 12 35  1  0  0  0  0
 13 14  1  0  0  0  0
 13 36  1  0  0  0  0
 14 15  2  0  0  0  0
 14 16  1  0  0  0  0
 16 17  1  0  0  0  0
 16 18  1  0  0  0  0
 17 37  1  0  0  0  0
 17 38  1  0  0  0  0
 17 39  1  0  0  0  0
 18 19  2  0  0  0  0
 20 40  1  0  0  0  0
 20 41  1  0  0  0  0
M  END
> <s_m_source_file>
AV-unprocessed.smi

> <i_m_source_file_index>
2157

> <i_lp_mmshare_version>
43012

> <i_f3d_flags>
0

> <s_epik_input>
W0NIM11bQ0BASF0xW0NIMl1bQ0gyXVtDSDJdW0NASF0oW0NIMl0xKVtOSF1DKD1PKVtDSDJdbjJbY0hdW2NIXWMoPU8pbihbQ0gzXSljMj1P

> <s_epik_cmdline>
J2VwaWtfcHl0aG9uJywgJy1waCcsICc3LjAnLCAnLXRuJywgJzgnLCAnLW1hJywgJzIwMCcsICctbWV0YWxfYmluZGluZycsICctaW1hZScsICc8aW5maWxlLm1hZT4nLCAnLW9tYWUnLCAnPG91dGZpbGUubWFlPic=

> <r_lp_tautomer_probability>
1

> <r_epik_Ionization_Penalty>
3.1838e-08

> <r_epik_Ionization_Penalty_Charging>
1.27911e-08

> <r_epik_Ionization_Penalty_Neutral>
1.90469e-08

> <r_epik_State_Penalty>
-0

> <r_epik_Charging_Adjusted_Penalty>
1.27911e-08

> <i_epik_Tot_Q>
0

> <i_epik_Tot_abs_Q>
0

> <r_epik_Metal_State_Penalty>
-0

> <b_epik_Metal_Only>
0

> <s_lp_Force_Field>
OPLS_2005

> <r_lp_Energy>
16.5079

> <b_lp_Chiralities_Consistent>
1

> <s_lp_Variant>
AV-unprocessed.smi:2157-3

> <Gold.Version>
5.8.1

> <Gold.Id.Protein>
6NUR|6NUR_protein|mol2

> <Gold.PLP.Fitness>
47.0961

> <Gold.PLP.PLP>
-42.5242

> <Gold.PLP.part.hbond>
-1.0000

> <Gold.PLP.part.metal>
0.0000

> <Gold.PLP.part.buried>
-5.2275

> <Gold.PLP.part.nonpolar>
-36.3854

> <Gold.PLP.part.repulsive>
0.3007

> <Gold.PLP.ligand.clash>
0.0000

> <Gold.PLP.ligand.torsion>
0.3703

> <Gold.PLP.Chemscore.Hbond>
0.7680

> <Gold.PLP.Chemscore.CHOScore>
1.0000

> <Gold.PLP.Chemscore.Metal>
0.0000

> <Gold.Chemscore.Hbonds>
donor molecule, donor type, donor heavy atom, donor atom, acceptor molecule, acceptor atom, score
      P1  H  7989  7998       L1     9  0.72
      L1  C    12    35       P1  7957  0.49

> <Gold.PLP.Chemscore.Internal.Correction>
0.0084

> <Gold.Rescore>
     Score         DG    S(hbond)    S(metal)    S(lipo)     H(rot)  DE(clash)    DE(int)     intcor
     15.74     -16.21       0.88        0.00     100.02       1.52       0.05       0.42       ----

> <Gold.Chemscore.Fitness>
15.7422

> <Gold.Chemscore.DG>
-16.2080

> <Gold.Chemscore.ZeroCoef>
-5.4800

> <Gold.Chemscore.Hbond>
0.8764

> <Gold.Chemscore.Metal>
0.0000

> <Gold.Chemscore.Lipo>
100.0224

> <Gold.Chemscore.Internal_Hbond>
0.0000

> <Gold.Chemscore.DEClash>
0.0485

> <Gold.Chemscore.DEInternal>
0.4172

> <Gold.Chemscore.Rot>
1.5242

> <Gold.Chemscore.Internal.Correction>
   9.000000E+99

> <Gold.Chemscore.Hbonds>
donor molecule, donor type, donor heavy atom, donor atom, acceptor molecule, acceptor atom, score
      P1  H  7989  7998       L1     9  0.68

> <Gold.Chemscore.Hbond.Weighted>
-2.9272

> <Gold.Chemscore.Metal.Weighted>
-0.0000

> <Gold.Chemscore.Lipo.Weighted>
-11.7026

> <Gold.Chemscore.Internal_Hbond.Weighted>
0.0000

> <Gold.Chemscore.DEClash.Weighted>
0.0485

> <Gold.Chemscore.DEInternal.Weighted>
0.4172

> <Gold.Chemscore.Rot.Weighted>
3.9019

> <Gold.Chemscore.Internal.Correction.Weighted>
   9.000000E+99

> <Gold.Protein.RotatedTorsions>
[ 6907 6896 6895 6894 ] final  -30.96 input  -60.11 | X-H torsion
[ 7974 7965 7964 7962 ] final  -96.30 input  175.53 | X-H torsion
[ 8008 7997 7996 7995 ] final   17.54 input   59.86 | X-H torsion
[ 10167 10162 10161 10158 ] final   50.34 input  -65.29 | X-H torsion
[ 10718 10713 10712 10709 ] final   37.04 input   66.30 | X-H torsion
[ 10763 10752 10751 10750 ] final -157.19 input  -60.55 | X-H torsion
[ 11005 11000 10999 10996 ] final  130.25 input  -57.11 | X-H torsion

> <Gold.Protein.ActiveResidues>
 VAL166  LYS551  ARG553  GLY616  TRP617  ASP618  TYR619  PRO620  LYS621  CYS622 
 ASP623  PHE694  ASN695  SER759  ASP760  ASP761  ALA762  ILE779  LEU786  VAL792 
 PHE793  MET794  SER795  GLU796  ALA797  LYS798  CYS799  TRP800  GLU811  SER814 

> <Gold.Protein.RotatedAtoms>
  151.0985  134.9958  159.8436 H   0  0  0  0  0  0  0  0  0  0  0  0  # atno 6907 bound_to 6896
  152.5435  134.1979  159.8710 H   0  0  0  0  0  0  0  0  0  0  0  0  # atno 6908 bound_to 6896
  151.2020  133.4561  159.2630 H   0  0  0  0  0  0  0  0  0  0  0  0  # atno 6909 bound_to 6896
  145.3487  140.9473  143.2567 H   0  0  0  0  0  0  0  0  0  0  0  0  # atno 7974 bound_to 7965
  154.8929  140.2989  155.5360 H   0  0  0  0  0  0  0  0  0  0  0  0  # atno 8008 bound_to 7997
  156.3020  140.2421  156.3881 H   0  0  0  0  0  0  0  0  0  0  0  0  # atno 8009 bound_to 7997
  154.8600  140.0405  157.1648 H   0  0  0  0  0  0  0  0  0  0  0  0  # atno 8010 bound_to 7997
  140.2734  144.3239  150.6284 H   0  0  0  0  0  0  0  0  0  0  0  0  # atno 10167 bound_to 10162
  157.3422  130.7554  149.6919 H   0  0  0  0  0  0  0  0  0  0  0  0  # atno 10718 bound_to 10713
  154.7655  135.3130  154.8295 H   0  0  0  0  0  0  0  0  0  0  0  0  # atno 10763 bound_to 10752
  153.9044  135.6812  153.4758 H   0  0  0  0  0  0  0  0  0  0  0  0  # atno 10764 bound_to 10752
  153.1260  135.4801  154.9206 H   0  0  0  0  0  0  0  0  0  0  0  0  # atno 10765 bound_to 10752
  139.9661  134.9590  156.9267 H   0  0  0  0  0  0  0  0  0  0  0  0  # atno 11005 bound_to 11000
  144.8734  139.5005  143.6757 LP  0  0  0  0  0  0  0  0  0  0  0  0  # atno 17320 bound_to 7965
  146.2977  139.7329  142.9114 LP  0  0  0  0  0  0  0  0  0  0  0  0  # atno 17321 bound_to 7965
  140.5871  143.2169  151.7322 LP  0  0  0  0  0  0  0  0  0  0  0  0  # atno 17342 bound_to 10162
  139.4982  144.3995  152.0196 LP  0  0  0  0  0  0  0  0  0  0  0  0  # atno 17343 bound_to 10162
  155.9709  130.4164  150.4231 LP  0  0  0  0  0  0  0  0  0  0  0  0  # atno 17370 bound_to 10713
  157.2280  131.0497  151.2508 LP  0  0  0  0  0  0  0  0  0  0  0  0  # atno 17371 bound_to 10713
  140.5393  134.0736  155.7337 LP  0  0  0  0  0  0  0  0  0  0  0  0  # atno 17394 bound_to 11000
  141.1341  133.9252  157.2472 LP  0  0  0  0  0  0  0  0  0  0  0  0  # atno 17395 bound_to 11000

$$$$
