#       Name:                AV-unprocessed.smi:2140
#       Creating user name   scv26
#       Creation time:       Fri Mar 27 11:48:18 2020


#       File generated by GOLD software.
#

@<TRIPOS>MOLECULE
AV-unprocessed.smi:2140
    45    46     1
SMALL
NO_CHARGES


@<TRIPOS>ATOM
      1 ****        -1.5517   1.5777   0.7995 C.3            1 S1                 0.0000
      2 ****        -0.8231   0.2433   1.0923 C.3            1 S1                 0.0000
      3 ****         0.7086   0.4818   1.1826 C.3            1 S1                 0.0000
      4 ****         1.2684   1.0811  -0.0259 N.am           1 S1                 0.0000
      5 ****         1.4725   0.4276  -1.1786 C.2            1 S1                 0.0000
      6 ****         1.2143  -0.7660  -1.3325 O.2            1 S1                 0.0000
      7 ****         1.9994   1.2377  -2.1123 N.am           1 S1                 0.0000
      8 ****         2.3202   0.9386  -3.4643 C.ar           1 S1                 0.0000
      9 ****         1.7580  -0.1333  -4.1999 C.ar           1 S1                 0.0000
     10 ****         2.1430  -0.3116  -5.5426 C.ar           1 S1                 0.0000
     11 ****         3.0688   0.5896  -6.1028 C.ar           1 S1                 0.0000
     12 ****         3.6024   1.6228  -5.4179 N.ar           1 S1                 0.0000
     13 ****         3.2281   1.7883  -4.1313 C.ar           1 S1                 0.0000
     14 ****        -1.3172  -0.4490   2.3279 N.4            1 S1                 1.0000
     15 ****        -2.7717  -0.2973   2.6114 C.3            1 S1                 0.0000
     16 ****        -3.1646  -1.0235   3.9099 C.3            1 S1                 0.0000
     17 ****        -2.8039  -2.3939   3.8268 O.3            1 S1                 0.0000
     18 ****        -1.4021  -2.5538   3.6686 C.3            1 S1                 0.0000
     19 ****        -0.9567  -1.8934   2.3538 C.3            1 S1                 0.0000
     20 ****        -1.1524   2.0706  -0.0868 H              1 S1                 0.0000
     21 ****        -1.4547   2.2757   1.6316 H              1 S1                 0.0000
     22 ****        -2.6124   1.4291   0.5977 H              1 S1                 0.0000
     23 ****        -1.0293  -0.4158   0.2474 H              1 S1                 0.0000
     24 ****         0.9279   1.1482   2.0175 H              1 S1                 0.0000
     25 ****         1.2563  -0.4380   1.3822 H              1 S1                 0.0000
     26 ****         1.5148   2.0594   0.0193 H              1 S1                 0.0000
     27 ****         2.2400   2.1701  -1.8089 H              1 S1                 0.0000
     28 ****         1.0340  -0.8086  -3.7715 H              1 S1                 0.0000
     29 ****         1.7337  -1.1192  -6.1315 H              1 S1                 0.0000
     30 ****         3.3840   0.4812  -7.1299 H              1 S1                 0.0000
     31 ****         3.6729   2.6269  -3.6155 H              1 S1                 0.0000
     32 ****        -3.0373   0.7522   2.7332 H              1 S1                 0.0000
     33 ****        -3.3516  -0.6886   1.7739 H              1 S1                 0.0000
     34 ****        -2.6863  -0.5606   4.7748 H              1 S1                 0.0000
     35 ****        -4.2410  -0.9523   4.0678 H              1 S1                 0.0000
     36 ****        -0.8719  -2.1265   4.5214 H              1 S1                 0.0000
     37 ****        -1.1694  -3.6187   3.6503 H              1 S1                 0.0000
     38 ****        -1.4276  -2.4012   1.5104 H              1 S1                 0.0000
     39 ****         0.1168  -2.0356   2.2452 H              1 S1                 0.0000
     40 ****        -0.8409  -0.0133   3.1049 H              1 S1                 0.0000
     41 ****         0.8327  -1.2967  -0.5756 LP             1 S1                 0.0000
     42 ****         1.3862  -1.2051  -2.2143 LP             1 S1                 0.0000
     43 ****         4.2544   2.2460  -5.8496 LP             1 S1                 0.0000
     44 ****        -3.2685  -2.8054   3.0427 LP             1 S1                 0.0000
     45 ****        -3.0913  -2.8571   4.6652 LP             1 S1                 0.0000
@<TRIPOS>BOND
    1    1    2 1     
    2    1   20 1     
    3    1   21 1     
    4    1   22 1     
    5    2    3 1     
    6    2   14 1     
    7    2   23 1     
    8    3    4 1     
    9    3   24 1     
   10    3   25 1     
   11    4    5 am    
   12    4   26 1     
   13    5    6 2     
   14    5    7 am    
   15    7    8 1     
   16    7   27 1     
   17    8   13 ar    
   18    8    9 ar    
   19    9   10 ar    
   20    9   28 1     
   21   10   11 ar    
   22   10   29 1     
   23   11   12 ar    
   24   11   30 1     
   25   12   13 ar    
   26   13   31 1     
   27   14   19 1     
   28   14   15 1     
   29   14   40 1     
   30   15   16 1     
   31   15   32 1     
   32   15   33 1     
   33   16   17 1     
   34   16   34 1     
   35   16   35 1     
   36   17   18 1     
   37   18   19 1     
   38   18   36 1     
   39   18   37 1     
   40   19   38 1     
   41   19   39 1     
   42    6   41 1     
   43    6   42 1     
   44   12   43 1     
   45   17   44 1     
   46   17   45 1     
@<TRIPOS>SUBSTRUCTURE
      1 S1             1
@<TRIPOS>SET
LONE_PAIRS      STATIC     ATOMS    <user>   **** ""
5 41 42 43 44 45
DONOR_HYDROGENS      STATIC     ATOMS    <user>   **** ""
3 26 27 40
ATOM$BLUE        STATIC     ATOMS    COLORGROUP SYSTEM
5 41 42 43 44 45
ATOM$RED        STATIC     ATOMS    COLORGROUP SYSTEM
3 26 27 40
