AV-unprocessed.smi:1047|AV-procd|sdf|4602|dock7
  -GOLD-   22720 3 93D 1   1.00000     0.00000
 Structure written by MMmdl.
 57 59  0  0  0  0  0  0  0  0  3 V2000
  143.6301  146.0833  158.5867 C   0  0  0  0  0  0  0  0  0  0  0  0
  144.4727  145.2771  157.5886 C   0  0  0  0  0  0  0  0  0  0  0  0
  143.6355  144.4431  156.6860 N   0  3  1  0  0  0  0  0  0  0  0  0
  142.9160  145.2011  155.6307 C   0  0  0  0  0  0  0  0  0  0  0  0
  143.8525  145.5730  154.4654 C   0  0  0  0  0  0  0  0  0  0  0  0
  144.4768  144.3996  153.9595 O   0  0  0  0  0  0  0  0  0  0  0  0
  145.2816  143.7454  154.9359 C   0  0  2  0  0  0  0  0  0  0  0  0
  145.9709  142.5514  154.2601 C   0  0  0  0  0  0  0  0  0  0  0  0
  147.3084  142.3417  154.8040 N   0  0  0  0  0  0  0  0  0  0  0  0
  148.1931  141.6085  153.9041 C   0  0  0  0  0  0  0  0  0  0  0  0
  149.2332  140.7879  154.6859 C   0  0  1  0  0  0  0  0  0  0  0  0
  149.8895  139.9163  153.7863 O   0  0  0  0  0  0  0  0  0  0  0  0
  150.2758  141.6963  155.3658 C   0  0  0  0  0  0  0  0  0  0  0  0
  151.0630  140.9944  156.3902 N   0  0  0  0  0  0  0  0  0  0  0  0
  151.5118  139.7100  156.4059 C   0  0  0  0  0  0  0  0  0  0  0  0
  152.1882  139.5246  157.5727 N   0  3  0  0  0  0  0  0  0  0  0  0
  152.1732  140.7085  158.3127 C   0  0  0  0  0  0  0  0  0  0  0  0
  152.7204  141.0110  159.5539 C   0  0  0  0  0  0  0  0  0  0  0  0
  152.5323  142.3248  160.0388 C   0  0  0  0  0  0  0  0  0  0  0  0
  153.1162  142.6877  161.3937 C   0  0  0  0  0  0  0  0  0  0  0  0
  151.8159  143.2869  159.2808 C   0  0  0  0  0  0  0  0  0  0  0  0
  151.6262  144.6988  159.8084 C   0  0  0  0  0  0  0  0  0  0  0  0
  151.2648  142.9585  158.0214 C   0  0  0  0  0  0  0  0  0  0  0  0
  151.4560  141.6582  157.5590 C   0  0  0  0  0  0  0  0  0  0  0  0
  144.3645  143.2947  156.0926 C   0  0  0  0  0  0  0  0  0  0  0  0
  144.2732  146.6099  159.2925 H   0  0  0  0  0  0  0  0  0  0  0  0
  142.9727  145.4319  159.1633 H   0  0  0  0  0  0  0  0  0  0  0  0
  143.0130  146.8327  158.0921 H   0  0  0  0  0  0  0  0  0  0  0  0
  145.1227  145.9394  157.0170 H   0  0  0  0  0  0  0  0  0  0  0  0
  145.1311  144.6263  158.1654 H   0  0  0  0  0  0  0  0  0  0  0  0
  142.1109  144.5703  155.2518 H   0  0  0  0  0  0  0  0  0  0  0  0
  142.4367  146.0904  156.0377 H   0  0  0  0  0  0  0  0  0  0  0  0
  143.2803  146.0375  153.6623 H   0  0  0  0  0  0  0  0  0  0  0  0
  144.6062  146.2988  154.7726 H   0  0  0  0  0  0  0  0  0  0  0  0
  146.0428  144.4310  155.3133 H   0  0  0  0  0  0  0  0  0  0  0  0
  145.3747  141.6517  154.4173 H   0  0  0  0  0  0  0  0  0  0  0  0
  146.0162  142.7116  153.1820 H   0  0  0  0  0  0  0  0  0  0  0  0
  147.7261  143.2362  155.0408 H   0  0  0  0  0  0  0  0  0  0  0  0
  147.6212  140.9670  153.2318 H   0  0  0  0  0  0  0  0  0  0  0  0
  148.7170  142.3255  153.2707 H   0  0  0  0  0  0  0  0  0  0  0  0
  148.7382  140.1902  155.4529 H   0  0  0  0  0  0  0  0  0  0  0  0
  149.4880  140.0041  152.9355 H   0  0  0  0  0  0  0  0  0  0  0  0
  150.9466  142.1495  154.6360 H   0  0  0  0  0  0  0  0  0  0  0  0
  149.7713  142.5228  155.8679 H   0  0  0  0  0  0  0  0  0  0  0  0
  151.3575  138.9709  155.6329 H   0  0  0  0  0  0  0  0  0  0  0  0
  153.2667  140.2739  160.1241 H   0  0  0  0  0  0  0  0  0  0  0  0
  152.3307  143.0178  162.0741 H   0  0  0  0  0  0  0  0  0  0  0  0
  153.8477  143.4900  161.2930 H   0  0  0  0  0  0  0  0  0  0  0  0
  153.6177  141.8352  161.8531 H   0  0  0  0  0  0  0  0  0  0  0  0
  151.0629  145.3149  159.1066 H   0  0  0  0  0  0  0  0  0  0  0  0
  152.5914  145.1787  159.9716 H   0  0  0  0  0  0  0  0  0  0  0  0
  151.0810  144.6855  160.7524 H   0  0  0  0  0  0  0  0  0  0  0  0
  150.7228  143.6935  157.4456 H   0  0  0  0  0  0  0  0  0  0  0  0
  144.9338  142.7684  156.8598 H   0  0  0  0  0  0  0  0  0  0  0  0
  143.6292  142.5815  155.7168 H   0  0  0  0  0  0  0  0  0  0  0  0
  142.9283  144.0397  157.2838 H   0  0  0  0  0  0  0  0  0  0  0  0
  152.6275  138.6533  157.8412 H   0  0  0  0  0  0  0  0  0  0  0  0
  1  2  1  0  0  0  0
  1 26  1  0  0  0  0
  1 27  1  0  0  0  0
  1 28  1  0  0  0  0
  2  3  1  0  0  0  0
  2 29  1  0  0  0  0
  2 30  1  0  0  0  0
  3 25  1  0  0  0  0
  3  4  1  0  0  0  0
  3 56  1  0  0  0  0
  4  5  1  0  0  0  0
  4 31  1  0  0  0  0
  4 32  1  0  0  0  0
  5  6  1  0  0  0  0
  5 33  1  0  0  0  0
  5 34  1  0  0  0  0
  6  7  1  0  0  0  0
  7  8  1  0  0  0  0
  7 25  1  0  0  0  0
  7 35  1  0  0  0  0
  8  9  1  0  0  0  0
  8 36  1  0  0  0  0
  8 37  1  0  0  0  0
  9 10  1  0  0  0  0
  9 38  1  0  0  0  0
 10 11  1  0  0  0  0
 10 39  1  0  0  0  0
 10 40  1  0  0  0  0
 11 12  1  0  0  0  0
 11 13  1  0  0  0  0
 11 41  1  0  0  0  0
 12 42  1  0  0  0  0
 13 14  1  0  0  0  0
 13 43  1  0  0  0  0
 13 44  1  0  0  0  0
 14 24  1  0  0  0  0
 14 15  1  0  0  0  0
 15 16  2  0  0  0  0
 15 45  1  0  0  0  0
 16 17  1  0  0  0  0
 16 57  1  0  0  0  0
 17 24  2  0  0  0  0
 17 18  1  0  0  0  0
 18 19  2  0  0  0  0
 18 46  1  0  0  0  0
 19 20  1  0  0  0  0
 19 21  1  0  0  0  0
 20 47  1  0  0  0  0
 20 48  1  0  0  0  0
 20 49  1  0  0  0  0
 21 22  1  0  0  0  0
 21 23  2  0  0  0  0
 22 50  1  0  0  0  0
 22 51  1  0  0  0  0
 22 52  1  0  0  0  0
 23 24  1  0  0  0  0
 23 53  1  0  0  0  0
 25 54  1  0  0  0  0
 25 55  1  0  0  0  0
M  CHG  1   3   1
M  CHG  1  16   1
M  END
> <s_m_source_file>
AV-unprocessed.smi

> <i_m_source_file_index>
1047

> <i_lp_mmshare_version>
43012

> <i_f3d_flags>
0

> <s_epik_input>
W0NIM11bQ0gyXU4xW0NIMl1bQ0gyXU9bQ0BIXShbQ0gyXTEpW0NIMl1bTkhdW0NIMl1bQ0BIXShbT0hdKVtDSDJdbihbY0hdbjIpYyhjMjMpW2NIXWMoW0NIM10pYyhbY0hdMylbQ0gzXQ==

> <s_epik_cmdline>
J2VwaWtfcHl0aG9uJywgJy1waCcsICc3LjAnLCAnLXRuJywgJzgnLCAnLW1hJywgJzIwMCcsICctbWV0YWxfYmluZGluZycsICctaW1hZScsICc8aW5maWxlLm1hZT4nLCAnLW9tYWUnLCAnPG91dGZpbGUubWFlPic=

> <r_epik_Ionization_Penalty>
2.03028

> <r_epik_Ionization_Penalty_Charging>
1.21256

> <r_epik_Ionization_Penalty_Neutral>
0.817715

> <r_epik_State_Penalty>
2.54959

> <r_epik_Charging_Adjusted_Penalty>
3.76215

> <i_epik_Tot_Q>
2

> <i_epik_Tot_abs_Q>
2

> <r_epik_Metal_State_Penalty>
6.52811

> <b_epik_Metal_Only>
0

> <s_lp_Force_Field>
OPLS_2005

> <r_lp_Energy>
36.7228

> <b_lp_Chiralities_Consistent>
1

> <s_lp_Variant>
AV-unprocessed.smi:1047-43

> <Gold.Version>
5.8.1

> <Gold.Id.Protein>
6NUR|6NUR_protein|mol2

> <Gold.PLP.Fitness>
57.6059

> <Gold.PLP.PLP>
-51.9588

> <Gold.PLP.part.hbond>
-3.0000

> <Gold.PLP.part.metal>
0.0000

> <Gold.PLP.part.buried>
-7.1726

> <Gold.PLP.part.nonpolar>
-42.0856

> <Gold.PLP.part.repulsive>
0.2360

> <Gold.PLP.ligand.clash>
0.0000

> <Gold.PLP.ligand.torsion>
1.4459

> <Gold.PLP.Chemscore.Hbond>
2.8160

> <Gold.PLP.Chemscore.CHOScore>
0.0000

> <Gold.PLP.Chemscore.Metal>
0.0000

> <Gold.Chemscore.Hbonds>
donor molecule, donor type, donor heavy atom, donor atom, acceptor molecule, acceptor atom, score
      L1  H     9    38       P1  8028  1.00
      L1  H    12    42       P1  7957  1.00
      P1  H  7989  7998       L1    12  0.82

> <Gold.PLP.Chemscore.Internal.Correction>
0.0910

> <Gold.Rescore>
     Score         DG    S(hbond)    S(metal)    S(lipo)     H(rot)  DE(clash)    DE(int)     intcor
     18.36     -20.17       1.72        0.00     135.74       2.71       0.37       1.45       ----

> <Gold.Chemscore.Fitness>
18.3551

> <Gold.Chemscore.DG>
-20.1732

> <Gold.Chemscore.ZeroCoef>
-5.4800

> <Gold.Chemscore.Hbond>
1.7205

> <Gold.Chemscore.Metal>
0.0000

> <Gold.Chemscore.Lipo>
135.7374

> <Gold.Chemscore.Internal_Hbond>
0.0000

> <Gold.Chemscore.DEClash>
0.3684

> <Gold.Chemscore.DEInternal>
1.4497

> <Gold.Chemscore.Rot>
2.7088

> <Gold.Chemscore.Internal.Correction>
   9.000000E+99

> <Gold.Chemscore.Hbonds>
donor molecule, donor type, donor heavy atom, donor atom, acceptor molecule, acceptor atom, score
      L1  H     9    38       P1  8028  0.55
      L1  H    12    42       P1  7957  0.94
      P1  H  7989  7998       L1    12  0.07

> <Gold.Chemscore.Hbond.Weighted>
-5.7466

> <Gold.Chemscore.Metal.Weighted>
-0.0000

> <Gold.Chemscore.Lipo.Weighted>
-15.8813

> <Gold.Chemscore.Internal_Hbond.Weighted>
0.0000

> <Gold.Chemscore.DEClash.Weighted>
0.3684

> <Gold.Chemscore.DEInternal.Weighted>
1.4497

> <Gold.Chemscore.Rot.Weighted>
6.9346

> <Gold.Chemscore.Internal.Correction.Weighted>
   9.000000E+99

> <Gold.Protein.RotatedTorsions>
[ 6907 6896 6895 6894 ] final  -53.29 input  -60.11 | X-H torsion
[ 7974 7965 7964 7962 ] final   27.70 input  175.53 | X-H torsion
[ 8008 7997 7996 7995 ] final -162.07 input   59.86 | X-H torsion
[ 10167 10162 10161 10158 ] final -121.00 input  -65.29 | X-H torsion
[ 10718 10713 10712 10709 ] final  -45.47 input   66.30 | X-H torsion
[ 10763 10752 10751 10750 ] final -161.37 input  -60.55 | X-H torsion
[ 11005 11000 10999 10996 ] final   67.05 input  -57.11 | X-H torsion

> <Gold.Protein.ActiveResidues>
 VAL166  LYS551  ARG553  GLY616  TRP617  ASP618  TYR619  PRO620  LYS621  CYS622 
 ASP623  PHE694  ASN695  SER759  ASP760  ASP761  ALA762  ILE779  LEU786  VAL792 
 PHE793  MET794  SER795  GLU796  ALA797  LYS798  CYS799  TRP800  GLU811  SER814 

> <Gold.Protein.RotatedAtoms>
  150.8440  134.7742  159.6955 H   0  0  0  0  0  0  0  0  0  0  0  0  # atno 6907 bound_to 6896
  152.4521  134.5368  159.9837 H   0  0  0  0  0  0  0  0  0  0  0  0  # atno 6908 bound_to 6896
  151.5502  133.3381  159.2987 H   0  0  0  0  0  0  0  0  0  0  0  0  # atno 6909 bound_to 6896
  146.1770  139.7155  142.8928 H   0  0  0  0  0  0  0  0  0  0  0  0  # atno 7974 bound_to 7965
  155.8014  140.0892  157.1955 H   0  0  0  0  0  0  0  0  0  0  0  0  # atno 8008 bound_to 7997
  154.3982  140.1471  156.3338 H   0  0  0  0  0  0  0  0  0  0  0  0  # atno 8009 bound_to 7997
  155.8458  140.3437  155.5664 H   0  0  0  0  0  0  0  0  0  0  0  0  # atno 8010 bound_to 7997
  140.0297  143.5260  152.2182 H   0  0  0  0  0  0  0  0  0  0  0  0  # atno 10167 bound_to 10162
  156.2281  130.4170  149.8909 H   0  0  0  0  0  0  0  0  0  0  0  0  # atno 10718 bound_to 10713
  154.7309  135.3046  154.8892 H   0  0  0  0  0  0  0  0  0  0  0  0  # atno 10763 bound_to 10752
  153.9735  135.6739  153.4752 H   0  0  0  0  0  0  0  0  0  0  0  0  # atno 10764 bound_to 10752
  153.0918  135.4955  154.8625 H   0  0  0  0  0  0  0  0  0  0  0  0  # atno 10765 bound_to 10752
  139.9794  134.6768  156.0291 H   0  0  0  0  0  0  0  0  0  0  0  0  # atno 11005 bound_to 11000
  145.4185  141.0404  143.2977 LP  0  0  0  0  0  0  0  0  0  0  0  0  # atno 17320 bound_to 7965
  144.8252  139.5723  143.6969 LP  0  0  0  0  0  0  0  0  0  0  0  0  # atno 17321 bound_to 7965
  139.6084  144.7602  151.3008 LP  0  0  0  0  0  0  0  0  0  0  0  0  # atno 17342 bound_to 10162
  140.7307  143.6872  150.7952 LP  0  0  0  0  0  0  0  0  0  0  0  0  # atno 17343 bound_to 10162
  156.6533  130.8752  151.3535 LP  0  0  0  0  0  0  0  0  0  0  0  0  # atno 17370 bound_to 10713
  157.7120  130.9451  150.1121 LP  0  0  0  0  0  0  0  0  0  0  0  0  # atno 17371 bound_to 10713
  141.1468  133.6554  156.3892 LP  0  0  0  0  0  0  0  0  0  0  0  0  # atno 17394 bound_to 11000
  140.5127  134.6380  157.5290 LP  0  0  0  0  0  0  0  0  0  0  0  0  # atno 17395 bound_to 11000

$$$$
