AV-unprocessed.smi:613|AV-procd|sdf|3064|dock8
  -GOLD-   2262023583D 1   1.00000     0.00000
 Structure written by MMmdl.
 38 39  0  0  0  0  0  0  0  0  1 V2000
  152.1257  140.0840  159.1867 C   0  0  0  0  0  0  0  0  0  0  0  0
  151.8411  141.1564  158.2401 N   0  0  0  0  0  0  0  0  0  0  0  0
  151.8938  140.8556  156.8083 C   0  0  0  0  0  0  0  0  0  0  0  0
  150.5930  140.2194  156.2827 C   0  0  2  0  0  0  0  0  0  0  0  0
  150.5830  138.6916  156.4886 C   0  0  0  0  0  0  0  0  0  0  0  0
  149.3865  138.0669  155.9295 N   0  0  0  0  0  0  0  0  0  0  0  0
  149.3672  136.6198  156.1803 C   0  0  0  0  0  0  0  0  0  0  0  0
  150.4862  135.8381  155.4806 C   0  0  0  0  0  0  0  0  0  0  0  0
  150.1328  135.0337  154.4750 N   0  0  0  0  0  0  0  0  0  0  0  0
  151.6536  135.9562  155.8469 O   0  0  0  0  0  0  0  0  0  0  0  0
  149.2550  138.4306  154.5162 C   0  0  0  0  0  0  0  0  0  0  0  0
  149.2933  139.9545  154.3127 C   0  0  0  0  0  0  0  0  0  0  0  0
  150.4838  140.4830  154.8858 O   0  0  0  0  0  0  0  0  0  0  0  0
  151.8932  142.4984  158.6885 C   0  0  0  0  0  0  0  0  0  0  0  0
  152.4495  142.8398  159.9459 C   0  0  0  0  0  0  0  0  0  0  0  0
  152.4636  144.1947  160.3193 C   0  0  0  0  0  0  0  0  0  0  0  0
  151.9202  145.1208  159.4134 C   0  0  0  0  0  0  0  0  0  0  0  0
  151.3969  144.7508  158.2251 N   0  0  0  0  0  0  0  0  0  0  0  0
  151.3844  143.4606  157.8742 N   0  0  0  0  0  0  0  0  0  0  0  0
  151.3597  140.0404  159.9614 H   0  0  0  0  0  0  0  0  0  0  0  0
  153.0975  140.2322  159.6590 H   0  0  0  0  0  0  0  0  0  0  0  0
  152.1432  139.1153  158.6865 H   0  0  0  0  0  0  0  0  0  0  0  0
  152.0998  141.7743  156.2581 H   0  0  0  0  0  0  0  0  0  0  0  0
  152.7426  140.2032  156.6013 H   0  0  0  0  0  0  0  0  0  0  0  0
  149.7363  140.6536  156.8013 H   0  0  0  0  0  0  0  0  0  0  0  0
  151.4755  138.2576  156.0339 H   0  0  0  0  0  0  0  0  0  0  0  0
  150.6447  138.4772  157.5566 H   0  0  0  0  0  0  0  0  0  0  0  0
  149.4055  136.4290  157.2546 H   0  0  0  0  0  0  0  0  0  0  0  0
  148.4218  136.2016  155.8320 H   0  0  0  0  0  0  0  0  0  0  0  0
  150.8359  134.5006  153.9845 H   0  0  0  0  0  0  0  0  0  0  0  0
  149.1613  134.9632  154.2084 H   0  0  0  0  0  0  0  0  0  0  0  0
  150.0578  137.9697  153.9383 H   0  0  0  0  0  0  0  0  0  0  0  0
  148.3187  138.0555  154.1028 H   0  0  0  0  0  0  0  0  0  0  0  0
  149.2712  140.1960  153.2500 H   0  0  0  0  0  0  0  0  0  0  0  0
  148.4212  140.4277  154.7667 H   0  0  0  0  0  0  0  0  0  0  0  0
  152.8564  142.1021  160.6203 H   0  0  0  0  0  0  0  0  0  0  0  0
  152.8755  144.5116  161.2659 H   0  0  0  0  0  0  0  0  0  0  0  0
  151.9028  146.1756  159.6446 H   0  0  0  0  0  0  0  0  0  0  0  0
  1  2  1  0  0  0  0
  1 20  1  0  0  0  0
  1 21  1  0  0  0  0
  1 22  1  0  0  0  0
  2  3  1  0  0  0  0
  2 14  1  0  0  0  0
  3  4  1  0  0  0  0
  3 23  1  0  0  0  0
  3 24  1  0  0  0  0
  4 13  1  0  0  0  0
  4  5  1  0  0  0  0
  4 25  1  0  0  0  0
  5  6  1  0  0  0  0
  5 26  1  0  0  0  0
  5 27  1  0  0  0  0
  6  7  1  0  0  0  0
  6 11  1  0  0  0  0
  7  8  1  0  0  0  0
  7 28  1  0  0  0  0
  7 29  1  0  0  0  0
  8  9  1  0  0  0  0
  8 10  2  0  0  0  0
  9 30  1  0  0  0  0
  9 31  1  0  0  0  0
 11 12  1  0  0  0  0
 11 32  1  0  0  0  0
 11 33  1  0  0  0  0
 12 13  1  0  0  0  0
 12 34  1  0  0  0  0
 12 35  1  0  0  0  0
 14 19  1  0  0  0  0
 14 15  2  0  0  0  0
 15 16  1  0  0  0  0
 15 36  1  0  0  0  0
 16 17  2  0  0  0  0
 16 37  1  0  0  0  0
 17 18  1  0  0  0  0
 17 38  1  0  0  0  0
 18 19  2  0  0  0  0
M  END
> <s_m_source_file>
AV-unprocessed.smi

> <i_m_source_file_index>
613

> <i_lp_mmshare_version>
43012

> <i_f3d_flags>
0

> <s_epik_input>
bjFuW2NIXVtjSF1bY0hdYzFOKFtDSDNdKVtDSDJdW0NAQEhdMltDSDJdTihbQ0gyXVtDSDJdTzIpW0NIMl1DKD1PKVtOSDJd

> <s_epik_cmdline>
J2VwaWtfcHl0aG9uJywgJy1waCcsICc3LjAnLCAnLXRuJywgJzgnLCAnLW1hJywgJzIwMCcsICctbWV0YWxfYmluZGluZycsICctaW1hZScsICc8aW5maWxlLm1hZT4nLCAnLW9tYWUnLCAnPG91dGZpbGUubWFlPic=

> <r_lp_tautomer_probability>
1

> <r_epik_Ionization_Penalty>
0.0398875

> <r_epik_Ionization_Penalty_Charging>
0

> <r_epik_Ionization_Penalty_Neutral>
0.0398875

> <r_epik_State_Penalty>
0.0543012

> <r_epik_Charging_Adjusted_Penalty>
0.0543012

> <i_epik_Tot_Q>
0

> <i_epik_Tot_abs_Q>
0

> <r_epik_Metal_State_Penalty>
0.0489294

> <b_epik_Metal_Only>
0

> <s_lp_Force_Field>
OPLS_2005

> <r_lp_Energy>
27.5025

> <b_lp_Chiralities_Consistent>
1

> <s_lp_Variant>
AV-unprocessed.smi:613-1

> <Gold.Version>
5.8.1

> <Gold.Id.Protein>
6NUR|6NUR_protein|mol2

> <Gold.PLP.Fitness>
36.3119

> <Gold.PLP.PLP>
-31.5819

> <Gold.PLP.part.hbond>
-3.3641

> <Gold.PLP.part.metal>
0.0000

> <Gold.PLP.part.buried>
-5.5617

> <Gold.PLP.part.nonpolar>
-22.4898

> <Gold.PLP.part.repulsive>
0.4529

> <Gold.PLP.ligand.clash>
0.0000

> <Gold.PLP.ligand.torsion>
0.7697

> <Gold.PLP.Chemscore.Hbond>
2.0000

> <Gold.PLP.Chemscore.CHOScore>
0.0000

> <Gold.PLP.Chemscore.Metal>
0.0000

> <Gold.Chemscore.Hbonds>
donor molecule, donor type, donor heavy atom, donor atom, acceptor molecule, acceptor atom, score
      P1  H  7989  7998       L1    13  1.00
      P1  H 10752 10765       L1    10  1.00

> <Gold.PLP.Chemscore.Internal.Correction>
0.2694

> <Gold.Rescore>
     Score         DG    S(hbond)    S(metal)    S(lipo)     H(rot)  DE(clash)    DE(int)     intcor
     13.25     -14.44       1.83        0.00      72.01       2.18       0.08       1.11       ----

> <Gold.Chemscore.Fitness>
13.2470

> <Gold.Chemscore.DG>
-14.4425

> <Gold.Chemscore.ZeroCoef>
-5.4800

> <Gold.Chemscore.Hbond>
1.8335

> <Gold.Chemscore.Metal>
0.0000

> <Gold.Chemscore.Lipo>
72.0117

> <Gold.Chemscore.Internal_Hbond>
0.0000

> <Gold.Chemscore.DEClash>
0.0834

> <Gold.Chemscore.DEInternal>
1.1121

> <Gold.Chemscore.Rot>
2.1823

> <Gold.Chemscore.Internal.Correction>
   9.000000E+99

> <Gold.Chemscore.Hbonds>
donor molecule, donor type, donor heavy atom, donor atom, acceptor molecule, acceptor atom, score
      P1  H  7989  7998       L1    13  0.58
      P1  H 10752 10765       L1    10  0.98

> <Gold.Chemscore.Hbond.Weighted>
-6.1239

> <Gold.Chemscore.Metal.Weighted>
-0.0000

> <Gold.Chemscore.Lipo.Weighted>
-8.4254

> <Gold.Chemscore.Internal_Hbond.Weighted>
0.0000

> <Gold.Chemscore.DEClash.Weighted>
0.0834

> <Gold.Chemscore.DEInternal.Weighted>
1.1121

> <Gold.Chemscore.Rot.Weighted>
5.5867

> <Gold.Chemscore.Internal.Correction.Weighted>
   9.000000E+99

> <Gold.Protein.RotatedTorsions>
[ 6907 6896 6895 6894 ] final -162.24 input  -60.11 | X-H torsion
[ 7974 7965 7964 7962 ] final  -98.39 input  175.53 | X-H torsion
[ 8008 7997 7996 7995 ] final   67.84 input   59.86 | X-H torsion
[ 10167 10162 10161 10158 ] final -171.06 input  -65.29 | X-H torsion
[ 10718 10713 10712 10709 ] final -151.94 input   66.30 | X-H torsion
[ 10763 10752 10751 10750 ] final -170.87 input  -60.55 | X-H torsion
[ 11005 11000 10999 10996 ] final -113.65 input  -57.11 | X-H torsion

> <Gold.Protein.ActiveResidues>
 VAL166  LYS551  ARG553  GLY616  TRP617  ASP618  TYR619  PRO620  LYS621  CYS622 
 ASP623  PHE694  ASN695  SER759  ASP760  ASP761  ALA762  ILE779  LEU786  VAL792 
 PHE793  MET794  SER795  GLU796  ALA797  LYS798  CYS799  TRP800  GLU811  SER814 

> <Gold.Protein.RotatedAtoms>
  151.3772  133.3834  159.2705 H   0  0  0  0  0  0  0  0  0  0  0  0  # atno 6907 bound_to 6896
  150.9605  134.8994  159.7738 H   0  0  0  0  0  0  0  0  0  0  0  0  # atno 6908 bound_to 6896
  152.5147  134.3731  159.9377 H   0  0  0  0  0  0  0  0  0  0  0  0  # atno 6909 bound_to 6896
  145.3213  140.9422  143.2714 H   0  0  0  0  0  0  0  0  0  0  0  0  # atno 7974 bound_to 7965
  155.6991  140.3495  155.4925 H   0  0  0  0  0  0  0  0  0  0  0  0  # atno 8008 bound_to 7997
  155.9456  140.1110  157.1041 H   0  0  0  0  0  0  0  0  0  0  0  0  # atno 8009 bound_to 7997
  154.4111  140.1204  156.4971 H   0  0  0  0  0  0  0  0  0  0  0  0  # atno 8010 bound_to 7997
  139.5824  144.1393  152.1533 H   0  0  0  0  0  0  0  0  0  0  0  0  # atno 10167 bound_to 10162
  156.4659  130.8235  151.2466 H   0  0  0  0  0  0  0  0  0  0  0  0  # atno 10718 bound_to 10713
  154.6367  135.2893  155.0152 H   0  0  0  0  0  0  0  0  0  0  0  0  # atno 10763 bound_to 10752
  154.1293  135.6536  153.4922 H   0  0  0  0  0  0  0  0  0  0  0  0  # atno 10764 bound_to 10752
  153.0306  135.5306  154.7217 H   0  0  0  0  0  0  0  0  0  0  0  0  # atno 10765 bound_to 10752
  141.0601  133.9550  157.2683 H   0  0  0  0  0  0  0  0  0  0  0  0  # atno 11005 bound_to 11000
  144.8937  139.4740  143.6665 LP  0  0  0  0  0  0  0  0  0  0  0  0  # atno 17320 bound_to 7965
  146.3081  139.7650  142.9040 LP  0  0  0  0  0  0  0  0  0  0  0  0  # atno 17321 bound_to 7965
  140.0949  144.5589  150.7029 LP  0  0  0  0  0  0  0  0  0  0  0  0  # atno 17342 bound_to 10162
  140.7101  143.2498  151.4608 LP  0  0  0  0  0  0  0  0  0  0  0  0  # atno 17343 bound_to 10162
  157.7495  131.0092  150.3257 LP  0  0  0  0  0  0  0  0  0  0  0  0  # atno 17370 bound_to 10713
  156.3668  130.3856  149.7207 LP  0  0  0  0  0  0  0  0  0  0  0  0  # atno 17371 bound_to 10713
  139.9425  135.0189  156.8751 LP  0  0  0  0  0  0  0  0  0  0  0  0  # atno 17394 bound_to 11000
  140.5886  134.0283  155.7491 LP  0  0  0  0  0  0  0  0  0  0  0  0  # atno 17395 bound_to 11000

$$$$
