AV-unprocessed.smi:2484|AV-procd|sdf|9787|dock2
  -GOLD-   2272013423D 1   1.00000     0.00000
 Structure written by MMmdl.
 45 46  0  0  0  0  0  0  0  0  1 V2000
  149.6242  137.2103  156.6408 C   0  0  0  0  0  0  0  0  0  0  0  0
  149.9760  137.4152  155.1486 C   0  0  0  0  0  0  0  0  0  0  0  0
  149.4189  136.3124  154.3531 N   0  0  0  0  0  0  0  0  0  0  0  0
  149.3167  135.0138  154.6855 C   0  0  0  0  0  0  0  0  0  0  0  0
  149.6838  134.5487  155.7643 O   0  0  0  0  0  0  0  0  0  0  0  0
  148.7597  134.3042  153.6886 N   0  0  0  0  0  0  0  0  0  0  0  0
  148.5592  132.9000  153.6219 C   0  0  0  0  0  0  0  0  0  0  0  0
  149.5376  132.1172  154.2670 C   0  0  0  0  0  0  0  0  0  0  0  0
  149.3935  130.7196  154.2542 C   0  0  0  0  0  0  0  0  0  0  0  0
  148.2673  130.1802  153.5923 C   0  0  0  0  0  0  0  0  0  0  0  0
  147.9776  128.6705  153.5152 C   0  0  0  0  0  0  0  0  0  0  0  0
  149.0624  127.8242  154.2191 C   0  0  0  0  0  0  0  0  0  0  0  0
  147.9262  128.2226  152.0395 C   0  0  0  0  0  0  0  0  0  0  0  0
  146.6310  128.3650  154.2036 C   0  0  0  0  0  0  0  0  0  0  0  0
  147.3607  130.9857  152.9870 N   0  0  0  0  0  0  0  0  0  0  0  0
  147.5049  132.3140  153.0010 N   0  0  0  0  0  0  0  0  0  0  0  0
  149.3254  138.7109  154.6108 C   0  0  0  0  0  0  0  0  0  0  0  0
  150.0324  139.9873  155.0998 C   0  0  0  0  0  0  0  0  0  0  0  0
  151.4116  139.9390  154.7618 O   0  0  0  0  0  0  0  0  0  0  0  0
  152.0887  138.8630  155.3964 C   0  0  0  0  0  0  0  0  0  0  0  0
  151.5070  137.5186  154.9258 C   0  0  0  0  0  0  0  0  0  0  0  0
  149.9440  138.0511  157.2553 H   0  0  0  0  0  0  0  0  0  0  0  0
  150.1011  136.3208  157.0525 H   0  0  0  0  0  0  0  0  0  0  0  0
  148.5482  137.0992  156.7801 H   0  0  0  0  0  0  0  0  0  0  0  0
  149.0801  136.5710  153.4380 H   0  0  0  0  0  0  0  0  0  0  0  0
  148.4729  134.8231  152.8720 H   0  0  0  0  0  0  0  0  0  0  0  0
  150.3801  132.5742  154.7653 H   0  0  0  0  0  0  0  0  0  0  0  0
  150.1327  130.1065  154.7457 H   0  0  0  0  0  0  0  0  0  0  0  0
  148.8378  126.7590  154.1512 H   0  0  0  0  0  0  0  0  0  0  0  0
  149.1381  128.0657  155.2799 H   0  0  0  0  0  0  0  0  0  0  0  0
  150.0445  127.9719  153.7680 H   0  0  0  0  0  0  0  0  0  0  0  0
  148.8659  128.4351  151.5288 H   0  0  0  0  0  0  0  0  0  0  0  0
  147.1319  128.7282  151.4896 H   0  0  0  0  0  0  0  0  0  0  0  0
  147.7414  127.1511  151.9552 H   0  0  0  0  0  0  0  0  0  0  0  0
  146.4046  127.2985  154.1795 H   0  0  0  0  0  0  0  0  0  0  0  0
  145.8013  128.8799  153.7179 H   0  0  0  0  0  0  0  0  0  0  0  0
  146.6423  128.6754  155.2491 H   0  0  0  0  0  0  0  0  0  0  0  0
  149.3621  138.7093  153.5199 H   0  0  0  0  0  0  0  0  0  0  0  0
  148.2679  138.7469  154.8760 H   0  0  0  0  0  0  0  0  0  0  0  0
  149.5889  140.8613  154.6224 H   0  0  0  0  0  0  0  0  0  0  0  0
  149.9113  140.1243  156.1749 H   0  0  0  0  0  0  0  0  0  0  0  0
  153.1469  138.9181  155.1399 H   0  0  0  0  0  0  0  0  0  0  0  0
  152.0246  138.9640  156.4806 H   0  0  0  0  0  0  0  0  0  0  0  0
  152.0305  136.7055  155.4291 H   0  0  0  0  0  0  0  0  0  0  0  0
  151.7267  137.4092  153.8626 H   0  0  0  0  0  0  0  0  0  0  0  0
  1  2  1  0  0  0  0
  1 22  1  0  0  0  0
  1 23  1  0  0  0  0
  1 24  1  0  0  0  0
  2 21  1  0  0  0  0
  2  3  1  0  0  0  0
  2 17  1  0  0  0  0
  3  4  1  0  0  0  0
  3 25  1  0  0  0  0
  4  5  2  0  0  0  0
  4  6  1  0  0  0  0
  6  7  1  0  0  0  0
  6 26  1  0  0  0  0
  7 16  1  0  0  0  0
  7  8  2  0  0  0  0
  8  9  1  0  0  0  0
  8 27  1  0  0  0  0
  9 10  2  0  0  0  0
  9 28  1  0  0  0  0
 10 11  1  0  0  0  0
 10 15  1  0  0  0  0
 11 12  1  0  0  0  0
 11 13  1  0  0  0  0
 11 14  1  0  0  0  0
 12 29  1  0  0  0  0
 12 30  1  0  0  0  0
 12 31  1  0  0  0  0
 13 32  1  0  0  0  0
 13 33  1  0  0  0  0
 13 34  1  0  0  0  0
 14 35  1  0  0  0  0
 14 36  1  0  0  0  0
 14 37  1  0  0  0  0
 15 16  2  0  0  0  0
 17 18  1  0  0  0  0
 17 38  1  0  0  0  0
 17 39  1  0  0  0  0
 18 19  1  0  0  0  0
 18 40  1  0  0  0  0
 18 41  1  0  0  0  0
 19 20  1  0  0  0  0
 20 21  1  0  0  0  0
 20 42  1  0  0  0  0
 20 43  1  0  0  0  0
 21 44  1  0  0  0  0
 21 45  1  0  0  0  0
M  END
> <s_m_source_file>
AV-unprocessed.smi

> <i_m_source_file_index>
2484

> <i_lp_mmshare_version>
43012

> <i_f3d_flags>
0

> <s_epik_input>
W0NIMl0xW0NIMl1PW0NIMl1bQ0gyXUMxKFtDSDNdKVtOSF1DKD1PKVtOSF1jMltjSF1bY0hdYyhubjIpQyhbQ0gzXSkoW0NIM10pW0NIM10=

> <s_epik_cmdline>
J2VwaWtfcHl0aG9uJywgJy1waCcsICc3LjAnLCAnLXRuJywgJzgnLCAnLW1hJywgJzIwMCcsICctbWV0YWxfYmluZGluZycsICctaW1hZScsICc8aW5maWxlLm1hZT4nLCAnLW9tYWUnLCAnPG91dGZpbGUubWFlPic=

> <r_lp_tautomer_probability>
1

> <r_epik_Ionization_Penalty>
0.0115026

> <r_epik_Ionization_Penalty_Charging>
0

> <r_epik_Ionization_Penalty_Neutral>
0.0115026

> <r_epik_State_Penalty>
0.00473796

> <r_epik_Charging_Adjusted_Penalty>
0.00473796

> <i_epik_Tot_Q>
0

> <i_epik_Tot_abs_Q>
0

> <r_epik_Metal_State_Penalty>
-0

> <b_epik_Metal_Only>
0

> <s_lp_Force_Field>
OPLS_2005

> <r_lp_Energy>
18.8992

> <b_lp_Chiralities_Consistent>
1

> <s_lp_Variant>
AV-unprocessed.smi:2484-1

> <Gold.Version>
5.8.1

> <Gold.Id.Protein>
6NUR|6NUR_protein|mol2

> <Gold.PLP.Fitness>
39.0967

> <Gold.PLP.PLP>
-31.9312

> <Gold.PLP.part.hbond>
-3.0386

> <Gold.PLP.part.metal>
0.0000

> <Gold.PLP.part.buried>
-3.2333

> <Gold.PLP.part.nonpolar>
-25.8482

> <Gold.PLP.part.repulsive>
0.3694

> <Gold.PLP.ligand.clash>
0.0000

> <Gold.PLP.ligand.torsion>
0.7433

> <Gold.PLP.Chemscore.Hbond>
2.8800

> <Gold.PLP.Chemscore.CHOScore>
0.0000

> <Gold.PLP.Chemscore.Metal>
0.0000

> <Gold.Chemscore.Hbonds>
donor molecule, donor type, donor heavy atom, donor atom, acceptor molecule, acceptor atom, score
      L1  H     3    25       P1  7948  0.96
      L1  H     6    26       P1  7948  0.83
      P1  H  7989  7998       L1    19  1.00

> <Gold.PLP.Chemscore.Internal.Correction>
0.0121

> <Gold.Rescore>
     Score         DG    S(hbond)    S(metal)    S(lipo)     H(rot)  DE(clash)    DE(int)     intcor
     14.61     -18.22       2.51        0.00      63.08       1.18       0.00       3.61       ----

> <Gold.Chemscore.Fitness>
14.6120

> <Gold.Chemscore.DG>
-18.2244

> <Gold.Chemscore.ZeroCoef>
-5.4800

> <Gold.Chemscore.Hbond>
2.5069

> <Gold.Chemscore.Metal>
0.0000

> <Gold.Chemscore.Lipo>
63.0797

> <Gold.Chemscore.Internal_Hbond>
0.0000

> <Gold.Chemscore.DEClash>
0.0000

> <Gold.Chemscore.DEInternal>
3.6124

> <Gold.Chemscore.Rot>
1.1753

> <Gold.Chemscore.Internal.Correction>
   9.000000E+99

> <Gold.Chemscore.Hbonds>
donor molecule, donor type, donor heavy atom, donor atom, acceptor molecule, acceptor atom, score
      L1  H     3    25       P1  7948  0.90
      L1  H     6    26       P1  7948  0.36
      P1  H  7989  7998       L1    19  0.68

> <Gold.Chemscore.Hbond.Weighted>
-8.3730

> <Gold.Chemscore.Metal.Weighted>
-0.0000

> <Gold.Chemscore.Lipo.Weighted>
-7.3803

> <Gold.Chemscore.Internal_Hbond.Weighted>
0.0000

> <Gold.Chemscore.DEClash.Weighted>
0.0000

> <Gold.Chemscore.DEInternal.Weighted>
3.6124

> <Gold.Chemscore.Rot.Weighted>
3.0089

> <Gold.Chemscore.Internal.Correction.Weighted>
   9.000000E+99

> <Gold.Protein.RotatedTorsions>
[ 6907 6896 6895 6894 ] final  -88.97 input  -60.11 | X-H torsion
[ 7974 7965 7964 7962 ] final -177.77 input  175.53 | X-H torsion
[ 8008 7997 7996 7995 ] final  -19.47 input   59.86 | X-H torsion
[ 10167 10162 10161 10158 ] final -130.54 input  -65.29 | X-H torsion
[ 10718 10713 10712 10709 ] final -155.55 input   66.30 | X-H torsion
[ 10763 10752 10751 10750 ] final  106.19 input  -60.55 | X-H torsion
[ 11005 11000 10999 10996 ] final   49.00 input  -57.11 | X-H torsion

> <Gold.Protein.ActiveResidues>
 VAL166  LYS551  ARG553  GLY616  TRP617  ASP618  TYR619  PRO620  LYS621  CYS622 
 ASP623  PHE694  ASN695  SER759  ASP760  ASP761  ALA762  ILE779  LEU786  VAL792 
 PHE793  MET794  SER795  GLU796  ALA797  LYS798  CYS799  TRP800  GLU811  SER814 

> <Gold.Protein.RotatedAtoms>
  150.6871  134.2659  159.4567 H   0  0  0  0  0  0  0  0  0  0  0  0  # atno 6907 bound_to 6896
  152.0585  134.9607  160.0584 H   0  0  0  0  0  0  0  0  0  0  0  0  # atno 6908 bound_to 6896
  152.1043  133.4231  159.4638 H   0  0  0  0  0  0  0  0  0  0  0  0  # atno 6909 bound_to 6896
  144.7128  140.0969  143.6418 H   0  0  0  0  0  0  0  0  0  0  0  0  # atno 7974 bound_to 7965
  154.4835  140.2088  155.9709 H   0  0  0  0  0  0  0  0  0  0  0  0  # atno 8008 bound_to 7997
  156.1200  140.3215  155.8164 H   0  0  0  0  0  0  0  0  0  0  0  0  # atno 8009 bound_to 7997
  155.4484  140.0515  157.2994 H   0  0  0  0  0  0  0  0  0  0  0  0  # atno 8010 bound_to 7997
  139.9283  143.6302  152.2536 H   0  0  0  0  0  0  0  0  0  0  0  0  # atno 10167 bound_to 10162
  156.5144  130.8449  151.2659 H   0  0  0  0  0  0  0  0  0  0  0  0  # atno 10718 bound_to 10713
  153.3896  135.3885  155.1913 H   0  0  0  0  0  0  0  0  0  0  0  0  # atno 10763 bound_to 10752
  154.8717  135.3745  154.4755 H   0  0  0  0  0  0  0  0  0  0  0  0  # atno 10764 bound_to 10752
  153.5240  135.7086  153.5778 H   0  0  0  0  0  0  0  0  0  0  0  0  # atno 10765 bound_to 10752
  140.1141  134.4915  155.8652 H   0  0  0  0  0  0  0  0  0  0  0  0  # atno 11005 bound_to 11000
  145.9571  139.2774  143.1177 LP  0  0  0  0  0  0  0  0  0  0  0  0  # atno 17320 bound_to 7965
  145.9260  140.9082  143.0380 LP  0  0  0  0  0  0  0  0  0  0  0  0  # atno 17321 bound_to 7965
  139.6804  144.7656  151.1619 LP  0  0  0  0  0  0  0  0  0  0  0  0  # atno 17342 bound_to 10162
  140.7644  143.5733  150.8972 LP  0  0  0  0  0  0  0  0  0  0  0  0  # atno 17343 bound_to 10162
  157.7446  130.9938  150.2687 LP  0  0  0  0  0  0  0  0  0  0  0  0  # atno 17370 bound_to 10713
  156.3209  130.3786  149.7576 LP  0  0  0  0  0  0  0  0  0  0  0  0  # atno 17371 bound_to 10713
  141.2137  133.6737  156.6762 LP  0  0  0  0  0  0  0  0  0  0  0  0  # atno 17394 bound_to 11000
  140.3051  134.8131  157.4130 LP  0  0  0  0  0  0  0  0  0  0  0  0  # atno 17395 bound_to 11000

$$$$
