AV-unprocessed.smi:2749|AV-procd|sdf|10588|dock9
  -GOLD-   2272015 43D 1   1.00000     0.00000
 Structure written by MMmdl.
 32 34  0  0  0  0  0  0  0  0  1 V2000
  150.8361  140.8203  155.9608 O   0  0  0  0  0  0  0  0  0  0  0  0
  150.1920  141.8678  155.9830 C   0  0  0  0  0  0  0  0  0  0  0  0
  149.0542  141.9965  155.2665 N   0  0  0  0  0  0  0  0  0  0  0  0
  148.3710  141.0917  154.4008 C   0  0  0  0  0  0  0  0  0  0  0  0
  148.7305  139.7350  154.5727 C   0  0  0  0  0  0  0  0  0  0  0  0
  148.1262  138.7468  153.7713 C   0  0  0  0  0  0  0  0  0  0  0  0
  147.1755  139.1417  152.8139 C   0  0  0  0  0  0  0  0  0  0  0  0
  146.5678  138.2285  152.0201 F   0  0  0  0  0  0  0  0  0  0  0  0
  146.8732  140.5108  152.7019 C   0  0  0  0  0  0  0  0  0  0  0  0
  147.4522  141.4579  153.4704 N   0  0  0  0  0  0  0  0  0  0  0  0
  150.5617  142.9358  156.7079 N   0  0  0  0  0  0  0  0  0  0  0  0
  151.7463  143.0364  157.5552 C   0  0  1  0  0  0  0  0  0  0  0  0
  151.8897  144.4321  158.1710 C   0  0  0  0  0  0  0  0  0  0  0  0
  151.8595  144.1186  159.6731 C   0  0  2  0  0  0  0  0  0  0  0  0
  153.1288  143.3894  160.1378 C   0  0  0  0  0  0  0  0  0  0  0  0
  152.9255  141.9947  159.5451 C   0  0  0  0  0  0  0  0  0  0  0  0
  151.5889  142.1617  158.8106 C   0  0  1  0  0  0  0  0  0  0  0  0
  150.9258  143.0542  159.6913 O   0  0  0  0  0  0  0  0  0  0  0  0
  148.5957  142.8892  155.3765 H   0  0  0  0  0  0  0  0  0  0  0  0
  149.4638  139.4483  155.3127 H   0  0  0  0  0  0  0  0  0  0  0  0
  148.3885  137.7059  153.8896 H   0  0  0  0  0  0  0  0  0  0  0  0
  146.1497  140.8560  151.9780 H   0  0  0  0  0  0  0  0  0  0  0  0
  149.9691  143.7533  156.6655 H   0  0  0  0  0  0  0  0  0  0  0  0
  152.6482  142.7543  157.0092 H   0  0  0  0  0  0  0  0  0  0  0  0
  152.8107  144.9324  157.8702 H   0  0  0  0  0  0  0  0  0  0  0  0
  151.0527  145.0784  157.9022 H   0  0  0  0  0  0  0  0  0  0  0  0
  151.5838  144.9692  160.2971 H   0  0  0  0  0  0  0  0  0  0  0  0
  154.0385  143.8735  159.7811 H   0  0  0  0  0  0  0  0  0  0  0  0
  153.1723  143.3390  161.2263 H   0  0  0  0  0  0  0  0  0  0  0  0
  153.7350  141.6925  158.8797 H   0  0  0  0  0  0  0  0  0  0  0  0
  152.8403  141.2515  160.3387 H   0  0  0  0  0  0  0  0  0  0  0  0
  151.0639  141.2207  158.6414 H   0  0  0  0  0  0  0  0  0  0  0  0
  1  2  2  0  0  0  0
  2  3  1  0  0  0  0
  2 11  1  0  0  0  0
  3  4  1  0  0  0  0
  3 19  1  0  0  0  0
  4 10  1  0  0  0  0
  4  5  2  0  0  0  0
  5  6  1  0  0  0  0
  5 20  1  0  0  0  0
  6  7  2  0  0  0  0
  6 21  1  0  0  0  0
  7  8  1  0  0  0  0
  7  9  1  0  0  0  0
  9 10  2  0  0  0  0
  9 22  1  0  0  0  0
 11 12  1  0  0  0  0
 11 23  1  0  0  0  0
 12 17  1  0  0  0  0
 12 13  1  0  0  0  0
 12 24  1  0  0  0  0
 13 14  1  0  0  0  0
 13 25  1  0  0  0  0
 13 26  1  0  0  0  0
 14 18  1  0  0  0  0
 14 15  1  0  0  0  0
 14 27  1  0  0  0  0
 15 16  1  0  0  0  0
 15 28  1  0  0  0  0
 15 29  1  0  0  0  0
 16 17  1  0  0  0  0
 16 30  1  0  0  0  0
 16 31  1  0  0  0  0
 17 18  1  0  0  0  0
 17 32  1  0  0  0  0
M  END
> <s_m_source_file>
AV-unprocessed.smi

> <i_m_source_file_index>
2749

> <i_lp_mmshare_version>
43012

> <i_f3d_flags>
0

> <s_epik_input>
W0NIMl0xW0NIMl1bQ0BIXShPMilbQ0BASF0oW0NIMl1bQ0BASF0xMilbTkhdQyg9TylbTkhdYzNbY0hdW2NIXWMoRilbY0hdbjM=

> <s_epik_cmdline>
J2VwaWtfcHl0aG9uJywgJy1waCcsICc3LjAnLCAnLXRuJywgJzgnLCAnLW1hJywgJzIwMCcsICctbWV0YWxfYmluZGluZycsICctaW1hZScsICc8aW5maWxlLm1hZT4nLCAnLW9tYWUnLCAnPG91dGZpbGUubWFlPic=

> <r_lp_tautomer_probability>
1

> <r_epik_Ionization_Penalty>
3.37159e-05

> <r_epik_Ionization_Penalty_Charging>
0

> <r_epik_Ionization_Penalty_Neutral>
3.37159e-05

> <r_epik_State_Penalty>
-0

> <r_epik_Charging_Adjusted_Penalty>
0

> <i_epik_Tot_Q>
0

> <i_epik_Tot_abs_Q>
0

> <r_epik_Metal_State_Penalty>
-0

> <b_epik_Metal_Only>
0

> <s_lp_Force_Field>
OPLS_2005

> <r_lp_Energy>
42.1361

> <b_lp_Chiralities_Consistent>
1

> <s_lp_Variant>
AV-unprocessed.smi:2749-4

> <Gold.Version>
5.8.1

> <Gold.Id.Protein>
6NUR|6NUR_protein|mol2

> <Gold.PLP.Fitness>
43.8418

> <Gold.PLP.PLP>
-37.3299

> <Gold.PLP.part.hbond>
-2.9228

> <Gold.PLP.part.metal>
0.0000

> <Gold.PLP.part.buried>
-1.3884

> <Gold.PLP.part.nonpolar>
-33.5643

> <Gold.PLP.part.repulsive>
0.4427

> <Gold.PLP.ligand.clash>
0.1595

> <Gold.PLP.ligand.torsion>
0.1375

> <Gold.PLP.Chemscore.Hbond>
1.8560

> <Gold.PLP.Chemscore.CHOScore>
0.4495

> <Gold.PLP.Chemscore.Metal>
0.0000

> <Gold.Chemscore.Hbonds>
donor molecule, donor type, donor heavy atom, donor atom, acceptor molecule, acceptor atom, score
      L1  H     3    19       P1  8028  0.90
      L1  H    11    23       P1  8028  0.93
      L1  C     9    22       P1 10175  0.45

> <Gold.PLP.Chemscore.Internal.Correction>
0.0299

> <Gold.Rescore>
     Score         DG    S(hbond)    S(metal)    S(lipo)     H(rot)  DE(clash)    DE(int)     intcor
     17.98     -19.71       1.77        0.00      93.02       1.00       0.16       1.56       ----

> <Gold.Chemscore.Fitness>
17.9832

> <Gold.Chemscore.DG>
-19.7082

> <Gold.Chemscore.ZeroCoef>
-5.4800

> <Gold.Chemscore.Hbond>
1.7680

> <Gold.Chemscore.Metal>
0.0000

> <Gold.Chemscore.Lipo>
93.0194

> <Gold.Chemscore.Internal_Hbond>
0.0000

> <Gold.Chemscore.DEClash>
0.1649

> <Gold.Chemscore.DEInternal>
1.5601

> <Gold.Chemscore.Rot>
1.0000

> <Gold.Chemscore.Internal.Correction>
   9.000000E+99

> <Gold.Chemscore.Hbonds>
donor molecule, donor type, donor heavy atom, donor atom, acceptor molecule, acceptor atom, score
      L1  H     3    19       P1  8028  0.88
      L1  H    11    23       P1  8028  0.91

> <Gold.Chemscore.Hbond.Weighted>
-5.9050

> <Gold.Chemscore.Metal.Weighted>
-0.0000

> <Gold.Chemscore.Lipo.Weighted>
-10.8833

> <Gold.Chemscore.Internal_Hbond.Weighted>
0.0000

> <Gold.Chemscore.DEClash.Weighted>
0.1649

> <Gold.Chemscore.DEInternal.Weighted>
1.5601

> <Gold.Chemscore.Rot.Weighted>
2.5600

> <Gold.Chemscore.Internal.Correction.Weighted>
   9.000000E+99

> <Gold.Protein.RotatedTorsions>
[ 6907 6896 6895 6894 ] final  119.20 input  -60.11 | X-H torsion
[ 7974 7965 7964 7962 ] final   74.79 input  175.53 | X-H torsion
[ 8008 7997 7996 7995 ] final  -47.19 input   59.86 | X-H torsion
[ 10167 10162 10161 10158 ] final  -76.52 input  -65.29 | X-H torsion
[ 10718 10713 10712 10709 ] final   15.36 input   66.30 | X-H torsion
[ 10763 10752 10751 10750 ] final  -70.11 input  -60.55 | X-H torsion
[ 11005 11000 10999 10996 ] final  -64.92 input  -57.11 | X-H torsion

> <Gold.Protein.ActiveResidues>
 VAL166  LYS551  ARG553  GLY616  TRP617  ASP618  TYR619  PRO620  LYS621  CYS622 
 ASP623  PHE694  ASN695  SER759  ASP760  ASP761  ALA762  ILE779  LEU786  VAL792 
 PHE793  MET794  SER795  GLU796  ALA797  LYS798  CYS799  TRP800  GLU811  SER814 

> <Gold.Protein.RotatedAtoms>
  152.4489  133.7590  159.6735 H   0  0  0  0  0  0  0  0  0  0  0  0  # atno 6907 bound_to 6896
  150.8396  133.7947  159.3072 H   0  0  0  0  0  0  0  0  0  0  0  0  # atno 6908 bound_to 6896
  151.5576  135.1069  160.0017 H   0  0  0  0  0  0  0  0  0  0  0  0  # atno 6909 bound_to 6896
  145.7239  139.2658  143.1580 H   0  0  0  0  0  0  0  0  0  0  0  0  # atno 7974 bound_to 7965
  154.4014  140.1352  156.4135 H   0  0  0  0  0  0  0  0  0  0  0  0  # atno 8008 bound_to 7997
  155.7711  140.3484  155.5227 H   0  0  0  0  0  0  0  0  0  0  0  0  # atno 8009 bound_to 7997
  155.8766  140.0980  157.1504 H   0  0  0  0  0  0  0  0  0  0  0  0  # atno 8010 bound_to 7997
  140.4850  143.2393  151.7998 H   0  0  0  0  0  0  0  0  0  0  0  0  # atno 10167 bound_to 10162
  157.0524  130.6275  149.5770 H   0  0  0  0  0  0  0  0  0  0  0  0  # atno 10718 bound_to 10713
  154.4130  135.6004  153.5964 H   0  0  0  0  0  0  0  0  0  0  0  0  # atno 10763 bound_to 10752
  152.9791  135.5934  154.4047 H   0  0  0  0  0  0  0  0  0  0  0  0  # atno 10764 bound_to 10752
  154.3862  135.2841  155.2160 H   0  0  0  0  0  0  0  0  0  0  0  0  # atno 10765 bound_to 10752
  141.1439  133.6673  156.5906 H   0  0  0  0  0  0  0  0  0  0  0  0  # atno 11005 bound_to 11000
  146.0600  140.7980  142.9739 LP  0  0  0  0  0  0  0  0  0  0  0  0  # atno 17320 bound_to 7965
  144.6910  140.3183  143.7236 LP  0  0  0  0  0  0  0  0  0  0  0  0  # atno 17321 bound_to 7965
  139.4840  144.4724  151.9409 LP  0  0  0  0  0  0  0  0  0  0  0  0  # atno 17342 bound_to 10162
  140.3809  144.2737  150.5909 LP  0  0  0  0  0  0  0  0  0  0  0  0  # atno 17343 bound_to 10162
  156.0003  130.5081  150.7640 LP  0  0  0  0  0  0  0  0  0  0  0  0  # atno 17370 bound_to 10713
  157.5020  131.0919  151.0303 LP  0  0  0  0  0  0  0  0  0  0  0  0  # atno 17371 bound_to 10713
  140.3766  134.7560  157.4633 LP  0  0  0  0  0  0  0  0  0  0  0  0  # atno 17394 bound_to 11000
  140.0670  134.5916  155.8684 LP  0  0  0  0  0  0  0  0  0  0  0  0  # atno 17395 bound_to 11000

$$$$
