AV-unprocessed.smi:2034|AV-procd|sdf|8267|dock3
  -GOLD-   2272010543D 1   1.00000     0.00000
 Structure written by MMmdl.
 50 52  0  0  0  0  0  0  0  0  1 V2000
  152.5044  144.9993  158.5058 C   0  0  0  0  0  0  0  0  0  0  0  0
  151.5293  144.1196  159.3082 C   0  0  1  0  0  0  0  0  0  0  0  0
  150.7156  143.1497  158.4296 C   0  0  0  0  0  0  0  0  0  0  0  0
  151.5295  142.0139  158.0001 N   0  0  0  0  0  0  0  0  0  0  0  0
  151.0125  141.2359  156.9400 C   0  0  0  0  0  0  0  0  0  0  0  0
  151.7987  140.2765  156.2535 C   0  0  0  0  0  0  0  0  0  0  0  0
  151.2242  139.5406  155.1995 C   0  0  0  0  0  0  0  0  0  0  0  0
  149.8730  139.7740  154.8560 C   0  0  0  0  0  0  0  0  0  0  0  0
  149.1922  139.1136  153.7981 N   0  0  0  0  0  0  0  0  0  0  0  0
  147.8889  139.1795  153.4770 C   0  0  0  0  0  0  0  0  0  0  0  0
  147.0573  139.9007  154.0281 O   0  0  0  0  0  0  0  0  0  0  0  0
  147.6014  138.3662  152.4510 N   0  0  0  0  0  0  0  0  0  0  0  0
  146.2765  138.1883  151.8675 C   0  0  0  0  0  0  0  0  0  0  0  0
  145.7353  136.7705  152.1168 C   0  0  2  0  0  0  0  0  0  0  0  0
  145.5942  135.9374  150.8430 C   0  0  0  0  0  0  0  0  0  0  0  0
  144.5131  134.9563  151.2344 C   0  0  0  0  0  0  0  0  0  0  0  0
  143.5841  135.8414  152.0577 C   0  0  0  0  0  0  0  0  0  0  0  0
  144.4242  136.8100  152.6789 O   0  0  0  0  0  0  0  0  0  0  0  0
  149.1762  140.7574  155.5843 C   0  0  0  0  0  0  0  0  0  0  0  0
  149.7219  141.4632  156.5964 N   0  0  0  0  0  0  0  0  0  0  0  0
  152.2219  141.3397  159.0931 C   0  0  0  0  0  0  0  0  0  0  0  0
  153.0336  142.3492  159.9240 C   0  0  2  0  0  0  0  0  0  0  0  0
  153.6559  141.6975  161.1631 C   0  0  0  0  0  0  0  0  0  0  0  0
  152.1822  143.4070  160.3608 O   0  0  0  0  0  0  0  0  0  0  0  0
  151.9624  145.6334  157.8041 H   0  0  0  0  0  0  0  0  0  0  0  0
  153.2123  144.4094  157.9246 H   0  0  0  0  0  0  0  0  0  0  0  0
  153.0735  145.6523  159.1675 H   0  0  0  0  0  0  0  0  0  0  0  0
  150.8248  144.7959  159.7931 H   0  0  0  0  0  0  0  0  0  0  0  0
  149.8695  142.7629  158.9987 H   0  0  0  0  0  0  0  0  0  0  0  0
  150.2991  143.6977  157.5847 H   0  0  0  0  0  0  0  0  0  0  0  0
  152.8281  140.0837  156.5141 H   0  0  0  0  0  0  0  0  0  0  0  0
  151.8344  138.8256  154.6698 H   0  0  0  0  0  0  0  0  0  0  0  0
  149.7732  138.5540  153.1913 H   0  0  0  0  0  0  0  0  0  0  0  0
  148.3495  137.8155  152.0557 H   0  0  0  0  0  0  0  0  0  0  0  0
  145.5804  138.9398  152.2443 H   0  0  0  0  0  0  0  0  0  0  0  0
  146.3648  138.3608  150.7946 H   0  0  0  0  0  0  0  0  0  0  0  0
  146.3816  136.2377  152.8166 H   0  0  0  0  0  0  0  0  0  0  0  0
  145.2499  136.5565  150.0129 H   0  0  0  0  0  0  0  0  0  0  0  0
  146.5252  135.4539  150.5460 H   0  0  0  0  0  0  0  0  0  0  0  0
  144.0178  134.4950  150.3796 H   0  0  0  0  0  0  0  0  0  0  0  0
  144.9314  134.1649  151.8579 H   0  0  0  0  0  0  0  0  0  0  0  0
  142.8799  136.3621  151.4078 H   0  0  0  0  0  0  0  0  0  0  0  0
  143.0126  135.2766  152.7944 H   0  0  0  0  0  0  0  0  0  0  0  0
  148.1458  140.9847  155.3527 H   0  0  0  0  0  0  0  0  0  0  0  0
  151.4888  140.8321  159.7216 H   0  0  0  0  0  0  0  0  0  0  0  0
  152.9019  140.5829  158.7008 H   0  0  0  0  0  0  0  0  0  0  0  0
  153.8426  142.7554  159.3168 H   0  0  0  0  0  0  0  0  0  0  0  0
  154.3280  140.8860  160.8835 H   0  0  0  0  0  0  0  0  0  0  0  0
  152.8891  141.2862  161.8203 H   0  0  0  0  0  0  0  0  0  0  0  0
  154.2325  142.4230  161.7373 H   0  0  0  0  0  0  0  0  0  0  0  0
  1  2  1  0  0  0  0
  1 25  1  0  0  0  0
  1 26  1  0  0  0  0
  1 27  1  0  0  0  0
  2 24  1  0  0  0  0
  2  3  1  0  0  0  0
  2 28  1  0  0  0  0
  3  4  1  0  0  0  0
  3 29  1  0  0  0  0
  3 30  1  0  0  0  0
  4  5  1  0  0  0  0
  4 21  1  0  0  0  0
  5 20  1  0  0  0  0
  5  6  2  0  0  0  0
  6  7  1  0  0  0  0
  6 31  1  0  0  0  0
  7  8  2  0  0  0  0
  7 32  1  0  0  0  0
  8  9  1  0  0  0  0
  8 19  1  0  0  0  0
  9 10  1  0  0  0  0
  9 33  1  0  0  0  0
 10 11  2  0  0  0  0
 10 12  1  0  0  0  0
 12 13  1  0  0  0  0
 12 34  1  0  0  0  0
 13 14  1  0  0  0  0
 13 35  1  0  0  0  0
 13 36  1  0  0  0  0
 14 18  1  0  0  0  0
 14 15  1  0  0  0  0
 14 37  1  0  0  0  0
 15 16  1  0  0  0  0
 15 38  1  0  0  0  0
 15 39  1  0  0  0  0
 16 17  1  0  0  0  0
 16 40  1  0  0  0  0
 16 41  1  0  0  0  0
 17 18  1  0  0  0  0
 17 42  1  0  0  0  0
 17 43  1  0  0  0  0
 19 20  2  0  0  0  0
 19 44  1  0  0  0  0
 21 22  1  0  0  0  0
 21 45  1  0  0  0  0
 21 46  1  0  0  0  0
 22 23  1  0  0  0  0
 22 24  1  0  0  0  0
 22 47  1  0  0  0  0
 23 48  1  0  0  0  0
 23 49  1  0  0  0  0
 23 50  1  0  0  0  0
M  END
> <s_m_source_file>
AV-unprocessed.smi

> <i_m_source_file_index>
2034

> <i_lp_mmshare_version>
43012

> <i_f3d_flags>
0

> <s_epik_input>
W0NIM11bQ0BASF0xW0NIMl1OKFtDSDJdW0NASF0oTzEpW0NIM10pYzJbY0hdW2NIXWMoW2NIXW4yKVtOSF1DKD1PKVtOSF1bQ0gyXVtDQEBIXTNbQ0gyXVtDSDJdW0NIMl1PMw==

> <s_epik_cmdline>
J2VwaWtfcHl0aG9uJywgJy1waCcsICc3LjAnLCAnLXRuJywgJzgnLCAnLW1hJywgJzIwMCcsICctbWV0YWxfYmluZGluZycsICctaW1hZScsICc8aW5maWxlLm1hZT4nLCAnLW9tYWUnLCAnPG91dGZpbGUubWFlPic=

> <r_lp_tautomer_probability>
1

> <r_epik_Ionization_Penalty>
0.00268225

> <r_epik_Ionization_Penalty_Charging>
0

> <r_epik_Ionization_Penalty_Neutral>
0.00268225

> <r_epik_State_Penalty>
0.00184408

> <r_epik_Charging_Adjusted_Penalty>
0.00184408

> <i_epik_Tot_Q>
0

> <i_epik_Tot_abs_Q>
0

> <r_epik_Metal_State_Penalty>
-0

> <b_epik_Metal_Only>
0

> <s_lp_Force_Field>
OPLS_2005

> <r_lp_Energy>
36.2022

> <b_lp_Chiralities_Consistent>
1

> <s_lp_Variant>
AV-unprocessed.smi:2034-5

> <Gold.Version>
5.8.1

> <Gold.Id.Protein>
6NUR|6NUR_protein|mol2

> <Gold.PLP.Fitness>
51.0951

> <Gold.PLP.PLP>
-49.8642

> <Gold.PLP.part.hbond>
-3.0000

> <Gold.PLP.part.metal>
0.0000

> <Gold.PLP.part.buried>
-5.2671

> <Gold.PLP.part.nonpolar>
-43.0583

> <Gold.PLP.part.repulsive>
0.6313

> <Gold.PLP.ligand.clash>
0.0000

> <Gold.PLP.ligand.torsion>
0.9768

> <Gold.PLP.Chemscore.Hbond>
0.9120

> <Gold.PLP.Chemscore.CHOScore>
0.0000

> <Gold.PLP.Chemscore.Metal>
0.0000

> <Gold.Chemscore.Hbonds>
donor molecule, donor type, donor heavy atom, donor atom, acceptor molecule, acceptor atom, score
      L1  H    12    34       P1  7948  0.93

> <Gold.PLP.Chemscore.Internal.Correction>
0.4484

> <Gold.Rescore>
     Score         DG    S(hbond)    S(metal)    S(lipo)     H(rot)  DE(clash)    DE(int)     intcor
     17.04     -19.45       0.99        0.00     120.96       1.37       0.07       2.35       ----

> <Gold.Chemscore.Fitness>
17.0352

> <Gold.Chemscore.DG>
-19.4531

> <Gold.Chemscore.ZeroCoef>
-5.4800

> <Gold.Chemscore.Hbond>
0.9937

> <Gold.Chemscore.Metal>
0.0000

> <Gold.Chemscore.Lipo>
120.9555

> <Gold.Chemscore.Internal_Hbond>
0.0000

> <Gold.Chemscore.DEClash>
0.0692

> <Gold.Chemscore.DEInternal>
2.3487

> <Gold.Chemscore.Rot>
1.3663

> <Gold.Chemscore.Internal.Correction>
   9.000000E+99

> <Gold.Chemscore.Hbonds>
donor molecule, donor type, donor heavy atom, donor atom, acceptor molecule, acceptor atom, score
      L1  H    12    34       P1  7948  0.89

> <Gold.Chemscore.Hbond.Weighted>
-3.3190

> <Gold.Chemscore.Metal.Weighted>
-0.0000

> <Gold.Chemscore.Lipo.Weighted>
-14.1518

> <Gold.Chemscore.Internal_Hbond.Weighted>
0.0000

> <Gold.Chemscore.DEClash.Weighted>
0.0692

> <Gold.Chemscore.DEInternal.Weighted>
2.3487

> <Gold.Chemscore.Rot.Weighted>
3.4977

> <Gold.Chemscore.Internal.Correction.Weighted>
   9.000000E+99

> <Gold.Protein.RotatedTorsions>
[ 6907 6896 6895 6894 ] final -102.08 input  -60.11 | X-H torsion
[ 7974 7965 7964 7962 ] final   -7.94 input  175.53 | X-H torsion
[ 8008 7997 7996 7995 ] final -110.94 input   59.86 | X-H torsion
[ 10167 10162 10161 10158 ] final  130.79 input  -65.29 | X-H torsion
[ 10718 10713 10712 10709 ] final   91.83 input   66.30 | X-H torsion
[ 10763 10752 10751 10750 ] final  -72.90 input  -60.55 | X-H torsion
[ 11005 11000 10999 10996 ] final -162.68 input  -57.11 | X-H torsion

> <Gold.Protein.ActiveResidues>
 VAL166  LYS551  ARG553  GLY616  TRP617  ASP618  TYR619  PRO620  LYS621  CYS622 
 ASP623  PHE694  ASN695  SER759  ASP760  ASP761  ALA762  ILE779  LEU786  VAL792 
 PHE793  MET794  SER795  GLU796  ALA797  LYS798  CYS799  TRP800  GLU811  SER814 

> <Gold.Protein.RotatedAtoms>
  150.7181  134.0636  159.3839 H   0  0  0  0  0  0  0  0  0  0  0  0  # atno 6907 bound_to 6896
  151.8616  135.0520  160.0479 H   0  0  0  0  0  0  0  0  0  0  0  0  # atno 6908 bound_to 6896
  152.2713  133.5349  159.5477 H   0  0  0  0  0  0  0  0  0  0  0  0  # atno 6909 bound_to 6896
  146.2294  140.2394  142.8343 H   0  0  0  0  0  0  0  0  0  0  0  0  # atno 7974 bound_to 7965
  154.9821  140.0396  157.2282 H   0  0  0  0  0  0  0  0  0  0  0  0  # atno 8008 bound_to 7997
  154.7704  140.2801  155.6120 H   0  0  0  0  0  0  0  0  0  0  0  0  # atno 8009 bound_to 7997
  156.2920  140.2611  156.2505 H   0  0  0  0  0  0  0  0  0  0  0  0  # atno 8010 bound_to 7997
  139.5414  144.6733  151.4614 H   0  0  0  0  0  0  0  0  0  0  0  0  # atno 10167 bound_to 10162
  157.6960  131.0421  150.3790 H   0  0  0  0  0  0  0  0  0  0  0  0  # atno 10718 bound_to 10713
  154.4520  135.5915  153.6198 H   0  0  0  0  0  0  0  0  0  0  0  0  # atno 10763 bound_to 10752
  152.9814  135.6023  154.3592 H   0  0  0  0  0  0  0  0  0  0  0  0  # atno 10764 bound_to 10752
  154.3455  135.2841  155.2379 H   0  0  0  0  0  0  0  0  0  0  0  0  # atno 10765 bound_to 10752
  140.6065  134.4893  157.5211 H   0  0  0  0  0  0  0  0  0  0  0  0  # atno 11005 bound_to 11000
  144.9496  140.8164  143.5580 LP  0  0  0  0  0  0  0  0  0  0  0  0  # atno 17320 bound_to 7965
  145.2353  139.2096  143.5021 LP  0  0  0  0  0  0  0  0  0  0  0  0  # atno 17321 bound_to 7965
  140.6645  143.8428  150.6925 LP  0  0  0  0  0  0  0  0  0  0  0  0  # atno 17342 bound_to 10162
  140.1833  143.4097  152.1917 LP  0  0  0  0  0  0  0  0  0  0  0  0  # atno 17343 bound_to 10162
  156.4206  130.3952  149.6828 LP  0  0  0  0  0  0  0  0  0  0  0  0  # atno 17370 bound_to 10713
  156.4080  130.7708  151.2719 LP  0  0  0  0  0  0  0  0  0  0  0  0  # atno 17371 bound_to 10713
  139.9210  134.8149  156.1212 LP  0  0  0  0  0  0  0  0  0  0  0  0  # atno 17394 bound_to 11000
  141.0837  133.6743  156.2390 LP  0  0  0  0  0  0  0  0  0  0  0  0  # atno 17395 bound_to 11000

$$$$
