AV-unprocessed.smi:1915|AV-procd|sdf|7763|dock10
  -GOLD-   22720 9503D 1   1.00000     0.00000
 Structure written by MMmdl.
 45 46  0  0  0  0  0  0  0  0  2 V2000
  151.3365  143.0098  157.4517 C   0  0  0  0  0  0  0  0  0  0  0  0
  150.9571  141.8696  156.4911 C   0  0  0  0  0  0  0  0  0  0  0  0
  149.4324  141.8015  156.3180 C   0  0  0  0  0  0  0  0  0  0  0  0
  151.5132  140.4937  156.9222 C   0  0  0  0  0  0  0  0  0  0  0  0
  151.3667  139.4657  155.8915 N   0  0  0  0  0  0  0  0  0  0  0  0
  150.0522  138.9436  155.5531 C   0  0  0  0  0  0  0  0  0  0  0  0
  150.3076  137.7127  154.6562 C   0  0  2  0  0  0  0  0  0  0  0  0
  149.9601  136.3896  155.3555 C   0  0  0  0  0  0  0  0  0  0  0  0
  150.3083  136.1943  156.5207 O   0  0  0  0  0  0  0  0  0  0  0  0
  149.2908  135.4827  154.6261 N   0  0  0  0  0  0  0  0  0  0  0  0
  148.8709  134.1626  155.0916 C   0  0  0  0  0  0  0  0  0  0  0  0
  148.8141  133.1124  153.9631 C   0  0  0  0  0  0  0  0  0  0  0  0
  147.5311  133.1471  153.1502 C   0  0  0  0  0  0  0  0  0  0  0  0
  146.7036  132.0118  153.0138 C   0  0  0  0  0  0  0  0  0  0  0  0
  145.5452  132.0950  152.2136 C   0  0  0  0  0  0  0  0  0  0  0  0
  145.2379  133.3105  151.5680 C   0  0  0  0  0  0  0  0  0  0  0  0
  146.0980  134.4139  151.7395 C   0  0  0  0  0  0  0  0  0  0  0  0
  147.1991  134.2942  152.5132 N   0  3  0  0  0  0  0  0  0  0  0  0
  151.8064  137.7784  154.3042 C   0  0  0  0  0  0  0  0  0  0  0  0
  152.3538  138.8530  155.2276 C   0  0  0  0  0  0  0  0  0  0  0  0
  153.5568  139.0862  155.3340 O   0  0  0  0  0  0  0  0  0  0  0  0
  150.9984  142.8008  158.4671 H   0  0  0  0  0  0  0  0  0  0  0  0
  150.8857  143.9520  157.1393 H   0  0  0  0  0  0  0  0  0  0  0  0
  152.4141  143.1679  157.4825 H   0  0  0  0  0  0  0  0  0  0  0  0
  151.3801  142.1097  155.5147 H   0  0  0  0  0  0  0  0  0  0  0  0
  148.9362  141.5675  157.2606 H   0  0  0  0  0  0  0  0  0  0  0  0
  149.1517  141.0348  155.5951 H   0  0  0  0  0  0  0  0  0  0  0  0
  149.0337  142.7505  155.9586 H   0  0  0  0  0  0  0  0  0  0  0  0
  152.5634  140.5881  157.2042 H   0  0  0  0  0  0  0  0  0  0  0  0
  150.9963  140.1552  157.8210 H   0  0  0  0  0  0  0  0  0  0  0  0
  149.4859  138.7041  156.4550 H   0  0  0  0  0  0  0  0  0  0  0  0
  149.4928  139.7064  155.0100 H   0  0  0  0  0  0  0  0  0  0  0  0
  149.7119  137.8001  153.7460 H   0  0  0  0  0  0  0  0  0  0  0  0
  149.0422  135.7301  153.6789 H   0  0  0  0  0  0  0  0  0  0  0  0
  149.5238  133.8155  155.8943 H   0  0  0  0  0  0  0  0  0  0  0  0
  147.8805  134.2673  155.5351 H   0  0  0  0  0  0  0  0  0  0  0  0
  149.6563  133.2618  153.2866 H   0  0  0  0  0  0  0  0  0  0  0  0
  148.9412  132.1140  154.3841 H   0  0  0  0  0  0  0  0  0  0  0  0
  146.9585  131.0847  153.5064 H   0  0  0  0  0  0  0  0  0  0  0  0
  144.9027  131.2351  152.0933 H   0  0  0  0  0  0  0  0  0  0  0  0
  144.3569  133.3938  150.9482 H   0  0  0  0  0  0  0  0  0  0  0  0
  145.9430  135.3794  151.2804 H   0  0  0  0  0  0  0  0  0  0  0  0
  152.3367  136.8376  154.4588 H   0  0  0  0  0  0  0  0  0  0  0  0
  151.9541  138.0821  153.2673 H   0  0  0  0  0  0  0  0  0  0  0  0
  147.8119  135.1032  152.6160 H   0  0  0  0  0  0  0  0  0  0  0  0
  1  2  1  0  0  0  0
  1 22  1  0  0  0  0
  1 23  1  0  0  0  0
  1 24  1  0  0  0  0
  2  3  1  0  0  0  0
  2  4  1  0  0  0  0
  2 25  1  0  0  0  0
  3 26  1  0  0  0  0
  3 27  1  0  0  0  0
  3 28  1  0  0  0  0
  4  5  1  0  0  0  0
  4 29  1  0  0  0  0
  4 30  1  0  0  0  0
  5 20  1  0  0  0  0
  5  6  1  0  0  0  0
  6  7  1  0  0  0  0
  6 31  1  0  0  0  0
  6 32  1  0  0  0  0
  7  8  1  0  0  0  0
  7 19  1  0  0  0  0
  7 33  1  0  0  0  0
  8  9  2  0  0  0  0
  8 10  1  0  0  0  0
 10 11  1  0  0  0  0
 10 34  1  0  0  0  0
 11 12  1  0  0  0  0
 11 35  1  0  0  0  0
 11 36  1  0  0  0  0
 12 13  1  0  0  0  0
 12 37  1  0  0  0  0
 12 38  1  0  0  0  0
 13 18  1  0  0  0  0
 13 14  2  0  0  0  0
 14 15  1  0  0  0  0
 14 39  1  0  0  0  0
 15 16  2  0  0  0  0
 15 40  1  0  0  0  0
 16 17  1  0  0  0  0
 16 41  1  0  0  0  0
 17 18  2  0  0  0  0
 17 42  1  0  0  0  0
 18 45  1  0  0  0  0
 19 20  1  0  0  0  0
 19 43  1  0  0  0  0
 19 44  1  0  0  0  0
 20 21  2  0  0  0  0
M  CHG  1  18   1
M  END
> <s_m_source_file>
AV-unprocessed.smi

> <i_m_source_file_index>
1915

> <i_lp_mmshare_version>
43012

> <i_f3d_flags>
0

> <s_epik_input>
W0NIM11bQ0hdKFtDSDNdKVtDSDJdTjFbQ0gyXVtDQEhdKFtDSDJdQzE9TylDKD1PKVtOSF1bQ0gyXVtDSDJdYzJbY0hdW2NIXVtjSF1bY0hdbjI=

> <s_epik_cmdline>
J2VwaWtfcHl0aG9uJywgJy1waCcsICc3LjAnLCAnLXRuJywgJzgnLCAnLW1hJywgJzIwMCcsICctbWV0YWxfYmluZGluZycsICctaW1hZScsICc8aW5maWxlLm1hZT4nLCAnLW9tYWUnLCAnPG91dGZpbGUubWFlPic=

> <r_epik_Ionization_Penalty>
1.88249

> <r_epik_Ionization_Penalty_Charging>
1.88249

> <r_epik_Ionization_Penalty_Neutral>
3.64574e-08

> <r_epik_State_Penalty>
2.00238

> <r_epik_Charging_Adjusted_Penalty>
3.88487

> <i_epik_Tot_Q>
1

> <i_epik_Tot_abs_Q>
1

> <r_epik_Metal_State_Penalty>
2.02676

> <b_epik_Metal_Only>
0

> <s_lp_Force_Field>
OPLS_2005

> <r_lp_Energy>
20.6112

> <b_lp_Chiralities_Consistent>
1

> <s_lp_Variant>
AV-unprocessed.smi:1915-4

> <Gold.Version>
5.8.1

> <Gold.Id.Protein>
6NUR|6NUR_protein|mol2

> <Gold.PLP.Fitness>
51.5718

> <Gold.PLP.PLP>
-41.0551

> <Gold.PLP.part.hbond>
-2.8209

> <Gold.PLP.part.metal>
0.0000

> <Gold.PLP.part.buried>
-4.5658

> <Gold.PLP.part.nonpolar>
-34.2289

> <Gold.PLP.part.repulsive>
0.0722

> <Gold.PLP.ligand.clash>
0.0000

> <Gold.PLP.ligand.torsion>
0.7815

> <Gold.PLP.Chemscore.Hbond>
4.0000

> <Gold.PLP.Chemscore.CHOScore>
0.0000

> <Gold.PLP.Chemscore.Metal>
0.0000

> <Gold.Chemscore.Hbonds>
donor molecule, donor type, donor heavy atom, donor atom, acceptor molecule, acceptor atom, score
      L1  H    10    34       P1  7948  1.00
      L1  H    18    45       P1  7948  1.86
      P1  H  7997  8009       L1    21  0.98

> <Gold.PLP.Chemscore.Internal.Correction>
0.0797

> <Gold.Rescore>
     Score         DG    S(hbond)    S(metal)    S(lipo)     H(rot)  DE(clash)    DE(int)     intcor
     19.13     -19.93       2.77        0.00      85.21       1.86       0.16       0.64       ----

> <Gold.Chemscore.Fitness>
19.1322

> <Gold.Chemscore.DG>
-19.9290

> <Gold.Chemscore.ZeroCoef>
-5.4800

> <Gold.Chemscore.Hbond>
2.7696

> <Gold.Chemscore.Metal>
0.0000

> <Gold.Chemscore.Lipo>
85.2111

> <Gold.Chemscore.Internal_Hbond>
0.0000

> <Gold.Chemscore.DEClash>
0.1563

> <Gold.Chemscore.DEInternal>
0.6405

> <Gold.Chemscore.Rot>
1.8638

> <Gold.Chemscore.Internal.Correction>
   9.000000E+99

> <Gold.Chemscore.Hbonds>
donor molecule, donor type, donor heavy atom, donor atom, acceptor molecule, acceptor atom, score
      L1  H    10    34       P1  7948  0.85
      L1  H    18    45       P1  7948  0.88
      P1  H  7997  8009       L1    21  0.88

> <Gold.Chemscore.Hbond.Weighted>
-9.2506

> <Gold.Chemscore.Metal.Weighted>
-0.0000

> <Gold.Chemscore.Lipo.Weighted>
-9.9697

> <Gold.Chemscore.Internal_Hbond.Weighted>
0.0000

> <Gold.Chemscore.DEClash.Weighted>
0.1563

> <Gold.Chemscore.DEInternal.Weighted>
0.6405

> <Gold.Chemscore.Rot.Weighted>
4.7713

> <Gold.Chemscore.Internal.Correction.Weighted>
   9.000000E+99

> <Gold.Protein.RotatedTorsions>
[ 6907 6896 6895 6894 ] final -165.06 input  -60.11 | X-H torsion
[ 7974 7965 7964 7962 ] final  -42.68 input  175.53 | X-H torsion
[ 8008 7997 7996 7995 ] final -140.85 input   59.86 | X-H torsion
[ 10167 10162 10161 10158 ] final  168.87 input  -65.29 | X-H torsion
[ 10718 10713 10712 10709 ] final  102.23 input   66.30 | X-H torsion
[ 10763 10752 10751 10750 ] final -134.18 input  -60.55 | X-H torsion
[ 11005 11000 10999 10996 ] final    3.30 input  -57.11 | X-H torsion

> <Gold.Protein.ActiveResidues>
 VAL166  LYS551  ARG553  GLY616  TRP617  ASP618  TYR619  PRO620  LYS621  CYS622 
 ASP623  PHE694  ASN695  SER759  ASP760  ASP761  ALA762  ILE779  LEU786  VAL792 
 PHE793  MET794  SER795  GLU796  ALA797  LYS798  CYS799  TRP800  GLU811  SER814 

> <Gold.Protein.RotatedAtoms>
  151.4216  133.3696  159.2756 H   0  0  0  0  0  0  0  0  0  0  0  0  # atno 6907 bound_to 6896
  150.9289  134.8706  159.7549 H   0  0  0  0  0  0  0  0  0  0  0  0  # atno 6908 bound_to 6896
  152.5018  134.4159  159.9516 H   0  0  0  0  0  0  0  0  0  0  0  0  # atno 6909 bound_to 6896
  146.0092  140.6984  142.9232 H   0  0  0  0  0  0  0  0  0  0  0  0  # atno 7974 bound_to 7965
  155.4681  140.0551  157.2983 H   0  0  0  0  0  0  0  0  0  0  0  0  # atno 8008 bound_to 7997
  154.4709  140.2040  155.9950 H   0  0  0  0  0  0  0  0  0  0  0  0  # atno 8009 bound_to 7997
  156.1054  140.3212  155.8004 H   0  0  0  0  0  0  0  0  0  0  0  0  # atno 8010 bound_to 7997
  139.4978  144.3768  151.9665 H   0  0  0  0  0  0  0  0  0  0  0  0  # atno 10167 bound_to 10162
  157.6808  131.0747  150.5373 H   0  0  0  0  0  0  0  0  0  0  0  0  # atno 10718 bound_to 10713
  154.8723  135.3742  154.4694 H   0  0  0  0  0  0  0  0  0  0  0  0  # atno 10763 bound_to 10752
  153.5356  135.7027  153.5667 H   0  0  0  0  0  0  0  0  0  0  0  0  # atno 10764 bound_to 10752
  153.3852  135.3986  155.1849 H   0  0  0  0  0  0  0  0  0  0  0  0  # atno 10765 bound_to 10752
  140.5947  133.9891  155.8104 H   0  0  0  0  0  0  0  0  0  0  0  0  # atno 11005 bound_to 11000
  144.6947  140.3369  143.7206 LP  0  0  0  0  0  0  0  0  0  0  0  0  # atno 17320 bound_to 7965
  145.7368  139.1752  143.2399 LP  0  0  0  0  0  0  0  0  0  0  0  0  # atno 17321 bound_to 7965
  140.3204  144.3434  150.6011 LP  0  0  0  0  0  0  0  0  0  0  0  0  # atno 17342 bound_to 10162
  140.5727  143.2179  151.7570 LP  0  0  0  0  0  0  0  0  0  0  0  0  # atno 17343 bound_to 10162
  156.5681  130.4272  149.6032 LP  0  0  0  0  0  0  0  0  0  0  0  0  # atno 17370 bound_to 10713
  156.2764  130.7046  151.1858 LP  0  0  0  0  0  0  0  0  0  0  0  0  # atno 17371 bound_to 10713
  141.0912  133.9914  157.3234 LP  0  0  0  0  0  0  0  0  0  0  0  0  # atno 17394 bound_to 11000
  139.9258  135.0201  156.8230 LP  0  0  0  0  0  0  0  0  0  0  0  0  # atno 17395 bound_to 11000

$$$$
