AV-unprocessed.smi:1795|AV-procd|sdf|7241|dock4
  -GOLD-   22720 8493D 1   1.00000     0.00000
 Structure written by MMmdl.
 47 48  0  0  0  0  0  0  0  0  1 V2000
  152.8404  143.0474  162.1956 C   0  0  0  0  0  0  0  0  0  0  0  0
  152.7202  143.0231  160.6683 C   0  0  1  0  0  0  0  0  0  0  0  0
  152.4460  141.6060  160.1337 C   0  0  0  0  0  0  0  0  0  0  0  0
  152.2460  141.5706  158.6817 N   0  0  0  0  0  0  0  0  0  0  0  0
  151.9975  140.1990  158.1775 C   0  0  2  0  0  0  0  0  0  0  0  0
  153.1756  139.2315  158.4611 C   0  0  0  0  0  0  0  0  0  0  0  0
  151.6631  140.1513  156.6569 C   0  0  0  0  0  0  0  0  0  0  0  0
  150.2682  139.8206  156.3783 N   0  0  0  0  0  0  0  0  0  0  0  0
  149.7497  139.6354  155.1551 C   0  0  0  0  0  0  0  0  0  0  0  0
  150.4207  139.6837  154.1234 O   0  0  0  0  0  0  0  0  0  0  0  0
  148.2453  139.3376  155.0964 C   0  0  0  0  0  0  0  0  0  0  0  0
  147.4238  140.5562  155.0094 N   0  0  0  0  0  0  0  0  0  0  0  0
  147.5931  141.3669  153.8691 C   0  0  0  0  0  0  0  0  0  0  0  0
  146.8953  142.5002  153.6937 C   0  0  0  0  0  0  0  0  0  0  0  0
  145.9486  142.8836  154.7140 C   0  0  0  0  0  0  0  0  0  0  0  0
  145.7806  142.1172  155.8099 C   0  0  0  0  0  0  0  0  0  0  0  0
  146.5419  140.8781  156.0062 C   0  0  0  0  0  0  0  0  0  0  0  0
  146.3965  140.1726  157.0052 O   0  0  0  0  0  0  0  0  0  0  0  0
  151.1573  142.4991  158.3550 C   0  0  0  0  0  0  0  0  0  0  0  0
  151.3730  143.9251  158.9007 C   0  0  2  0  0  0  0  0  0  0  0  0
  152.4374  144.7204  158.1254 C   0  0  0  0  0  0  0  0  0  0  0  0
  151.6513  143.8870  160.2979 O   0  0  0  0  0  0  0  0  0  0  0  0
  153.6573  142.4101  162.5352 H   0  0  0  0  0  0  0  0  0  0  0  0
  151.9229  142.6973  162.6694 H   0  0  0  0  0  0  0  0  0  0  0  0
  153.0364  144.0579  162.5546 H   0  0  0  0  0  0  0  0  0  0  0  0
  153.6537  143.3967  160.2468 H   0  0  0  0  0  0  0  0  0  0  0  0
  153.2988  140.9926  160.4180 H   0  0  0  0  0  0  0  0  0  0  0  0
  151.5725  141.1867  160.6358 H   0  0  0  0  0  0  0  0  0  0  0  0
  151.1308  139.8035  158.7093 H   0  0  0  0  0  0  0  0  0  0  0  0
  153.0099  138.2384  158.0449 H   0  0  0  0  0  0  0  0  0  0  0  0
  153.3279  139.0649  159.5263 H   0  0  0  0  0  0  0  0  0  0  0  0
  154.1074  139.6114  158.0412 H   0  0  0  0  0  0  0  0  0  0  0  0
  151.8600  141.1017  156.1629 H   0  0  0  0  0  0  0  0  0  0  0  0
  152.2919  139.4104  156.1624 H   0  0  0  0  0  0  0  0  0  0  0  0
  149.6484  139.7545  157.1727 H   0  0  0  0  0  0  0  0  0  0  0  0
  148.0625  138.6855  154.2415 H   0  0  0  0  0  0  0  0  0  0  0  0
  147.9498  138.7536  155.9704 H   0  0  0  0  0  0  0  0  0  0  0  0
  148.3250  141.0143  153.1572 H   0  0  0  0  0  0  0  0  0  0  0  0
  147.0410  143.1110  152.8148 H   0  0  0  0  0  0  0  0  0  0  0  0
  145.3735  143.7907  154.5987 H   0  0  0  0  0  0  0  0  0  0  0  0
  145.0688  142.4213  156.5632 H   0  0  0  0  0  0  0  0  0  0  0  0
  151.0284  142.5871  157.2785 H   0  0  0  0  0  0  0  0  0  0  0  0
  150.2188  142.1075  158.7508 H   0  0  0  0  0  0  0  0  0  0  0  0
  150.4337  144.4679  158.7933 H   0  0  0  0  0  0  0  0  0  0  0  0
  152.1457  144.8427  157.0823 H   0  0  0  0  0  0  0  0  0  0  0  0
  153.4080  144.2253  158.1349 H   0  0  0  0  0  0  0  0  0  0  0  0
  152.5650  145.7158  158.5513 H   0  0  0  0  0  0  0  0  0  0  0  0
  1  2  1  0  0  0  0
  1 23  1  0  0  0  0
  1 24  1  0  0  0  0
  1 25  1  0  0  0  0
  2 22  1  0  0  0  0
  2  3  1  0  0  0  0
  2 26  1  0  0  0  0
  3  4  1  0  0  0  0
  3 27  1  0  0  0  0
  3 28  1  0  0  0  0
  4  5  1  0  0  0  0
  4 19  1  0  0  0  0
  5  6  1  0  0  0  0
  5  7  1  0  0  0  0
  5 29  1  0  0  0  0
  6 30  1  0  0  0  0
  6 31  1  0  0  0  0
  6 32  1  0  0  0  0
  7  8  1  0  0  0  0
  7 33  1  0  0  0  0
  7 34  1  0  0  0  0
  8  9  1  0  0  0  0
  8 35  1  0  0  0  0
  9 10  2  0  0  0  0
  9 11  1  0  0  0  0
 11 12  1  0  0  0  0
 11 36  1  0  0  0  0
 11 37  1  0  0  0  0
 12 17  1  0  0  0  0
 12 13  1  0  0  0  0
 13 14  2  0  0  0  0
 13 38  1  0  0  0  0
 14 15  1  0  0  0  0
 14 39  1  0  0  0  0
 15 16  2  0  0  0  0
 15 40  1  0  0  0  0
 16 17  1  0  0  0  0
 16 41  1  0  0  0  0
 17 18  2  0  0  0  0
 19 20  1  0  0  0  0
 19 42  1  0  0  0  0
 19 43  1  0  0  0  0
 20 21  1  0  0  0  0
 20 22  1  0  0  0  0
 20 44  1  0  0  0  0
 21 45  1  0  0  0  0
 21 46  1  0  0  0  0
 21 47  1  0  0  0  0
M  END
> <s_m_source_file>
AV-unprocessed.smi

> <i_m_source_file_index>
1795

> <i_lp_mmshare_version>
43012

> <i_f3d_flags>
0

> <s_epik_input>
W0NIM11bQ0BASF0xW0NIMl1OKFtDSDJdW0NASF0oTzEpW0NIM10pW0NASF0oW0NIM10pW0NIMl1bTkhdQyg9TylbQ0gyXW4yW2NIXVtjSF1bY0hdW2NIXWMyPU8=

> <s_epik_cmdline>
J2VwaWtfcHl0aG9uJywgJy1waCcsICc3LjAnLCAnLXRuJywgJzgnLCAnLW1hJywgJzIwMCcsICctbWV0YWxfYmluZGluZycsICctaW1hZScsICc8aW5maWxlLm1hZT4nLCAnLW9tYWUnLCAnPG91dGZpbGUubWFlPic=

> <r_lp_tautomer_probability>
1

> <r_epik_Ionization_Penalty>
0.237383

> <r_epik_Ionization_Penalty_Charging>
3.58805e-07

> <r_epik_Ionization_Penalty_Neutral>
0.237382

> <r_epik_State_Penalty>
0.228245

> <r_epik_Charging_Adjusted_Penalty>
0.228245

> <i_epik_Tot_Q>
0

> <i_epik_Tot_abs_Q>
0

> <r_epik_Metal_State_Penalty>
0.228221

> <b_epik_Metal_Only>
0

> <s_lp_Force_Field>
OPLS_2005

> <r_lp_Energy>
40.4957

> <b_lp_Chiralities_Consistent>
1

> <s_lp_Variant>
AV-unprocessed.smi:1795-5

> <Gold.Version>
5.8.1

> <Gold.Id.Protein>
6NUR|6NUR_protein|mol2

> <Gold.PLP.Fitness>
46.2779

> <Gold.PLP.PLP>
-42.4219

> <Gold.PLP.part.hbond>
-1.0000

> <Gold.PLP.part.metal>
0.0000

> <Gold.PLP.part.buried>
-7.3131

> <Gold.PLP.part.nonpolar>
-34.5823

> <Gold.PLP.part.repulsive>
0.7082

> <Gold.PLP.ligand.clash>
0.0000

> <Gold.PLP.ligand.torsion>
1.1269

> <Gold.PLP.Chemscore.Hbond>
1.0000

> <Gold.PLP.Chemscore.CHOScore>
1.0000

> <Gold.PLP.Chemscore.Metal>
0.0000

> <Gold.Chemscore.Hbonds>
donor molecule, donor type, donor heavy atom, donor atom, acceptor molecule, acceptor atom, score
      P1  H  7989  7998       L1    10  1.00
      L1  C    13    38       P1  7957  0.93

> <Gold.PLP.Chemscore.Internal.Correction>
0.1098

> <Gold.Rescore>
     Score         DG    S(hbond)    S(metal)    S(lipo)     H(rot)  DE(clash)    DE(int)     intcor
     15.48     -17.08       1.00        0.00     110.50       1.83       0.45       1.15       ----

> <Gold.Chemscore.Fitness>
15.4782

> <Gold.Chemscore.DG>
-17.0761

> <Gold.Chemscore.ZeroCoef>
-5.4800

> <Gold.Chemscore.Hbond>
0.9999

> <Gold.Chemscore.Metal>
0.0000

> <Gold.Chemscore.Lipo>
110.5012

> <Gold.Chemscore.Internal_Hbond>
0.0000

> <Gold.Chemscore.DEClash>
0.4464

> <Gold.Chemscore.DEInternal>
1.1514

> <Gold.Chemscore.Rot>
1.8251

> <Gold.Chemscore.Internal.Correction>
   9.000000E+99

> <Gold.Chemscore.Hbonds>
donor molecule, donor type, donor heavy atom, donor atom, acceptor molecule, acceptor atom, score
      P1  H  7989  7998       L1    10  0.99

> <Gold.Chemscore.Hbond.Weighted>
-3.3398

> <Gold.Chemscore.Metal.Weighted>
-0.0000

> <Gold.Chemscore.Lipo.Weighted>
-12.9286

> <Gold.Chemscore.Internal_Hbond.Weighted>
0.0000

> <Gold.Chemscore.DEClash.Weighted>
0.4464

> <Gold.Chemscore.DEInternal.Weighted>
1.1514

> <Gold.Chemscore.Rot.Weighted>
4.6724

> <Gold.Chemscore.Internal.Correction.Weighted>
   9.000000E+99

> <Gold.Protein.RotatedTorsions>
[ 6907 6896 6895 6894 ] final  -44.56 input  -60.11 | X-H torsion
[ 7974 7965 7964 7962 ] final   46.73 input  175.53 | X-H torsion
[ 8008 7997 7996 7995 ] final -126.84 input   59.86 | X-H torsion
[ 10167 10162 10161 10158 ] final  144.33 input  -65.29 | X-H torsion
[ 10718 10713 10712 10709 ] final  -33.34 input   66.30 | X-H torsion
[ 10763 10752 10751 10750 ] final -139.19 input  -60.55 | X-H torsion
[ 11005 11000 10999 10996 ] final -178.04 input  -57.11 | X-H torsion

> <Gold.Protein.ActiveResidues>
 VAL166  LYS551  ARG553  GLY616  TRP617  ASP618  TYR619  PRO620  LYS621  CYS622 
 ASP623  PHE694  ASN695  SER759  ASP760  ASP761  ALA762  ILE779  LEU786  VAL792 
 PHE793  MET794  SER795  GLU796  ALA797  LYS798  CYS799  TRP800  GLU811  SER814 

> <Gold.Protein.RotatedAtoms>
  150.9315  134.8730  159.7553 H   0  0  0  0  0  0  0  0  0  0  0  0  # atno 6907 bound_to 6896
  152.5040  134.4072  159.9446 H   0  0  0  0  0  0  0  0  0  0  0  0  # atno 6908 bound_to 6896
  151.4099  133.3691  159.2777 H   0  0  0  0  0  0  0  0  0  0  0  0  # atno 6909 bound_to 6896
  146.0363  139.4824  142.9806 H   0  0  0  0  0  0  0  0  0  0  0  0  # atno 7974 bound_to 7965
  155.2363  140.0427  157.2969 H   0  0  0  0  0  0  0  0  0  0  0  0  # atno 8008 bound_to 7997
  154.5856  140.2413  155.7962 H   0  0  0  0  0  0  0  0  0  0  0  0  # atno 8009 bound_to 7997
  156.2224  140.2965  155.9992 H   0  0  0  0  0  0  0  0  0  0  0  0  # atno 8010 bound_to 7997
  139.4949  144.5979  151.6543 H   0  0  0  0  0  0  0  0  0  0  0  0  # atno 10167 bound_to 10162
  156.3639  130.4328  149.7601 H   0  0  0  0  0  0  0  0  0  0  0  0  # atno 10718 bound_to 10713
  154.8616  135.3589  154.5507 H   0  0  0  0  0  0  0  0  0  0  0  0  # atno 10763 bound_to 10752
  153.6125  135.7009  153.5346 H   0  0  0  0  0  0  0  0  0  0  0  0  # atno 10764 bound_to 10752
  153.3197  135.4155  155.1367 H   0  0  0  0  0  0  0  0  0  0  0  0  # atno 10765 bound_to 10752
  140.4342  134.6490  157.4727 H   0  0  0  0  0  0  0  0  0  0  0  0  # atno 11005 bound_to 11000
  145.6959  141.0150  143.1530 LP  0  0  0  0  0  0  0  0  0  0  0  0  # atno 17320 bound_to 7965
  144.7053  139.8587  143.7432 LP  0  0  0  0  0  0  0  0  0  0  0  0  # atno 17321 bound_to 7965
  140.5622  144.0250  150.6175 LP  0  0  0  0  0  0  0  0  0  0  0  0  # atno 17342 bound_to 10162
  140.3339  143.3060  152.0658 LP  0  0  0  0  0  0  0  0  0  0  0  0  # atno 17343 bound_to 10162
  156.4754  130.8016  151.3032 LP  0  0  0  0  0  0  0  0  0  0  0  0  # atno 17370 bound_to 10713
  157.7476  131.0022  150.2994 LP  0  0  0  0  0  0  0  0  0  0  0  0  # atno 17371 bound_to 10713
  140.0113  134.6686  155.9376 LP  0  0  0  0  0  0  0  0  0  0  0  0  # atno 17394 bound_to 11000
  141.1733  133.6538  156.4731 LP  0  0  0  0  0  0  0  0  0  0  0  0  # atno 17395 bound_to 11000

$$$$
