AV-unprocessed.smi:3078|AV-procd|sdf|11731|dock9
  -GOLD-   2272017133D 1   1.00000     0.00000
 Structure written by MMmdl.
 23 23  0  0  0  0  0  0  0  0  2 V2000
  145.6948  130.3638  151.2019 C   0  0  0  0  0  0  0  0  0  0  0  0
  145.1133  131.6227  150.7877 N   0  0  0  0  0  0  0  0  0  0  0  0
  145.4501  132.8990  151.1836 C   0  0  0  0  0  0  0  0  0  0  0  0
  144.6252  133.7670  150.5217 C   0  0  0  0  0  0  0  0  0  0  0  0
  144.5608  135.2698  150.5973 C   0  0  2  0  0  0  0  0  0  0  0  0
  144.7532  135.8536  149.2817 N   0  0  0  0  0  0  0  0  0  0  0  0
  145.6432  135.8142  151.5468 C   0  0  0  0  0  0  0  0  0  0  0  0
  146.2296  137.0694  151.0461 N   0  3  0  0  0  0  0  0  0  0  0  0
  143.8053  132.9050  149.7379 C   0  0  0  0  0  0  0  0  0  0  0  0
  144.1008  131.6257  149.8973 N   0  0  0  0  0  0  0  0  0  0  0  0
  146.4394  130.5331  151.9802 H   0  0  0  0  0  0  0  0  0  0  0  0
  146.1747  129.8822  150.3497 H   0  0  0  0  0  0  0  0  0  0  0  0
  144.9165  129.7076  151.5932 H   0  0  0  0  0  0  0  0  0  0  0  0
  146.2399  133.0833  151.8972 H   0  0  0  0  0  0  0  0  0  0  0  0
  143.5791  135.5822  150.9564 H   0  0  0  0  0  0  0  0  0  0  0  0
  144.7917  136.8603  149.3615 H   0  0  0  0  0  0  0  0  0  0  0  0
  145.6454  135.5643  148.9058 H   0  0  0  0  0  0  0  0  0  0  0  0
  145.2078  136.0232  152.5247 H   0  0  0  0  0  0  0  0  0  0  0  0
  146.4347  135.0796  151.7029 H   0  0  0  0  0  0  0  0  0  0  0  0
  145.8402  137.8504  151.5542 H   0  0  0  0  0  0  0  0  0  0  0  0
  146.0245  137.1693  150.0624 H   0  0  0  0  0  0  0  0  0  0  0  0
  143.0073  133.1709  149.0603 H   0  0  0  0  0  0  0  0  0  0  0  0
  147.2305  137.0438  151.1812 H   0  0  0  0  0  0  0  0  0  0  0  0
  1  2  1  0  0  0  0
  1 11  1  0  0  0  0
  1 12  1  0  0  0  0
  1 13  1  0  0  0  0
  2 10  1  0  0  0  0
  2  3  1  0  0  0  0
  3  4  2  0  0  0  0
  3 14  1  0  0  0  0
  4  5  1  0  0  0  0
  4  9  1  0  0  0  0
  5  6  1  0  0  0  0
  5  7  1  0  0  0  0
  5 15  1  0  0  0  0
  6 16  1  0  0  0  0
  6 17  1  0  0  0  0
  7  8  1  0  0  0  0
  7 18  1  0  0  0  0
  7 19  1  0  0  0  0
  8 20  1  0  0  0  0
  8 21  1  0  0  0  0
  8 23  1  0  0  0  0
  9 10  2  0  0  0  0
  9 22  1  0  0  0  0
M  CHG  1   8   1
M  END
> <s_m_source_file>
AV-unprocessed.smi

> <i_m_source_file_index>
3078

> <i_lp_mmshare_version>
43012

> <i_f3d_flags>
0

> <s_epik_input>
W0NIM11uMVtjSF1jKFtjSF1uMSlbQ0BIXShbTkgyXSlbQ0gyXVtOSDJd

> <s_epik_cmdline>
J2VwaWtfcHl0aG9uJywgJy1waCcsICc3LjAnLCAnLXRuJywgJzgnLCAnLW1hJywgJzIwMCcsICctbWV0YWxfYmluZGluZycsICctaW1hZScsICc8aW5maWxlLm1hZT4nLCAnLW9tYWUnLCAnPG91dGZpbGUubWFlPic=

> <r_lp_tautomer_probability>
1

> <r_epik_Ionization_Penalty>
0.0498714

> <r_epik_Ionization_Penalty_Charging>
0.00651912

> <r_epik_Ionization_Penalty_Neutral>
0.0433523

> <r_epik_State_Penalty>
0.141593

> <r_epik_Charging_Adjusted_Penalty>
0.148112

> <i_epik_Tot_Q>
1

> <i_epik_Tot_abs_Q>
1

> <r_epik_Metal_State_Penalty>
0.141584

> <b_epik_Metal_Only>
0

> <s_lp_Force_Field>
OPLS_2005

> <r_lp_Energy>
-1.23343

> <b_lp_Chiralities_Consistent>
1

> <s_lp_Variant>
AV-unprocessed.smi:3078-1

> <Gold.Version>
5.8.1

> <Gold.Id.Protein>
6NUR|6NUR_protein|mol2

> <Gold.PLP.Fitness>
39.4068

> <Gold.PLP.PLP>
-24.3292

> <Gold.PLP.part.hbond>
-4.6029

> <Gold.PLP.part.metal>
0.0000

> <Gold.PLP.part.buried>
-4.9439

> <Gold.PLP.part.nonpolar>
-15.8964

> <Gold.PLP.part.repulsive>
0.2604

> <Gold.PLP.ligand.clash>
0.0000

> <Gold.PLP.ligand.torsion>
0.5513

> <Gold.PLP.Chemscore.Hbond>
4.3925

> <Gold.PLP.Chemscore.CHOScore>
1.0000

> <Gold.PLP.Chemscore.Metal>
0.0000

> <Gold.Chemscore.Hbonds>
donor molecule, donor type, donor heavy atom, donor atom, acceptor molecule, acceptor atom, score
      L1  H     6    16       P1 10171  0.98
      L1  H     6    17       P1  7921  0.74
      L1  H     8    23       P1  7948  2.00
      P1  H 10785 10796       L1    10  0.59
      L1  C     9    22       P1 10186  0.97

> <Gold.PLP.Chemscore.Internal.Correction>
0.0025

> <Gold.Rescore>
     Score         DG    S(hbond)    S(metal)    S(lipo)     H(rot)  DE(clash)    DE(int)     intcor
     18.25     -19.11       3.48        0.00      47.88       1.41       0.30       0.55       ----

> <Gold.Chemscore.Fitness>
18.2516

> <Gold.Chemscore.DG>
-19.1052

> <Gold.Chemscore.ZeroCoef>
-5.4800

> <Gold.Chemscore.Hbond>
3.4846

> <Gold.Chemscore.Metal>
0.0000

> <Gold.Chemscore.Lipo>
47.8811

> <Gold.Chemscore.Internal_Hbond>
0.0000

> <Gold.Chemscore.DEClash>
0.3006

> <Gold.Chemscore.DEInternal>
0.5530

> <Gold.Chemscore.Rot>
1.4123

> <Gold.Chemscore.Internal.Correction>
   9.000000E+99

> <Gold.Chemscore.Hbonds>
donor molecule, donor type, donor heavy atom, donor atom, acceptor molecule, acceptor atom, score
      L1  H     6    16       P1 10171  0.91
      L1  H     6    17       P1  7921  0.70
      L1  H     8    23       P1  7948  0.96
      P1  H 10785 10796       L1    10  0.58

> <Gold.Chemscore.Hbond.Weighted>
-11.6385

> <Gold.Chemscore.Metal.Weighted>
-0.0000

> <Gold.Chemscore.Lipo.Weighted>
-5.6021

> <Gold.Chemscore.Internal_Hbond.Weighted>
0.0000

> <Gold.Chemscore.DEClash.Weighted>
0.3006

> <Gold.Chemscore.DEInternal.Weighted>
0.5530

> <Gold.Chemscore.Rot.Weighted>
3.6154

> <Gold.Chemscore.Internal.Correction.Weighted>
   9.000000E+99

> <Gold.Protein.RotatedTorsions>
[ 6907 6896 6895 6894 ] final  179.47 input  -60.11 | X-H torsion
[ 7974 7965 7964 7962 ] final -177.67 input  175.53 | X-H torsion
[ 8008 7997 7996 7995 ] final -166.00 input   59.86 | X-H torsion
[ 10167 10162 10161 10158 ] final   22.06 input  -65.29 | X-H torsion
[ 10718 10713 10712 10709 ] final   62.16 input   66.30 | X-H torsion
[ 10763 10752 10751 10750 ] final  121.66 input  -60.55 | X-H torsion
[ 11005 11000 10999 10996 ] final -152.92 input  -57.11 | X-H torsion

> <Gold.Protein.ActiveResidues>
 VAL166  LYS551  ARG553  GLY616  TRP617  ASP618  TYR619  PRO620  LYS621  CYS622 
 ASP623  PHE694  ASN695  SER759  ASP760  ASP761  ALA762  ILE779  LEU786  VAL792 
 PHE793  MET794  SER795  GLU796  ALA797  LYS798  CYS799  TRP800  GLU811  SER814 

> <Gold.Protein.RotatedAtoms>
  151.6712  133.3314  159.3196 H   0  0  0  0  0  0  0  0  0  0  0  0  # atno 6907 bound_to 6896
  150.7867  134.6861  159.6480 H   0  0  0  0  0  0  0  0  0  0  0  0  # atno 6908 bound_to 6896
  152.3938  134.6402  160.0149 H   0  0  0  0  0  0  0  0  0  0  0  0  # atno 6909 bound_to 6896
  144.7128  140.0985  143.6417 H   0  0  0  0  0  0  0  0  0  0  0  0  # atno 7974 bound_to 7965
  155.8577  140.0973  157.1634 H   0  0  0  0  0  0  0  0  0  0  0  0  # atno 8008 bound_to 7997
  154.3988  140.1371  156.3984 H   0  0  0  0  0  0  0  0  0  0  0  0  # atno 8009 bound_to 7997
  155.7891  140.3456  155.5342 H   0  0  0  0  0  0  0  0  0  0  0  0  # atno 8010 bound_to 7997
  140.5378  143.9730  150.6502 H   0  0  0  0  0  0  0  0  0  0  0  0  # atno 10167 bound_to 10162
  157.5880  130.9034  149.9552 H   0  0  0  0  0  0  0  0  0  0  0  0  # atno 10718 bound_to 10713
  153.6175  135.3419  155.3000 H   0  0  0  0  0  0  0  0  0  0  0  0  # atno 10763 bound_to 10752
  154.8606  135.4265  154.2243 H   0  0  0  0  0  0  0  0  0  0  0  0  # atno 10764 bound_to 10752
  153.3108  135.7031  153.7190 H   0  0  0  0  0  0  0  0  0  0  0  0  # atno 10765 bound_to 10752
  140.7137  134.3804  157.5194 H   0  0  0  0  0  0  0  0  0  0  0  0  # atno 11005 bound_to 11000
  145.9558  139.2766  143.1185 LP  0  0  0  0  0  0  0  0  0  0  0  0  # atno 17320 bound_to 7965
  145.9273  140.9073  143.0374 LP  0  0  0  0  0  0  0  0  0  0  0  0  # atno 17321 bound_to 7965
  140.3122  143.3191  152.0868 LP  0  0  0  0  0  0  0  0  0  0  0  0  # atno 17342 bound_to 10162
  139.4977  144.6629  151.6424 LP  0  0  0  0  0  0  0  0  0  0  0  0  # atno 17343 bound_to 10162
  156.0931  130.3661  150.0356 LP  0  0  0  0  0  0  0  0  0  0  0  0  # atno 17370 bound_to 10713
  156.8484  130.9450  151.3627 LP  0  0  0  0  0  0  0  0  0  0  0  0  # atno 17371 bound_to 10713
  139.8865  134.8908  156.2581 LP  0  0  0  0  0  0  0  0  0  0  0  0  # atno 17394 bound_to 11000
  141.0062  133.7122  156.1039 LP  0  0  0  0  0  0  0  0  0  0  0  0  # atno 17395 bound_to 11000

$$$$
