AV-unprocessed.smi:234|AV-procd|sdf|1800|dock9
  -GOLD-   2262020373D 1   1.00000     0.00000
 Structure written by MMmdl.
 59 62  0  0  0  0  0  0  0  0  1 V2000
  151.2165  142.9584  157.6610 C   0  0  0  0  0  0  0  0  0  0  0  0
  151.4204  141.4678  157.9396 C   0  0  0  0  0  0  0  0  0  0  0  0
  151.4188  140.7665  156.7073 O   0  0  0  0  0  0  0  0  0  0  0  0
  151.5892  139.3666  156.8660 C   0  0  1  0  0  0  0  0  0  0  0  0
  150.3543  138.7000  157.4700 C   0  0  0  0  0  0  0  0  0  0  0  0
  150.5695  137.5425  156.4756 C   0  0  2  0  0  0  0  0  0  0  0  0
  151.3140  136.3734  156.9782 N   0  0  0  0  0  0  0  0  0  0  0  0
  152.3682  136.5479  157.9673 C   0  0  0  0  0  0  0  0  0  0  0  0
  150.9383  135.0965  156.7445 C   0  0  0  0  0  0  0  0  0  0  0  0
  151.6574  134.0881  157.2991 N   0  0  0  0  0  0  0  0  0  0  0  0
  151.3082  132.8179  157.0732 C   0  0  0  0  0  0  0  0  0  0  0  0
  150.3050  132.3476  156.3283 N   0  0  0  0  0  0  0  0  0  0  0  0
  149.5945  133.3610  155.7549 C   0  0  0  0  0  0  0  0  0  0  0  0
  149.8428  134.7530  155.9080 C   0  0  0  0  0  0  0  0  0  0  0  0
  148.9195  135.4869  155.1744 N   0  0  0  0  0  0  0  0  0  0  0  0
  148.1619  134.5781  154.6229 C   0  0  0  0  0  0  0  0  0  0  0  0
  148.5029  133.2744  154.9085 N   0  0  0  0  0  0  0  0  0  0  0  0
  147.8398  132.0732  154.4233 C   0  0  0  0  0  0  0  0  0  0  0  0
  147.6715  132.0420  152.8812 C   0  0  2  0  0  0  0  0  0  0  0  0
  148.9226  132.3567  152.2936 O   0  0  0  0  0  0  0  0  0  0  0  0
  146.6452  133.0485  152.3628 C   0  0  0  0  0  0  0  0  0  0  0  0
  146.0806  132.3662  151.1262 C   0  0  0  0  0  0  0  0  0  0  0  0
  146.0031  131.0142  151.5398 O   0  0  0  0  0  0  0  0  0  0  0  0
  147.1871  130.6981  152.2659 C   0  0  2  0  0  0  0  0  0  0  0  0
  146.8598  129.5593  153.2445 C   0  0  0  0  0  0  0  0  0  0  0  0
  151.3898  138.5231  155.5809 C   0  0  0  0  0  0  0  0  0  0  0  0
  150.5534  139.1821  154.4745 C   0  0  0  0  0  0  0  0  0  0  0  0
  152.6679  138.0185  154.8995 C   0  0  0  0  0  0  0  0  0  0  0  0
  151.2071  143.5301  158.5891 H   0  0  0  0  0  0  0  0  0  0  0  0
  150.2704  143.1353  157.1493 H   0  0  0  0  0  0  0  0  0  0  0  0
  152.0167  143.3509  157.0332 H   0  0  0  0  0  0  0  0  0  0  0  0
  152.3635  141.3165  158.4649 H   0  0  0  0  0  0  0  0  0  0  0  0
  150.6216  141.0963  158.5829 H   0  0  0  0  0  0  0  0  0  0  0  0
  152.4912  139.1052  157.4225 H   0  0  0  0  0  0  0  0  0  0  0  0
  150.4281  138.4852  158.5337 H   0  0  0  0  0  0  0  0  0  0  0  0
  149.4390  139.2553  157.2606 H   0  0  0  0  0  0  0  0  0  0  0  0
  149.6307  137.2486  156.0047 H   0  0  0  0  0  0  0  0  0  0  0  0
  153.2585  135.9890  157.6772 H   0  0  0  0  0  0  0  0  0  0  0  0
  152.0471  136.1974  158.9484 H   0  0  0  0  0  0  0  0  0  0  0  0
  152.6439  137.5989  158.0563 H   0  0  0  0  0  0  0  0  0  0  0  0
  151.9209  132.0718  157.5575 H   0  0  0  0  0  0  0  0  0  0  0  0
  147.3310  134.8361  153.9825 H   0  0  0  0  0  0  0  0  0  0  0  0
  148.4096  131.2076  154.7642 H   0  0  0  0  0  0  0  0  0  0  0  0
  146.8676  132.0158  154.9131 H   0  0  0  0  0  0  0  0  0  0  0  0
  149.0431  131.8094  151.5327 H   0  0  0  0  0  0  0  0  0  0  0  0
  145.8393  133.1701  153.0876 H   0  0  0  0  0  0  0  0  0  0  0  0
  147.0579  134.0375  152.1571 H   0  0  0  0  0  0  0  0  0  0  0  0
  145.1049  132.7561  150.8356 H   0  0  0  0  0  0  0  0  0  0  0  0
  146.7607  132.4579  150.2779 H   0  0  0  0  0  0  0  0  0  0  0  0
  147.9181  130.3280  151.5443 H   0  0  0  0  0  0  0  0  0  0  0  0
  147.7359  129.2692  153.8245 H   0  0  0  0  0  0  0  0  0  0  0  0
  146.5210  128.6758  152.7032 H   0  0  0  0  0  0  0  0  0  0  0  0
  146.0663  129.8397  153.9372 H   0  0  0  0  0  0  0  0  0  0  0  0
  150.2909  138.4665  153.6949 H   0  0  0  0  0  0  0  0  0  0  0  0
  151.0883  140.0035  153.9969 H   0  0  0  0  0  0  0  0  0  0  0  0
  149.6192  139.5917  154.8592 H   0  0  0  0  0  0  0  0  0  0  0  0
  152.4537  137.2251  154.1831 H   0  0  0  0  0  0  0  0  0  0  0  0
  153.3874  137.6277  155.6178 H   0  0  0  0  0  0  0  0  0  0  0  0
  153.1755  138.8153  154.3555 H   0  0  0  0  0  0  0  0  0  0  0  0
  1  2  1  0  0  0  0
  1 29  1  0  0  0  0
  1 30  1  0  0  0  0
  1 31  1  0  0  0  0
  2  3  1  0  0  0  0
  2 32  1  0  0  0  0
  2 33  1  0  0  0  0
  3  4  1  0  0  0  0
  4 26  1  0  0  0  0
  4  5  1  0  0  0  0
  4 34  1  0  0  0  0
  5  6  1  0  0  0  0
  5 35  1  0  0  0  0
  5 36  1  0  0  0  0
  6  7  1  0  0  0  0
  6 26  1  0  0  0  0
  6 37  1  0  0  0  0
  7  8  1  0  0  0  0
  7  9  1  0  0  0  0
  8 38  1  0  0  0  0
  8 39  1  0  0  0  0
  8 40  1  0  0  0  0
  9 14  1  0  0  0  0
  9 10  2  0  0  0  0
 10 11  1  0  0  0  0
 11 12  2  0  0  0  0
 11 41  1  0  0  0  0
 12 13  1  0  0  0  0
 13 17  1  0  0  0  0
 13 14  2  0  0  0  0
 14 15  1  0  0  0  0
 15 16  2  0  0  0  0
 16 17  1  0  0  0  0
 16 42  1  0  0  0  0
 17 18  1  0  0  0  0
 18 19  1  0  0  0  0
 18 43  1  0  0  0  0
 18 44  1  0  0  0  0
 19 24  1  0  0  0  0
 19 20  1  0  0  0  0
 19 21  1  0  0  0  0
 20 45  1  0  0  0  0
 21 22  1  0  0  0  0
 21 46  1  0  0  0  0
 21 47  1  0  0  0  0
 22 23  1  0  0  0  0
 22 48  1  0  0  0  0
 22 49  1  0  0  0  0
 23 24  1  0  0  0  0
 24 25  1  0  0  0  0
 24 50  1  0  0  0  0
 25 51  1  0  0  0  0
 25 52  1  0  0  0  0
 25 53  1  0  0  0  0
 26 27  1  0  0  0  0
 26 28  1  0  0  0  0
 27 54  1  0  0  0  0
 27 55  1  0  0  0  0
 27 56  1  0  0  0  0
 28 57  1  0  0  0  0
 28 58  1  0  0  0  0
 28 59  1  0  0  0  0
M  END
> <s_m_source_file>
AV-unprocessed.smi

> <i_m_source_file_index>
234

> <i_lp_mmshare_version>
43012

> <i_f3d_flags>
0

> <s_epik_input>
W0NIM11bQ0gyXU9bQ0BASF0oQzEoW0NIM10pW0NIM10pW0NIMl1bQ0BIXTFOKFtDSDNdKWMobltjSF1uMiljKGMyMyluW2NIXW4zW0NIMl1bQ0BAXTQoW09IXSlbQ0gyXVtDSDJdT1tDQEhdNFtDSDNd

> <s_epik_cmdline>
J2VwaWtfcHl0aG9uJywgJy1waCcsICc3LjAnLCAnLXRuJywgJzgnLCAnLW1hJywgJzIwMCcsICctbWV0YWxfYmluZGluZycsICctaW1hZScsICc8aW5maWxlLm1hZT4nLCAnLW9tYWUnLCAnPG91dGZpbGUubWFlPic=

> <r_lp_tautomer_probability>
1

> <r_epik_Ionization_Penalty>
0.00349132

> <r_epik_Ionization_Penalty_Charging>
0

> <r_epik_Ionization_Penalty_Neutral>
0.00349132

> <r_epik_State_Penalty>
0.00242418

> <r_epik_Charging_Adjusted_Penalty>
0.00242418

> <i_epik_Tot_Q>
0

> <i_epik_Tot_abs_Q>
0

> <r_epik_Metal_State_Penalty>
-0

> <b_epik_Metal_Only>
0

> <s_lp_Force_Field>
OPLS_2005

> <r_lp_Energy>
53.0859

> <b_lp_Chiralities_Consistent>
1

> <s_lp_Variant>
AV-unprocessed.smi:234-16

> <Gold.Version>
5.8.1

> <Gold.Id.Protein>
6NUR|6NUR_protein|mol2

> <Gold.PLP.Fitness>
40.1805

> <Gold.PLP.PLP>
-37.6097

> <Gold.PLP.part.hbond>
-1.7398

> <Gold.PLP.part.metal>
0.0000

> <Gold.PLP.part.buried>
-6.5033

> <Gold.PLP.part.nonpolar>
-29.8736

> <Gold.PLP.part.repulsive>
0.2954

> <Gold.PLP.ligand.clash>
0.0000

> <Gold.PLP.ligand.torsion>
0.5405

> <Gold.PLP.Chemscore.Hbond>
1.0000

> <Gold.PLP.Chemscore.CHOScore>
0.0000

> <Gold.PLP.Chemscore.Metal>
0.0000

> <Gold.Chemscore.Hbonds>
donor molecule, donor type, donor heavy atom, donor atom, acceptor molecule, acceptor atom, score
      L1  H    20    45       P1 10747  1.00
      P1  H  6896  6908       L1    10  0.03

> <Gold.PLP.Chemscore.Internal.Correction>
0.6518

> <Gold.Rescore>
     Score         DG    S(hbond)    S(metal)    S(lipo)     H(rot)  DE(clash)    DE(int)     intcor
     11.82     -13.78       1.00        0.00      94.34       2.37       0.09       1.87       ----

> <Gold.Chemscore.Fitness>
11.8155

> <Gold.Chemscore.DG>
-13.7846

> <Gold.Chemscore.ZeroCoef>
-5.4800

> <Gold.Chemscore.Hbond>
0.9963

> <Gold.Chemscore.Metal>
0.0000

> <Gold.Chemscore.Lipo>
94.3427

> <Gold.Chemscore.Internal_Hbond>
0.0000

> <Gold.Chemscore.DEClash>
0.0946

> <Gold.Chemscore.DEInternal>
1.8745

> <Gold.Chemscore.Rot>
2.3676

> <Gold.Chemscore.Internal.Correction>
   9.000000E+99

> <Gold.Chemscore.Hbonds>
donor molecule, donor type, donor heavy atom, donor atom, acceptor molecule, acceptor atom, score
      L1  H    20    45       P1 10747  0.78

> <Gold.Chemscore.Hbond.Weighted>
-3.3275

> <Gold.Chemscore.Metal.Weighted>
-0.0000

> <Gold.Chemscore.Lipo.Weighted>
-11.0381

> <Gold.Chemscore.Internal_Hbond.Weighted>
0.0000

> <Gold.Chemscore.DEClash.Weighted>
0.0946

> <Gold.Chemscore.DEInternal.Weighted>
1.8745

> <Gold.Chemscore.Rot.Weighted>
6.0610

> <Gold.Chemscore.Internal.Correction.Weighted>
   9.000000E+99

> <Gold.Protein.RotatedTorsions>
[ 6907 6896 6895 6894 ] final  110.79 input  -60.11 | X-H torsion
[ 7974 7965 7964 7962 ] final  -39.54 input  175.53 | X-H torsion
[ 8008 7997 7996 7995 ] final   82.47 input   59.86 | X-H torsion
[ 10167 10162 10161 10158 ] final  -58.70 input  -65.29 | X-H torsion
[ 10718 10713 10712 10709 ] final -158.19 input   66.30 | X-H torsion
[ 10763 10752 10751 10750 ] final  153.00 input  -60.55 | X-H torsion
[ 11005 11000 10999 10996 ] final  -42.27 input  -57.11 | X-H torsion

> <Gold.Protein.ActiveResidues>
 VAL166  LYS551  ARG553  GLY616  TRP617  ASP618  TYR619  PRO620  LYS621  CYS622 
 ASP623  PHE694  ASN695  SER759  ASP760  ASP761  ALA762  ILE779  LEU786  VAL792 
 PHE793  MET794  SER795  GLU796  ALA797  LYS798  CYS799  TRP800  GLU811  SER814 

> <Gold.Protein.RotatedAtoms>
  152.5002  133.8749  159.7317 H   0  0  0  0  0  0  0  0  0  0  0  0  # atno 6907 bound_to 6896
  150.9226  133.6853  159.2835 H   0  0  0  0  0  0  0  0  0  0  0  0  # atno 6908 bound_to 6896
  151.4224  135.1004  159.9670 H   0  0  0  0  0  0  0  0  0  0  0  0  # atno 6909 bound_to 6896
  146.0387  140.6638  142.9098 H   0  0  0  0  0  0  0  0  0  0  0  0  # atno 7974 bound_to 7965
  155.9110  140.3427  155.6099 H   0  0  0  0  0  0  0  0  0  0  0  0  # atno 8008 bound_to 7997
  155.7387  140.0805  157.2274 H   0  0  0  0  0  0  0  0  0  0  0  0  # atno 8009 bound_to 7997
  154.4056  140.1574  156.2578 H   0  0  0  0  0  0  0  0  0  0  0  0  # atno 8010 bound_to 7997
  140.6181  143.2409  151.5548 H   0  0  0  0  0  0  0  0  0  0  0  0  # atno 10167 bound_to 10162
  156.5507  130.8604  151.2779 H   0  0  0  0  0  0  0  0  0  0  0  0  # atno 10718 bound_to 10713
  154.1292  135.2828  155.3189 H   0  0  0  0  0  0  0  0  0  0  0  0  # atno 10763 bound_to 10752
  154.6368  135.5416  153.7746 H   0  0  0  0  0  0  0  0  0  0  0  0  # atno 10764 bound_to 10752
  153.0287  135.6476  154.1443 H   0  0  0  0  0  0  0  0  0  0  0  0  # atno 10765 bound_to 10752
  141.0304  133.6823  156.2571 H   0  0  0  0  0  0  0  0  0  0  0  0  # atno 11005 bound_to 11000
  144.7064  140.3867  143.7115 LP  0  0  0  0  0  0  0  0  0  0  0  0  # atno 17320 bound_to 7965
  145.6921  139.1641  143.2641 LP  0  0  0  0  0  0  0  0  0  0  0  0  # atno 17321 bound_to 7965
  139.5415  144.2634  152.1360 LP  0  0  0  0  0  0  0  0  0  0  0  0  # atno 17342 bound_to 10162
  140.1848  144.4809  150.6509 LP  0  0  0  0  0  0  0  0  0  0  0  0  # atno 17343 bound_to 10162
  157.7388  130.9820  150.2273 LP  0  0  0  0  0  0  0  0  0  0  0  0  # atno 17370 bound_to 10713
  156.2887  130.3743  149.7863 LP  0  0  0  0  0  0  0  0  0  0  0  0  # atno 17371 bound_to 10713
  140.6417  134.5159  157.5570 LP  0  0  0  0  0  0  0  0  0  0  0  0  # atno 17394 bound_to 11000
  139.9204  134.8161  156.1231 LP  0  0  0  0  0  0  0  0  0  0  0  0  # atno 17395 bound_to 11000

$$$$
