AV-unprocessed.smi:2027|AV-procd|sdf|8214|dock7
  -GOLD-   2272010483D 1   1.00000     0.00000
 Structure written by MMmdl.
 50 52  0  0  0  0  0  0  0  0  2 V2000
  152.4478  142.9429  160.6969 C   0  0  0  0  0  0  0  0  0  0  0  0
  152.1991  142.0532  159.4916 C   0  0  0  0  0  0  0  0  0  0  0  0
  152.7072  140.7346  159.4944 C   0  0  0  0  0  0  0  0  0  0  0  0
  152.4956  139.8745  158.3948 C   0  0  0  0  0  0  0  0  0  0  0  0
  152.8929  138.5645  158.1888 N   0  0  0  0  0  0  0  0  0  0  0  0
  152.3918  138.3188  156.9819 C   0  0  0  0  0  0  0  0  0  0  0  0
  151.7154  139.3160  156.3801 N   0  0  0  0  0  0  0  0  0  0  0  0
  151.0824  139.2781  155.0740 C   0  0  0  0  0  0  0  0  0  0  0  0
  150.0498  138.1409  154.9499 C   0  0  1  0  0  0  0  0  0  0  0  0
  149.2958  138.3127  153.7641 O   0  0  0  0  0  0  0  0  0  0  0  0
  150.7249  136.7580  154.9046 C   0  0  0  0  0  0  0  0  0  0  0  0
  149.7810  135.6986  154.4582 N   0  3  2  0  0  0  0  0  0  0  0  0
  148.5250  135.6865  155.2431 C   0  0  0  0  0  0  0  0  0  0  0  0
  150.3968  134.3513  154.3682 C   0  0  0  0  0  0  0  0  0  0  0  0
  149.4157  133.3399  153.8372 C   0  0  0  0  0  0  0  0  0  0  0  0
  149.2682  131.9761  154.2217 C   0  0  0  0  0  0  0  0  0  0  0  0
  148.3211  131.3499  153.5437 N   0  0  0  0  0  0  0  0  0  0  0  0
  147.8234  132.2899  152.7143 N   0  0  0  0  0  0  0  0  0  0  0  0
  146.7503  131.9453  151.8064 C   0  0  0  0  0  0  0  0  0  0  0  0
  148.4611  133.5013  152.8722 C   0  0  0  0  0  0  0  0  0  0  0  0
  151.7581  140.3743  157.2820 C   0  0  0  0  0  0  0  0  0  0  0  0
  151.2487  141.6851  157.2667 C   0  0  0  0  0  0  0  0  0  0  0  0
  151.4667  142.5302  158.3748 C   0  0  0  0  0  0  0  0  0  0  0  0
  150.9083  143.9420  158.3512 C   0  0  0  0  0  0  0  0  0  0  0  0
  153.0451  142.4318  161.4525 H   0  0  0  0  0  0  0  0  0  0  0  0
  151.5036  143.2344  161.1575 H   0  0  0  0  0  0  0  0  0  0  0  0
  152.9840  143.8455  160.4025 H   0  0  0  0  0  0  0  0  0  0  0  0
  153.2643  140.3707  160.3452 H   0  0  0  0  0  0  0  0  0  0  0  0
  152.5226  137.3572  156.5073 H   0  0  0  0  0  0  0  0  0  0  0  0
  150.6136  140.2452  154.8866 H   0  0  0  0  0  0  0  0  0  0  0  0
  151.8625  139.1612  154.3206 H   0  0  0  0  0  0  0  0  0  0  0  0
  149.3652  138.1947  155.7969 H   0  0  0  0  0  0  0  0  0  0  0  0
  149.2060  137.4744  153.3362 H   0  0  0  0  0  0  0  0  0  0  0  0
  151.5873  136.8195  154.2405 H   0  0  0  0  0  0  0  0  0  0  0  0
  151.1285  136.4947  155.8834 H   0  0  0  0  0  0  0  0  0  0  0  0
  148.7137  135.3940  156.2769 H   0  0  0  0  0  0  0  0  0  0  0  0
  147.8098  134.9829  154.8155 H   0  0  0  0  0  0  0  0  0  0  0  0
  148.0528  136.6687  155.2472 H   0  0  0  0  0  0  0  0  0  0  0  0
  151.2939  134.4054  153.7495 H   0  0  0  0  0  0  0  0  0  0  0  0
  150.7345  134.0446  155.3591 H   0  0  0  0  0  0  0  0  0  0  0  0
  149.8266  131.4233  154.9629 H   0  0  0  0  0  0  0  0  0  0  0  0
  146.3308  132.8491  151.3634 H   0  0  0  0  0  0  0  0  0  0  0  0
  145.9620  131.4171  152.3439 H   0  0  0  0  0  0  0  0  0  0  0  0
  147.1334  131.3049  151.0117 H   0  0  0  0  0  0  0  0  0  0  0  0
  148.1914  134.3668  152.2848 H   0  0  0  0  0  0  0  0  0  0  0  0
  150.6922  142.0364  156.4107 H   0  0  0  0  0  0  0  0  0  0  0  0
  150.3741  144.1436  157.4223 H   0  0  0  0  0  0  0  0  0  0  0  0
  151.7124  144.6729  158.4398 H   0  0  0  0  0  0  0  0  0  0  0  0
  150.2118  144.0910  159.1767 H   0  0  0  0  0  0  0  0  0  0  0  0
  149.5219  135.9394  153.5117 H   0  0  0  0  0  0  0  0  0  0  0  0
  1  2  1  0  0  0  0
  1 25  1  0  0  0  0
  1 26  1  0  0  0  0
  1 27  1  0  0  0  0
  2 23  1  0  0  0  0
  2  3  2  0  0  0  0
  3  4  1  0  0  0  0
  3 28  1  0  0  0  0
  4 21  2  0  0  0  0
  4  5  1  0  0  0  0
  5  6  2  0  0  0  0
  6  7  1  0  0  0  0
  6 29  1  0  0  0  0
  7  8  1  0  0  0  0
  7 21  1  0  0  0  0
  8  9  1  0  0  0  0
  8 30  1  0  0  0  0
  8 31  1  0  0  0  0
  9 10  1  0  0  0  0
  9 11  1  0  0  0  0
  9 32  1  0  0  0  0
 10 33  1  0  0  0  0
 11 12  1  0  0  0  0
 11 34  1  0  0  0  0
 11 35  1  0  0  0  0
 12 13  1  0  0  0  0
 12 14  1  0  0  0  0
 12 50  1  0  0  0  0
 13 36  1  0  0  0  0
 13 37  1  0  0  0  0
 13 38  1  0  0  0  0
 14 15  1  0  0  0  0
 14 39  1  0  0  0  0
 14 40  1  0  0  0  0
 15 20  2  0  0  0  0
 15 16  1  0  0  0  0
 16 17  2  0  0  0  0
 16 41  1  0  0  0  0
 17 18  1  0  0  0  0
 18 19  1  0  0  0  0
 18 20  1  0  0  0  0
 19 42  1  0  0  0  0
 19 43  1  0  0  0  0
 19 44  1  0  0  0  0
 20 45  1  0  0  0  0
 21 22  1  0  0  0  0
 22 23  2  0  0  0  0
 22 46  1  0  0  0  0
 23 24  1  0  0  0  0
 24 47  1  0  0  0  0
 24 48  1  0  0  0  0
 24 49  1  0  0  0  0
M  CHG  1  12   1
M  END
> <s_m_source_file>
AV-unprocessed.smi

> <i_m_source_file_index>
2027

> <i_lp_mmshare_version>
43012

> <i_f3d_flags>
0

> <s_epik_input>
W0NIM11jKFtjSF0xKWMoW0NIM10pW2NIXWMoYzEyKW4oW2NIXW4yKVtDSDJdW0NASF0oW09IXSlbQ0gyXU4oW0NIM10pW0NIMl1jM1tjSF1ubihbQ0gzXSlbY0hdMw==

> <s_epik_cmdline>
J2VwaWtfcHl0aG9uJywgJy1waCcsICc3LjAnLCAnLXRuJywgJzgnLCAnLW1hJywgJzIwMCcsICctbWV0YWxfYmluZGluZycsICctaW1hZScsICc8aW5maWxlLm1hZT4nLCAnLW9tYWUnLCAnPG91dGZpbGUubWFlPic=

> <r_lp_tautomer_probability>
1

> <r_epik_Ionization_Penalty>
0.646578

> <r_epik_Ionization_Penalty_Charging>
0.559419

> <r_epik_Ionization_Penalty_Neutral>
0.087159

> <r_epik_State_Penalty>
0.661677

> <r_epik_Charging_Adjusted_Penalty>
1.2211

> <i_epik_Tot_Q>
1

> <i_epik_Tot_abs_Q>
1

> <r_epik_Metal_State_Penalty>
0.649174

> <b_epik_Metal_Only>
0

> <s_lp_Force_Field>
OPLS_2005

> <r_lp_Energy>
10.2185

> <b_lp_Chiralities_Consistent>
1

> <s_lp_Variant>
AV-unprocessed.smi:2027-6

> <Gold.Version>
5.8.1

> <Gold.Id.Protein>
6NUR|6NUR_protein|mol2

> <Gold.PLP.Fitness>
55.7882

> <Gold.PLP.PLP>
-44.6553

> <Gold.PLP.part.hbond>
-3.0000

> <Gold.PLP.part.metal>
0.0000

> <Gold.PLP.part.buried>
-3.6917

> <Gold.PLP.part.nonpolar>
-37.9704

> <Gold.PLP.part.repulsive>
0.1024

> <Gold.PLP.ligand.clash>
0.0000

> <Gold.PLP.ligand.torsion>
0.5209

> <Gold.PLP.Chemscore.Hbond>
3.0000

> <Gold.PLP.Chemscore.CHOScore>
1.0000

> <Gold.PLP.Chemscore.Metal>
0.0000

> <Gold.Chemscore.Hbonds>
donor molecule, donor type, donor heavy atom, donor atom, acceptor molecule, acceptor atom, score
      L1  H    10    33       P1  7948  1.00
      L1  H    12    50       P1  7948  2.00
      L1  C    20    45       P1  7948  0.72

> <Gold.PLP.Chemscore.Internal.Correction>
0.1748

> <Gold.Rescore>
     Score         DG    S(hbond)    S(metal)    S(lipo)     H(rot)  DE(clash)    DE(int)     intcor
     17.79     -18.87       1.70        0.00     120.81       2.50       0.52       0.56       ----

> <Gold.Chemscore.Fitness>
17.7903

> <Gold.Chemscore.DG>
-18.8685

> <Gold.Chemscore.ZeroCoef>
-5.4800

> <Gold.Chemscore.Hbond>
1.6963

> <Gold.Chemscore.Metal>
0.0000

> <Gold.Chemscore.Lipo>
120.8118

> <Gold.Chemscore.Internal_Hbond>
0.0000

> <Gold.Chemscore.DEClash>
0.5182

> <Gold.Chemscore.DEInternal>
0.5600

> <Gold.Chemscore.Rot>
2.5047

> <Gold.Chemscore.Internal.Correction>
   9.000000E+99

> <Gold.Chemscore.Hbonds>
donor molecule, donor type, donor heavy atom, donor atom, acceptor molecule, acceptor atom, score
      L1  H    10    33       P1  7948  0.98
      L1  H    12    50       P1  7948  0.35

> <Gold.Chemscore.Hbond.Weighted>
-5.6655

> <Gold.Chemscore.Metal.Weighted>
-0.0000

> <Gold.Chemscore.Lipo.Weighted>
-14.1350

> <Gold.Chemscore.Internal_Hbond.Weighted>
0.0000

> <Gold.Chemscore.DEClash.Weighted>
0.5182

> <Gold.Chemscore.DEInternal.Weighted>
0.5600

> <Gold.Chemscore.Rot.Weighted>
6.4120

> <Gold.Chemscore.Internal.Correction.Weighted>
   9.000000E+99

> <Gold.Protein.RotatedTorsions>
[ 6907 6896 6895 6894 ] final  134.78 input  -60.11 | X-H torsion
[ 7974 7965 7964 7962 ] final   39.43 input  175.53 | X-H torsion
[ 8008 7997 7996 7995 ] final -152.48 input   59.86 | X-H torsion
[ 10167 10162 10161 10158 ] final  135.24 input  -65.29 | X-H torsion
[ 10718 10713 10712 10709 ] final   22.89 input   66.30 | X-H torsion
[ 10763 10752 10751 10750 ] final  171.17 input  -60.55 | X-H torsion
[ 11005 11000 10999 10996 ] final  158.91 input  -57.11 | X-H torsion

> <Gold.Protein.ActiveResidues>
 VAL166  LYS551  ARG553  GLY616  TRP617  ASP618  TYR619  PRO620  LYS621  CYS622 
 ASP623  PHE694  ASN695  SER759  ASP760  ASP761  ALA762  ILE779  LEU786  VAL792 
 PHE793  MET794  SER795  GLU796  ALA797  LYS798  CYS799  TRP800  GLU811  SER814 

> <Gold.Protein.RotatedAtoms>
  152.3076  133.5719  159.5659 H   0  0  0  0  0  0  0  0  0  0  0  0  # atno 6907 bound_to 6896
  150.7307  134.0200  159.3707 H   0  0  0  0  0  0  0  0  0  0  0  0  # atno 6908 bound_to 6896
  151.8095  135.0685  160.0462 H   0  0  0  0  0  0  0  0  0  0  0  0  # atno 6909 bound_to 6896
  146.0985  139.5653  142.9430 H   0  0  0  0  0  0  0  0  0  0  0  0  # atno 7974 bound_to 7965
  155.6557  140.0717  157.2571 H   0  0  0  0  0  0  0  0  0  0  0  0  # atno 8008 bound_to 7997
  154.4153  140.1725  156.1773 H   0  0  0  0  0  0  0  0  0  0  0  0  # atno 8009 bound_to 7997
  155.9739  140.3359  155.6604 H   0  0  0  0  0  0  0  0  0  0  0  0  # atno 8010 bound_to 7997
  139.5225  144.6527  151.5254 H   0  0  0  0  0  0  0  0  0  0  0  0  # atno 10167 bound_to 10162
  157.1585  130.6706  149.6036 H   0  0  0  0  0  0  0  0  0  0  0  0  # atno 10718 bound_to 10713
  154.4081  135.2756  155.2054 H   0  0  0  0  0  0  0  0  0  0  0  0  # atno 10763 bound_to 10752
  154.4052  135.6035  153.5924 H   0  0  0  0  0  0  0  0  0  0  0  0  # atno 10764 bound_to 10752
  152.9831  135.5936  154.4358 H   0  0  0  0  0  0  0  0  0  0  0  0  # atno 10765 bound_to 10752
  140.1911  134.8406  157.2913 H   0  0  0  0  0  0  0  0  0  0  0  0  # atno 11005 bound_to 11000
  145.5901  141.0371  143.2075 LP  0  0  0  0  0  0  0  0  0  0  0  0  # atno 17320 bound_to 7965
  144.7414  139.7439  143.7309 LP  0  0  0  0  0  0  0  0  0  0  0  0  # atno 17321 bound_to 7965
  140.6339  143.9023  150.6630 LP  0  0  0  0  0  0  0  0  0  0  0  0  # atno 17342 bound_to 10162
  140.2335  143.3717  152.1546 LP  0  0  0  0  0  0  0  0  0  0  0  0  # atno 17343 bound_to 10162
  155.9758  130.4720  150.6483 LP  0  0  0  0  0  0  0  0  0  0  0  0  # atno 17370 bound_to 10713
  157.4154  131.0829  151.1181 LP  0  0  0  0  0  0  0  0  0  0  0  0  # atno 17371 bound_to 10713
  140.2158  134.4083  155.7590 LP  0  0  0  0  0  0  0  0  0  0  0  0  # atno 17394 bound_to 11000
  141.2226  133.7141  156.8412 LP  0  0  0  0  0  0  0  0  0  0  0  0  # atno 17395 bound_to 11000

$$$$
