AV-unprocessed.smi:50|AV-procd|sdf|498|dock6
  -GOLD-   2262016373D 1   1.00000     0.00000
 Structure written by MMmdl.
 42 43  0  0  0  0  0  0  0  0  2 V2000
  145.3186  131.0277  151.1905 C   0  0  0  0  0  0  0  0  0  0  0  0
  145.3460  132.5663  151.3021 C   0  0  0  0  0  0  0  0  0  0  0  0
  144.7895  133.1665  149.9977 C   0  0  0  0  0  0  0  0  0  0  0  0
  146.7423  133.1708  151.6399 C   0  0  1  0  0  0  0  0  0  0  0  0
  146.6626  134.6317  151.6850 N   0  0  0  0  0  0  0  0  0  0  0  0
  147.3491  132.6159  152.9419 C   0  0  0  0  0  0  0  0  0  0  0  0
  146.7993  131.7845  153.6673 O   0  0  0  0  0  0  0  0  0  0  0  0
  148.5601  133.1602  153.1570 O   0  0  0  0  0  0  0  0  0  0  0  0
  149.3535  132.7710  154.2690 C   0  0  0  0  0  0  0  0  0  0  0  0
  148.7979  133.4686  155.5128 C   0  0  0  0  0  0  0  0  0  0  0  0
  147.5888  132.8275  155.8963 O   0  0  0  0  0  0  0  0  0  0  0  0
  146.6679  133.6664  156.5166 C   0  0  0  0  0  0  0  0  0  0  0  0
  147.2848  134.2426  157.6997 N   0  0  0  0  0  0  0  0  0  0  0  0
  148.1975  133.6564  158.4986 C   0  0  0  0  0  0  0  0  0  0  0  0
  148.6070  134.3889  159.5332 N   0  0  0  0  0  0  0  0  0  0  0  0
  147.8758  135.5596  159.3668 C   0  0  0  0  0  0  0  0  0  0  0  0
  147.8121  136.8046  160.1698 C   0  0  0  0  0  0  0  0  0  0  0  0
  148.5124  136.9047  161.1755 O   0  0  0  0  0  0  0  0  0  0  0  0
  146.9481  137.7587  159.7071 N   0  5  0  0  0  0  0  0  0  0  0  0
  146.1974  137.5337  158.5445 C   0  0  0  0  0  0  0  0  0  0  0  0
  145.3868  138.5988  158.2177 N   0  0  0  0  0  0  0  0  0  0  0  0
  146.2032  136.4633  157.7885 N   0  0  0  0  0  0  0  0  0  0  0  0
  147.0713  135.4965  158.2610 C   0  0  0  0  0  0  0  0  0  0  0  0
  147.4218  132.9098  150.8275 H   0  0  0  0  0  0  0  0  0  0  0  0
  146.0594  130.6762  150.4730 H   0  0  0  0  0  0  0  0  0  0  0  0
  144.3430  130.6714  150.8584 H   0  0  0  0  0  0  0  0  0  0  0  0
  145.5179  130.5413  152.1453 H   0  0  0  0  0  0  0  0  0  0  0  0
  144.6577  132.8347  152.1052 H   0  0  0  0  0  0  0  0  0  0  0  0
  145.4325  132.9295  149.1492 H   0  0  0  0  0  0  0  0  0  0  0  0
  144.7023  134.2515  150.0561 H   0  0  0  0  0  0  0  0  0  0  0  0
  143.7954  132.7764  149.7774 H   0  0  0  0  0  0  0  0  0  0  0  0
  146.4586  134.9617  152.6175 H   0  0  0  0  0  0  0  0  0  0  0  0
  147.5340  135.0601  151.4079 H   0  0  0  0  0  0  0  0  0  0  0  0
  149.3378  131.6870  154.3842 H   0  0  0  0  0  0  0  0  0  0  0  0
  150.3940  133.0701  154.1353 H   0  0  0  0  0  0  0  0  0  0  0  0
  149.5099  133.3935  156.3353 H   0  0  0  0  0  0  0  0  0  0  0  0
  148.6563  134.5295  155.3039 H   0  0  0  0  0  0  0  0  0  0  0  0
  146.4229  134.4804  155.8337 H   0  0  0  0  0  0  0  0  0  0  0  0
  145.7476  133.1433  156.7819 H   0  0  0  0  0  0  0  0  0  0  0  0
  148.5676  132.6580  158.3181 H   0  0  0  0  0  0  0  0  0  0  0  0
  145.3383  139.4502  158.7574 H   0  0  0  0  0  0  0  0  0  0  0  0
  144.7766  138.5993  157.4136 H   0  0  0  0  0  0  0  0  0  0  0  0
  1  2  1  0  0  0  0
  1 25  1  0  0  0  0
  1 26  1  0  0  0  0
  1 27  1  0  0  0  0
  2  3  1  0  0  0  0
  2  4  1  0  0  0  0
  2 28  1  0  0  0  0
  3 29  1  0  0  0  0
  3 30  1  0  0  0  0
  3 31  1  0  0  0  0
  4 24  1  0  0  0  0
  4  5  1  0  0  0  0
  4  6  1  0  0  0  0
  5 32  1  0  0  0  0
  5 33  1  0  0  0  0
  6  7  2  0  0  0  0
  6  8  1  0  0  0  0
  8  9  1  0  0  0  0
  9 10  1  0  0  0  0
  9 34  1  0  0  0  0
  9 35  1  0  0  0  0
 10 11  1  0  0  0  0
 10 36  1  0  0  0  0
 10 37  1  0  0  0  0
 11 12  1  0  0  0  0
 12 13  1  0  0  0  0
 12 38  1  0  0  0  0
 12 39  1  0  0  0  0
 13 23  1  0  0  0  0
 13 14  1  0  0  0  0
 14 15  2  0  0  0  0
 14 40  1  0  0  0  0
 15 16  1  0  0  0  0
 16 23  2  0  0  0  0
 16 17  1  0  0  0  0
 17 18  2  0  0  0  0
 17 19  1  0  0  0  0
 19 20  1  0  0  0  0
 20 21  1  0  0  0  0
 20 22  2  0  0  0  0
 21 41  1  0  0  0  0
 21 42  1  0  0  0  0
 22 23  1  0  0  0  0
M  CHG  1  19  -1
M  END
> <s_m_source_file>
AV-unprocessed.smi

> <i_m_source_file_index>
50

> <i_lp_mmshare_version>
43012

> <i_f3d_flags>
0

> <s_epik_input>
W0NIM11bQ0hdKFtDSDNdKVtDQEhdKFtOSDJdKUMoPU8pT1tDSDJdW0NIMl1PW0NIMl1uKFtjSF1uMSljKGMxMiluYyhbTkgyXSlbbkhdYzI9Tw==

> <s_epik_cmdline>
J2VwaWtfcHl0aG9uJywgJy1waCcsICc3LjAnLCAnLXRuJywgJzgnLCAnLW1hJywgJzIwMCcsICctbWV0YWxfYmluZGluZycsICctaW1hZScsICc8aW5maWxlLm1hZT4nLCAnLW9tYWUnLCAnPG91dGZpbGUubWFlPic=

> <r_lp_tautomer_probability>
0.99994

> <r_epik_Ionization_Penalty>
4.26118

> <r_epik_Ionization_Penalty_Charging>
1.23364e-10

> <r_epik_Ionization_Penalty_Neutral>
4.26118

> <r_epik_State_Penalty>
4.27372

> <r_epik_Charging_Adjusted_Penalty>
4.27372

> <i_epik_Tot_Q>
-1

> <i_epik_Tot_abs_Q>
1

> <r_epik_Metal_State_Penalty>
1.24306

> <b_epik_Metal_Only>
1

> <s_epik_Chemistry_Notes>
This compound has an ester and may undergo hydrolysis at high or low pH. This compound contains an acetal/aminal-like group ( X-CH(R)-Y where X, Y are N, S, or O) that may be acid/base labile, releasing an aldehyde.

> <s_lp_Force_Field>
OPLS_2005

> <r_lp_Energy>
20.1027

> <b_lp_Chiralities_Consistent>
1

> <s_lp_Variant>
AV-unprocessed.smi:50-8

> <Gold.Version>
5.8.1

> <Gold.Id.Protein>
6NUR|6NUR_protein|mol2

> <Gold.PLP.Fitness>
39.3404

> <Gold.PLP.PLP>
-25.4218

> <Gold.PLP.part.hbond>
-4.2235

> <Gold.PLP.part.metal>
0.0000

> <Gold.PLP.part.buried>
-4.4225

> <Gold.PLP.part.nonpolar>
-18.0423

> <Gold.PLP.part.repulsive>
0.4945

> <Gold.PLP.ligand.clash>
0.0000

> <Gold.PLP.ligand.torsion>
0.7156

> <Gold.PLP.Chemscore.Hbond>
5.0000

> <Gold.PLP.Chemscore.CHOScore>
0.0000

> <Gold.PLP.Chemscore.Metal>
0.0000

> <Gold.Chemscore.Hbonds>
donor molecule, donor type, donor heavy atom, donor atom, acceptor molecule, acceptor atom, score
      L1  H     5    33       P1  7948  0.99
      P1  H  6896  6907       L1    15  0.94
      P1  H  6931  6943       L1    18  1.00
      P1  H  6934  6947       L1    19  1.79

> <Gold.PLP.Chemscore.Internal.Correction>
0.3498

> <Gold.Rescore>
     Score         DG    S(hbond)    S(metal)    S(lipo)     H(rot)  DE(clash)    DE(int)     intcor
      7.45      -9.98       3.28        0.00      48.18       4.72       0.32       2.21       ----

> <Gold.Chemscore.Fitness>
7.4502

> <Gold.Chemscore.DG>
-9.9823

> <Gold.Chemscore.ZeroCoef>
-5.4800

> <Gold.Chemscore.Hbond>
3.2809

> <Gold.Chemscore.Metal>
0.0000

> <Gold.Chemscore.Lipo>
48.1821

> <Gold.Chemscore.Internal_Hbond>
0.0000

> <Gold.Chemscore.DEClash>
0.3216

> <Gold.Chemscore.DEInternal>
2.2105

> <Gold.Chemscore.Rot>
4.7239

> <Gold.Chemscore.Internal.Correction>
   9.000000E+99

> <Gold.Chemscore.Hbonds>
donor molecule, donor type, donor heavy atom, donor atom, acceptor molecule, acceptor atom, score
      L1  H     5    33       P1  7948  0.47
      P1  H  6896  6907       L1    15  0.43
      P1  H  6931  6943       L1    18  0.98
      P1  H  6934  6947       L1    19  0.31

> <Gold.Chemscore.Hbond.Weighted>
-10.9582

> <Gold.Chemscore.Metal.Weighted>
-0.0000

> <Gold.Chemscore.Lipo.Weighted>
-5.6373

> <Gold.Chemscore.Internal_Hbond.Weighted>
0.0000

> <Gold.Chemscore.DEClash.Weighted>
0.3216

> <Gold.Chemscore.DEInternal.Weighted>
2.2105

> <Gold.Chemscore.Rot.Weighted>
12.0933

> <Gold.Chemscore.Internal.Correction.Weighted>
   9.000000E+99

> <Gold.Protein.RotatedTorsions>
[ 6907 6896 6895 6894 ] final  -86.56 input  -60.11 | X-H torsion
[ 7974 7965 7964 7962 ] final   52.24 input  175.53 | X-H torsion
[ 8008 7997 7996 7995 ] final -173.15 input   59.86 | X-H torsion
[ 10167 10162 10161 10158 ] final -156.89 input  -65.29 | X-H torsion
[ 10718 10713 10712 10709 ] final  -86.23 input   66.30 | X-H torsion
[ 10763 10752 10751 10750 ] final  -32.02 input  -60.55 | X-H torsion
[ 11005 11000 10999 10996 ] final -120.67 input  -57.11 | X-H torsion

> <Gold.Protein.ActiveResidues>
 VAL166  LYS551  ARG553  GLY616  TRP617  ASP618  TYR619  PRO620  LYS621  CYS622 
 ASP623  PHE694  ASN695  SER759  ASP760  ASP761  ALA762  ILE779  LEU786  VAL792 
 PHE793  MET794  SER795  GLU796  ALA797  LYS798  CYS799  TRP800  GLU811  SER814 

> <Gold.Protein.RotatedAtoms>
  150.6867  134.3032  159.4714 H   0  0  0  0  0  0  0  0  0  0  0  0  # atno 6907 bound_to 6896
  152.0925  134.9395  160.0581 H   0  0  0  0  0  0  0  0  0  0  0  0  # atno 6908 bound_to 6896
  152.0705  133.4069  159.4494 H   0  0  0  0  0  0  0  0  0  0  0  0  # atno 6909 bound_to 6896
  145.9833  139.4264  143.0119 H   0  0  0  0  0  0  0  0  0  0  0  0  # atno 7974 bound_to 7965
  155.9538  140.1131  157.0954 H   0  0  0  0  0  0  0  0  0  0  0  0  # atno 8008 bound_to 7997
  154.4116  140.1195  156.5154 H   0  0  0  0  0  0  0  0  0  0  0  0  # atno 8009 bound_to 7997
  155.6808  140.3473  155.4857 H   0  0  0  0  0  0  0  0  0  0  0  0  # atno 8010 bound_to 7997
  139.6814  143.9575  152.2338 H   0  0  0  0  0  0  0  0  0  0  0  0  # atno 10167 bound_to 10162
  155.9991  130.4758  150.4684 H   0  0  0  0  0  0  0  0  0  0  0  0  # atno 10718 bound_to 10713
  153.8069  135.6885  153.4847 H   0  0  0  0  0  0  0  0  0  0  0  0  # atno 10763 bound_to 10752
  153.1653  135.4564  154.9827 H   0  0  0  0  0  0  0  0  0  0  0  0  # atno 10764 bound_to 10752
  154.7984  135.3328  154.7553 H   0  0  0  0  0  0  0  0  0  0  0  0  # atno 10765 bound_to 10752
  141.0127  134.0241  157.3392 H   0  0  0  0  0  0  0  0  0  0  0  0  # atno 11005 bound_to 11000
  145.7738  140.9885  143.1135 LP  0  0  0  0  0  0  0  0  0  0  0  0  # atno 17320 bound_to 7965
  144.6867  139.9480  143.7477 LP  0  0  0  0  0  0  0  0  0  0  0  0  # atno 17321 bound_to 7965
  139.9366  144.6708  150.8309 LP  0  0  0  0  0  0  0  0  0  0  0  0  # atno 17342 bound_to 10162
  140.7653  143.3273  151.2489 LP  0  0  0  0  0  0  0  0  0  0  0  0  # atno 17343 bound_to 10162
  157.2701  131.0585  151.2265 LP  0  0  0  0  0  0  0  0  0  0  0  0  # atno 17370 bound_to 10713
  157.3348  130.7003  149.6346 LP  0  0  0  0  0  0  0  0  0  0  0  0  # atno 17371 bound_to 10713
  139.9099  135.0188  156.7647 LP  0  0  0  0  0  0  0  0  0  0  0  0  # atno 17394 bound_to 11000
  140.6707  133.9562  155.7855 LP  0  0  0  0  0  0  0  0  0  0  0  0  # atno 17395 bound_to 11000

$$$$
