AV-unprocessed.smi:2119|AV-procd|sdf|8632|dock10
  -GOLD-   2272011373D 1   1.00000     0.00000
 Structure written by MMmdl.
 47 49  0  0  0  0  0  0  0  0  1 V2000
  145.9254  134.0657  154.5322 O   0  0  0  0  0  0  0  0  0  0  0  0
  146.6630  134.6198  153.7176 C   0  0  0  0  0  0  0  0  0  0  0  0
  147.6336  135.4764  154.0649 N   0  0  0  0  0  0  0  0  0  0  0  0
  147.9249  135.9056  155.4305 C   0  0  0  0  0  0  0  0  0  0  0  0
  149.4435  136.1556  155.6946 C   0  0  2  0  0  0  0  0  0  0  0  0
  149.6991  136.1570  157.2412 C   0  0  1  0  0  0  0  0  0  0  0  0
  149.3602  137.3855  158.0681 C   0  0  0  0  0  0  0  0  0  0  0  0
  149.4767  136.8349  159.4840 C   0  0  0  0  0  0  0  0  0  0  0  0
  148.9835  135.5020  159.4003 O   0  0  0  0  0  0  0  0  0  0  0  0
  148.9557  135.0784  158.0389 C   0  0  0  0  0  0  0  0  0  0  0  0
  150.0202  137.3307  154.9925 N   0  0  0  0  0  0  0  0  0  0  0  0
  149.2143  138.5402  155.2056 C   0  0  0  0  0  0  0  0  0  0  0  0
  149.7399  139.7404  154.4015 C   0  0  0  0  0  0  0  0  0  0  0  0
  151.0860  140.0038  154.7786 O   0  0  0  0  0  0  0  0  0  0  0  0
  151.9352  138.8799  154.5824 C   0  0  0  0  0  0  0  0  0  0  0  0
  151.3965  137.6710  155.3695 C   0  0  0  0  0  0  0  0  0  0  0  0
  146.6207  134.4515  152.3851 N   0  0  0  0  0  0  0  0  0  0  0  0
  145.7135  133.6759  151.6131 C   0  0  0  0  0  0  0  0  0  0  0  0
  146.0654  132.9566  150.4449 C   0  0  0  0  0  0  0  0  0  0  0  0
  145.0722  132.2107  149.7812 C   0  0  0  0  0  0  0  0  0  0  0  0
  143.7678  132.2036  150.3121 C   0  0  0  0  0  0  0  0  0  0  0  0
  143.4215  132.8736  151.4313 N   0  0  0  0  0  0  0  0  0  0  0  0
  144.3786  133.5870  152.0619 C   0  0  0  0  0  0  0  0  0  0  0  0
  148.1992  135.8787  153.3317 H   0  0  0  0  0  0  0  0  0  0  0  0
  147.3394  136.8077  155.6126 H   0  0  0  0  0  0  0  0  0  0  0  0
  147.5371  135.1465  156.1102 H   0  0  0  0  0  0  0  0  0  0  0  0
  149.9489  135.2725  155.3005 H   0  0  0  0  0  0  0  0  0  0  0  0
  150.7666  135.9917  157.3955 H   0  0  0  0  0  0  0  0  0  0  0  0
  150.0225  138.2318  157.8843 H   0  0  0  0  0  0  0  0  0  0  0  0
  148.3269  137.6968  157.9152 H   0  0  0  0  0  0  0  0  0  0  0  0
  150.5206  136.8050  159.7985 H   0  0  0  0  0  0  0  0  0  0  0  0
  148.9186  137.4240  160.2121 H   0  0  0  0  0  0  0  0  0  0  0  0
  147.9151  135.0083  157.7191 H   0  0  0  0  0  0  0  0  0  0  0  0
  149.4085  134.0924  157.9338 H   0  0  0  0  0  0  0  0  0  0  0  0
  148.1690  138.3868  154.9595 H   0  0  0  0  0  0  0  0  0  0  0  0
  149.2243  138.7998  156.2655 H   0  0  0  0  0  0  0  0  0  0  0  0
  149.6809  139.5458  153.3297 H   0  0  0  0  0  0  0  0  0  0  0  0
  149.1359  140.6254  154.6022 H   0  0  0  0  0  0  0  0  0  0  0  0
  152.0003  138.6484  153.5182 H   0  0  0  0  0  0  0  0  0  0  0  0
  152.9414  139.1318  154.9168 H   0  0  0  0  0  0  0  0  0  0  0  0
  151.4511  137.8802  156.4391 H   0  0  0  0  0  0  0  0  0  0  0  0
  152.0634  136.8323  155.1714 H   0  0  0  0  0  0  0  0  0  0  0  0
  147.3470  134.9141  151.8579 H   0  0  0  0  0  0  0  0  0  0  0  0
  147.0702  132.9478  150.0525 H   0  0  0  0  0  0  0  0  0  0  0  0
  145.3066  131.6521  148.8872 H   0  0  0  0  0  0  0  0  0  0  0  0
  142.9838  131.6403  149.8282 H   0  0  0  0  0  0  0  0  0  0  0  0
  144.0660  134.1074  152.9554 H   0  0  0  0  0  0  0  0  0  0  0  0
  1  2  2  0  0  0  0
  2  3  1  0  0  0  0
  2 17  1  0  0  0  0
  3  4  1  0  0  0  0
  3 24  1  0  0  0  0
  4  5  1  0  0  0  0
  4 25  1  0  0  0  0
  4 26  1  0  0  0  0
  5  6  1  0  0  0  0
  5 11  1  0  0  0  0
  5 27  1  0  0  0  0
  6 10  1  0  0  0  0
  6  7  1  0  0  0  0
  6 28  1  0  0  0  0
  7  8  1  0  0  0  0
  7 29  1  0  0  0  0
  7 30  1  0  0  0  0
  8  9  1  0  0  0  0
  8 31  1  0  0  0  0
  8 32  1  0  0  0  0
  9 10  1  0  0  0  0
 10 33  1  0  0  0  0
 10 34  1  0  0  0  0
 11 16  1  0  0  0  0
 11 12  1  0  0  0  0
 12 13  1  0  0  0  0
 12 35  1  0  0  0  0
 12 36  1  0  0  0  0
 13 14  1  0  0  0  0
 13 37  1  0  0  0  0
 13 38  1  0  0  0  0
 14 15  1  0  0  0  0
 15 16  1  0  0  0  0
 15 39  1  0  0  0  0
 15 40  1  0  0  0  0
 16 41  1  0  0  0  0
 16 42  1  0  0  0  0
 17 18  1  0  0  0  0
 17 43  1  0  0  0  0
 18 23  1  0  0  0  0
 18 19  2  0  0  0  0
 19 20  1  0  0  0  0
 19 44  1  0  0  0  0
 20 21  2  0  0  0  0
 20 45  1  0  0  0  0
 21 22  1  0  0  0  0
 21 46  1  0  0  0  0
 22 23  2  0  0  0  0
 23 47  1  0  0  0  0
M  END
> <s_m_source_file>
AV-unprocessed.smi

> <i_m_source_file_index>
2119

> <i_lp_mmshare_version>
43012

> <i_f3d_flags>
0

> <s_epik_input>
W2NIXTFuW2NIXVtjSF1bY0hdYzFbTkhdQyg9TylbTkhdW0NIMl1bQ0BIXShbQ0BASF0yW0NIMl1bQ0gyXU9bQ0gyXTIpTjNbQ0gyXVtDSDJdT1tDSDJdW0NIMl0z

> <s_epik_cmdline>
J2VwaWtfcHl0aG9uJywgJy1waCcsICc3LjAnLCAnLXRuJywgJzgnLCAnLW1hJywgJzIwMCcsICctbWV0YWxfYmluZGluZycsICctaW1hZScsICc8aW5maWxlLm1hZT4nLCAnLW9tYWUnLCAnPG91dGZpbGUubWFlPic=

> <r_epik_Ionization_Penalty>
0.129787

> <r_epik_Ionization_Penalty_Charging>
0

> <r_epik_Ionization_Penalty_Neutral>
0.129787

> <r_epik_State_Penalty>
0.121311

> <r_epik_Charging_Adjusted_Penalty>
0.121311

> <i_epik_Tot_Q>
0

> <i_epik_Tot_abs_Q>
0

> <r_epik_Metal_State_Penalty>
0.117931

> <b_epik_Metal_Only>
0

> <s_lp_Force_Field>
OPLS_2005

> <r_lp_Energy>
58.2648

> <b_lp_Chiralities_Consistent>
1

> <s_lp_Variant>
AV-unprocessed.smi:2119-3

> <Gold.Version>
5.8.1

> <Gold.Id.Protein>
6NUR|6NUR_protein|mol2

> <Gold.PLP.Fitness>
44.0317

> <Gold.PLP.PLP>
-33.0900

> <Gold.PLP.part.hbond>
-4.0000

> <Gold.PLP.part.metal>
0.0000

> <Gold.PLP.part.buried>
-6.5869

> <Gold.PLP.part.nonpolar>
-23.6639

> <Gold.PLP.part.repulsive>
0.5270

> <Gold.PLP.ligand.clash>
0.0000

> <Gold.PLP.ligand.torsion>
0.8781

> <Gold.PLP.Chemscore.Hbond>
3.1945

> <Gold.PLP.Chemscore.CHOScore>
0.9856

> <Gold.PLP.Chemscore.Metal>
0.0000

> <Gold.Chemscore.Hbonds>
donor molecule, donor type, donor heavy atom, donor atom, acceptor molecule, acceptor atom, score
      L1  H     3    24       P1  7948  1.00
      L1  H    17    43       P1  7948  0.98
      P1  H  6896  6907       L1     9  0.36
      P1  H  7989  7998       L1    14  0.80
      L1  C    21    46       P1 10952  0.99

> <Gold.PLP.Chemscore.Internal.Correction>
0.1576

> <Gold.Rescore>
     Score         DG    S(hbond)    S(metal)    S(lipo)     H(rot)  DE(clash)    DE(int)     intcor
     15.25     -17.17       1.87        0.00      82.60       1.65       0.00       1.92       ----

> <Gold.Chemscore.Fitness>
15.2493

> <Gold.Chemscore.DG>
-17.1677

> <Gold.Chemscore.ZeroCoef>
-5.4800

> <Gold.Chemscore.Hbond>
1.8713

> <Gold.Chemscore.Metal>
0.0000

> <Gold.Chemscore.Lipo>
82.5952

> <Gold.Chemscore.Internal_Hbond>
0.0000

> <Gold.Chemscore.DEClash>
0.0009

> <Gold.Chemscore.DEInternal>
1.9175

> <Gold.Chemscore.Rot>
1.6508

> <Gold.Chemscore.Internal.Correction>
   9.000000E+99

> <Gold.Chemscore.Hbonds>
donor molecule, donor type, donor heavy atom, donor atom, acceptor molecule, acceptor atom, score
      L1  H     3    24       P1  7948  1.00
      L1  H    17    43       P1  7948  0.74
      P1  H  7989  7998       L1    14  0.04

> <Gold.Chemscore.Hbond.Weighted>
-6.2502

> <Gold.Chemscore.Metal.Weighted>
-0.0000

> <Gold.Chemscore.Lipo.Weighted>
-9.6636

> <Gold.Chemscore.Internal_Hbond.Weighted>
0.0000

> <Gold.Chemscore.DEClash.Weighted>
0.0009

> <Gold.Chemscore.DEInternal.Weighted>
1.9175

> <Gold.Chemscore.Rot.Weighted>
4.2262

> <Gold.Chemscore.Internal.Correction.Weighted>
   9.000000E+99

> <Gold.Protein.RotatedTorsions>
[ 6907 6896 6895 6894 ] final  -56.84 input  -60.11 | X-H torsion
[ 7974 7965 7964 7962 ] final   61.69 input  175.53 | X-H torsion
[ 8008 7997 7996 7995 ] final -121.12 input   59.86 | X-H torsion
[ 10167 10162 10161 10158 ] final   48.62 input  -65.29 | X-H torsion
[ 10718 10713 10712 10709 ] final   33.36 input   66.30 | X-H torsion
[ 10763 10752 10751 10750 ] final -159.86 input  -60.55 | X-H torsion
[ 11005 11000 10999 10996 ] final  -78.07 input  -57.11 | X-H torsion

> <Gold.Protein.ActiveResidues>
 VAL166  LYS551  ARG553  GLY616  TRP617  ASP618  TYR619  PRO620  LYS621  CYS622 
 ASP623  PHE694  ASN695  SER759  ASP760  ASP761  ALA762  ILE779  LEU786  VAL792 
 PHE793  MET794  SER795  GLU796  ALA797  LYS798  CYS799  TRP800  GLU811  SER814 

> <Gold.Protein.RotatedAtoms>
  150.8135  134.7303  159.6708 H   0  0  0  0  0  0  0  0  0  0  0  0  # atno 6907 bound_to 6896
  152.4254  134.5875  159.9974 H   0  0  0  0  0  0  0  0  0  0  0  0  # atno 6908 bound_to 6896
  151.6078  133.3313  159.3097 H   0  0  0  0  0  0  0  0  0  0  0  0  # atno 6909 bound_to 6896
  145.8818  139.3449  143.0701 H   0  0  0  0  0  0  0  0  0  0  0  0  # atno 7974 bound_to 7965
  155.1428  140.0402  157.2802 H   0  0  0  0  0  0  0  0  0  0  0  0  # atno 8008 bound_to 7997
  154.6461  140.2558  155.7240 H   0  0  0  0  0  0  0  0  0  0  0  0  # atno 8009 bound_to 7997
  156.2555  140.2846  156.0875 H   0  0  0  0  0  0  0  0  0  0  0  0  # atno 8010 bound_to 7997
  140.2914  144.3041  150.6240 H   0  0  0  0  0  0  0  0  0  0  0  0  # atno 10167 bound_to 10162
  157.2969  130.7331  149.6643 H   0  0  0  0  0  0  0  0  0  0  0  0  # atno 10718 bound_to 10713
  154.7439  135.3075  154.8678 H   0  0  0  0  0  0  0  0  0  0  0  0  # atno 10763 bound_to 10752
  153.9485  135.6766  153.4748 H   0  0  0  0  0  0  0  0  0  0  0  0  # atno 10764 bound_to 10752
  153.1037  135.4899  154.8838 H   0  0  0  0  0  0  0  0  0  0  0  0  # atno 10765 bound_to 10752
  141.1663  133.7048  156.7916 H   0  0  0  0  0  0  0  0  0  0  0  0  # atno 11005 bound_to 11000
  145.9014  140.9240  143.0501 LP  0  0  0  0  0  0  0  0  0  0  0  0  # atno 17320 bound_to 7965
  144.6727  140.1037  143.7459 LP  0  0  0  0  0  0  0  0  0  0  0  0  # atno 17321 bound_to 7965
  140.5729  143.2179  151.7567 LP  0  0  0  0  0  0  0  0  0  0  0  0  # atno 17342 bound_to 10162
  139.4937  144.4191  151.9997 LP  0  0  0  0  0  0  0  0  0  0  0  0  # atno 17343 bound_to 10162
  155.9669  130.4292  150.4821 LP  0  0  0  0  0  0  0  0  0  0  0  0  # atno 17370 bound_to 10713
  157.2794  131.0604  151.2207 LP  0  0  0  0  0  0  0  0  0  0  0  0  # atno 17371 bound_to 10713
  140.2321  134.8678  157.3487 LP  0  0  0  0  0  0  0  0  0  0  0  0  # atno 17394 bound_to 11000
  140.1880  134.4406  155.7732 LP  0  0  0  0  0  0  0  0  0  0  0  0  # atno 17395 bound_to 11000

$$$$
