AV-unprocessed.smi:233|AV-procd|sdf|1783|dock7
  -GOLD-   2262020333D 1   1.00000     0.00000
 Structure written by MMmdl.
 59 62  0  0  0  0  0  0  0  0  1 V2000
  153.0975  142.8101  161.4358 C   0  0  0  0  0  0  0  0  0  0  0  0
  152.4173  142.9259  160.0759 C   0  0  0  0  0  0  0  0  0  0  0  0
  151.9180  143.9941  159.7240 O   0  0  0  0  0  0  0  0  0  0  0  0
  152.4085  141.8159  159.3222 N   0  0  0  0  0  0  0  0  0  0  0  0
  151.8112  141.6983  157.9952 C   0  0  2  0  0  0  0  0  0  0  0  0
  150.2869  141.8924  158.1000 C   0  0  0  0  0  0  0  0  0  0  0  0
  149.5976  141.7079  156.7388 C   0  0  0  0  0  0  0  0  0  0  0  0
  149.9325  140.3313  156.1289 C   0  0  1  0  0  0  0  0  0  0  0  0
  149.2356  140.1028  154.8576 N   0  0  0  0  0  0  0  0  0  0  0  0
  148.5833  141.2202  154.1757 C   0  0  0  0  0  0  0  0  0  0  0  0
  148.6505  138.8841  154.7240 C   0  0  0  0  0  0  0  0  0  0  0  0
  149.0079  137.8707  155.5583 N   0  0  0  0  0  0  0  0  0  0  0  0
  148.4486  136.6637  155.4336 C   0  0  0  0  0  0  0  0  0  0  0  0
  147.5274  136.2578  154.5583 N   0  0  0  0  0  0  0  0  0  0  0  0
  147.1612  137.2695  153.7205 C   0  0  0  0  0  0  0  0  0  0  0  0
  147.6635  138.6016  153.7373 C   0  0  0  0  0  0  0  0  0  0  0  0
  147.0331  139.3557  152.7541 N   0  0  0  0  0  0  0  0  0  0  0  0
  146.2096  138.5168  152.1872 C   0  0  0  0  0  0  0  0  0  0  0  0
  146.2420  137.2343  152.6866 N   0  0  0  0  0  0  0  0  0  0  0  0
  145.4216  136.1310  152.2810 C   0  0  0  0  0  0  0  0  0  0  0  0
  145.5816  134.7518  152.9245 C   0  0  0  0  0  0  0  0  0  0  0  0
  145.1864  134.0889  151.5854 C   0  0  0  0  0  0  0  0  0  0  0  0
  146.0095  132.8522  151.1891 C   0  0  0  0  0  0  0  0  0  0  0  0
  147.3675  133.0056  151.5486 O   0  0  0  0  0  0  0  0  0  0  0  0
  143.6859  133.7701  151.4280 C   0  0  0  0  0  0  0  0  0  0  0  0
  143.3913  133.3023  150.1272 O   0  0  0  0  0  0  0  0  0  0  0  0
  145.6478  135.4174  150.9460 C   0  0  0  0  0  0  0  0  0  0  0  0
  151.4590  140.1507  156.0053 C   0  0  0  0  0  0  0  0  0  0  0  0
  152.1482  140.3298  157.3676 C   0  0  0  0  0  0  0  0  0  0  0  0
  152.6833  141.9750  162.0015 H   0  0  0  0  0  0  0  0  0  0  0  0
  152.9553  143.7206  162.0190 H   0  0  0  0  0  0  0  0  0  0  0  0
  154.1686  142.6475  161.3120 H   0  0  0  0  0  0  0  0  0  0  0  0
  152.8475  140.9873  159.6967 H   0  0  0  0  0  0  0  0  0  0  0  0
  152.2083  142.4875  157.3534 H   0  0  0  0  0  0  0  0  0  0  0  0
  149.8710  141.1779  158.8121 H   0  0  0  0  0  0  0  0  0  0  0  0
  150.0626  142.8850  158.4919 H   0  0  0  0  0  0  0  0  0  0  0  0
  148.5190  141.8131  156.8611 H   0  0  0  0  0  0  0  0  0  0  0  0
  149.9132  142.5059  156.0658 H   0  0  0  0  0  0  0  0  0  0  0  0
  149.5945  139.5843  156.8464 H   0  0  0  0  0  0  0  0  0  0  0  0
  148.2724  140.9317  153.1708 H   0  0  0  0  0  0  0  0  0  0  0  0
  149.2579  142.0685  154.0715 H   0  0  0  0  0  0  0  0  0  0  0  0
  147.7010  141.5510  154.7240 H   0  0  0  0  0  0  0  0  0  0  0  0
  148.7887  135.9161  156.1347 H   0  0  0  0  0  0  0  0  0  0  0  0
  145.5552  138.8140  151.3808 H   0  0  0  0  0  0  0  0  0  0  0  0
  144.3901  136.4773  152.3639 H   0  0  0  0  0  0  0  0  0  0  0  0
  146.6138  134.5476  153.2154 H   0  0  0  0  0  0  0  0  0  0  0  0
  144.9005  134.5630  153.7548 H   0  0  0  0  0  0  0  0  0  0  0  0
  145.6326  131.9595  151.6892 H   0  0  0  0  0  0  0  0  0  0  0  0
  145.9461  132.6510  150.1196 H   0  0  0  0  0  0  0  0  0  0  0  0
  147.8415  132.2396  151.2625 H   0  0  0  0  0  0  0  0  0  0  0  0
  143.3697  133.0032  152.1351 H   0  0  0  0  0  0  0  0  0  0  0  0
  143.0679  134.6440  151.6356 H   0  0  0  0  0  0  0  0  0  0  0  0
  142.5267  133.6007  149.8897 H   0  0  0  0  0  0  0  0  0  0  0  0
  145.0195  135.7755  150.1298 H   0  0  0  0  0  0  0  0  0  0  0  0
  146.6989  135.4023  150.6518 H   0  0  0  0  0  0  0  0  0  0  0  0
  151.6868  139.1616  155.6069 H   0  0  0  0  0  0  0  0  0  0  0  0
  151.8765  140.8737  155.3044 H   0  0  0  0  0  0  0  0  0  0  0  0
  153.2271  140.2264  157.2459 H   0  0  0  0  0  0  0  0  0  0  0  0
  151.8356  139.5284  158.0385 H   0  0  0  0  0  0  0  0  0  0  0  0
  1  2  1  0  0  0  0
  1 30  1  0  0  0  0
  1 31  1  0  0  0  0
  1 32  1  0  0  0  0
  2  3  2  0  0  0  0
  2  4  1  0  0  0  0
  4  5  1  0  0  0  0
  4 33  1  0  0  0  0
  5 29  1  0  0  0  0
  5  6  1  0  0  0  0
  5 34  1  0  0  0  0
  6  7  1  0  0  0  0
  6 35  1  0  0  0  0
  6 36  1  0  0  0  0
  7  8  1  0  0  0  0
  7 37  1  0  0  0  0
  7 38  1  0  0  0  0
  8  9  1  0  0  0  0
  8 28  1  0  0  0  0
  8 39  1  0  0  0  0
  9 10  1  0  0  0  0
  9 11  1  0  0  0  0
 10 40  1  0  0  0  0
 10 41  1  0  0  0  0
 10 42  1  0  0  0  0
 11 16  1  0  0  0  0
 11 12  2  0  0  0  0
 12 13  1  0  0  0  0
 13 14  2  0  0  0  0
 13 43  1  0  0  0  0
 14 15  1  0  0  0  0
 15 19  1  0  0  0  0
 15 16  2  0  0  0  0
 16 17  1  0  0  0  0
 17 18  2  0  0  0  0
 18 19  1  0  0  0  0
 18 44  1  0  0  0  0
 19 20  1  0  0  0  0
 20 27  1  0  0  0  0
 20 21  1  0  0  0  0
 20 45  1  0  0  0  0
 21 22  1  0  0  0  0
 21 46  1  0  0  0  0
 21 47  1  0  0  0  0
 22 23  1  0  0  0  0
 22 25  1  0  0  0  0
 22 27  1  0  0  0  0
 23 24  1  0  0  0  0
 23 48  1  0  0  0  0
 23 49  1  0  0  0  0
 24 50  1  0  0  0  0
 25 26  1  0  0  0  0
 25 51  1  0  0  0  0
 25 52  1  0  0  0  0
 26 53  1  0  0  0  0
 27 54  1  0  0  0  0
 27 55  1  0  0  0  0
 28 29  1  0  0  0  0
 28 56  1  0  0  0  0
 28 57  1  0  0  0  0
 29 58  1  0  0  0  0
 29 59  1  0  0  0  0
M  END
> <s_m_source_file>
AV-unprocessed.smi

> <i_m_source_file_index>
233

> <i_lp_mmshare_version>
43012

> <i_f3d_flags>
0

> <s_epik_input>
W0NIM11DKD1PKVtOSF1bQ0BASF0xW0NIMl1bQ0gyXVtDQEhdKFtDSDJdW0NIMl0xKU4oW0NIM10pYyhuW2NIXW4yKWMoYzIzKW5bY0hdbjNbQ0hdKFtDSDJdNClbQ0gyXUM0KFtDSDJdW09IXSlbQ0gyXVtPSF0=

> <s_epik_cmdline>
J2VwaWtfcHl0aG9uJywgJy1waCcsICc3LjAnLCAnLXRuJywgJzgnLCAnLW1hJywgJzIwMCcsICctbWV0YWxfYmluZGluZycsICctaW1hZScsICc8aW5maWxlLm1hZT4nLCAnLW9tYWUnLCAnPG91dGZpbGUubWFlPic=

> <r_lp_tautomer_probability>
1

> <r_epik_Ionization_Penalty>
0.0029036

> <r_epik_Ionization_Penalty_Charging>
0

> <r_epik_Ionization_Penalty_Neutral>
0.0029036

> <r_epik_State_Penalty>
0.00183591

> <r_epik_Charging_Adjusted_Penalty>
0.00183591

> <i_epik_Tot_Q>
0

> <i_epik_Tot_abs_Q>
0

> <r_epik_Metal_State_Penalty>
-0

> <b_epik_Metal_Only>
0

> <s_lp_Force_Field>
OPLS_2005

> <r_lp_Energy>
37.3152

> <b_lp_Chiralities_Consistent>
1

> <s_lp_Variant>
AV-unprocessed.smi:233-1

> <Gold.Version>
5.8.1

> <Gold.Id.Protein>
6NUR|6NUR_protein|mol2

> <Gold.PLP.Fitness>
51.3349

> <Gold.PLP.PLP>
-41.4835

> <Gold.PLP.part.hbond>
-2.0000

> <Gold.PLP.part.metal>
0.0000

> <Gold.PLP.part.buried>
-3.2182

> <Gold.PLP.part.nonpolar>
-38.1165

> <Gold.PLP.part.repulsive>
1.4576

> <Gold.PLP.ligand.clash>
0.0000

> <Gold.PLP.ligand.torsion>
0.8388

> <Gold.PLP.Chemscore.Hbond>
2.0000

> <Gold.PLP.Chemscore.CHOScore>
1.3458

> <Gold.PLP.Chemscore.Metal>
0.0000

> <Gold.Chemscore.Hbonds>
donor molecule, donor type, donor heavy atom, donor atom, acceptor molecule, acceptor atom, score
      L1  H    24    50       P1 10747  0.98
      L1  H    26    53       P1 10186  1.00
      L1  C    18    44       P1 10171  1.00
      L1  C    18    44       P1 10175  0.31

> <Gold.PLP.Chemscore.Internal.Correction>
1.4915

> <Gold.Rescore>
     Score         DG    S(hbond)    S(metal)    S(lipo)     H(rot)  DE(clash)    DE(int)     intcor
      7.94     -13.56       1.92        0.00      92.31       3.57       2.21       3.41       ----

> <Gold.Chemscore.Fitness>
7.9395

> <Gold.Chemscore.DG>
-13.5579

> <Gold.Chemscore.ZeroCoef>
-5.4800

> <Gold.Chemscore.Hbond>
1.9226

> <Gold.Chemscore.Metal>
0.0000

> <Gold.Chemscore.Lipo>
92.3112

> <Gold.Chemscore.Internal_Hbond>
0.0000

> <Gold.Chemscore.DEClash>
2.2064

> <Gold.Chemscore.DEInternal>
3.4120

> <Gold.Chemscore.Rot>
3.5719

> <Gold.Chemscore.Internal.Correction>
   9.000000E+99

> <Gold.Chemscore.Hbonds>
donor molecule, donor type, donor heavy atom, donor atom, acceptor molecule, acceptor atom, score
      L1  H    24    50       P1 10747  0.92
      L1  H    26    53       P1 10186  1.00

> <Gold.Chemscore.Hbond.Weighted>
-6.4215

> <Gold.Chemscore.Metal.Weighted>
-0.0000

> <Gold.Chemscore.Lipo.Weighted>
-10.8004

> <Gold.Chemscore.Internal_Hbond.Weighted>
0.0000

> <Gold.Chemscore.DEClash.Weighted>
2.2064

> <Gold.Chemscore.DEInternal.Weighted>
3.4120

> <Gold.Chemscore.Rot.Weighted>
9.1440

> <Gold.Chemscore.Internal.Correction.Weighted>
   9.000000E+99

> <Gold.Protein.RotatedTorsions>
[ 6907 6896 6895 6894 ] final -118.60 input  -60.11 | X-H torsion
[ 7974 7965 7964 7962 ] final   42.61 input  175.53 | X-H torsion
[ 8008 7997 7996 7995 ] final  137.26 input   59.86 | X-H torsion
[ 10167 10162 10161 10158 ] final  -80.55 input  -65.29 | X-H torsion
[ 10718 10713 10712 10709 ] final   84.61 input   66.30 | X-H torsion
[ 10763 10752 10751 10750 ] final -123.85 input  -60.55 | X-H torsion
[ 11005 11000 10999 10996 ] final  138.35 input  -57.11 | X-H torsion

> <Gold.Protein.ActiveResidues>
 VAL166  LYS551  ARG553  GLY616  TRP617  ASP618  TYR619  PRO620  LYS621  CYS622 
 ASP623  PHE694  ASN695  SER759  ASP760  ASP761  ALA762  ILE779  LEU786  VAL792 
 PHE793  MET794  SER795  GLU796  ALA797  LYS798  CYS799  TRP800  GLU811  SER814 

> <Gold.Protein.RotatedAtoms>
  150.8234  133.8214  159.3129 H   0  0  0  0  0  0  0  0  0  0  0  0  # atno 6907 bound_to 6896
  151.5965  135.1048  160.0060 H   0  0  0  0  0  0  0  0  0  0  0  0  # atno 6908 bound_to 6896
  152.4321  133.7255  159.6614 H   0  0  0  0  0  0  0  0  0  0  0  0  # atno 6909 bound_to 6896
  146.0725  139.5280  142.9588 H   0  0  0  0  0  0  0  0  0  0  0  0  # atno 7974 bound_to 7965
  156.3002  140.2424  156.3880 H   0  0  0  0  0  0  0  0  0  0  0  0  # atno 8008 bound_to 7997
  154.8640  140.0419  157.1702 H   0  0  0  0  0  0  0  0  0  0  0  0  # atno 8009 bound_to 7997
  154.8866  140.2957  155.5398 H   0  0  0  0  0  0  0  0  0  0  0  0  # atno 8010 bound_to 7997
  140.4493  143.2488  151.8513 H   0  0  0  0  0  0  0  0  0  0  0  0  # atno 10167 bound_to 10162
  157.6901  131.0140  150.2698 H   0  0  0  0  0  0  0  0  0  0  0  0  # atno 10718 bound_to 10713
  154.8714  135.4084  154.3010 H   0  0  0  0  0  0  0  0  0  0  0  0  # atno 10763 bound_to 10752
  153.3870  135.7013  153.6528 H   0  0  0  0  0  0  0  0  0  0  0  0  # atno 10764 bound_to 10752
  153.5327  135.3664  155.2654 H   0  0  0  0  0  0  0  0  0  0  0  0  # atno 10765 bound_to 10752
  140.0177  134.9411  157.0410 H   0  0  0  0  0  0  0  0  0  0  0  0  # atno 11005 bound_to 11000
  145.6365  141.0293  143.1835 LP  0  0  0  0  0  0  0  0  0  0  0  0  # atno 17320 bound_to 7965
  144.7241  139.7933  143.7371 LP  0  0  0  0  0  0  0  0  0  0  0  0  # atno 17321 bound_to 7965
  139.4795  144.5139  151.8895 LP  0  0  0  0  0  0  0  0  0  0  0  0  # atno 17342 bound_to 10162
  140.4227  144.2222  150.5887 LP  0  0  0  0  0  0  0  0  0  0  0  0  # atno 17343 bound_to 10162
  156.3263  130.3793  149.7530 LP  0  0  0  0  0  0  0  0  0  0  0  0  # atno 17370 bound_to 10713
  156.5084  130.8161  151.3159 LP  0  0  0  0  0  0  0  0  0  0  0  0  # atno 17371 bound_to 10713
  140.4442  134.1650  155.7176 LP  0  0  0  0  0  0  0  0  0  0  0  0  # atno 17394 bound_to 11000
  141.1754  133.8525  157.1439 LP  0  0  0  0  0  0  0  0  0  0  0  0  # atno 17395 bound_to 11000

$$$$
