AV-unprocessed.smi:2751|AV-procd|sdf|10598|dock6
  -GOLD-   2272015 53D 1   1.00000     0.00000
 Structure written by MMmdl.
 35 36  0  0  0  0  0  0  0  0  2 V2000
  149.0905  140.9344  156.1396 O   0  0  0  0  0  0  0  0  0  0  0  0
  149.9639  140.3620  155.4867 C   0  0  0  0  0  0  0  0  0  0  0  0
  151.2418  140.2638  155.8830 N   0  0  0  0  0  0  0  0  0  0  0  0
  151.7763  140.8187  157.1219 C   0  0  0  0  0  0  0  0  0  0  0  0
  151.1882  142.2091  157.4187 C   0  0  0  0  0  0  0  0  0  0  0  0
  151.9441  142.9546  158.5299 C   0  0  1  0  0  0  0  0  0  0  0  0
  151.3699  144.3650  158.7671 C   0  0  0  0  0  0  0  0  0  0  0  0
  152.0861  145.0517  159.9352 C   0  0  0  0  0  0  0  0  0  0  0  0
  152.0492  144.1438  161.1687 C   0  0  0  0  0  0  0  0  0  0  0  0
  152.5823  142.7458  160.8180 C   0  0  0  0  0  0  0  0  0  0  0  0
  151.8363  142.1987  159.7349 O   0  0  0  0  0  0  0  0  0  0  0  0
  149.7671  139.7643  154.2994 N   0  0  0  0  0  0  0  0  0  0  0  0
  148.5506  139.6788  153.5758 C   0  0  0  0  0  0  0  0  0  0  0  0
  148.1509  138.6777  152.7880 N   0  3  0  0  0  0  0  0  0  0  0  0
  146.9157  138.9818  152.2737 C   0  0  0  0  0  0  0  0  0  0  0  0
  146.5914  140.2129  152.7903 C   0  0  0  0  0  0  0  0  0  0  0  0
  147.6088  140.6621  153.6093 O   0  0  0  0  0  0  0  0  0  0  0  0
  151.8948  139.7756  155.2874 H   0  0  0  0  0  0  0  0  0  0  0  0
  151.5871  140.1341  157.9504 H   0  0  0  0  0  0  0  0  0  0  0  0
  152.8596  140.8887  157.0202 H   0  0  0  0  0  0  0  0  0  0  0  0
  151.2142  142.8060  156.5061 H   0  0  0  0  0  0  0  0  0  0  0  0
  150.1372  142.1188  157.6966 H   0  0  0  0  0  0  0  0  0  0  0  0
  152.9959  143.0354  158.2489 H   0  0  0  0  0  0  0  0  0  0  0  0
  151.4664  144.9703  157.8654 H   0  0  0  0  0  0  0  0  0  0  0  0
  150.3033  144.2960  158.9849 H   0  0  0  0  0  0  0  0  0  0  0  0
  153.1215  145.2585  159.6617 H   0  0  0  0  0  0  0  0  0  0  0  0
  151.6210  146.0128  160.1553 H   0  0  0  0  0  0  0  0  0  0  0  0
  152.6354  144.5807  161.9775 H   0  0  0  0  0  0  0  0  0  0  0  0
  151.0244  144.0616  161.5332 H   0  0  0  0  0  0  0  0  0  0  0  0
  153.6416  142.7861  160.5602 H   0  0  0  0  0  0  0  0  0  0  0  0
  152.4900  142.0834  161.6788 H   0  0  0  0  0  0  0  0  0  0  0  0
  148.6499  137.8206  152.5814 H   0  0  0  0  0  0  0  0  0  0  0  0
  146.4017  138.3057  151.6055 H   0  0  0  0  0  0  0  0  0  0  0  0
  145.7360  140.8644  152.6840 H   0  0  0  0  0  0  0  0  0  0  0  0
  150.5685  139.3284  153.8675 H   0  0  0  0  0  0  0  0  0  0  0  0
  1  2  2  0  0  0  0
  2 12  1  0  0  0  0
  2  3  1  0  0  0  0
  3  4  1  0  0  0  0
  3 18  1  0  0  0  0
  4  5  1  0  0  0  0
  4 19  1  0  0  0  0
  4 20  1  0  0  0  0
  5  6  1  0  0  0  0
  5 21  1  0  0  0  0
  5 22  1  0  0  0  0
  6 11  1  0  0  0  0
  6  7  1  0  0  0  0
  6 23  1  0  0  0  0
  7  8  1  0  0  0  0
  7 24  1  0  0  0  0
  7 25  1  0  0  0  0
  8  9  1  0  0  0  0
  8 26  1  0  0  0  0
  8 27  1  0  0  0  0
  9 10  1  0  0  0  0
  9 28  1  0  0  0  0
  9 29  1  0  0  0  0
 10 11  1  0  0  0  0
 10 30  1  0  0  0  0
 10 31  1  0  0  0  0
 12 13  1  0  0  0  0
 12 35  1  0  0  0  0
 13 17  1  0  0  0  0
 13 14  2  0  0  0  0
 14 32  1  0  0  0  0
 14 15  1  0  0  0  0
 15 33  1  0  0  0  0
 15 16  2  0  0  0  0
 16 34  1  0  0  0  0
 16 17  1  0  0  0  0
M  CHG  1  14   1
M  END
> <s_m_source_file>
AV-unprocessed.smi

> <i_m_source_file_index>
2751

> <i_lp_mmshare_version>
43012

> <i_f3d_flags>
0

> <s_epik_input>
bzFbY0hdW2NIXW5jMVtOSF1DKD1PKVtOSF1bQ0gyXVtDSDJdW0NAQEhdMltDSDJdW0NIMl1bQ0gyXVtDSDJdTzI=

> <s_epik_cmdline>
J2VwaWtfcHl0aG9uJywgJy1waCcsICc3LjAnLCAnLXRuJywgJzgnLCAnLW1hJywgJzIwMCcsICctbWV0YWxfYmluZGluZycsICctaW1hZScsICc8aW5maWxlLm1hZT4nLCAnLW9tYWUnLCAnPG91dGZpbGUubWFlPic=

> <r_epik_Ionization_Penalty>
6.63408

> <r_epik_Ionization_Penalty_Charging>
6.57733

> <r_epik_Ionization_Penalty_Neutral>
0.0567487

> <r_epik_State_Penalty>
1.8175

> <r_epik_Charging_Adjusted_Penalty>
8.39483

> <i_epik_Tot_Q>
1

> <i_epik_Tot_abs_Q>
1

> <r_epik_Metal_State_Penalty>
1.83396

> <b_epik_Metal_Only>
0

> <s_lp_Force_Field>
OPLS_2005

> <r_lp_Energy>
17.5714

> <b_lp_Chiralities_Consistent>
1

> <s_lp_Variant>
AV-unprocessed.smi:2751-4

> <Gold.Version>
5.8.1

> <Gold.Id.Protein>
6NUR|6NUR_protein|mol2

> <Gold.PLP.Fitness>
41.1984

> <Gold.PLP.PLP>
-32.9867

> <Gold.PLP.part.hbond>
-2.6569

> <Gold.PLP.part.metal>
0.0000

> <Gold.PLP.part.buried>
-0.2156

> <Gold.PLP.part.nonpolar>
-31.3927

> <Gold.PLP.part.repulsive>
0.5627

> <Gold.PLP.ligand.clash>
0.0000

> <Gold.PLP.ligand.torsion>
0.4014

> <Gold.PLP.Chemscore.Hbond>
2.0000

> <Gold.PLP.Chemscore.CHOScore>
0.9979

> <Gold.PLP.Chemscore.Metal>
0.0000

> <Gold.Chemscore.Hbonds>
donor molecule, donor type, donor heavy atom, donor atom, acceptor molecule, acceptor atom, score
      L1  H    14    32       P1  7948  2.00
      L1  C    16    34       P1 10175  0.99

> <Gold.PLP.Chemscore.Internal.Correction>
0.0207

> <Gold.Rescore>
     Score         DG    S(hbond)    S(metal)    S(lipo)     H(rot)  DE(clash)    DE(int)     intcor
     11.14     -14.30       0.91        0.00      85.61       1.66       0.19       2.98       ----

> <Gold.Chemscore.Fitness>
11.1370

> <Gold.Chemscore.DG>
-14.2998

> <Gold.Chemscore.ZeroCoef>
-5.4800

> <Gold.Chemscore.Hbond>
0.9122

> <Gold.Chemscore.Metal>
0.0000

> <Gold.Chemscore.Lipo>
85.6075

> <Gold.Chemscore.Internal_Hbond>
0.0000

> <Gold.Chemscore.DEClash>
0.1874

> <Gold.Chemscore.DEInternal>
2.9754

> <Gold.Chemscore.Rot>
1.6575

> <Gold.Chemscore.Internal.Correction>
   9.000000E+99

> <Gold.Chemscore.Hbonds>
donor molecule, donor type, donor heavy atom, donor atom, acceptor molecule, acceptor atom, score
      L1  H    14    32       P1  7948  0.99

> <Gold.Chemscore.Hbond.Weighted>
-3.0468

> <Gold.Chemscore.Metal.Weighted>
-0.0000

> <Gold.Chemscore.Lipo.Weighted>
-10.0161

> <Gold.Chemscore.Internal_Hbond.Weighted>
0.0000

> <Gold.Chemscore.DEClash.Weighted>
0.1874

> <Gold.Chemscore.DEInternal.Weighted>
2.9754

> <Gold.Chemscore.Rot.Weighted>
4.2431

> <Gold.Chemscore.Internal.Correction.Weighted>
   9.000000E+99

> <Gold.Protein.RotatedTorsions>
[ 6907 6896 6895 6894 ] final   26.98 input  -60.11 | X-H torsion
[ 7974 7965 7964 7962 ] final  126.37 input  175.53 | X-H torsion
[ 8008 7997 7996 7995 ] final -167.72 input   59.86 | X-H torsion
[ 10167 10162 10161 10158 ] final   12.17 input  -65.29 | X-H torsion
[ 10718 10713 10712 10709 ] final  -78.79 input   66.30 | X-H torsion
[ 10763 10752 10751 10750 ] final  -93.62 input  -60.55 | X-H torsion
[ 11005 11000 10999 10996 ] final  -82.08 input  -57.11 | X-H torsion

> <Gold.Protein.ActiveResidues>
 VAL166  LYS551  ARG553  GLY616  TRP617  ASP618  TYR619  PRO620  LYS621  CYS622 
 ASP623  PHE694  ASN695  SER759  ASP760  ASP761  ALA762  ILE779  LEU786  VAL792 
 PHE793  MET794  SER795  GLU796  ALA797  LYS798  CYS799  TRP800  GLU811  SER814 

> <Gold.Protein.RotatedAtoms>
  151.9955  134.9956  160.0562 H   0  0  0  0  0  0  0  0  0  0  0  0  # atno 6907 bound_to 6896
  152.1568  133.4552  159.4849 H   0  0  0  0  0  0  0  0  0  0  0  0  # atno 6908 bound_to 6896
  150.6882  134.2038  159.4375 H   0  0  0  0  0  0  0  0  0  0  0  0  # atno 6909 bound_to 6896
  145.0625  139.3794  143.4999 H   0  0  0  0  0  0  0  0  0  0  0  0  # atno 7974 bound_to 7965
  155.8816  140.1010  157.1481 H   0  0  0  0  0  0  0  0  0  0  0  0  # atno 8008 bound_to 7997
  154.4006  140.1328  156.4267 H   0  0  0  0  0  0  0  0  0  0  0  0  # atno 8009 bound_to 7997
  155.7636  140.3462  155.5213 H   0  0  0  0  0  0  0  0  0  0  0  0  # atno 8010 bound_to 7997
  140.6085  143.8458  150.7039 H   0  0  0  0  0  0  0  0  0  0  0  0  # atno 10167 bound_to 10162
  156.0108  130.4528  150.3550 H   0  0  0  0  0  0  0  0  0  0  0  0  # atno 10718 bound_to 10713
  154.6977  135.5187  153.8481 H   0  0  0  0  0  0  0  0  0  0  0  0  # atno 10763 bound_to 10752
  153.0679  135.6591  154.0321 H   0  0  0  0  0  0  0  0  0  0  0  0  # atno 10764 bound_to 10752
  154.0185  135.2995  155.3363 H   0  0  0  0  0  0  0  0  0  0  0  0  # atno 10765 bound_to 10752
  141.1664  133.7227  156.8519 H   0  0  0  0  0  0  0  0  0  0  0  0  # atno 11005 bound_to 11000
  146.3525  140.0330  142.8649 LP  0  0  0  0  0  0  0  0  0  0  0  0  # atno 17320 bound_to 7965
  145.1392  140.9561  143.4499 LP  0  0  0  0  0  0  0  0  0  0  0  0  # atno 17321 bound_to 7965
  140.2020  143.3951  152.1784 LP  0  0  0  0  0  0  0  0  0  0  0  0  # atno 17342 bound_to 10162
  139.5343  144.7193  151.4947 LP  0  0  0  0  0  0  0  0  0  0  0  0  # atno 17343 bound_to 10162
  157.1641  131.0352  151.2827 LP  0  0  0  0  0  0  0  0  0  0  0  0  # atno 17370 bound_to 10713
  157.4286  130.7477  149.6971 LP  0  0  0  0  0  0  0  0  0  0  0  0  # atno 17371 bound_to 10713
  140.1910  134.8966  157.3060 LP  0  0  0  0  0  0  0  0  0  0  0  0  # atno 17394 bound_to 11000
  140.2290  134.3931  155.7530 LP  0  0  0  0  0  0  0  0  0  0  0  0  # atno 17395 bound_to 11000

$$$$
