AV-unprocessed.smi:1762|AV-procd|sdf|7120|dock9
  -GOLD-   22720 8353D 1   1.00000     0.00000
 Structure written by MMmdl.
 52 53  0  0  0  0  0  0  0  0  3 V2000
  152.9725  138.8934  155.0564 C   0  0  0  0  0  0  0  0  0  0  0  0
  151.6555  138.1799  155.3801 C   0  0  1  0  0  0  0  0  0  0  0  0
  150.7414  138.0642  154.1439 C   0  0  0  0  0  0  0  0  0  0  0  0
  149.4890  137.3286  154.4691 N   0  3  2  0  0  0  0  0  0  0  0  0
  148.4542  138.0754  155.2712 C   0  0  2  0  0  0  0  0  0  0  0  0
  147.2855  137.1630  155.7224 C   0  0  0  0  0  0  0  0  0  0  0  0
  146.8863  136.3036  154.9297 O   0  0  0  0  0  0  0  0  0  0  0  0
  146.8419  137.4727  156.9747 N   0  5  0  0  0  0  0  0  0  0  0  0
  146.7853  136.5193  158.0815 C   0  0  0  0  0  0  0  0  0  0  0  0
  147.8654  136.8547  159.1360 C   0  0  0  0  0  0  0  0  0  0  0  0
  147.6164  136.2342  160.5069 C   0  0  0  0  0  0  0  0  0  0  0  0
  147.5533  134.8303  160.6598 C   0  0  0  0  0  0  0  0  0  0  0  0
  147.3348  134.3002  161.9457 C   0  0  0  0  0  0  0  0  0  0  0  0
  147.1920  135.1867  163.0298 C   0  0  0  0  0  0  0  0  0  0  0  0
  147.2753  136.5705  162.7787 C   0  0  0  0  0  0  0  0  0  0  0  0
  147.4863  137.0896  161.5503 N   0  0  0  0  0  0  0  0  0  0  0  0
  147.9405  139.4026  154.6136 C   0  0  0  0  0  0  0  0  0  0  0  0
  147.2294  139.1711  153.2658 C   0  0  0  0  0  0  0  0  0  0  0  0
  149.0085  140.5060  154.4640 C   0  0  0  0  0  0  0  0  0  0  0  0
  149.8632  135.9937  155.0192 C   0  0  0  0  0  0  0  0  0  0  0  0
  150.8173  136.1232  156.2264 C   0  0  1  0  0  0  0  0  0  0  0  0
  151.2884  134.7559  156.7333 C   0  0  0  0  0  0  0  0  0  0  0  0
  151.9675  136.8692  155.8406 O   0  0  0  0  0  0  0  0  0  0  0  0
  152.7919  139.9080  154.7006 H   0  0  0  0  0  0  0  0  0  0  0  0
  153.5305  138.3622  154.2848 H   0  0  0  0  0  0  0  0  0  0  0  0
  153.6073  138.9601  155.9403 H   0  0  0  0  0  0  0  0  0  0  0  0
  151.1512  138.7334  156.1736 H   0  0  0  0  0  0  0  0  0  0  0  0
  150.5529  139.0378  153.6971 H   0  0  0  0  0  0  0  0  0  0  0  0
  151.2644  137.5027  153.3681 H   0  0  0  0  0  0  0  0  0  0  0  0
  148.9500  138.3878  156.1901 H   0  0  0  0  0  0  0  0  0  0  0  0
  145.8040  136.5022  158.5579 H   0  0  0  0  0  0  0  0  0  0  0  0
  146.9507  135.5035  157.7217 H   0  0  0  0  0  0  0  0  0  0  0  0
  148.8422  136.5240  158.7797 H   0  0  0  0  0  0  0  0  0  0  0  0
  147.9422  137.9364  159.2576 H   0  0  0  0  0  0  0  0  0  0  0  0
  147.6663  134.1744  159.8092 H   0  0  0  0  0  0  0  0  0  0  0  0
  147.2783  133.2324  162.0979 H   0  0  0  0  0  0  0  0  0  0  0  0
  147.0228  134.8153  164.0296 H   0  0  0  0  0  0  0  0  0  0  0  0
  147.1713  137.2797  163.5862 H   0  0  0  0  0  0  0  0  0  0  0  0
  147.1564  139.8002  155.2568 H   0  0  0  0  0  0  0  0  0  0  0  0
  147.9237  138.8554  152.4864 H   0  0  0  0  0  0  0  0  0  0  0  0
  146.7471  140.0849  152.9176 H   0  0  0  0  0  0  0  0  0  0  0  0
  146.4561  138.4074  153.3539 H   0  0  0  0  0  0  0  0  0  0  0  0
  149.7481  140.2508  153.7052 H   0  0  0  0  0  0  0  0  0  0  0  0
  149.5430  140.6904  155.3952 H   0  0  0  0  0  0  0  0  0  0  0  0
  148.5508  141.4478  154.1604 H   0  0  0  0  0  0  0  0  0  0  0  0
  148.9894  135.4002  155.2862 H   0  0  0  0  0  0  0  0  0  0  0  0
  150.3607  135.4327  154.2268 H   0  0  0  0  0  0  0  0  0  0  0  0
  150.3201  136.6344  157.0512 H   0  0  0  0  0  0  0  0  0  0  0  0
  150.4441  134.1442  157.0521 H   0  0  0  0  0  0  0  0  0  0  0  0
  151.9586  134.8663  157.5860 H   0  0  0  0  0  0  0  0  0  0  0  0
  151.8242  134.2094  155.9568 H   0  0  0  0  0  0  0  0  0  0  0  0
  149.0269  137.1486  153.5883 H   0  0  0  0  0  0  0  0  0  0  0  0
  1  2  1  0  0  0  0
  1 24  1  0  0  0  0
  1 25  1  0  0  0  0
  1 26  1  0  0  0  0
  2 23  1  0  0  0  0
  2  3  1  0  0  0  0
  2 27  1  0  0  0  0
  3  4  1  0  0  0  0
  3 28  1  0  0  0  0
  3 29  1  0  0  0  0
  4  5  1  0  0  0  0
  4 20  1  0  0  0  0
  4 52  1  0  0  0  0
  5  6  1  0  0  0  0
  5 17  1  0  0  0  0
  5 30  1  0  0  0  0
  6  7  2  0  0  0  0
  6  8  1  0  0  0  0
  8  9  1  0  0  0  0
  9 10  1  0  0  0  0
  9 31  1  0  0  0  0
  9 32  1  0  0  0  0
 10 11  1  0  0  0  0
 10 33  1  0  0  0  0
 10 34  1  0  0  0  0
 11 16  1  0  0  0  0
 11 12  2  0  0  0  0
 12 13  1  0  0  0  0
 12 35  1  0  0  0  0
 13 14  2  0  0  0  0
 13 36  1  0  0  0  0
 14 15  1  0  0  0  0
 14 37  1  0  0  0  0
 15 16  2  0  0  0  0
 15 38  1  0  0  0  0
 17 18  1  0  0  0  0
 17 19  1  0  0  0  0
 17 39  1  0  0  0  0
 18 40  1  0  0  0  0
 18 41  1  0  0  0  0
 18 42  1  0  0  0  0
 19 43  1  0  0  0  0
 19 44  1  0  0  0  0
 19 45  1  0  0  0  0
 20 21  1  0  0  0  0
 20 46  1  0  0  0  0
 20 47  1  0  0  0  0
 21 22  1  0  0  0  0
 21 23  1  0  0  0  0
 21 48  1  0  0  0  0
 22 49  1  0  0  0  0
 22 50  1  0  0  0  0
 22 51  1  0  0  0  0
M  CHG  1   4   1
M  CHG  1   8  -1
M  END
> <s_m_source_file>
AV-unprocessed.smi

> <i_m_source_file_index>
1762

> <i_lp_mmshare_version>
43012

> <i_f3d_flags>
0

> <s_epik_input>
W0NIM11bQ0BASF0xW0NIMl1OKFtDSDJdW0NASF0oTzEpW0NIM10pW0NAQEhdKFtDSF0oW0NIM10pW0NIM10pQyg9TylbTkhdW0NIMl1bQ0gyXWMyW2NIXVtjSF1bY0hdW2NIXW4y

> <s_epik_cmdline>
J2VwaWtfcHl0aG9uJywgJy1waCcsICc3LjAnLCAnLXRuJywgJzgnLCAnLW1hJywgJzIwMCcsICctbWV0YWxfYmluZGluZycsICctaW1hZScsICc8aW5maWxlLm1hZT4nLCAnLW9tYWUnLCAnPG91dGZpbGUubWFlPic=

> <r_epik_Ionization_Penalty>
7.82966

> <r_epik_Ionization_Penalty_Charging>
7.7461

> <r_epik_Ionization_Penalty_Neutral>
0.0835571

> <r_epik_State_Penalty>
8.52273

> <r_epik_Charging_Adjusted_Penalty>
16.2688

> <i_epik_Tot_Q>
0

> <i_epik_Tot_abs_Q>
2

> <r_epik_Metal_State_Penalty>
4.47451

> <b_epik_Metal_Only>
1

> <s_lp_Force_Field>
OPLS_2005

> <r_lp_Energy>
23.0584

> <b_lp_Chiralities_Consistent>
1

> <s_lp_Variant>
AV-unprocessed.smi:1762-22

> <Gold.Version>
5.8.1

> <Gold.Id.Protein>
6NUR|6NUR_protein|mol2

> <Gold.PLP.Fitness>
50.2849

> <Gold.PLP.PLP>
-38.7079

> <Gold.PLP.part.hbond>
-4.0000

> <Gold.PLP.part.metal>
0.0000

> <Gold.PLP.part.buried>
-4.0101

> <Gold.PLP.part.nonpolar>
-32.5683

> <Gold.PLP.part.repulsive>
0.0987

> <Gold.PLP.ligand.clash>
0.0000

> <Gold.PLP.ligand.torsion>
1.5134

> <Gold.PLP.Chemscore.Hbond>
4.7424

> <Gold.PLP.Chemscore.CHOScore>
0.0000

> <Gold.PLP.Chemscore.Metal>
0.0000

> <Gold.Chemscore.Hbonds>
donor molecule, donor type, donor heavy atom, donor atom, acceptor molecule, acceptor atom, score
      L1  H     4    52       P1  7948  1.98
      P1  H  6931  6943       L1    16  0.99
      P1  H  6934  6947       L1    16  0.83
      P1  H 10752 10763       L1    23  1.00

> <Gold.PLP.Chemscore.Internal.Correction>
0.3765

> <Gold.Rescore>
     Score         DG    S(hbond)    S(metal)    S(lipo)     H(rot)  DE(clash)    DE(int)     intcor
     19.57     -22.42       2.75        0.00     101.37       1.60       0.04       2.81       ----

> <Gold.Chemscore.Fitness>
19.5740

> <Gold.Chemscore.DG>
-22.4197

> <Gold.Chemscore.ZeroCoef>
-5.4800

> <Gold.Chemscore.Hbond>
2.7478

> <Gold.Chemscore.Metal>
0.0000

> <Gold.Chemscore.Lipo>
101.3747

> <Gold.Chemscore.Internal_Hbond>
0.0000

> <Gold.Chemscore.DEClash>
0.0383

> <Gold.Chemscore.DEInternal>
2.8073

> <Gold.Chemscore.Rot>
1.6012

> <Gold.Chemscore.Internal.Correction>
   9.000000E+99

> <Gold.Chemscore.Hbonds>
donor molecule, donor type, donor heavy atom, donor atom, acceptor molecule, acceptor atom, score
      L1  H     4    52       P1  7948  0.93
      P1  H  6931  6943       L1    16  0.22
      P1  H  6934  6947       L1    16  0.66
      P1  H 10752 10763       L1    23  0.38

> <Gold.Chemscore.Hbond.Weighted>
-9.1778

> <Gold.Chemscore.Metal.Weighted>
-0.0000

> <Gold.Chemscore.Lipo.Weighted>
-11.8608

> <Gold.Chemscore.Internal_Hbond.Weighted>
0.0000

> <Gold.Chemscore.DEClash.Weighted>
0.0383

> <Gold.Chemscore.DEInternal.Weighted>
2.8073

> <Gold.Chemscore.Rot.Weighted>
4.0990

> <Gold.Chemscore.Internal.Correction.Weighted>
   9.000000E+99

> <Gold.Protein.RotatedTorsions>
[ 6907 6896 6895 6894 ] final  108.29 input  -60.11 | X-H torsion
[ 7974 7965 7964 7962 ] final  157.80 input  175.53 | X-H torsion
[ 8008 7997 7996 7995 ] final   95.61 input   59.86 | X-H torsion
[ 10167 10162 10161 10158 ] final -114.34 input  -65.29 | X-H torsion
[ 10718 10713 10712 10709 ] final  179.56 input   66.30 | X-H torsion
[ 10763 10752 10751 10750 ] final   74.50 input  -60.55 | X-H torsion
[ 11005 11000 10999 10996 ] final  -11.64 input  -57.11 | X-H torsion

> <Gold.Protein.ActiveResidues>
 VAL166  LYS551  ARG553  GLY616  TRP617  ASP618  TYR619  PRO620  LYS621  CYS622 
 ASP623  PHE694  ASN695  SER759  ASP760  ASP761  ALA762  ILE779  LEU786  VAL792 
 PHE793  MET794  SER795  GLU796  ALA797  LYS798  CYS799  TRP800  GLU811  SER814 

> <Gold.Protein.RotatedAtoms>
  152.5119  133.9111  159.7487 H   0  0  0  0  0  0  0  0  0  0  0  0  # atno 6907 bound_to 6896
  150.9504  133.6547  159.2780 H   0  0  0  0  0  0  0  0  0  0  0  0  # atno 6908 bound_to 6896
  151.3827  135.0948  159.9554 H   0  0  0  0  0  0  0  0  0  0  0  0  # atno 6909 bound_to 6896
  144.7882  139.7390  143.6232 H   0  0  0  0  0  0  0  0  0  0  0  0  # atno 7974 bound_to 7965
  156.0708  140.3284  155.7573 H   0  0  0  0  0  0  0  0  0  0  0  0  # atno 8008 bound_to 7997
  155.5309  140.0593  157.2906 H   0  0  0  0  0  0  0  0  0  0  0  0  # atno 8009 bound_to 7997
  154.4529  140.1927  156.0483 H   0  0  0  0  0  0  0  0  0  0  0  0  # atno 8010 bound_to 7997
  140.1021  143.4604  152.1806 H   0  0  0  0  0  0  0  0  0  0  0  0  # atno 10167 bound_to 10162
  156.8740  130.9793  151.3070 H   0  0  0  0  0  0  0  0  0  0  0  0  # atno 10718 bound_to 10713
  153.0591  135.5023  154.8051 H   0  0  0  0  0  0  0  0  0  0  0  0  # atno 10763 bound_to 10752
  154.6854  135.2975  154.9557 H   0  0  0  0  0  0  0  0  0  0  0  0  # atno 10764 bound_to 10752
  154.0329  135.6727  153.4835 H   0  0  0  0  0  0  0  0  0  0  0  0  # atno 10765 bound_to 10752
  140.7574  133.8543  155.9096 H   0  0  0  0  0  0  0  0  0  0  0  0  # atno 11005 bound_to 11000
  146.2123  139.5488  142.9673 LP  0  0  0  0  0  0  0  0  0  0  0  0  # atno 17320 bound_to 7965
  145.5864  141.0375  143.2094 LP  0  0  0  0  0  0  0  0  0  0  0  0  # atno 17321 bound_to 7965
  139.5666  144.7438  151.4006 LP  0  0  0  0  0  0  0  0  0  0  0  0  # atno 17342 bound_to 10162
  140.6972  143.7719  150.7345 LP  0  0  0  0  0  0  0  0  0  0  0  0  # atno 17343 bound_to 10162
  157.6179  130.8632  149.9059 LP  0  0  0  0  0  0  0  0  0  0  0  0  # atno 17370 bound_to 10713
  156.0711  130.3685  150.0773 LP  0  0  0  0  0  0  0  0  0  0  0  0  # atno 17371 bound_to 10713
  140.9695  134.1550  157.4588 LP  0  0  0  0  0  0  0  0  0  0  0  0  # atno 17394 bound_to 11000
  139.8777  134.9973  156.5841 LP  0  0  0  0  0  0  0  0  0  0  0  0  # atno 17395 bound_to 11000

$$$$
