#       Name:                AV-unprocessed.smi:217
#       Creating user name   scv26
#       Creation time:       Thu Mar 26 20:05:49 2020


#       File generated by GOLD software.
#

@<TRIPOS>MOLECULE
AV-unprocessed.smi:217
    67    71     1
SMALL
NO_CHARGES


@<TRIPOS>ATOM
      1 ****        -7.2480  -3.4493  -0.7475 O.3            1 S1                 0.0000
      2 ****        -6.6850  -2.5612   0.1961 C.3            1 S1                 0.0000
      3 ****        -6.1263  -1.3016  -0.4861 C.3            1 S1                 0.0000
      4 ****        -7.2875  -0.4997  -1.1095 C.3            1 S1                 0.0000
      5 ****        -8.1688  -0.0054  -0.1213 O.3            1 S1                 0.0000
      6 ****        -5.1349  -0.4729   0.3615 C.3            1 S1                 0.0000
      7 ****        -4.2548  -0.2741  -0.8747 C.3            1 S1                 0.0000
      8 ****        -2.8292  -0.1708  -0.7622 N.pl3          1 S1                 0.0000
      9 ****        -1.8940  -0.7226  -1.6082 C.2            1 S1                 0.0000
     10 ****        -0.6516  -0.4403  -1.3248 N.2            1 S1                 0.0000
     11 ****        -0.7362   0.3950  -0.2169 C.ar           1 S1                 0.0000
     12 ****         0.2209   1.0797   0.5854 C.ar           1 S1                 0.0000
     13 ****         1.5596   0.9862   0.3758 N.3            1 S1                 0.0000
     14 ****         2.1091  -0.3595   0.5333 C.3            1 S1                 0.0000
     15 ****         3.5142  -0.4562  -0.0832 C.3            1 S1                 0.0000
     16 ****         4.4592   0.6171   0.4938 C.3            1 S1                 0.0000
     17 ****         5.8639   0.5343  -0.1371 C.3            1 S1                 0.0000
     18 ****         6.8953   1.4903   0.4643 C.3            1 S1                 0.0000
     19 ****         8.2249   0.8183   0.1616 C.3            1 S1                 0.0000
     20 ****         7.8432  -0.6249  -0.1791 C.3            1 S1                 0.0000
     21 ****         6.4587  -0.7277   0.1234 O.3            1 S1                 0.0000
     22 ****         3.8140   2.0033   0.2918 C.3            1 S1                 0.0000
     23 ****         2.4040   2.0603   0.9014 C.3            1 S1                 0.0000
     24 ****        -0.2549   1.8573   1.5954 N.ar           1 S1                 0.0000
     25 ****        -1.5694   1.9558   1.8123 C.ar           1 S1                 0.0000
     26 ****        -2.5697   1.3718   1.1511 N.ar           1 S1                 0.0000
     27 ****        -2.1020   0.5911   0.1355 C.ar           1 S1                 0.0000
     28 ****        -4.9191  -1.5406  -1.4200 C.3            1 S1                 0.0000
     29 ****        -7.5588  -4.2160  -0.2904 H              1 S1                 0.0000
     30 ****        -7.4380  -2.3135   0.9444 H              1 S1                 0.0000
     31 ****        -5.8955  -3.0961   0.7250 H              1 S1                 0.0000
     32 ****        -6.9162   0.3541  -1.6763 H              1 S1                 0.0000
     33 ****        -7.8563  -1.1040  -1.8165 H              1 S1                 0.0000
     34 ****        -8.5611  -0.7403   0.3250 H              1 S1                 0.0000
     35 ****        -5.5395   0.4505   0.7774 H              1 S1                 0.0000
     36 ****        -4.6370  -1.0612   1.1348 H              1 S1                 0.0000
     37 ****        -4.5754   0.6039  -1.4380 H              1 S1                 0.0000
     38 ****        -2.1626  -1.3487  -2.4468 H              1 S1                 0.0000
     39 ****         2.1541  -0.5961   1.5971 H              1 S1                 0.0000
     40 ****         1.4656  -1.1099   0.0755 H              1 S1                 0.0000
     41 ****         3.9186  -1.4525   0.0966 H              1 S1                 0.0000
     42 ****         3.4430  -0.3428  -1.1658 H              1 S1                 0.0000
     43 ****         4.5572   0.4396   1.5659 H              1 S1                 0.0000
     44 ****         5.8067   0.6804  -1.2177 H              1 S1                 0.0000
     45 ****         6.8291   2.4978   0.0529 H              1 S1                 0.0000
     46 ****         6.7602   1.5586   1.5447 H              1 S1                 0.0000
     47 ****         8.7252   1.2909  -0.6846 H              1 S1                 0.0000
     48 ****         8.8950   0.8706   1.0202 H              1 S1                 0.0000
     49 ****         7.9948  -0.8210  -1.2414 H              1 S1                 0.0000
     50 ****         8.4210  -1.3553   0.3876 H              1 S1                 0.0000
     51 ****         4.4293   2.7820   0.7430 H              1 S1                 0.0000
     52 ****         3.7582   2.2319  -0.7734 H              1 S1                 0.0000
     53 ****         1.9563   3.0302   0.6804 H              1 S1                 0.0000
     54 ****         2.4655   1.9723   1.9871 H              1 S1                 0.0000
     55 ****        -1.8615   2.5928   2.6340 H              1 S1                 0.0000
     56 ****        -4.3625  -2.4460  -1.1700 H              1 S1                 0.0000
     57 ****        -5.1504  -1.5072  -2.4851 H              1 S1                 0.0000
     58 ****        -6.5541  -3.7141  -1.4170 LP             1 S1                 0.0000
     59 ****        -8.0108  -3.0039  -1.2163 LP             1 S1                 0.0000
     60 ****        -8.8821   0.5479  -0.5516 LP             1 S1                 0.0000
     61 ****        -7.6615   0.5552   0.5333 LP             1 S1                 0.0000
     62 ****         0.1726  -0.7533  -1.7967 LP             1 S1                 0.0000
     63 ****         1.6117   1.1724  -0.6053 LP             1 S1                 0.0000
     64 ****         6.0359  -1.4284  -0.4512 LP             1 S1                 0.0000
     65 ****         6.3377  -0.9687   1.0864 LP             1 S1                 0.0000
     66 ****         0.3837   2.3585   2.1794 LP             1 S1                 0.0000
     67 ****        -3.5378   1.4911   1.3717 LP             1 S1                 0.0000
@<TRIPOS>BOND
    1    1    2 1     
    2    1   29 1     
    3    2    3 1     
    4    2   30 1     
    5    2   31 1     
    6    3   28 1     
    7    3    4 1     
    8    3    6 1     
    9    4    5 1     
   10    4   32 1     
   11    4   33 1     
   12    5   34 1     
   13    6    7 1     
   14    6   35 1     
   15    6   36 1     
   16    7    8 1     
   17    7   28 1     
   18    7   37 1     
   19    8   27 1     
   20    8    9 1     
   21    9   10 2     
   22    9   38 1     
   23   10   11 1     
   24   11   27 ar    
   25   11   12 ar    
   26   12   13 1     
   27   12   24 ar    
   28   13   23 1     
   29   13   14 1     
   30   14   15 1     
   31   14   39 1     
   32   14   40 1     
   33   15   16 1     
   34   15   41 1     
   35   15   42 1     
   36   16   17 1     
   37   16   22 1     
   38   16   43 1     
   39   17   21 1     
   40   17   18 1     
   41   17   44 1     
   42   18   19 1     
   43   18   45 1     
   44   18   46 1     
   45   19   20 1     
   46   19   47 1     
   47   19   48 1     
   48   20   21 1     
   49   20   49 1     
   50   20   50 1     
   51   22   23 1     
   52   22   51 1     
   53   22   52 1     
   54   23   53 1     
   55   23   54 1     
   56   24   25 ar    
   57   25   26 ar    
   58   25   55 1     
   59   26   27 ar    
   60   28   56 1     
   61   28   57 1     
   62    1   58 1     
   63    1   59 1     
   64    5   60 1     
   65    5   61 1     
   66   10   62 1     
   67   13   63 1     
   68   21   64 1     
   69   21   65 1     
   70   24   66 1     
   71   26   67 1     
@<TRIPOS>SUBSTRUCTURE
      1 S1             1
@<TRIPOS>SET
LONE_PAIRS      STATIC     ATOMS    <user>   **** ""
10 58 59 60 61 62 63 64 65 66 67
DONOR_HYDROGENS      STATIC     ATOMS    <user>   **** ""
2 29 34
ATOM$BLUE        STATIC     ATOMS    COLORGROUP SYSTEM
10 58 59 60 61 62 63 64 65 66 67
ATOM$RED        STATIC     ATOMS    COLORGROUP SYSTEM
2 29 34
