#       Name:                AV-unprocessed.smi:2618
#       Creating user name   scv26
#       Creation time:       Fri Mar 27 14:22:47 2020


#       File generated by GOLD software.
#

@<TRIPOS>MOLECULE
AV-unprocessed.smi:2618
    43    44     1
SMALL
NO_CHARGES


@<TRIPOS>ATOM
      1 ****        -5.8038   0.5401   0.0489 C.3            1 S1                 0.0000
      2 ****        -5.0439  -0.5113  -0.5208 O.3            1 S1                 0.0000
      3 ****        -3.6516  -0.3534  -0.3027 C.3            1 S1                 0.0000
      4 ****        -2.9089  -1.5312  -0.9578 C.3            1 S1                 0.0000
      5 ****        -1.4094  -1.4663  -0.8031 C.2            1 S1                 0.0000
      6 ****        -0.7864  -0.5646  -0.1365 N.2            1 S1                 0.0000
      7 ****         0.5340  -0.7546  -0.1705 N.pl3          1 S1                 0.0000
      8 ****         1.4255   0.1591   0.4287 C.ar           1 S1                 0.0000
      9 ****         2.5942  -0.2782   0.9327 N.ar           1 S1                 0.0000
     10 ****         3.4183   0.6252   1.5027 C.ar           1 S1                 0.0000
     11 ****         4.7287   0.0979   2.0460 C.3            1 S1                 0.0000
     12 ****         3.0774   1.9893   1.5903 C.ar           1 S1                 0.0000
     13 ****         1.8290   2.3477   1.0446 C.ar           1 S1                 0.0000
     14 ****         1.3310   3.7766   1.0767 C.3            1 S1                 0.0000
     15 ****         1.0144   1.4372   0.4702 N.ar           1 S1                 0.0000
     16 ****         0.8780  -1.9421  -0.9837 C.3            1 S1                 0.0000
     17 ****         1.4556  -2.8727  -0.2572 O.co2          1 S1                -1.0000
     18 ****         1.7735  -1.5867  -2.2040 C.3            1 S1                 0.0000
     19 ****         1.2061  -0.6146  -2.9210 F              1 S1                 0.0000
     20 ****         2.9843  -1.1694  -1.8305 F              1 S1                 0.0000
     21 ****         1.9249  -2.6504  -2.9963 F              1 S1                 0.0000
     22 ****        -0.4978  -2.4637  -1.4227 C.3            1 S1                 0.0000
     23 ****        -6.8634   0.3737  -0.1453 H              1 S1                 0.0000
     24 ****        -5.5296   1.5035  -0.3829 H              1 S1                 0.0000
     25 ****        -5.6627   0.5878   1.1294 H              1 S1                 0.0000
     26 ****        -3.3177   0.5931  -0.7322 H              1 S1                 0.0000
     27 ****        -3.4489  -0.3233   0.7695 H              1 S1                 0.0000
     28 ****        -3.2700  -2.4684  -0.5336 H              1 S1                 0.0000
     29 ****        -3.1530  -1.5611  -2.0201 H              1 S1                 0.0000
     30 ****         5.3891   0.9135   2.3414 H              1 S1                 0.0000
     31 ****         5.2414  -0.4983   1.2904 H              1 S1                 0.0000
     32 ****         4.5489  -0.5316   2.9176 H              1 S1                 0.0000
     33 ****         3.7325   2.7150   2.0493 H              1 S1                 0.0000
     34 ****         2.0845   4.4472   1.4907 H              1 S1                 0.0000
     35 ****         0.4333   3.8498   1.6912 H              1 S1                 0.0000
     36 ****         1.0876   4.1169   0.0699 H              1 S1                 0.0000
     37 ****        -0.7284  -3.4679  -1.0610 H              1 S1                 0.0000
     38 ****        -0.6167  -2.4637  -2.5065 H              1 S1                 0.0000
     39 ****        -5.2140  -0.5329  -1.5060 LP             1 S1                 0.0000
     40 ****        -5.3365  -1.3762  -0.1131 LP             1 S1                 0.0000
     41 ****        -1.2343   0.1868   0.3480 LP             1 S1                 0.0000
     42 ****         2.8447  -1.2452   0.8860 LP             1 S1                 0.0000
     43 ****         0.1309   1.7064   0.0868 LP             1 S1                 0.0000
@<TRIPOS>BOND
    1    1    2 1     
    2    1   23 1     
    3    1   24 1     
    4    1   25 1     
    5    2    3 1     
    6    3    4 1     
    7    3   26 1     
    8    3   27 1     
    9    4    5 1     
   10    4   28 1     
   11    4   29 1     
   12    5   22 1     
   13    5    6 2     
   14    6    7 1     
   15    7    8 1     
   16    7   16 1     
   17    8   15 ar    
   18    8    9 ar    
   19    9   10 ar    
   20   10   11 1     
   21   10   12 ar    
   22   11   30 1     
   23   11   31 1     
   24   11   32 1     
   25   12   13 ar    
   26   12   33 1     
   27   13   14 1     
   28   13   15 ar    
   29   14   34 1     
   30   14   35 1     
   31   14   36 1     
   32   16   17 1     
   33   16   18 1     
   34   16   22 1     
   35   18   19 1     
   36   18   20 1     
   37   18   21 1     
   38   22   37 1     
   39   22   38 1     
   40    2   39 1     
   41    2   40 1     
   42    6   41 1     
   43    9   42 1     
   44   15   43 1     
@<TRIPOS>SUBSTRUCTURE
      1 S1             1
@<TRIPOS>SET
LONE_PAIRS      STATIC     ATOMS    <user>   **** ""
6 39 40 41 42 43 17
ATOM$BLUE        STATIC     ATOMS    COLORGROUP SYSTEM
6 39 40 41 42 43 17
