AV-unprocessed.smi:618|AV-procd|sdf|3080|dock1
  -GOLD-   22720 0 03D 1   1.00000     0.00000
 Structure written by MMmdl.
 41 43  0  0  0  0  0  0  0  0  2 V2000
  144.5996  136.6921  151.9430 O   0  0  0  0  0  0  0  0  0  0  0  0
  145.7829  136.4750  151.6829 C   0  0  0  0  0  0  0  0  0  0  0  0
  146.7375  137.4123  151.7661 N   0  0  0  0  0  0  0  0  0  0  0  0
  146.5109  138.7969  152.1672 C   0  0  0  0  0  0  0  0  0  0  0  0
  147.2178  139.1328  153.4998 C   0  0  2  0  0  0  0  0  0  0  0  0
  146.3155  138.9048  154.7372 C   0  0  0  0  0  0  0  0  0  0  0  0
  145.3354  140.0025  154.8323 N   0  3  1  0  0  0  0  0  0  0  0  0
  144.3731  139.9789  155.9477 C   0  0  0  0  0  0  0  0  0  0  0  0
  143.9595  141.4507  156.1466 C   0  0  0  0  0  0  0  0  0  0  0  0
  144.8534  142.2674  155.1965 C   0  0  0  0  0  0  0  0  0  0  0  0
  145.9981  141.3068  154.8906 C   0  0  2  0  0  0  0  0  0  0  0  0
  146.7938  141.5219  153.5984 C   0  0  0  0  0  0  0  0  0  0  0  0
  147.7530  140.4661  153.4921 O   0  0  0  0  0  0  0  0  0  0  0  0
  146.2927  135.2894  151.3083 N   0  0  0  0  0  0  0  0  0  0  0  0
  145.6063  134.0635  151.0945 C   0  0  0  0  0  0  0  0  0  0  0  0
  144.1988  133.9190  151.1532 C   0  0  0  0  0  0  0  0  0  0  0  0
  143.6343  132.6534  150.9031 C   0  0  0  0  0  0  0  0  0  0  0  0
  144.4951  131.5815  150.5971 C   0  0  0  0  0  0  0  0  0  0  0  0
  145.8369  131.7078  150.5239 N   0  0  0  0  0  0  0  0  0  0  0  0
  146.3708  132.9244  150.7634 C   0  0  0  0  0  0  0  0  0  0  0  0
  147.6855  137.1498  151.5386 H   0  0  0  0  0  0  0  0  0  0  0  0
  146.8545  139.4475  151.3638 H   0  0  0  0  0  0  0  0  0  0  0  0
  145.4382  138.9769  152.2572 H   0  0  0  0  0  0  0  0  0  0  0  0
  148.0705  138.4604  153.5987 H   0  0  0  0  0  0  0  0  0  0  0  0
  145.8008  137.9455  154.6738 H   0  0  0  0  0  0  0  0  0  0  0  0
  146.9234  138.8830  155.6431 H   0  0  0  0  0  0  0  0  0  0  0  0
  143.5255  139.3330  155.7176 H   0  0  0  0  0  0  0  0  0  0  0  0
  144.8549  139.5996  156.8503 H   0  0  0  0  0  0  0  0  0  0  0  0
  142.9040  141.6084  155.9222 H   0  0  0  0  0  0  0  0  0  0  0  0
  144.1232  141.7485  157.1829 H   0  0  0  0  0  0  0  0  0  0  0  0
  144.3046  142.5034  154.2834 H   0  0  0  0  0  0  0  0  0  0  0  0
  145.1952  143.2047  155.6366 H   0  0  0  0  0  0  0  0  0  0  0  0
  146.6869  141.3118  155.7386 H   0  0  0  0  0  0  0  0  0  0  0  0
  146.1415  141.5468  152.7251 H   0  0  0  0  0  0  0  0  0  0  0  0
  147.3195  142.4763  153.6298 H   0  0  0  0  0  0  0  0  0  0  0  0
  147.2972  135.2440  151.2173 H   0  0  0  0  0  0  0  0  0  0  0  0
  143.5445  134.7492  151.3691 H   0  0  0  0  0  0  0  0  0  0  0  0
  142.5649  132.5088  150.9410 H   0  0  0  0  0  0  0  0  0  0  0  0
  144.0944  130.5984  150.3996 H   0  0  0  0  0  0  0  0  0  0  0  0
  147.4470  132.9883  150.6932 H   0  0  0  0  0  0  0  0  0  0  0  0
  144.7890  139.9966  153.9828 H   0  0  0  0  0  0  0  0  0  0  0  0
  1  2  2  0  0  0  0
  2  3  1  0  0  0  0
  2 14  1  0  0  0  0
  3  4  1  0  0  0  0
  3 21  1  0  0  0  0
  4  5  1  0  0  0  0
  4 22  1  0  0  0  0
  4 23  1  0  0  0  0
  5 13  1  0  0  0  0
  5  6  1  0  0  0  0
  5 24  1  0  0  0  0
  6  7  1  0  0  0  0
  6 25  1  0  0  0  0
  6 26  1  0  0  0  0
  7 11  1  0  0  0  0
  7  8  1  0  0  0  0
  7 41  1  0  0  0  0
  8  9  1  0  0  0  0
  8 27  1  0  0  0  0
  8 28  1  0  0  0  0
  9 10  1  0  0  0  0
  9 29  1  0  0  0  0
  9 30  1  0  0  0  0
 10 11  1  0  0  0  0
 10 31  1  0  0  0  0
 10 32  1  0  0  0  0
 11 12  1  0  0  0  0
 11 33  1  0  0  0  0
 12 13  1  0  0  0  0
 12 34  1  0  0  0  0
 12 35  1  0  0  0  0
 14 15  1  0  0  0  0
 14 36  1  0  0  0  0
 15 20  1  0  0  0  0
 15 16  2  0  0  0  0
 16 17  1  0  0  0  0
 16 37  1  0  0  0  0
 17 18  2  0  0  0  0
 17 38  1  0  0  0  0
 18 19  1  0  0  0  0
 18 39  1  0  0  0  0
 19 20  2  0  0  0  0
 20 40  1  0  0  0  0
M  CHG  1   7   1
M  END
> <s_m_source_file>
AV-unprocessed.smi

> <i_m_source_file_index>
618

> <i_lp_mmshare_version>
43012

> <i_f3d_flags>
0

> <s_epik_input>
W2NIXTFuW2NIXVtjSF1bY0hdYzFbTkhdQyg9TylbTkhdW0NIMl1bQ0BIXShbQ0gyXTIpT1tDSDJdW0NAQEhdKE4yMylbQ0gyXVtDSDJdW0NIMl0z

> <s_epik_cmdline>
J2VwaWtfcHl0aG9uJywgJy1waCcsICc3LjAnLCAnLXRuJywgJzgnLCAnLW1hJywgJzIwMCcsICctbWV0YWxfYmluZGluZycsICctaW1hZScsICc8aW5maWxlLm1hZT4nLCAnLW9tYWUnLCAnPG91dGZpbGUubWFlPic=

> <r_epik_Ionization_Penalty>
0.111044

> <r_epik_Ionization_Penalty_Charging>
0.10673

> <r_epik_Ionization_Penalty_Neutral>
0.00431361

> <r_epik_State_Penalty>
0.0978747

> <r_epik_Charging_Adjusted_Penalty>
0.204605

> <i_epik_Tot_Q>
1

> <i_epik_Tot_abs_Q>
1

> <r_epik_Metal_State_Penalty>
0.0947591

> <b_epik_Metal_Only>
0

> <s_lp_Force_Field>
OPLS_2005

> <r_lp_Energy>
41.554

> <b_lp_Chiralities_Consistent>
1

> <s_lp_Variant>
AV-unprocessed.smi:618-7

> <Gold.Version>
5.8.1

> <Gold.Id.Protein>
6NUR|6NUR_protein|mol2

> <Gold.PLP.Fitness>
43.4162

> <Gold.PLP.PLP>
-31.0109

> <Gold.PLP.part.hbond>
-2.8420

> <Gold.PLP.part.metal>
0.0000

> <Gold.PLP.part.buried>
-7.2971

> <Gold.PLP.part.nonpolar>
-24.1477

> <Gold.PLP.part.repulsive>
2.3148

> <Gold.PLP.ligand.clash>
0.0000

> <Gold.PLP.ligand.torsion>
0.4812

> <Gold.PLP.Chemscore.Hbond>
3.8320

> <Gold.PLP.Chemscore.CHOScore>
0.6206

> <Gold.PLP.Chemscore.Metal>
0.0000

> <Gold.Chemscore.Hbonds>
donor molecule, donor type, donor heavy atom, donor atom, acceptor molecule, acceptor atom, score
      L1  H     3    21       P1  7948  0.99
      L1  H     7    41       P1 10175  2.00
      L1  H    14    36       P1  7948  0.82
      L1  C    20    40       P1 10747  0.61

> <Gold.PLP.Chemscore.Internal.Correction>
0.0101

> <Gold.Rescore>
     Score         DG    S(hbond)    S(metal)    S(lipo)     H(rot)  DE(clash)    DE(int)     intcor
     17.64     -19.42       2.81        0.00      66.65       1.27       0.05       1.72       ----

> <Gold.Chemscore.Fitness>
17.6443

> <Gold.Chemscore.DG>
-19.4182

> <Gold.Chemscore.ZeroCoef>
-5.4800

> <Gold.Chemscore.Hbond>
2.8082

> <Gold.Chemscore.Metal>
0.0000

> <Gold.Chemscore.Lipo>
66.6546

> <Gold.Chemscore.Internal_Hbond>
0.0000

> <Gold.Chemscore.DEClash>
0.0524

> <Gold.Chemscore.DEInternal>
1.7215

> <Gold.Chemscore.Rot>
1.2656

> <Gold.Chemscore.Internal.Correction>
   9.000000E+99

> <Gold.Chemscore.Hbonds>
donor molecule, donor type, donor heavy atom, donor atom, acceptor molecule, acceptor atom, score
      L1  H     3    21       P1  7948  0.91
      L1  H     7    41       P1 10175  0.99
      L1  H    14    36       P1  7948  0.56

> <Gold.Chemscore.Hbond.Weighted>
-9.3795

> <Gold.Chemscore.Metal.Weighted>
-0.0000

> <Gold.Chemscore.Lipo.Weighted>
-7.7986

> <Gold.Chemscore.Internal_Hbond.Weighted>
0.0000

> <Gold.Chemscore.DEClash.Weighted>
0.0524

> <Gold.Chemscore.DEInternal.Weighted>
1.7215

> <Gold.Chemscore.Rot.Weighted>
3.2399

> <Gold.Chemscore.Internal.Correction.Weighted>
   9.000000E+99

> <Gold.Protein.RotatedTorsions>
[ 6907 6896 6895 6894 ] final  -35.77 input  -60.11 | X-H torsion
[ 7974 7965 7964 7962 ] final  -91.99 input  175.53 | X-H torsion
[ 8008 7997 7996 7995 ] final    5.81 input   59.86 | X-H torsion
[ 10167 10162 10161 10158 ] final -151.24 input  -65.29 | X-H torsion
[ 10718 10713 10712 10709 ] final   87.96 input   66.30 | X-H torsion
[ 10763 10752 10751 10750 ] final  163.37 input  -60.55 | X-H torsion
[ 11005 11000 10999 10996 ] final   37.00 input  -57.11 | X-H torsion

> <Gold.Protein.ActiveResidues>
 VAL166  LYS551  ARG553  GLY616  TRP617  ASP618  TYR619  PRO620  LYS621  CYS622 
 ASP623  PHE694  ASN695  SER759  ASP760  ASP761  ALA762  ILE779  LEU786  VAL792 
 PHE793  MET794  SER795  GLU796  ALA797  LYS798  CYS799  TRP800  GLU811  SER814 

> <Gold.Protein.RotatedAtoms>
  151.0355  134.9570  159.8133 H   0  0  0  0  0  0  0  0  0  0  0  0  # atno 6907 bound_to 6896
  152.5354  134.2725  159.8987 H   0  0  0  0  0  0  0  0  0  0  0  0  # atno 6908 bound_to 6896
  151.2735  133.4201  159.2656 H   0  0  0  0  0  0  0  0  0  0  0  0  # atno 6909 bound_to 6896
  145.4058  140.9541  143.2261 H   0  0  0  0  0  0  0  0  0  0  0  0  # atno 7974 bound_to 7965
  154.7330  140.2734  155.6439 H   0  0  0  0  0  0  0  0  0  0  0  0  # atno 8008 bound_to 7997
  156.2854  140.2712  156.1961 H   0  0  0  0  0  0  0  0  0  0  0  0  # atno 8009 bound_to 7997
  155.0356  140.0371  157.2480 H   0  0  0  0  0  0  0  0  0  0  0  0  # atno 8010 bound_to 7997
  139.7285  143.8846  152.2527 H   0  0  0  0  0  0  0  0  0  0  0  0  # atno 10167 bound_to 10162
  157.6945  131.0276  150.3203 H   0  0  0  0  0  0  0  0  0  0  0  0  # atno 10718 bound_to 10713
  154.2927  135.2760  155.2647 H   0  0  0  0  0  0  0  0  0  0  0  0  # atno 10763 bound_to 10752
  154.5119  135.5780  153.6615 H   0  0  0  0  0  0  0  0  0  0  0  0  # atno 10764 bound_to 10752
  152.9912  135.6183  154.3092 H   0  0  0  0  0  0  0  0  0  0  0  0  # atno 10765 bound_to 10752
  140.2269  134.3573  155.7980 H   0  0  0  0  0  0  0  0  0  0  0  0  # atno 11005 bound_to 11000
  144.8342  139.5577  143.6929 LP  0  0  0  0  0  0  0  0  0  0  0  0  # atno 17320 bound_to 7965
  146.2729  139.6680  142.9283 LP  0  0  0  0  0  0  0  0  0  0  0  0  # atno 17321 bound_to 7965
  139.8762  144.7042  150.8930 LP  0  0  0  0  0  0  0  0  0  0  0  0  # atno 17342 bound_to 10162
  140.7767  143.3698  151.1671 LP  0  0  0  0  0  0  0  0  0  0  0  0  # atno 17343 bound_to 10162
  156.3691  130.3860  149.7190 LP  0  0  0  0  0  0  0  0  0  0  0  0  # atno 17370 bound_to 10713
  156.4610  130.7952  151.2972 LP  0  0  0  0  0  0  0  0  0  0  0  0  # atno 17371 bound_to 10713
  141.2220  133.7224  156.8668 LP  0  0  0  0  0  0  0  0  0  0  0  0  # atno 17394 bound_to 11000
  140.1790  134.9046  157.2926 LP  0  0  0  0  0  0  0  0  0  0  0  0  # atno 17395 bound_to 11000

$$$$
