AV-unprocessed.smi:910|AV-procd|sdf|4133|dock8
  -GOLD-   22720 2 43D 1   1.00000     0.00000
 Structure written by MMmdl.
 45 46  0  0  0  0  0  0  0  0  2 V2000
  147.8893  133.6701  162.8617 C   0  0  0  0  0  0  0  0  0  0  0  0
  148.2504  134.9020  162.0939 C   0  0  0  0  0  0  0  0  0  0  0  0
  148.5250  134.8704  160.7359 N   0  0  0  0  0  0  0  0  0  0  0  0
  148.7936  136.1311  160.3895 C   0  0  0  0  0  0  0  0  0  0  0  0
  149.0988  136.5662  159.1566 N   0  5  0  0  0  0  0  0  0  0  0  0
  150.1724  137.3696  158.9838 C   0  0  0  0  0  0  0  0  0  0  0  0
  151.3248  137.1343  159.3555 O   0  0  0  0  0  0  0  0  0  0  0  0
  149.8902  138.5265  158.3668 N   0  0  0  0  0  0  0  0  0  0  0  0
  150.8174  139.6375  158.1705 C   0  0  0  0  0  0  0  0  0  0  0  0
  150.1862  140.9673  158.6122 C   0  0  0  0  0  0  0  0  0  0  0  0
  151.1146  141.6624  159.4306 O   0  0  0  0  0  0  0  0  0  0  0  0
  152.0411  142.4978  158.7485 C   0  0  1  0  0  0  0  0  0  0  0  0
  151.3541  143.7869  158.2446 C   0  0  0  0  0  0  0  0  0  0  0  0
  150.8272  144.6445  159.4074 C   0  0  0  0  0  0  0  0  0  0  0  0
  151.9436  144.9751  160.4086 C   0  0  0  0  0  0  0  0  0  0  0  0
  152.6452  143.7021  160.9078 C   0  0  0  0  0  0  0  0  0  0  0  0
  153.1761  142.8473  159.7375 C   0  0  1  0  0  0  0  0  0  0  0  0
  153.9149  141.5951  160.2350 C   0  0  0  0  0  0  0  0  0  0  0  0
  148.7271  136.9808  161.4534 O   0  0  0  0  0  0  0  0  0  0  0  0
  148.3809  136.1966  162.5198 C   0  0  0  0  0  0  0  0  0  0  0  0
  148.2203  136.8543  163.8480 C   0  0  0  0  0  0  0  0  0  0  0  0
  148.7817  133.1622  163.2275 H   0  0  0  0  0  0  0  0  0  0  0  0
  147.3364  132.9645  162.2411 H   0  0  0  0  0  0  0  0  0  0  0  0
  147.2664  133.9087  163.7238 H   0  0  0  0  0  0  0  0  0  0  0  0
  148.9356  138.6721  158.0732 H   0  0  0  0  0  0  0  0  0  0  0  0
  151.7588  139.4619  158.6936 H   0  0  0  0  0  0  0  0  0  0  0  0
  151.0583  139.6839  157.1086 H   0  0  0  0  0  0  0  0  0  0  0  0
  149.9479  141.5788  157.7411 H   0  0  0  0  0  0  0  0  0  0  0  0
  149.2513  140.7715  159.1363 H   0  0  0  0  0  0  0  0  0  0  0  0
  152.4653  141.9537  157.9029 H   0  0  0  0  0  0  0  0  0  0  0  0
  152.0727  144.3719  157.6695 H   0  0  0  0  0  0  0  0  0  0  0  0
  150.5418  143.5584  157.5561 H   0  0  0  0  0  0  0  0  0  0  0  0
  150.3901  145.5659  159.0224 H   0  0  0  0  0  0  0  0  0  0  0  0
  150.0233  144.1155  159.9188 H   0  0  0  0  0  0  0  0  0  0  0  0
  152.6741  145.6326  159.9359 H   0  0  0  0  0  0  0  0  0  0  0  0
  151.5303  145.5268  161.2536 H   0  0  0  0  0  0  0  0  0  0  0  0
  153.4656  143.9766  161.5714 H   0  0  0  0  0  0  0  0  0  0  0  0
  151.9483  143.1169  161.5095 H   0  0  0  0  0  0  0  0  0  0  0  0
  153.9068  143.4506  159.1968 H   0  0  0  0  0  0  0  0  0  0  0  0
  153.2568  140.9468  160.8144 H   0  0  0  0  0  0  0  0  0  0  0  0
  154.7571  141.8652  160.8723 H   0  0  0  0  0  0  0  0  0  0  0  0
  154.3062  141.0132  159.4004 H   0  0  0  0  0  0  0  0  0  0  0  0
  147.1766  136.8377  164.1619 H   0  0  0  0  0  0  0  0  0  0  0  0
  148.5467  137.8939  163.8126 H   0  0  0  0  0  0  0  0  0  0  0  0
  148.8107  136.3401  164.6064 H   0  0  0  0  0  0  0  0  0  0  0  0
  1 22  1  0  0  0  0
  1 23  1  0  0  0  0
  1 24  1  0  0  0  0
  1  2  1  0  0  0  0
  2  3  1  0  0  0  0
  2 20  2  0  0  0  0
  3  4  2  0  0  0  0
  4 19  1  0  0  0  0
  4  5  1  0  0  0  0
  5  6  1  0  0  0  0
  6  8  1  0  0  0  0
  6  7  2  0  0  0  0
  8  9  1  0  0  0  0
  8 25  1  0  0  0  0
  9 10  1  0  0  0  0
  9 26  1  0  0  0  0
  9 27  1  0  0  0  0
 10 11  1  0  0  0  0
 10 28  1  0  0  0  0
 10 29  1  0  0  0  0
 11 12  1  0  0  0  0
 12 17  1  0  0  0  0
 12 13  1  0  0  0  0
 12 30  1  0  0  0  0
 13 14  1  0  0  0  0
 13 31  1  0  0  0  0
 13 32  1  0  0  0  0
 14 15  1  0  0  0  0
 14 33  1  0  0  0  0
 14 34  1  0  0  0  0
 15 16  1  0  0  0  0
 15 35  1  0  0  0  0
 15 36  1  0  0  0  0
 16 17  1  0  0  0  0
 16 37  1  0  0  0  0
 16 38  1  0  0  0  0
 17 18  1  0  0  0  0
 17 39  1  0  0  0  0
 18 40  1  0  0  0  0
 18 41  1  0  0  0  0
 18 42  1  0  0  0  0
 19 20  1  0  0  0  0
 20 21  1  0  0  0  0
 21 43  1  0  0  0  0
 21 44  1  0  0  0  0
 21 45  1  0  0  0  0
M  CHG  1   5  -1
M  END
> <s_m_source_file>
AV-unprocessed.smi

> <i_m_source_file_index>
910

> <i_lp_mmshare_version>
43012

> <i_f3d_flags>
0

> <s_epik_input>
W0NIM11jMW5jKG9jMVtDSDNdKVtOSF1DKD1PKVtOSF1bQ0gyXVtDSDJdT1tDQEBIXTJbQ0gyXVtDSDJdW0NIMl1bQ0gyXVtDQEhdMltDSDNd

> <s_epik_cmdline>
J2VwaWtfcHl0aG9uJywgJy1waCcsICc3LjAnLCAnLXRuJywgJzgnLCAnLW1hJywgJzIwMCcsICctbWV0YWxfYmluZGluZycsICctaW1hZScsICc8aW5maWxlLm1hZT4nLCAnLW9tYWUnLCAnPG91dGZpbGUubWFlPic=

> <r_lp_tautomer_probability>
0.107061

> <r_epik_Ionization_Penalty>
10.1763

> <r_epik_Ionization_Penalty_Charging>
7.13067

> <r_epik_Ionization_Penalty_Neutral>
3.04564

> <r_epik_State_Penalty>
5.57927

> <r_epik_Charging_Adjusted_Penalty>
12.7099

> <i_epik_Tot_Q>
-1

> <i_epik_Tot_abs_Q>
1

> <r_epik_Metal_State_Penalty>
1.52303

> <b_epik_Metal_Only>
1

> <s_lp_Force_Field>
OPLS_2005

> <r_lp_Energy>
4.58121

> <b_lp_Chiralities_Consistent>
1

> <s_lp_Variant>
AV-unprocessed.smi:910-18

> <Gold.Version>
5.8.1

> <Gold.Id.Protein>
6NUR|6NUR_protein|mol2

> <Gold.PLP.Fitness>
54.2306

> <Gold.PLP.PLP>
-49.4440

> <Gold.PLP.part.hbond>
-3.4957

> <Gold.PLP.part.metal>
0.0000

> <Gold.PLP.part.buried>
-5.3751

> <Gold.PLP.part.nonpolar>
-40.7233

> <Gold.PLP.part.repulsive>
0.1203

> <Gold.PLP.ligand.clash>
0.0000

> <Gold.PLP.ligand.torsion>
1.5770

> <Gold.PLP.Chemscore.Hbond>
2.6263

> <Gold.PLP.Chemscore.CHOScore>
0.0000

> <Gold.PLP.Chemscore.Metal>
0.0000

> <Gold.Chemscore.Hbonds>
donor molecule, donor type, donor heavy atom, donor atom, acceptor molecule, acceptor atom, score
      P1  H  6896  6909       L1     7  0.81
      P1  H  6931  6943       L1    19  0.62

> <Gold.PLP.Chemscore.Internal.Correction>
0.0618

> <Gold.Rescore>
     Score         DG    S(hbond)    S(metal)    S(lipo)     H(rot)  DE(clash)    DE(int)     intcor
     20.55     -23.62       2.39        0.00     122.24       1.62       1.28       1.79       ----

> <Gold.Chemscore.Fitness>
20.5481

> <Gold.Chemscore.DG>
-23.6204

> <Gold.Chemscore.ZeroCoef>
-5.4800

> <Gold.Chemscore.Hbond>
2.3885

> <Gold.Chemscore.Metal>
0.0000

> <Gold.Chemscore.Lipo>
122.2402

> <Gold.Chemscore.Internal_Hbond>
0.0000

> <Gold.Chemscore.DEClash>
1.2844

> <Gold.Chemscore.DEInternal>
1.7879

> <Gold.Chemscore.Rot>
1.6169

> <Gold.Chemscore.Internal.Correction>
   9.000000E+99

> <Gold.Chemscore.Hbonds>
donor molecule, donor type, donor heavy atom, donor atom, acceptor molecule, acceptor atom, score
      P1  H  6896  6909       L1     7  0.23
      P1  H  6931  6943       L1    19  0.42

> <Gold.Chemscore.Hbond.Weighted>
-7.9776

> <Gold.Chemscore.Metal.Weighted>
-0.0000

> <Gold.Chemscore.Lipo.Weighted>
-14.3021

> <Gold.Chemscore.Internal_Hbond.Weighted>
0.0000

> <Gold.Chemscore.DEClash.Weighted>
1.2844

> <Gold.Chemscore.DEInternal.Weighted>
1.7879

> <Gold.Chemscore.Rot.Weighted>
4.1393

> <Gold.Chemscore.Internal.Correction.Weighted>
   9.000000E+99

> <Gold.Protein.RotatedTorsions>
[ 6907 6896 6895 6894 ] final   93.99 input  -60.11 | X-H torsion
[ 7974 7965 7964 7962 ] final  -91.16 input  175.53 | X-H torsion
[ 8008 7997 7996 7995 ] final  -65.99 input   59.86 | X-H torsion
[ 10167 10162 10161 10158 ] final  -60.01 input  -65.29 | X-H torsion
[ 10718 10713 10712 10709 ] final  -71.33 input   66.30 | X-H torsion
[ 10763 10752 10751 10750 ] final -100.12 input  -60.55 | X-H torsion
[ 11005 11000 10999 10996 ] final  -17.62 input  -57.11 | X-H torsion

> <Gold.Protein.ActiveResidues>
 VAL166  LYS551  ARG553  GLY616  TRP617  ASP618  TYR619  PRO620  LYS621  CYS622 
 ASP623  PHE694  ASN695  SER759  ASP760  ASP761  ALA762  ILE779  LEU786  VAL792 
 PHE793  MET794  SER795  GLU796  ALA797  LYS798  CYS799  TRP800  GLU811  SER814 

> <Gold.Protein.RotatedAtoms>
  152.5451  134.1262  159.8419 H   0  0  0  0  0  0  0  0  0  0  0  0  # atno 6907 bound_to 6896
  151.1312  133.5028  159.2606 H   0  0  0  0  0  0  0  0  0  0  0  0  # atno 6908 bound_to 6896
  151.1673  135.0311  159.8791 H   0  0  0  0  0  0  0  0  0  0  0  0  # atno 6909 bound_to 6896
  145.4168  140.9548  143.2203 H   0  0  0  0  0  0  0  0  0  0  0  0  # atno 7974 bound_to 7965
  154.4706  140.0922  156.7135 H   0  0  0  0  0  0  0  0  0  0  0  0  # atno 8008 bound_to 7997
  155.4734  140.3465  155.4311 H   0  0  0  0  0  0  0  0  0  0  0  0  # atno 8009 bound_to 7997
  156.1033  140.1428  156.9427 H   0  0  0  0  0  0  0  0  0  0  0  0  # atno 8010 bound_to 7997
  140.6098  143.2384  151.5735 H   0  0  0  0  0  0  0  0  0  0  0  0  # atno 10167 bound_to 10162
  156.0367  130.4349  150.2428 H   0  0  0  0  0  0  0  0  0  0  0  0  # atno 10718 bound_to 10713
  154.7553  135.4947  153.9364 H   0  0  0  0  0  0  0  0  0  0  0  0  # atno 10763 bound_to 10752
  153.1189  135.6727  153.9377 H   0  0  0  0  0  0  0  0  0  0  0  0  # atno 10764 bound_to 10752
  153.9115  135.3098  155.3427 H   0  0  0  0  0  0  0  0  0  0  0  0  # atno 10765 bound_to 10752
  140.8187  133.8085  155.9636 H   0  0  0  0  0  0  0  0  0  0  0  0  # atno 11005 bound_to 11000
  144.8272  139.5690  143.6960 LP  0  0  0  0  0  0  0  0  0  0  0  0  # atno 17320 bound_to 7965
  146.2677  139.6559  142.9318 LP  0  0  0  0  0  0  0  0  0  0  0  0  # atno 17321 bound_to 7965
  139.5353  144.2799  152.1237 LP  0  0  0  0  0  0  0  0  0  0  0  0  # atno 17342 bound_to 10162
  140.1996  144.4671  150.6438 LP  0  0  0  0  0  0  0  0  0  0  0  0  # atno 17343 bound_to 10162
  157.0527  131.0067  151.3248 LP  0  0  0  0  0  0  0  0  0  0  0  0  # atno 17370 bound_to 10713
  157.5129  130.7949  149.7724 LP  0  0  0  0  0  0  0  0  0  0  0  0  # atno 17371 bound_to 10713
  140.9122  134.2246  157.4978 LP  0  0  0  0  0  0  0  0  0  0  0  0  # atno 17394 bound_to 11000
  139.8709  134.9755  156.4886 LP  0  0  0  0  0  0  0  0  0  0  0  0  # atno 17395 bound_to 11000

$$$$
