AV-unprocessed.smi:219|AV-procd|sdf|1680|dock3
  -GOLD-   2262020113D 1   1.00000     0.00000
 Structure written by MMmdl.
 50 53  0  0  0  0  0  0  0  0  1 V2000
  148.7213  138.9489  153.1093 N   0  0  0  0  0  0  0  0  0  0  0  0
  148.2621  139.3078  154.3106 C   0  0  0  0  0  0  0  0  0  0  0  0
  147.5723  138.5577  154.9977 O   0  0  0  0  0  0  0  0  0  0  0  0
  148.6315  140.7125  154.8059 C   0  0  0  0  0  0  0  0  0  0  0  0
  149.1964  140.7848  156.2553 C   0  0  2  0  0  0  0  0  0  0  0  0
  148.9718  142.2113  156.8080 C   0  0  0  0  0  0  0  0  0  0  0  0
  149.5227  142.3751  158.2310 C   0  0  0  0  0  0  0  0  0  0  0  0
  151.0029  141.9816  158.2655 C   0  0  0  0  0  0  0  0  0  0  0  0
  151.1851  140.5577  157.7243 C   0  0  0  0  0  0  0  0  0  0  0  0
  150.6230  140.4246  156.3785 N   0  0  0  0  0  0  0  0  0  0  0  0
  151.0081  139.2678  155.7933 C   0  0  0  0  0  0  0  0  0  0  0  0
  151.8156  139.2929  154.6999 N   0  0  0  0  0  0  0  0  0  0  0  0
  152.2141  138.1462  154.1407 C   0  0  0  0  0  0  0  0  0  0  0  0
  151.9255  136.8945  154.5049 N   0  0  0  0  0  0  0  0  0  0  0  0
  151.1101  136.8705  155.5984 C   0  0  0  0  0  0  0  0  0  0  0  0
  150.6100  138.0030  156.2986 C   0  0  0  0  0  0  0  0  0  0  0  0
  149.8244  137.5968  157.3688 N   0  0  0  0  0  0  0  0  0  0  0  0
  149.8542  136.2937  157.3029 C   0  0  0  0  0  0  0  0  0  0  0  0
  150.5940  135.7723  156.2647 N   0  0  0  0  0  0  0  0  0  0  0  0
  150.7930  134.3634  155.9589 C   0  0  0  0  0  0  0  0  0  0  0  0
  149.4790  133.6019  155.6588 C   0  0  2  0  0  0  0  0  0  0  0  0
  148.7009  133.5489  156.8413 O   0  0  0  0  0  0  0  0  0  0  0  0
  149.7298  132.1753  155.1652 C   0  0  0  0  0  0  0  0  0  0  0  0
  149.3452  132.2322  153.6916 C   0  0  0  0  0  0  0  0  0  0  0  0
  148.2675  133.1510  153.6881 O   0  0  0  0  0  0  0  0  0  0  0  0
  148.6414  134.2331  154.5282 C   0  0  0  0  0  0  0  0  0  0  0  0
  148.5037  138.0328  152.7441 H   0  0  0  0  0  0  0  0  0  0  0  0
  149.2841  139.5914  152.5712 H   0  0  0  0  0  0  0  0  0  0  0  0
  149.3189  141.1968  154.1105 H   0  0  0  0  0  0  0  0  0  0  0  0
  147.7058  141.2866  154.7512 H   0  0  0  0  0  0  0  0  0  0  0  0
  148.6342  140.0981  156.8902 H   0  0  0  0  0  0  0  0  0  0  0  0
  149.4532  142.9375  156.1510 H   0  0  0  0  0  0  0  0  0  0  0  0
  147.9082  142.4522  156.8058 H   0  0  0  0  0  0  0  0  0  0  0  0
  149.3984  143.4046  158.5675 H   0  0  0  0  0  0  0  0  0  0  0  0
  148.9566  141.7480  158.9207 H   0  0  0  0  0  0  0  0  0  0  0  0
  151.5863  142.6809  157.6650 H   0  0  0  0  0  0  0  0  0  0  0  0
  151.3863  142.0475  159.2839 H   0  0  0  0  0  0  0  0  0  0  0  0
  152.2469  140.3067  157.7101 H   0  0  0  0  0  0  0  0  0  0  0  0
  150.6984  139.8483  158.3955 H   0  0  0  0  0  0  0  0  0  0  0  0
  152.8582  138.2466  153.2796 H   0  0  0  0  0  0  0  0  0  0  0  0
  149.3288  135.6714  158.0131 H   0  0  0  0  0  0  0  0  0  0  0  0
  151.4690  134.2902  155.1058 H   0  0  0  0  0  0  0  0  0  0  0  0
  151.3140  133.9030  156.7997 H   0  0  0  0  0  0  0  0  0  0  0  0
  148.9052  132.7462  157.2966 H   0  0  0  0  0  0  0  0  0  0  0  0
  150.7563  131.8377  155.3124 H   0  0  0  0  0  0  0  0  0  0  0  0
  149.0769  131.4635  155.6735 H   0  0  0  0  0  0  0  0  0  0  0  0
  150.1650  132.6217  153.0859 H   0  0  0  0  0  0  0  0  0  0  0  0
  149.0503  131.2609  153.2941 H   0  0  0  0  0  0  0  0  0  0  0  0
  147.7697  134.7845  154.8832 H   0  0  0  0  0  0  0  0  0  0  0  0
  149.2415  134.9180  153.9287 H   0  0  0  0  0  0  0  0  0  0  0  0
  1  2  1  0  0  0  0
  1 27  1  0  0  0  0
  1 28  1  0  0  0  0
  2  3  2  0  0  0  0
  2  4  1  0  0  0  0
  4  5  1  0  0  0  0
  4 29  1  0  0  0  0
  4 30  1  0  0  0  0
  5 10  1  0  0  0  0
  5  6  1  0  0  0  0
  5 31  1  0  0  0  0
  6  7  1  0  0  0  0
  6 32  1  0  0  0  0
  6 33  1  0  0  0  0
  7  8  1  0  0  0  0
  7 34  1  0  0  0  0
  7 35  1  0  0  0  0
  8  9  1  0  0  0  0
  8 36  1  0  0  0  0
  8 37  1  0  0  0  0
  9 10  1  0  0  0  0
  9 38  1  0  0  0  0
  9 39  1  0  0  0  0
 10 11  1  0  0  0  0
 11 16  1  0  0  0  0
 11 12  2  0  0  0  0
 12 13  1  0  0  0  0
 13 14  2  0  0  0  0
 13 40  1  0  0  0  0
 14 15  1  0  0  0  0
 15 19  1  0  0  0  0
 15 16  2  0  0  0  0
 16 17  1  0  0  0  0
 17 18  2  0  0  0  0
 18 19  1  0  0  0  0
 18 41  1  0  0  0  0
 19 20  1  0  0  0  0
 20 21  1  0  0  0  0
 20 42  1  0  0  0  0
 20 43  1  0  0  0  0
 21 26  1  0  0  0  0
 21 22  1  0  0  0  0
 21 23  1  0  0  0  0
 22 44  1  0  0  0  0
 23 24  1  0  0  0  0
 23 45  1  0  0  0  0
 23 46  1  0  0  0  0
 24 25  1  0  0  0  0
 24 47  1  0  0  0  0
 24 48  1  0  0  0  0
 25 26  1  0  0  0  0
 26 49  1  0  0  0  0
 26 50  1  0  0  0  0
M  END
> <s_m_source_file>
AV-unprocessed.smi

> <i_m_source_file_index>
219

> <i_lp_mmshare_version>
43012

> <i_f3d_flags>
0

> <s_epik_input>
W05IMl1DKD1PKVtDSDJdW0NAQEhdMVtDSDJdW0NIMl1bQ0gyXVtDSDJdTjFjKG5bY0hdbjIpYyhjMjMpbltjSF1uM1tDSDJdW0NAQF00KFtPSF0pW0NIMl1bQ0gyXU9bQ0gyXTQ=

> <s_epik_cmdline>
J2VwaWtfcHl0aG9uJywgJy1waCcsICc3LjAnLCAnLXRuJywgJzgnLCAnLW1hJywgJzIwMCcsICctbWV0YWxfYmluZGluZycsICctaW1hZScsICc8aW5maWxlLm1hZT4nLCAnLW9tYWUnLCAnPG91dGZpbGUubWFlPic=

> <r_lp_tautomer_probability>
1

> <r_epik_Ionization_Penalty>
0.00228532

> <r_epik_Ionization_Penalty_Charging>
0

> <r_epik_Ionization_Penalty_Neutral>
0.00228532

> <r_epik_State_Penalty>
0.00140978

> <r_epik_Charging_Adjusted_Penalty>
0.00140978

> <i_epik_Tot_Q>
0

> <i_epik_Tot_abs_Q>
0

> <r_epik_Metal_State_Penalty>
-0

> <b_epik_Metal_Only>
0

> <s_lp_Force_Field>
OPLS_2005

> <r_lp_Energy>
33.6932

> <b_lp_Chiralities_Consistent>
1

> <s_lp_Variant>
AV-unprocessed.smi:219-3

> <Gold.Version>
5.8.1

> <Gold.Id.Protein>
6NUR|6NUR_protein|mol2

> <Gold.PLP.Fitness>
41.4349

> <Gold.PLP.PLP>
-30.3247

> <Gold.PLP.part.hbond>
-3.8282

> <Gold.PLP.part.metal>
0.0000

> <Gold.PLP.part.buried>
-5.2977

> <Gold.PLP.part.nonpolar>
-21.9684

> <Gold.PLP.part.repulsive>
0.4967

> <Gold.PLP.ligand.clash>
0.0000

> <Gold.PLP.ligand.torsion>
0.4751

> <Gold.PLP.Chemscore.Hbond>
3.9280

> <Gold.PLP.Chemscore.CHOScore>
0.0000

> <Gold.PLP.Chemscore.Metal>
0.0000

> <Gold.Chemscore.Hbonds>
donor molecule, donor type, donor heavy atom, donor atom, acceptor molecule, acceptor atom, score
      L1  H     1    27       P1  7948  0.99
      L1  H     1    28       P1  7957  0.83
      P1  H  7989  7998       L1    12  1.00
      P1  H 10752 10763       L1    14  1.00

> <Gold.PLP.Chemscore.Internal.Correction>
0.2765

> <Gold.Rescore>
     Score         DG    S(hbond)    S(metal)    S(lipo)     H(rot)  DE(clash)    DE(int)     intcor
     13.57     -15.93       3.59        0.00      60.56       3.37       1.71       0.64       ----

> <Gold.Chemscore.Fitness>
13.5744

> <Gold.Chemscore.DG>
-15.9282

> <Gold.Chemscore.ZeroCoef>
-5.4800

> <Gold.Chemscore.Hbond>
3.5895

> <Gold.Chemscore.Metal>
0.0000

> <Gold.Chemscore.Lipo>
60.5610

> <Gold.Chemscore.Internal_Hbond>
0.0000

> <Gold.Chemscore.DEClash>
1.7113

> <Gold.Chemscore.DEInternal>
0.6425

> <Gold.Chemscore.Rot>
3.3697

> <Gold.Chemscore.Internal.Correction>
   9.000000E+99

> <Gold.Chemscore.Hbonds>
donor molecule, donor type, donor heavy atom, donor atom, acceptor molecule, acceptor atom, score
      L1  H     1    27       P1  7948  0.90
      L1  H     1    28       P1  7957  0.77
      P1  H  7989  7998       L1    12  0.83
      P1  H 10752 10763       L1    14  0.79

> <Gold.Chemscore.Hbond.Weighted>
-11.9889

> <Gold.Chemscore.Metal.Weighted>
-0.0000

> <Gold.Chemscore.Lipo.Weighted>
-7.0856

> <Gold.Chemscore.Internal_Hbond.Weighted>
0.0000

> <Gold.Chemscore.DEClash.Weighted>
1.7113

> <Gold.Chemscore.DEInternal.Weighted>
0.6425

> <Gold.Chemscore.Rot.Weighted>
8.6264

> <Gold.Chemscore.Internal.Correction.Weighted>
   9.000000E+99

> <Gold.Protein.RotatedTorsions>
[ 6907 6896 6895 6894 ] final   47.50 input  -60.11 | X-H torsion
[ 7974 7965 7964 7962 ] final  154.32 input  175.53 | X-H torsion
[ 8008 7997 7996 7995 ] final  -12.80 input   59.86 | X-H torsion
[ 10167 10162 10161 10158 ] final  157.97 input  -65.29 | X-H torsion
[ 10718 10713 10712 10709 ] final  -53.04 input   66.30 | X-H torsion
[ 10763 10752 10751 10750 ] final   52.75 input  -60.55 | X-H torsion
[ 11005 11000 10999 10996 ] final  -37.37 input  -57.11 | X-H torsion

> <Gold.Protein.ActiveResidues>
 VAL166  LYS551  ARG553  GLY616  TRP617  ASP618  TYR619  PRO620  LYS621  CYS622 
 ASP623  PHE694  ASN695  SER759  ASP760  ASP761  ALA762  ILE779  LEU786  VAL792 
 PHE793  MET794  SER795  GLU796  ALA797  LYS798  CYS799  TRP800  GLU811  SER814 

> <Gold.Protein.RotatedAtoms>
  152.2688  134.7955  160.0417 H   0  0  0  0  0  0  0  0  0  0  0  0  # atno 6907 bound_to 6896
  151.8575  133.3446  159.3701 H   0  0  0  0  0  0  0  0  0  0  0  0  # atno 6908 bound_to 6896
  150.7144  134.5166  159.5677 H   0  0  0  0  0  0  0  0  0  0  0  0  # atno 6909 bound_to 6896
  144.8097  139.6917  143.6147 H   0  0  0  0  0  0  0  0  0  0  0  0  # atno 7974 bound_to 7965
  154.5346  140.2266  155.8745 H   0  0  0  0  0  0  0  0  0  0  0  0  # atno 8008 bound_to 7997
  156.1798  140.3103  155.9091 H   0  0  0  0  0  0  0  0  0  0  0  0  # atno 8009 bound_to 7997
  155.3381  140.0449  157.3035 H   0  0  0  0  0  0  0  0  0  0  0  0  # atno 8010 bound_to 7997
  139.4825  144.4868  151.8365 H   0  0  0  0  0  0  0  0  0  0  0  0  # atno 10167 bound_to 10162
  156.1569  130.4150  149.9854 H   0  0  0  0  0  0  0  0  0  0  0  0  # atno 10718 bound_to 10713
  152.9790  135.5802  154.4629 H   0  0  0  0  0  0  0  0  0  0  0  0  # atno 10763 bound_to 10752
  154.4203  135.2771  155.1982 H   0  0  0  0  0  0  0  0  0  0  0  0  # atno 10764 bound_to 10752
  154.3734  135.6163  153.5806 H   0  0  0  0  0  0  0  0  0  0  0  0  # atno 10765 bound_to 10752
  140.9946  133.6987  156.1912 H   0  0  0  0  0  0  0  0  0  0  0  0  # atno 11005 bound_to 11000
  146.2393  139.5969  142.9502 LP  0  0  0  0  0  0  0  0  0  0  0  0  # atno 17320 bound_to 7965
  145.5354  141.0424  143.2360 LP  0  0  0  0  0  0  0  0  0  0  0  0  # atno 17321 bound_to 7965
  140.4349  144.2065  150.5889 LP  0  0  0  0  0  0  0  0  0  0  0  0  # atno 17342 bound_to 10162
  140.4742  143.2402  151.9046 LP  0  0  0  0  0  0  0  0  0  0  0  0  # atno 17343 bound_to 10162
  156.7695  130.9181  151.3644 LP  0  0  0  0  0  0  0  0  0  0  0  0  # atno 17370 bound_to 10713
  157.6702  130.9044  150.0023 LP  0  0  0  0  0  0  0  0  0  0  0  0  # atno 17371 bound_to 10713
  140.6986  134.4589  157.5587 LP  0  0  0  0  0  0  0  0  0  0  0  0  # atno 17394 bound_to 11000
  139.9009  134.8559  156.1902 LP  0  0  0  0  0  0  0  0  0  0  0  0  # atno 17395 bound_to 11000

$$$$
