AV-unprocessed.smi:1980|AV-procd|sdf|8017|dock4
  -GOLD-   2272010213D 1   1.00000     0.00000
 Structure written by MMmdl.
 44 45  0  0  0  0  0  0  0  0  1 V2000
  149.6089  140.4377  158.3701 C   0  0  0  0  0  0  0  0  0  0  0  0
  150.6464  140.9985  157.3856 C   0  0  2  0  0  0  0  0  0  0  0  0
  150.6095  142.4202  157.4843 O   0  0  0  0  0  0  0  0  0  0  0  0
  150.6482  142.9467  158.8072 C   0  0  0  0  0  0  0  0  0  0  0  0
  151.8605  143.8743  158.9514 C   0  0  0  0  0  0  0  0  0  0  0  0
  152.0131  144.5732  157.8275 F   0  0  0  0  0  0  0  0  0  0  0  0
  151.6738  144.7235  159.9612 F   0  0  0  0  0  0  0  0  0  0  0  0
  152.9651  143.1596  159.1643 F   0  0  0  0  0  0  0  0  0  0  0  0
  150.3539  140.5509  155.9441 C   0  0  0  0  0  0  0  0  0  0  0  0
  151.1865  139.8978  155.3148 O   0  0  0  0  0  0  0  0  0  0  0  0
  149.1593  140.9026  155.4429 N   0  0  0  0  0  0  0  0  0  0  0  0
  148.6733  140.5899  154.1036 C   0  0  0  0  0  0  0  0  0  0  0  0
  147.4380  139.7075  154.1216 C   0  0  0  0  0  0  0  0  0  0  0  0
  146.3090  140.0601  154.8858 C   0  0  0  0  0  0  0  0  0  0  0  0
  145.1837  139.2142  154.8722 C   0  0  0  0  0  0  0  0  0  0  0  0
  145.2172  138.0305  154.0963 C   0  0  0  0  0  0  0  0  0  0  0  0
  144.1013  137.1646  154.0697 N   0  0  0  0  0  0  0  0  0  0  0  0
  142.7705  137.7632  153.9794 C   0  0  0  0  0  0  0  0  0  0  0  0
  141.6866  136.7074  154.2558 C   0  0  0  0  0  0  0  0  0  0  0  0
  141.8544  135.6040  153.3721 O   0  0  0  0  0  0  0  0  0  0  0  0
  143.1136  134.9664  153.5569 C   0  0  0  0  0  0  0  0  0  0  0  0
  144.2495  135.9596  153.2568 C   0  0  0  0  0  0  0  0  0  0  0  0
  146.3057  137.6994  153.3577 N   0  0  0  0  0  0  0  0  0  0  0  0
  147.3819  138.5137  153.3741 C   0  0  0  0  0  0  0  0  0  0  0  0
  149.5702  139.3485  158.3288 H   0  0  0  0  0  0  0  0  0  0  0  0
  148.6083  140.8174  158.1588 H   0  0  0  0  0  0  0  0  0  0  0  0
  149.8564  140.7194  159.3937 H   0  0  0  0  0  0  0  0  0  0  0  0
  151.6316  140.6392  157.6899 H   0  0  0  0  0  0  0  0  0  0  0  0
  149.7328  143.5032  159.0139 H   0  0  0  0  0  0  0  0  0  0  0  0
  150.7160  142.1457  159.5441 H   0  0  0  0  0  0  0  0  0  0  0  0
  148.5392  141.4350  156.0358 H   0  0  0  0  0  0  0  0  0  0  0  0
  148.4538  141.4978  153.5393 H   0  0  0  0  0  0  0  0  0  0  0  0
  149.4756  140.0861  153.5638 H   0  0  0  0  0  0  0  0  0  0  0  0
  146.2988  140.9678  155.4714 H   0  0  0  0  0  0  0  0  0  0  0  0
  144.3093  139.4905  155.4422 H   0  0  0  0  0  0  0  0  0  0  0  0
  142.6711  138.5773  154.6986 H   0  0  0  0  0  0  0  0  0  0  0  0
  142.6327  138.1878  152.9839 H   0  0  0  0  0  0  0  0  0  0  0  0
  141.7294  136.3674  155.2920 H   0  0  0  0  0  0  0  0  0  0  0  0
  140.6969  137.1373  154.1026 H   0  0  0  0  0  0  0  0  0  0  0  0
  143.1926  134.5807  154.5748 H   0  0  0  0  0  0  0  0  0  0  0  0
  143.1786  134.1092  152.8866 H   0  0  0  0  0  0  0  0  0  0  0  0
  144.2284  136.2425  152.2035 H   0  0  0  0  0  0  0  0  0  0  0  0
  145.2036  135.4654  153.4322 H   0  0  0  0  0  0  0  0  0  0  0  0
  148.2220  138.2006  152.7721 H   0  0  0  0  0  0  0  0  0  0  0  0
  1  2  1  0  0  0  0
  1 25  1  0  0  0  0
  1 26  1  0  0  0  0
  1 27  1  0  0  0  0
  2  3  1  0  0  0  0
  2  9  1  0  0  0  0
  2 28  1  0  0  0  0
  3  4  1  0  0  0  0
  4  5  1  0  0  0  0
  4 29  1  0  0  0  0
  4 30  1  0  0  0  0
  5  6  1  0  0  0  0
  5  7  1  0  0  0  0
  5  8  1  0  0  0  0
  9 10  2  0  0  0  0
  9 11  1  0  0  0  0
 11 12  1  0  0  0  0
 11 31  1  0  0  0  0
 12 13  1  0  0  0  0
 12 32  1  0  0  0  0
 12 33  1  0  0  0  0
 13 24  1  0  0  0  0
 13 14  2  0  0  0  0
 14 15  1  0  0  0  0
 14 34  1  0  0  0  0
 15 16  2  0  0  0  0
 15 35  1  0  0  0  0
 16 17  1  0  0  0  0
 16 23  1  0  0  0  0
 17 22  1  0  0  0  0
 17 18  1  0  0  0  0
 18 19  1  0  0  0  0
 18 36  1  0  0  0  0
 18 37  1  0  0  0  0
 19 20  1  0  0  0  0
 19 38  1  0  0  0  0
 19 39  1  0  0  0  0
 20 21  1  0  0  0  0
 21 22  1  0  0  0  0
 21 40  1  0  0  0  0
 21 41  1  0  0  0  0
 22 42  1  0  0  0  0
 22 43  1  0  0  0  0
 23 24  2  0  0  0  0
 24 44  1  0  0  0  0
M  END
> <s_m_source_file>
AV-unprocessed.smi

> <i_m_source_file_index>
1980

> <i_lp_mmshare_version>
43012

> <i_f3d_flags>
0

> <s_epik_input>
RkMoRikoRilbQ0gyXU9bQ0BASF0oW0NIM10pQyg9TylbTkhdW0NIMl1jMVtjSF1bY0hdYyhuW2NIXTEpTjJbQ0gyXVtDSDJdT1tDSDJdW0NIMl0y

> <s_epik_cmdline>
J2VwaWtfcHl0aG9uJywgJy1waCcsICc3LjAnLCAnLXRuJywgJzgnLCAnLW1hJywgJzIwMCcsICctbWV0YWxfYmluZGluZycsICctaW1hZScsICc8aW5maWxlLm1hZT4nLCAnLW9tYWUnLCAnPG91dGZpbGUubWFlPic=

> <r_lp_tautomer_probability>
1

> <r_epik_Ionization_Penalty>
0.00436425

> <r_epik_Ionization_Penalty_Charging>
0

> <r_epik_Ionization_Penalty_Neutral>
0.00436425

> <r_epik_State_Penalty>
0.00314317

> <r_epik_Charging_Adjusted_Penalty>
0.00314317

> <i_epik_Tot_Q>
0

> <i_epik_Tot_abs_Q>
0

> <r_epik_Metal_State_Penalty>
-0

> <b_epik_Metal_Only>
0

> <s_lp_Force_Field>
OPLS_2005

> <r_lp_Energy>
19.3234

> <b_lp_Chiralities_Consistent>
1

> <s_lp_Variant>
AV-unprocessed.smi:1980-1

> <Gold.Version>
5.8.1

> <Gold.Id.Protein>
6NUR|6NUR_protein|mol2

> <Gold.PLP.Fitness>
44.1634

> <Gold.PLP.PLP>
-37.1464

> <Gold.PLP.part.hbond>
-1.0000

> <Gold.PLP.part.metal>
0.0000

> <Gold.PLP.part.buried>
-4.9847

> <Gold.PLP.part.nonpolar>
-32.1721

> <Gold.PLP.part.repulsive>
0.7075

> <Gold.PLP.ligand.clash>
0.0000

> <Gold.PLP.ligand.torsion>
1.0554

> <Gold.PLP.Chemscore.Hbond>
1.0000

> <Gold.PLP.Chemscore.CHOScore>
1.8902

> <Gold.PLP.Chemscore.Metal>
0.0000

> <Gold.Chemscore.Hbonds>
donor molecule, donor type, donor heavy atom, donor atom, acceptor molecule, acceptor atom, score
      P1  H  7989  7998       L1    10  0.81
      L1  C    24    44       P1  7948  1.00
      L1  C    24    44       P1  7957  0.29

> <Gold.PLP.Chemscore.Internal.Correction>
0.4571

> <Gold.Rescore>
     Score         DG    S(hbond)    S(metal)    S(lipo)     H(rot)  DE(clash)    DE(int)     intcor
      9.01      -9.99       0.97        0.00      65.40       2.49       0.02       0.96       ----

> <Gold.Chemscore.Fitness>
9.0066

> <Gold.Chemscore.DG>
-9.9861

> <Gold.Chemscore.ZeroCoef>
-5.4800

> <Gold.Chemscore.Hbond>
0.9667

> <Gold.Chemscore.Metal>
0.0000

> <Gold.Chemscore.Lipo>
65.3971

> <Gold.Chemscore.Internal_Hbond>
0.0000

> <Gold.Chemscore.DEClash>
0.0212

> <Gold.Chemscore.DEInternal>
0.9584

> <Gold.Chemscore.Rot>
2.4899

> <Gold.Chemscore.Internal.Correction>
   9.000000E+99

> <Gold.Chemscore.Hbonds>
donor molecule, donor type, donor heavy atom, donor atom, acceptor molecule, acceptor atom, score
      P1  H  7989  7998       L1    10  0.60

> <Gold.Chemscore.Hbond.Weighted>
-3.2288

> <Gold.Chemscore.Metal.Weighted>
-0.0000

> <Gold.Chemscore.Lipo.Weighted>
-7.6515

> <Gold.Chemscore.Internal_Hbond.Weighted>
0.0000

> <Gold.Chemscore.DEClash.Weighted>
0.0212

> <Gold.Chemscore.DEInternal.Weighted>
0.9584

> <Gold.Chemscore.Rot.Weighted>
6.3741

> <Gold.Chemscore.Internal.Correction.Weighted>
   9.000000E+99

> <Gold.Protein.RotatedTorsions>
[ 6907 6896 6895 6894 ] final  -46.82 input  -60.11 | X-H torsion
[ 7974 7965 7964 7962 ] final -163.16 input  175.53 | X-H torsion
[ 8008 7997 7996 7995 ] final  156.35 input   59.86 | X-H torsion
[ 10167 10162 10161 10158 ] final -161.76 input  -65.29 | X-H torsion
[ 10718 10713 10712 10709 ] final -110.01 input   66.30 | X-H torsion
[ 10763 10752 10751 10750 ] final  -58.00 input  -60.55 | X-H torsion
[ 11005 11000 10999 10996 ] final   -0.23 input  -57.11 | X-H torsion

> <Gold.Protein.ActiveResidues>
 VAL166  LYS551  ARG553  GLY616  TRP617  ASP618  TYR619  PRO620  LYS621  CYS622 
 ASP623  PHE694  ASN695  SER759  ASP760  ASP761  ALA762  ILE779  LEU786  VAL792 
 PHE793  MET794  SER795  GLU796  ALA797  LYS798  CYS799  TRP800  GLU811  SER814 

> <Gold.Protein.RotatedAtoms>
  150.9072  134.8487  159.7400 H   0  0  0  0  0  0  0  0  0  0  0  0  # atno 6907 bound_to 6896
  152.4925  134.4413  159.9554 H   0  0  0  0  0  0  0  0  0  0  0  0  # atno 6908 bound_to 6896
  151.4459  133.3591  159.2823 H   0  0  0  0  0  0  0  0  0  0  0  0  # atno 6909 bound_to 6896
  144.7335  140.3148  143.6181 H   0  0  0  0  0  0  0  0  0  0  0  0  # atno 7974 bound_to 7965
  156.2427  140.1915  156.6942 H   0  0  0  0  0  0  0  0  0  0  0  0  # atno 8008 bound_to 7997
  154.6229  140.0606  156.9664 H   0  0  0  0  0  0  0  0  0  0  0  0  # atno 8009 bound_to 7997
  155.1832  140.3278  155.4374 H   0  0  0  0  0  0  0  0  0  0  0  0  # atno 8010 bound_to 7997
  139.6441  144.0204  152.2114 H   0  0  0  0  0  0  0  0  0  0  0  0  # atno 10167 bound_to 10162
  156.0568  130.5793  150.8179 H   0  0  0  0  0  0  0  0  0  0  0  0  # atno 10718 bound_to 10713
  154.2312  135.6360  153.5176 H   0  0  0  0  0  0  0  0  0  0  0  0  # atno 10763 bound_to 10752
  152.9948  135.5520  154.6010 H   0  0  0  0  0  0  0  0  0  0  0  0  # atno 10764 bound_to 10752
  154.5494  135.2900  155.0997 H   0  0  0  0  0  0  0  0  0  0  0  0  # atno 10765 bound_to 10752
  140.6340  133.9549  155.8290 H   0  0  0  0  0  0  0  0  0  0  0  0  # atno 11005 bound_to 11000
  145.7628  139.1830  143.2257 LP  0  0  0  0  0  0  0  0  0  0  0  0  # atno 17320 bound_to 7965
  146.0973  140.7586  142.9566 LP  0  0  0  0  0  0  0  0  0  0  0  0  # atno 17321 bound_to 7965
  139.9901  144.6367  150.7822 LP  0  0  0  0  0  0  0  0  0  0  0  0  # atno 17342 bound_to 10162
  140.7506  143.2958  151.3209 LP  0  0  0  0  0  0  0  0  0  0  0  0  # atno 17343 bound_to 10162
  157.5544  131.0944  150.9649 LP  0  0  0  0  0  0  0  0  0  0  0  0  # atno 17370 bound_to 10713
  156.9902  130.5560  149.5302 LP  0  0  0  0  0  0  0  0  0  0  0  0  # atno 17371 bound_to 10713
  141.0655  134.0283  157.3600 LP  0  0  0  0  0  0  0  0  0  0  0  0  # atno 17394 bound_to 11000
  139.9105  135.0189  156.7671 LP  0  0  0  0  0  0  0  0  0  0  0  0  # atno 17395 bound_to 11000

$$$$
