AV-unprocessed.smi:1995|AV-procd|sdf|8079|dock7
  -GOLD-   2272010293D 1   1.00000     0.00000
 Structure written by MMmdl.
 43 44  0  0  0  0  0  0  0  0  2 V2000
  147.0250  141.2950  155.0681 C   0  0  0  0  0  0  0  0  0  0  0  0
  147.7907  139.9801  155.3021 C   0  0  0  0  0  0  0  0  0  0  0  0
  147.9231  139.0448  154.0609 C   0  0  2  0  0  0  0  0  0  0  0  0
  148.1106  139.9536  152.8177 C   0  0  0  0  0  0  0  0  0  0  0  0
  146.6166  138.2101  153.8808 C   0  0  0  0  0  0  0  0  0  0  0  0
  146.7734  137.0469  153.0076 N   0  0  0  0  0  0  0  0  0  0  0  0
  145.7744  136.2832  152.5409 C   0  0  0  0  0  0  0  0  0  0  0  0
  144.5861  136.5012  152.7784 O   0  0  0  0  0  0  0  0  0  0  0  0
  146.2447  135.2723  151.7899 N   0  0  0  0  0  0  0  0  0  0  0  0
  145.5083  134.2547  151.1285 C   0  0  0  0  0  0  0  0  0  0  0  0
  144.1769  134.2530  150.9938 N   0  0  0  0  0  0  0  0  0  0  0  0
  143.7216  133.1293  150.2994 C   0  0  0  0  0  0  0  0  0  0  0  0
  144.7273  132.2798  149.9097 C   0  0  0  0  0  0  0  0  0  0  0  0
  146.2955  132.8612  150.4022 S   0  0  0  0  0  0  0  0  0  0  0  0
  149.1144  138.1344  154.2305 N   0  3  0  0  0  0  0  0  0  0  0  0
  150.4255  138.8112  154.4442 C   0  0  0  0  0  0  0  0  0  0  0  0
  151.5733  137.7911  154.3823 C   0  0  0  0  0  0  0  0  0  0  0  0
  151.3684  136.7882  155.3675 O   0  0  0  0  0  0  0  0  0  0  0  0
  150.1635  136.0701  155.1436 C   0  0  0  0  0  0  0  0  0  0  0  0
  148.9614  137.0274  155.2171 C   0  0  0  0  0  0  0  0  0  0  0  0
  146.9825  141.8766  155.9892 H   0  0  0  0  0  0  0  0  0  0  0  0
  145.9973  141.1158  154.7530 H   0  0  0  0  0  0  0  0  0  0  0  0
  147.5051  141.9191  154.3146 H   0  0  0  0  0  0  0  0  0  0  0  0
  148.7738  140.2122  155.7110 H   0  0  0  0  0  0  0  0  0  0  0  0
  147.2817  139.4497  156.1073 H   0  0  0  0  0  0  0  0  0  0  0  0
  147.3847  140.7673  152.7994 H   0  0  0  0  0  0  0  0  0  0  0  0
  147.9762  139.4051  151.8851 H   0  0  0  0  0  0  0  0  0  0  0  0
  149.1015  140.4079  152.7926 H   0  0  0  0  0  0  0  0  0  0  0  0
  146.2766  137.8261  154.8419 H   0  0  0  0  0  0  0  0  0  0  0  0
  145.8024  138.8313  153.5077 H   0  0  0  0  0  0  0  0  0  0  0  0
  147.7178  136.7937  152.7558 H   0  0  0  0  0  0  0  0  0  0  0  0
  147.2467  135.2194  151.6823 H   0  0  0  0  0  0  0  0  0  0  0  0
  142.6620  133.0138  150.1260 H   0  0  0  0  0  0  0  0  0  0  0  0
  144.6404  131.3514  149.3646 H   0  0  0  0  0  0  0  0  0  0  0  0
  150.6108  139.5755  153.6920 H   0  0  0  0  0  0  0  0  0  0  0  0
  150.4453  139.3049  155.4157 H   0  0  0  0  0  0  0  0  0  0  0  0
  151.6446  137.3413  153.3905 H   0  0  0  0  0  0  0  0  0  0  0  0
  152.5251  138.2859  154.5774 H   0  0  0  0  0  0  0  0  0  0  0  0
  150.2006  135.5664  154.1764 H   0  0  0  0  0  0  0  0  0  0  0  0
  150.0707  135.2930  155.9027 H   0  0  0  0  0  0  0  0  0  0  0  0
  148.8777  137.4297  156.2269 H   0  0  0  0  0  0  0  0  0  0  0  0
  148.0647  136.4403  155.0284 H   0  0  0  0  0  0  0  0  0  0  0  0
  149.2007  137.6724  153.3366 H   0  0  0  0  0  0  0  0  0  0  0  0
  1  2  1  0  0  0  0
  1 21  1  0  0  0  0
  1 22  1  0  0  0  0
  1 23  1  0  0  0  0
  2  3  1  0  0  0  0
  2 24  1  0  0  0  0
  2 25  1  0  0  0  0
  3  4  1  0  0  0  0
  3  5  1  0  0  0  0
  3 15  1  0  0  0  0
  4 26  1  0  0  0  0
  4 27  1  0  0  0  0
  4 28  1  0  0  0  0
  5  6  1  0  0  0  0
  5 29  1  0  0  0  0
  5 30  1  0  0  0  0
  6  7  1  0  0  0  0
  6 31  1  0  0  0  0
  7  8  2  0  0  0  0
  7  9  1  0  0  0  0
  9 10  1  0  0  0  0
  9 32  1  0  0  0  0
 10 14  1  0  0  0  0
 10 11  2  0  0  0  0
 11 12  1  0  0  0  0
 12 13  2  0  0  0  0
 12 33  1  0  0  0  0
 13 14  1  0  0  0  0
 13 34  1  0  0  0  0
 15 20  1  0  0  0  0
 15 16  1  0  0  0  0
 15 43  1  0  0  0  0
 16 17  1  0  0  0  0
 16 35  1  0  0  0  0
 16 36  1  0  0  0  0
 17 18  1  0  0  0  0
 17 37  1  0  0  0  0
 17 38  1  0  0  0  0
 18 19  1  0  0  0  0
 19 20  1  0  0  0  0
 19 39  1  0  0  0  0
 19 40  1  0  0  0  0
 20 41  1  0  0  0  0
 20 42  1  0  0  0  0
M  CHG  1  15   1
M  END
> <s_m_source_file>
AV-unprocessed.smi

> <i_m_source_file_index>
1995

> <i_lp_mmshare_version>
43012

> <i_f3d_flags>
0

> <s_epik_input>
W0NIMl0xW0NIMl1PW0NIMl1bQ0gyXU4xW0NAQF0oW0NIM10pKFtDSDJdW0NIM10pW0NIMl1bTkhdQyg9TylbTkhdYzJuW2NIXVtjSF1zMg==

> <s_epik_cmdline>
J2VwaWtfcHl0aG9uJywgJy1waCcsICc3LjAnLCAnLXRuJywgJzgnLCAnLW1hJywgJzIwMCcsICctbWV0YWxfYmluZGluZycsICctaW1hZScsICc8aW5maWxlLm1hZT4nLCAnLW9tYWUnLCAnPG91dGZpbGUubWFlPic=

> <r_lp_tautomer_probability>
0.999

> <r_epik_Ionization_Penalty>
0.55406

> <r_epik_Ionization_Penalty_Charging>
0.553838

> <r_epik_Ionization_Penalty_Neutral>
0.000222147

> <r_epik_State_Penalty>
0.564424

> <r_epik_Charging_Adjusted_Penalty>
1.11826

> <i_epik_Tot_Q>
1

> <i_epik_Tot_abs_Q>
1

> <r_epik_Metal_State_Penalty>
0.573776

> <b_epik_Metal_Only>
0

> <s_lp_Force_Field>
OPLS_2005

> <r_lp_Energy>
26.593

> <b_lp_Chiralities_Consistent>
1

> <s_lp_Variant>
AV-unprocessed.smi:1995-4

> <Gold.Version>
5.8.1

> <Gold.Id.Protein>
6NUR|6NUR_protein|mol2

> <Gold.PLP.Fitness>
43.5011

> <Gold.PLP.PLP>
-27.2671

> <Gold.PLP.part.hbond>
-4.0000

> <Gold.PLP.part.metal>
0.0000

> <Gold.PLP.part.buried>
-0.7325

> <Gold.PLP.part.nonpolar>
-24.1821

> <Gold.PLP.part.repulsive>
0.4558

> <Gold.PLP.ligand.clash>
0.0000

> <Gold.PLP.ligand.torsion>
0.7753

> <Gold.PLP.Chemscore.Hbond>
4.9440

> <Gold.PLP.Chemscore.CHOScore>
0.9400

> <Gold.PLP.Chemscore.Metal>
0.0000

> <Gold.Chemscore.Hbonds>
donor molecule, donor type, donor heavy atom, donor atom, acceptor molecule, acceptor atom, score
      L1  H     6    31       P1  7948  1.00
      L1  H     9    32       P1  7948  0.91
      L1  H    15    43       P1  7948  1.89
      P1  H 10752 10765       L1    18  0.52
      L1  C    12    33       P1 10186  1.00

> <Gold.PLP.Chemscore.Internal.Correction>
0.1326

> <Gold.Rescore>
     Score         DG    S(hbond)    S(metal)    S(lipo)     H(rot)  DE(clash)    DE(int)     intcor
     15.38     -19.96       2.85        0.00      81.57       1.79       2.15       2.42       ----

> <Gold.Chemscore.Fitness>
15.3824

> <Gold.Chemscore.DG>
-19.9560

> <Gold.Chemscore.ZeroCoef>
-5.4800

> <Gold.Chemscore.Hbond>
2.8518

> <Gold.Chemscore.Metal>
0.0000

> <Gold.Chemscore.Lipo>
81.5732

> <Gold.Chemscore.Internal_Hbond>
0.0000

> <Gold.Chemscore.DEClash>
2.1487

> <Gold.Chemscore.DEInternal>
2.4250

> <Gold.Chemscore.Rot>
1.7942

> <Gold.Chemscore.Internal.Correction>
   9.000000E+99

> <Gold.Chemscore.Hbonds>
donor molecule, donor type, donor heavy atom, donor atom, acceptor molecule, acceptor atom, score
      L1  H     6    31       P1  7948  0.99
      L1  H     9    32       P1  7948  0.84
      L1  H    15    43       P1  7948  0.89
      P1  H 10752 10765       L1    18  0.03

> <Gold.Chemscore.Hbond.Weighted>
-9.5250

> <Gold.Chemscore.Metal.Weighted>
-0.0000

> <Gold.Chemscore.Lipo.Weighted>
-9.5441

> <Gold.Chemscore.Internal_Hbond.Weighted>
0.0000

> <Gold.Chemscore.DEClash.Weighted>
2.1487

> <Gold.Chemscore.DEInternal.Weighted>
2.4250

> <Gold.Chemscore.Rot.Weighted>
4.5931

> <Gold.Chemscore.Internal.Correction.Weighted>
   9.000000E+99

> <Gold.Protein.RotatedTorsions>
[ 6907 6896 6895 6894 ] final  -25.12 input  -60.11 | X-H torsion
[ 7974 7965 7964 7962 ] final  -27.07 input  175.53 | X-H torsion
[ 8008 7997 7996 7995 ] final  175.80 input   59.86 | X-H torsion
[ 10167 10162 10161 10158 ] final  -83.58 input  -65.29 | X-H torsion
[ 10718 10713 10712 10709 ] final -115.63 input   66.30 | X-H torsion
[ 10763 10752 10751 10750 ] final -176.79 input  -60.55 | X-H torsion
[ 11005 11000 10999 10996 ] final  133.42 input  -57.11 | X-H torsion

> <Gold.Protein.ActiveResidues>
 VAL166  LYS551  ARG553  GLY616  TRP617  ASP618  TYR619  PRO620  LYS621  CYS622 
 ASP623  PHE694  ASN695  SER759  ASP760  ASP761  ALA762  ILE779  LEU786  VAL792 
 PHE793  MET794  SER795  GLU796  ALA797  LYS798  CYS799  TRP800  GLU811  SER814 

> <Gold.Protein.RotatedAtoms>
  151.1797  135.0355  159.8786 H   0  0  0  0  0  0  0  0  0  0  0  0  # atno 6907 bound_to 6896
  152.5445  134.1077  159.8355 H   0  0  0  0  0  0  0  0  0  0  0  0  # atno 6908 bound_to 6896
  151.1193  133.5069  159.2635 H   0  0  0  0  0  0  0  0  0  0  0  0  # atno 6909 bound_to 6896
  146.1383  140.5103  142.8663 H   0  0  0  0  0  0  0  0  0  0  0  0  # atno 7974 bound_to 7965
  156.0832  140.1399  156.9686 H   0  0  0  0  0  0  0  0  0  0  0  0  # atno 8008 bound_to 7997
  154.4597  140.0948  156.6907 H   0  0  0  0  0  0  0  0  0  0  0  0  # atno 8009 bound_to 7997
  155.5042  140.3452  155.4378 H   0  0  0  0  0  0  0  0  0  0  0  0  # atno 8010 bound_to 7997
  140.4213  143.2583  151.8885 H   0  0  0  0  0  0  0  0  0  0  0  0  # atno 10167 bound_to 10162
  156.0908  130.6091  150.8930 H   0  0  0  0  0  0  0  0  0  0  0  0  # atno 10718 bound_to 10713
  154.5681  135.2825  155.0854 H   0  0  0  0  0  0  0  0  0  0  0  0  # atno 10763 bound_to 10752
  154.2237  135.6386  153.5156 H   0  0  0  0  0  0  0  0  0  0  0  0  # atno 10764 bound_to 10752
  153.0049  135.5520  154.6296 H   0  0  0  0  0  0  0  0  0  0  0  0  # atno 10765 bound_to 10752
  139.9851  134.9535  156.9722 H   0  0  0  0  0  0  0  0  0  0  0  0  # atno 11005 bound_to 11000
  144.7764  140.5748  143.6635 LP  0  0  0  0  0  0  0  0  0  0  0  0  # atno 17320 bound_to 7965
  145.5105  139.1479  143.3607 LP  0  0  0  0  0  0  0  0  0  0  0  0  # atno 17321 bound_to 7965
  139.4782  144.5434  151.8495 LP  0  0  0  0  0  0  0  0  0  0  0  0  # atno 17342 bound_to 10162
  140.4530  144.1829  150.5899 LP  0  0  0  0  0  0  0  0  0  0  0  0  # atno 17343 bound_to 10162
  157.6057  131.0939  150.8884 LP  0  0  0  0  0  0  0  0  0  0  0  0  # atno 17370 bound_to 10713
  156.9032  130.5254  149.5282 LP  0  0  0  0  0  0  0  0  0  0  0  0  # atno 17371 bound_to 10713
  140.5019  134.1088  155.7252 LP  0  0  0  0  0  0  0  0  0  0  0  0  # atno 17394 bound_to 11000
  141.1517  133.8957  157.2081 LP  0  0  0  0  0  0  0  0  0  0  0  0  # atno 17395 bound_to 11000

$$$$
