AV-unprocessed.smi:597|AV-procd|sdf|3020|dock8
  -GOLD-   2262023533D 1   1.00000     0.00000
 Structure written by MMmdl.
 37 38  0  0  0  0  0  0  0  0  3 V2000
  152.4424  140.4846  156.7693 O   0  0  0  0  0  0  0  0  0  0  0  0
  151.2742  140.8754  156.7652 C   0  0  0  0  0  0  0  0  0  0  0  0
  150.1857  140.1024  156.0065 C   0  0  0  0  0  0  0  0  0  0  0  0
  148.9306  140.8580  155.8540 N   0  0  0  0  0  0  0  0  0  0  0  0
  148.0853  140.9278  156.9791 C   0  0  0  0  0  0  0  0  0  0  0  0
  146.9095  141.5855  156.9516 C   0  0  0  0  0  0  0  0  0  0  0  0
  146.0516  141.6426  158.1148 N   0  3  0  0  0  0  0  0  0  0  0  0
  144.8962  142.0308  157.9754 O   0  0  0  0  0  0  0  0  0  0  0  0
  146.5030  141.3035  159.2048 O   0  5  0  0  0  0  0  0  0  0  0  0
  146.5292  142.2345  155.7117 C   0  0  0  0  0  0  0  0  0  0  0  0
  147.3313  142.1675  154.6310 C   0  0  0  0  0  0  0  0  0  0  0  0
  148.6081  141.4467  154.6617 C   0  0  0  0  0  0  0  0  0  0  0  0
  149.3423  141.3766  153.6759 O   0  0  0  0  0  0  0  0  0  0  0  0
  150.8637  141.9707  157.4223 N   0  0  0  0  0  0  0  0  0  0  0  0
  151.7193  142.8535  158.2096 C   0  0  0  0  0  0  0  0  0  0  0  0
  152.2332  142.1325  159.4738 C   0  0  0  0  0  0  0  0  0  0  0  0
  153.0727  143.0716  160.3553 C   0  0  0  0  0  0  0  0  0  0  0  0
  152.2890  144.3409  160.7244 C   0  0  0  0  0  0  0  0  0  0  0  0
  151.7813  145.0639  159.4670 C   0  0  0  0  0  0  0  0  0  0  0  0
  150.9380  144.1264  158.5877 C   0  0  0  0  0  0  0  0  0  0  0  0
  150.5844  139.8249  155.0296 H   0  0  0  0  0  0  0  0  0  0  0  0
  149.9967  139.1551  156.5153 H   0  0  0  0  0  0  0  0  0  0  0  0
  148.4557  140.4070  157.8504 H   0  0  0  0  0  0  0  0  0  0  0  0
  145.5985  142.7782  155.6402 H   0  0  0  0  0  0  0  0  0  0  0  0
  147.0281  142.6572  153.7173 H   0  0  0  0  0  0  0  0  0  0  0  0
  149.8855  142.2155  157.3693 H   0  0  0  0  0  0  0  0  0  0  0  0
  152.5751  143.1510  157.6004 H   0  0  0  0  0  0  0  0  0  0  0  0
  151.3889  141.7540  160.0520 H   0  0  0  0  0  0  0  0  0  0  0  0
  152.8317  141.2638  159.1971 H   0  0  0  0  0  0  0  0  0  0  0  0
  153.3845  142.5507  161.2611 H   0  0  0  0  0  0  0  0  0  0  0  0
  153.9866  143.3469  159.8269 H   0  0  0  0  0  0  0  0  0  0  0  0
  151.4435  144.0763  161.3607 H   0  0  0  0  0  0  0  0  0  0  0  0
  152.9192  145.0107  161.3099 H   0  0  0  0  0  0  0  0  0  0  0  0
  151.1921  145.9358  159.7517 H   0  0  0  0  0  0  0  0  0  0  0  0
  152.6297  145.4380  158.8924 H   0  0  0  0  0  0  0  0  0  0  0  0
  150.6233  144.6546  157.6868 H   0  0  0  0  0  0  0  0  0  0  0  0
  150.0260  143.8561  159.1220 H   0  0  0  0  0  0  0  0  0  0  0  0
  1  2  2  0  0  0  0
  2  3  1  0  0  0  0
  2 14  1  0  0  0  0
  3  4  1  0  0  0  0
  3 21  1  0  0  0  0
  3 22  1  0  0  0  0
  4 12  1  0  0  0  0
  4  5  1  0  0  0  0
  5  6  2  0  0  0  0
  5 23  1  0  0  0  0
  6  7  1  0  0  0  0
  6 10  1  0  0  0  0
  7  8  2  0  0  0  0
  7  9  1  0  0  0  0
 10 11  2  0  0  0  0
 10 24  1  0  0  0  0
 11 12  1  0  0  0  0
 11 25  1  0  0  0  0
 12 13  2  0  0  0  0
 14 15  1  0  0  0  0
 14 26  1  0  0  0  0
 15 20  1  0  0  0  0
 15 16  1  0  0  0  0
 15 27  1  0  0  0  0
 16 17  1  0  0  0  0
 16 28  1  0  0  0  0
 16 29  1  0  0  0  0
 17 18  1  0  0  0  0
 17 30  1  0  0  0  0
 17 31  1  0  0  0  0
 18 19  1  0  0  0  0
 18 32  1  0  0  0  0
 18 33  1  0  0  0  0
 19 20  1  0  0  0  0
 19 34  1  0  0  0  0
 19 35  1  0  0  0  0
 20 36  1  0  0  0  0
 20 37  1  0  0  0  0
M  CHG  1   7   1
M  CHG  1   9  -1
M  END
> <s_m_source_file>
AV-unprocessed.smi

> <i_m_source_file_index>
597

> <i_lp_mmshare_version>
43012

> <i_f3d_flags>
0

> <s_epik_input>
W0NIMl0xW0NIMl1bQ0gyXVtDSDJdW0NIMl1bQ0hdMVtOSF1DKD1PKVtDSDJdbjJbY0hdYyhbTitdKD1PKVtPLV0pW2NIXVtjSF1jMj1P

> <s_epik_cmdline>
J2VwaWtfcHl0aG9uJywgJy1waCcsICc3LjAnLCAnLXRuJywgJzgnLCAnLW1hJywgJzIwMCcsICctbWV0YWxfYmluZGluZycsICctaW1hZScsICc8aW5maWxlLm1hZT4nLCAnLW9tYWUnLCAnPG91dGZpbGUubWFlPic=

> <r_lp_tautomer_probability>
1

> <r_epik_Ionization_Penalty>
1.91289e-08

> <r_epik_Ionization_Penalty_Charging>
8.20451e-11

> <r_epik_Ionization_Penalty_Neutral>
1.90469e-08

> <r_epik_State_Penalty>
-0

> <r_epik_Charging_Adjusted_Penalty>
8.20451e-11

> <i_epik_Tot_Q>
0

> <i_epik_Tot_abs_Q>
2

> <r_epik_Metal_State_Penalty>
-0

> <b_epik_Metal_Only>
0

> <s_lp_Force_Field>
OPLS_2005

> <r_lp_Energy>
19.9817

> <b_lp_Chiralities_Consistent>
1

> <s_lp_Variant>
AV-unprocessed.smi:597-1

> <Gold.Version>
5.8.1

> <Gold.Id.Protein>
6NUR|6NUR_protein|mol2

> <Gold.PLP.Fitness>
44.0019

> <Gold.PLP.PLP>
-35.9487

> <Gold.PLP.part.hbond>
-4.0000

> <Gold.PLP.part.metal>
0.0000

> <Gold.PLP.part.buried>
-4.9741

> <Gold.PLP.part.nonpolar>
-30.2478

> <Gold.PLP.part.repulsive>
3.1565

> <Gold.PLP.ligand.clash>
0.0000

> <Gold.PLP.ligand.torsion>
0.5485

> <Gold.PLP.Chemscore.Hbond>
3.0458

> <Gold.PLP.Chemscore.CHOScore>
0.0000

> <Gold.PLP.Chemscore.Metal>
0.0000

> <Gold.Chemscore.Hbonds>
donor molecule, donor type, donor heavy atom, donor atom, acceptor molecule, acceptor atom, score
      P1  H  6934  6946       L1     9  0.64
      P1  H  7989  7998       L1    13  0.05
      P1  H  7997  8008       L1     1  0.91
      P1  H  8011  8017       L1    13  0.85

> <Gold.PLP.Chemscore.Internal.Correction>
0.0129

> <Gold.Rescore>
     Score         DG    S(hbond)    S(metal)    S(lipo)     H(rot)  DE(clash)    DE(int)     intcor
     18.97     -21.20       2.89        0.00      86.04       1.56       1.32       0.91       ----

> <Gold.Chemscore.Fitness>
18.9689

> <Gold.Chemscore.DG>
-21.2009

> <Gold.Chemscore.ZeroCoef>
-5.4800

> <Gold.Chemscore.Hbond>
2.8919

> <Gold.Chemscore.Metal>
0.0000

> <Gold.Chemscore.Lipo>
86.0437

> <Gold.Chemscore.Internal_Hbond>
0.0000

> <Gold.Chemscore.DEClash>
1.3178

> <Gold.Chemscore.DEInternal>
0.9141

> <Gold.Chemscore.Rot>
1.5646

> <Gold.Chemscore.Internal.Correction>
   9.000000E+99

> <Gold.Chemscore.Hbonds>
donor molecule, donor type, donor heavy atom, donor atom, acceptor molecule, acceptor atom, score
      P1  H  6934  6946       L1     9  0.63
      P1  H  7989  7998       L1    13  0.06
      P1  H  7997  8008       L1     1  0.89
      P1  H  8011  8017       L1    13  0.85

> <Gold.Chemscore.Hbond.Weighted>
-9.6591

> <Gold.Chemscore.Metal.Weighted>
-0.0000

> <Gold.Chemscore.Lipo.Weighted>
-10.0671

> <Gold.Chemscore.Internal_Hbond.Weighted>
0.0000

> <Gold.Chemscore.DEClash.Weighted>
1.3178

> <Gold.Chemscore.DEInternal.Weighted>
0.9141

> <Gold.Chemscore.Rot.Weighted>
4.0053

> <Gold.Chemscore.Internal.Correction.Weighted>
   9.000000E+99

> <Gold.Protein.RotatedTorsions>
[ 6907 6896 6895 6894 ] final   27.48 input  -60.11 | X-H torsion
[ 7974 7965 7964 7962 ] final -103.72 input  175.53 | X-H torsion
[ 8008 7997 7996 7995 ] final  -54.70 input   59.86 | X-H torsion
[ 10167 10162 10161 10158 ] final   59.17 input  -65.29 | X-H torsion
[ 10718 10713 10712 10709 ] final   26.63 input   66.30 | X-H torsion
[ 10763 10752 10751 10750 ] final  175.27 input  -60.55 | X-H torsion
[ 11005 11000 10999 10996 ] final -161.25 input  -57.11 | X-H torsion

> <Gold.Protein.ActiveResidues>
 VAL166  LYS551  ARG553  GLY616  TRP617  ASP618  TYR619  PRO620  LYS621  CYS622 
 ASP623  PHE694  ASN695  SER759  ASP760  ASP761  ALA762  ILE779  LEU786  VAL792 
 PHE793  MET794  SER795  GLU796  ALA797  LYS798  CYS799  TRP800  GLU811  SER814 

> <Gold.Protein.RotatedAtoms>
  152.0028  134.9919  160.0565 H   0  0  0  0  0  0  0  0  0  0  0  0  # atno 6907 bound_to 6896
  152.1503  133.4513  159.4818 H   0  0  0  0  0  0  0  0  0  0  0  0  # atno 6908 bound_to 6896
  150.6875  134.2116  159.4404 H   0  0  0  0  0  0  0  0  0  0  0  0  # atno 6909 bound_to 6896
  145.2523  140.9242  143.3088 H   0  0  0  0  0  0  0  0  0  0  0  0  # atno 7974 bound_to 7965
  154.4171  140.1170  156.5358 H   0  0  0  0  0  0  0  0  0  0  0  0  # atno 8008 bound_to 7997
  155.6559  140.3496  155.4746 H   0  0  0  0  0  0  0  0  0  0  0  0  # atno 8009 bound_to 7997
  155.9754  140.1149  157.0765 H   0  0  0  0  0  0  0  0  0  0  0  0  # atno 8010 bound_to 7997
  140.1793  144.4198  150.6623 H   0  0  0  0  0  0  0  0  0  0  0  0  # atno 10167 bound_to 10162
  157.2094  130.6927  149.6222 H   0  0  0  0  0  0  0  0  0  0  0  0  # atno 10718 bound_to 10713
  154.4653  135.2769  155.1683 H   0  0  0  0  0  0  0  0  0  0  0  0  # atno 10763 bound_to 10752
  154.3454  135.6161  153.5620 H   0  0  0  0  0  0  0  0  0  0  0  0  # atno 10764 bound_to 10752
  152.9859  135.5798  154.5024 H   0  0  0  0  0  0  0  0  0  0  0  0  # atno 10765 bound_to 10752
  140.6225  134.4735  157.5224 H   0  0  0  0  0  0  0  0  0  0  0  0  # atno 11005 bound_to 11000
  144.9492  139.4101  143.6411 LP  0  0  0  0  0  0  0  0  0  0  0  0  # atno 17320 bound_to 7965
  146.3299  139.8491  142.8876 LP  0  0  0  0  0  0  0  0  0  0  0  0  # atno 17321 bound_to 7965
  140.6530  143.2230  151.6034 LP  0  0  0  0  0  0  0  0  0  0  0  0  # atno 17342 bound_to 10162
  139.5303  144.2936  152.1132 LP  0  0  0  0  0  0  0  0  0  0  0  0  # atno 17343 bound_to 10162
  155.9692  130.4556  150.5894 LP  0  0  0  0  0  0  0  0  0  0  0  0  # atno 17370 bound_to 10713
  157.3687  131.0762  151.1576 LP  0  0  0  0  0  0  0  0  0  0  0  0  # atno 17371 bound_to 10713
  139.9148  134.8270  156.1405 LP  0  0  0  0  0  0  0  0  0  0  0  0  # atno 17394 bound_to 11000
  141.0732  133.6787  156.2183 LP  0  0  0  0  0  0  0  0  0  0  0  0  # atno 17395 bound_to 11000

$$$$
