AV-unprocessed.smi:2442|AV-procd|sdf|9625|dock1
  -GOLD-   2272013253D 1   1.00000     0.00000
 Structure written by MMmdl.
 46 47  0  0  0  0  0  0  0  0  1 V2000
  145.0794  134.1437  154.1940 C   0  0  0  0  0  0  0  0  0  0  0  0
  145.1234  133.2194  153.1185 O   0  0  0  0  0  0  0  0  0  0  0  0
  144.4558  133.6581  151.9386 C   0  0  2  0  0  0  0  0  0  0  0  0
  143.7490  132.4763  151.2410 C   0  0  0  0  0  0  0  0  0  0  0  0
  144.7553  131.4359  150.7224 C   0  0  0  0  0  0  0  0  0  0  0  0
  145.7890  132.0806  149.7866 C   0  0  0  0  0  0  0  0  0  0  0  0
  146.5042  133.2566  150.4703 C   0  0  0  0  0  0  0  0  0  0  0  0
  145.4993  134.3016  150.9942 C   0  0  2  0  0  0  0  0  0  0  0  0
  146.2134  135.3883  151.6601 N   0  0  0  0  0  0  0  0  0  0  0  0
  145.6379  136.4373  152.2636 C   0  0  0  0  0  0  0  0  0  0  0  0
  144.4227  136.6297  152.3068 O   0  0  0  0  0  0  0  0  0  0  0  0
  146.5449  137.2454  152.8265 N   0  0  0  0  0  0  0  0  0  0  0  0
  146.2167  138.4411  153.5901 C   0  0  0  0  0  0  0  0  0  0  0  0
  146.9737  139.6572  153.0389 C   0  0  0  0  0  0  0  0  0  0  0  0
  148.2458  139.9459  153.8206 C   0  0  0  0  0  0  0  0  0  0  0  0
  149.2197  138.9344  153.9567 C   0  0  0  0  0  0  0  0  0  0  0  0
  150.3948  139.2168  154.6798 C   0  0  0  0  0  0  0  0  0  0  0  0
  150.6414  140.4123  155.2542 N   0  0  0  0  0  0  0  0  0  0  0  0
  149.7092  141.3792  155.1213 C   0  0  0  0  0  0  0  0  0  0  0  0
  148.4972  141.2061  154.4179 C   0  0  0  0  0  0  0  0  0  0  0  0
  147.5116  142.3570  154.3215 C   0  0  0  0  0  0  0  0  0  0  0  0
  145.6241  133.7349  155.0448 H   0  0  0  0  0  0  0  0  0  0  0  0
  144.0586  134.3431  154.5188 H   0  0  0  0  0  0  0  0  0  0  0  0
  145.5509  135.0882  153.9198 H   0  0  0  0  0  0  0  0  0  0  0  0
  143.7120  134.4132  152.2001 H   0  0  0  0  0  0  0  0  0  0  0  0
  143.0324  132.0005  151.9095 H   0  0  0  0  0  0  0  0  0  0  0  0
  143.1655  132.8562  150.4015 H   0  0  0  0  0  0  0  0  0  0  0  0
  145.2653  130.9673  151.5652 H   0  0  0  0  0  0  0  0  0  0  0  0
  144.2282  130.6375  150.1996 H   0  0  0  0  0  0  0  0  0  0  0  0
  146.5190  131.3352  149.4697 H   0  0  0  0  0  0  0  0  0  0  0  0
  145.2930  132.4317  148.8807 H   0  0  0  0  0  0  0  0  0  0  0  0
  147.1130  132.8797  151.2936 H   0  0  0  0  0  0  0  0  0  0  0  0
  147.1944  133.7228  149.7660 H   0  0  0  0  0  0  0  0  0  0  0  0
  144.9742  134.7170  150.1316 H   0  0  0  0  0  0  0  0  0  0  0  0
  147.2200  135.3188  151.6847 H   0  0  0  0  0  0  0  0  0  0  0  0
  147.5220  137.0078  152.7381 H   0  0  0  0  0  0  0  0  0  0  0  0
  145.1405  138.6149  153.5453 H   0  0  0  0  0  0  0  0  0  0  0  0
  146.4736  138.2821  154.6385 H   0  0  0  0  0  0  0  0  0  0  0  0
  147.2086  139.5122  151.9843 H   0  0  0  0  0  0  0  0  0  0  0  0
  146.3312  140.5381  153.0793 H   0  0  0  0  0  0  0  0  0  0  0  0
  149.0731  137.9599  153.5149 H   0  0  0  0  0  0  0  0  0  0  0  0
  151.1577  138.4618  154.7997 H   0  0  0  0  0  0  0  0  0  0  0  0
  149.9413  142.3228  155.5931 H   0  0  0  0  0  0  0  0  0  0  0  0
  147.9300  143.2714  154.7431 H   0  0  0  0  0  0  0  0  0  0  0  0
  146.5979  142.1231  154.8682 H   0  0  0  0  0  0  0  0  0  0  0  0
  147.2526  142.5583  153.2822 H   0  0  0  0  0  0  0  0  0  0  0  0
  1  2  1  0  0  0  0
  1 22  1  0  0  0  0
  1 23  1  0  0  0  0
  1 24  1  0  0  0  0
  2  3  1  0  0  0  0
  3  8  1  0  0  0  0
  3  4  1  0  0  0  0
  3 25  1  0  0  0  0
  4  5  1  0  0  0  0
  4 26  1  0  0  0  0
  4 27  1  0  0  0  0
  5  6  1  0  0  0  0
  5 28  1  0  0  0  0
  5 29  1  0  0  0  0
  6  7  1  0  0  0  0
  6 30  1  0  0  0  0
  6 31  1  0  0  0  0
  7  8  1  0  0  0  0
  7 32  1  0  0  0  0
  7 33  1  0  0  0  0
  8  9  1  0  0  0  0
  8 34  1  0  0  0  0
  9 10  1  0  0  0  0
  9 35  1  0  0  0  0
 10 11  2  0  0  0  0
 10 12  1  0  0  0  0
 12 13  1  0  0  0  0
 12 36  1  0  0  0  0
 13 14  1  0  0  0  0
 13 37  1  0  0  0  0
 13 38  1  0  0  0  0
 14 15  1  0  0  0  0
 14 39  1  0  0  0  0
 14 40  1  0  0  0  0
 15 20  1  0  0  0  0
 15 16  2  0  0  0  0
 16 17  1  0  0  0  0
 16 41  1  0  0  0  0
 17 18  2  0  0  0  0
 17 42  1  0  0  0  0
 18 19  1  0  0  0  0
 19 20  2  0  0  0  0
 19 43  1  0  0  0  0
 20 21  1  0  0  0  0
 21 44  1  0  0  0  0
 21 45  1  0  0  0  0
 21 46  1  0  0  0  0
M  END
> <s_m_source_file>
AV-unprocessed.smi

> <i_m_source_file_index>
2442

> <i_lp_mmshare_version>
43012

> <i_f3d_flags>
0

> <s_epik_input>
W0NIM11PW0NAQEhdMVtDSDJdW0NIMl1bQ0gyXVtDSDJdW0NASF0xW05IXUMoPU8pW05IXVtDSDJdW0NIMl1jMltjSF1bY0hdbltjSF1jMltDSDNd

> <s_epik_cmdline>
J2VwaWtfcHl0aG9uJywgJy1waCcsICc3LjAnLCAnLXRuJywgJzgnLCAnLW1hJywgJzIwMCcsICctbWV0YWxfYmluZGluZycsICctaW1hZScsICc8aW5maWxlLm1hZT4nLCAnLW9tYWUnLCAnPG91dGZpbGUubWFlPic=

> <r_epik_Ionization_Penalty>
0.106136

> <r_epik_Ionization_Penalty_Charging>
0

> <r_epik_Ionization_Penalty_Neutral>
0.106136

> <r_epik_State_Penalty>
0.0959393

> <r_epik_Charging_Adjusted_Penalty>
0.0959393

> <i_epik_Tot_Q>
0

> <i_epik_Tot_abs_Q>
0

> <r_epik_Metal_State_Penalty>
0.0812517

> <b_epik_Metal_Only>
0

> <s_lp_Force_Field>
OPLS_2005

> <r_lp_Energy>
9.91993

> <b_lp_Chiralities_Consistent>
1

> <s_lp_Variant>
AV-unprocessed.smi:2442-3

> <Gold.Version>
5.8.1

> <Gold.Id.Protein>
6NUR|6NUR_protein|mol2

> <Gold.PLP.Fitness>
46.8285

> <Gold.PLP.PLP>
-38.4887

> <Gold.PLP.part.hbond>
-3.0000

> <Gold.PLP.part.metal>
0.0000

> <Gold.PLP.part.buried>
-0.6972

> <Gold.PLP.part.nonpolar>
-35.7640

> <Gold.PLP.part.repulsive>
0.5970

> <Gold.PLP.ligand.clash>
0.0000

> <Gold.PLP.ligand.torsion>
0.8080

> <Gold.PLP.Chemscore.Hbond>
2.2678

> <Gold.PLP.Chemscore.CHOScore>
1.0000

> <Gold.PLP.Chemscore.Metal>
0.0000

> <Gold.Chemscore.Hbonds>
donor molecule, donor type, donor heavy atom, donor atom, acceptor molecule, acceptor atom, score
      L1  H     9    35       P1  7948  0.99
      L1  H    12    36       P1  7948  1.00
      P1  H  7989  7998       L1    18  0.20
      L1  C    19    43       P1  8028  0.78

> <Gold.PLP.Chemscore.Internal.Correction>
0.1524

> <Gold.Rescore>
     Score         DG    S(hbond)    S(metal)    S(lipo)     H(rot)  DE(clash)    DE(int)     intcor
     17.80     -19.64       1.84        0.00     104.23       1.64       0.20       1.64       ----

> <Gold.Chemscore.Fitness>
17.7963

> <Gold.Chemscore.DG>
-19.6408

> <Gold.Chemscore.ZeroCoef>
-5.4800

> <Gold.Chemscore.Hbond>
1.8440

> <Gold.Chemscore.Metal>
0.0000

> <Gold.Chemscore.Lipo>
104.2324

> <Gold.Chemscore.Internal_Hbond>
0.0000

> <Gold.Chemscore.DEClash>
0.2038

> <Gold.Chemscore.DEInternal>
1.6407

> <Gold.Chemscore.Rot>
1.6380

> <Gold.Chemscore.Internal.Correction>
   9.000000E+99

> <Gold.Chemscore.Hbonds>
donor molecule, donor type, donor heavy atom, donor atom, acceptor molecule, acceptor atom, score
      L1  H     9    35       P1  7948  0.91
      L1  H    12    36       P1  7948  0.96

> <Gold.Chemscore.Hbond.Weighted>
-6.1590

> <Gold.Chemscore.Metal.Weighted>
-0.0000

> <Gold.Chemscore.Lipo.Weighted>
-12.1952

> <Gold.Chemscore.Internal_Hbond.Weighted>
0.0000

> <Gold.Chemscore.DEClash.Weighted>
0.2038

> <Gold.Chemscore.DEInternal.Weighted>
1.6407

> <Gold.Chemscore.Rot.Weighted>
4.1934

> <Gold.Chemscore.Internal.Correction.Weighted>
   9.000000E+99

> <Gold.Protein.RotatedTorsions>
[ 6907 6896 6895 6894 ] final -140.14 input  -60.11 | X-H torsion
[ 7974 7965 7964 7962 ] final -156.57 input  175.53 | X-H torsion
[ 8008 7997 7996 7995 ] final  175.87 input   59.86 | X-H torsion
[ 10167 10162 10161 10158 ] final  114.19 input  -65.29 | X-H torsion
[ 10718 10713 10712 10709 ] final   70.86 input   66.30 | X-H torsion
[ 10763 10752 10751 10750 ] final   41.92 input  -60.55 | X-H torsion
[ 11005 11000 10999 10996 ] final -123.42 input  -57.11 | X-H torsion

> <Gold.Protein.ActiveResidues>
 VAL166  LYS551  ARG553  GLY616  TRP617  ASP618  TYR619  PRO620  LYS621  CYS622 
 ASP623  PHE694  ASN695  SER759  ASP760  ASP761  ALA762  ILE779  LEU786  VAL792 
 PHE793  MET794  SER795  GLU796  ALA797  LYS798  CYS799  TRP800  GLU811  SER814 

> <Gold.Protein.RotatedAtoms>
  151.0568  133.5577  159.2637 H   0  0  0  0  0  0  0  0  0  0  0  0  # atno 6907 bound_to 6896
  151.2568  135.0640  159.9093 H   0  0  0  0  0  0  0  0  0  0  0  0  # atno 6908 bound_to 6896
  152.5391  134.0320  159.8083 H   0  0  0  0  0  0  0  0  0  0  0  0  # atno 6909 bound_to 6896
  144.7587  140.4091  143.5993 H   0  0  0  0  0  0  0  0  0  0  0  0  # atno 7974 bound_to 7965
  156.0825  140.1398  156.9695 H   0  0  0  0  0  0  0  0  0  0  0  0  # atno 8008 bound_to 7997
  154.4593  140.0949  156.6897 H   0  0  0  0  0  0  0  0  0  0  0  0  # atno 8009 bound_to 7997
  155.5053  140.3452  155.4380 H   0  0  0  0  0  0  0  0  0  0  0  0  # atno 8010 bound_to 7997
  139.6406  144.7123  151.2244 H   0  0  0  0  0  0  0  0  0  0  0  0  # atno 10167 bound_to 10162
  157.6422  130.9499  150.0709 H   0  0  0  0  0  0  0  0  0  0  0  0  # atno 10718 bound_to 10713
  152.9896  135.6147  154.2865 H   0  0  0  0  0  0  0  0  0  0  0  0  # atno 10763 bound_to 10752
  154.2592  135.2783  155.2786 H   0  0  0  0  0  0  0  0  0  0  0  0  # atno 10764 bound_to 10752
  154.5220  135.5812  153.6746 H   0  0  0  0  0  0  0  0  0  0  0  0  # atno 10765 bound_to 10752
  140.9920  134.0525  157.3642 H   0  0  0  0  0  0  0  0  0  0  0  0  # atno 11005 bound_to 11000
  145.6692  139.1596  143.2764 LP  0  0  0  0  0  0  0  0  0  0  0  0  # atno 17320 bound_to 7965
  146.1626  140.6765  142.9270 LP  0  0  0  0  0  0  0  0  0  0  0  0  # atno 17321 bound_to 7965
  140.7489  143.6318  150.8416 LP  0  0  0  0  0  0  0  0  0  0  0  0  # atno 17342 bound_to 10162
  139.9955  143.5801  152.2895 LP  0  0  0  0  0  0  0  0  0  0  0  0  # atno 17343 bound_to 10162
  156.1714  130.3646  149.9160 LP  0  0  0  0  0  0  0  0  0  0  0  0  # atno 17370 bound_to 10713
  156.7135  130.8979  151.3611 LP  0  0  0  0  0  0  0  0  0  0  0  0  # atno 17371 bound_to 10713
  139.8997  135.0159  156.7207 LP  0  0  0  0  0  0  0  0  0  0  0  0  # atno 17394 bound_to 11000
  140.7024  133.9294  155.8033 LP  0  0  0  0  0  0  0  0  0  0  0  0  # atno 17395 bound_to 11000

$$$$
