AV-unprocessed.smi:3311|AV-procd|sdf|12725|dock4
  -GOLD-   2272019 63D 1   1.00000     0.00000
 Structure written by MMmdl.
 43 44  0  0  0  0  0  0  0  0  1 V2000
  147.5951  140.5257  156.8624 C   0  0  0  0  0  0  0  0  0  0  0  0
  149.0537  140.1549  156.5107 C   0  0  2  0  0  0  0  0  0  0  0  0
  149.9792  141.2210  156.9127 N   0  0  0  0  0  0  0  0  0  0  0  0
  149.6175  141.9563  158.1271 C   0  0  0  0  0  0  0  0  0  0  0  0
  150.5795  143.1317  158.4119 C   0  0  0  0  0  0  0  0  0  0  0  0
  150.9631  143.6697  157.1586 O   0  0  0  0  0  0  0  0  0  0  0  0
  149.9270  144.2367  159.2819 C   0  0  0  0  0  0  0  0  0  0  0  0
  150.9172  145.3405  159.6951 C   0  0  0  0  0  0  0  0  0  0  0  0
  152.1501  144.7549  160.3967 C   0  0  0  0  0  0  0  0  0  0  0  0
  152.8380  143.7078  159.5104 C   0  0  0  0  0  0  0  0  0  0  0  0
  151.8578  142.5944  159.0992 C   0  0  0  0  0  0  0  0  0  0  0  0
  149.2516  139.8385  155.0036 C   0  0  1  0  0  0  0  0  0  0  0  0
  149.1232  141.0899  154.1146 C   0  0  0  0  0  0  0  0  0  0  0  0
  150.5291  139.1863  154.7411 N   0  0  0  0  0  0  0  0  0  0  0  0
  150.7659  137.9058  154.2811 C   0  0  0  0  0  0  0  0  0  0  0  0
  152.1191  137.7462  154.1933 C   0  0  0  0  0  0  0  0  0  0  0  0
  152.6351  138.9982  154.6295 C   0  0  0  0  0  0  0  0  0  0  0  0
  151.6828  139.8561  154.9576 N   0  0  0  0  0  0  0  0  0  0  0  0
  146.8960  139.7376  156.5844 H   0  0  0  0  0  0  0  0  0  0  0  0
  147.2856  141.4363  156.3484 H   0  0  0  0  0  0  0  0  0  0  0  0
  147.4586  140.6823  157.9316 H   0  0  0  0  0  0  0  0  0  0  0  0
  149.3025  139.2504  157.0674 H   0  0  0  0  0  0  0  0  0  0  0  0
  150.9111  140.8339  157.0256 H   0  0  0  0  0  0  0  0  0  0  0  0
  148.6061  142.3504  158.0332 H   0  0  0  0  0  0  0  0  0  0  0  0
  149.6075  141.2795  158.9827 H   0  0  0  0  0  0  0  0  0  0  0  0
  150.1814  143.8379  156.6549 H   0  0  0  0  0  0  0  0  0  0  0  0
  149.0853  144.6925  158.7593 H   0  0  0  0  0  0  0  0  0  0  0  0
  149.5123  143.7825  160.1829 H   0  0  0  0  0  0  0  0  0  0  0  0
  151.2296  145.9044  158.8154 H   0  0  0  0  0  0  0  0  0  0  0  0
  150.4209  146.0529  160.3544 H   0  0  0  0  0  0  0  0  0  0  0  0
  152.8514  145.5521  160.6454 H   0  0  0  0  0  0  0  0  0  0  0  0
  151.8526  144.2975  161.3412 H   0  0  0  0  0  0  0  0  0  0  0  0
  153.2466  144.1902  158.6217 H   0  0  0  0  0  0  0  0  0  0  0  0
  153.6868  143.2755  160.0406 H   0  0  0  0  0  0  0  0  0  0  0  0
  151.5756  142.0366  159.9934 H   0  0  0  0  0  0  0  0  0  0  0  0
  152.3659  141.8805  158.4494 H   0  0  0  0  0  0  0  0  0  0  0  0
  148.4652  139.1426  154.7036 H   0  0  0  0  0  0  0  0  0  0  0  0
  148.1327  141.5385  154.1929 H   0  0  0  0  0  0  0  0  0  0  0  0
  149.2813  140.8407  153.0648 H   0  0  0  0  0  0  0  0  0  0  0  0
  149.8538  141.8513  154.3892 H   0  0  0  0  0  0  0  0  0  0  0  0
  149.9596  137.2236  154.0550 H   0  0  0  0  0  0  0  0  0  0  0  0
  152.6583  136.8691  153.8676 H   0  0  0  0  0  0  0  0  0  0  0  0
  153.6663  139.3069  154.7170 H   0  0  0  0  0  0  0  0  0  0  0  0
  1  2  1  0  0  0  0
  1 19  1  0  0  0  0
  1 20  1  0  0  0  0
  1 21  1  0  0  0  0
  2  3  1  0  0  0  0
  2 12  1  0  0  0  0
  2 22  1  0  0  0  0
  3  4  1  0  0  0  0
  3 23  1  0  0  0  0
  4  5  1  0  0  0  0
  4 24  1  0  0  0  0
  4 25  1  0  0  0  0
  5 11  1  0  0  0  0
  5  6  1  0  0  0  0
  5  7  1  0  0  0  0
  6 26  1  0  0  0  0
  7  8  1  0  0  0  0
  7 27  1  0  0  0  0
  7 28  1  0  0  0  0
  8  9  1  0  0  0  0
  8 29  1  0  0  0  0
  8 30  1  0  0  0  0
  9 10  1  0  0  0  0
  9 31  1  0  0  0  0
  9 32  1  0  0  0  0
 10 11  1  0  0  0  0
 10 33  1  0  0  0  0
 10 34  1  0  0  0  0
 11 35  1  0  0  0  0
 11 36  1  0  0  0  0
 12 13  1  0  0  0  0
 12 14  1  0  0  0  0
 12 37  1  0  0  0  0
 13 38  1  0  0  0  0
 13 39  1  0  0  0  0
 13 40  1  0  0  0  0
 14 18  1  0  0  0  0
 14 15  1  0  0  0  0
 15 16  2  0  0  0  0
 15 41  1  0  0  0  0
 16 17  1  0  0  0  0
 16 42  1  0  0  0  0
 17 18  2  0  0  0  0
 17 43  1  0  0  0  0
M  END
> <s_m_source_file>
AV-unprocessed.smi

> <i_m_source_file_index>
3311

> <i_lp_mmshare_version>
43012

> <i_f3d_flags>
0

> <s_epik_input>
bjFbY0hdW2NIXVtjSF1uMVtDQEBIXShbQ0gzXSlbQ0BIXShbQ0gzXSlbTkhdW0NIMl1DMihbT0hdKVtDSDJdW0NIMl1bQ0gyXVtDSDJdW0NIMl0y

> <s_epik_cmdline>
J2VwaWtfcHl0aG9uJywgJy1waCcsICc3LjAnLCAnLXRuJywgJzgnLCAnLW1hJywgJzIwMCcsICctbWV0YWxfYmluZGluZycsICctaW1hZScsICc8aW5maWxlLm1hZT4nLCAnLW9tYWUnLCAnPG91dGZpbGUubWFlPic=

> <r_lp_tautomer_probability>
1

> <r_epik_Ionization_Penalty>
2.222

> <r_epik_Ionization_Penalty_Charging>
0

> <r_epik_Ionization_Penalty_Neutral>
2.222

> <r_epik_State_Penalty>
2.36562

> <r_epik_Charging_Adjusted_Penalty>
2.36562

> <i_epik_Tot_Q>
0

> <i_epik_Tot_abs_Q>
0

> <r_epik_Metal_State_Penalty>
2.36435

> <b_epik_Metal_Only>
0

> <s_lp_Force_Field>
OPLS_2005

> <r_lp_Energy>
27.677

> <b_lp_Chiralities_Consistent>
1

> <s_lp_Variant>
AV-unprocessed.smi:3311-7

> <Gold.Version>
5.8.1

> <Gold.Id.Protein>
6NUR|6NUR_protein|mol2

> <Gold.PLP.Fitness>
44.9841

> <Gold.PLP.PLP>
-37.4080

> <Gold.PLP.part.hbond>
-2.0000

> <Gold.PLP.part.metal>
0.0000

> <Gold.PLP.part.buried>
-3.1429

> <Gold.PLP.part.nonpolar>
-32.1496

> <Gold.PLP.part.repulsive>
0.0450

> <Gold.PLP.ligand.clash>
0.0000

> <Gold.PLP.ligand.torsion>
0.7583

> <Gold.PLP.Chemscore.Hbond>
2.0000

> <Gold.PLP.Chemscore.CHOScore>
1.0000

> <Gold.PLP.Chemscore.Metal>
0.0000

> <Gold.Chemscore.Hbonds>
donor molecule, donor type, donor heavy atom, donor atom, acceptor molecule, acceptor atom, score
      L1  H     6    26       P1  8028  1.00
      P1  H  7989  7998       L1    18  0.90
      L1  C    15    41       P1  7948  0.89

> <Gold.PLP.Chemscore.Internal.Correction>
0.0926

> <Gold.Rescore>
     Score         DG    S(hbond)    S(metal)    S(lipo)     H(rot)  DE(clash)    DE(int)     intcor
     15.05     -16.98       1.23        0.00     108.34       2.07       0.18       1.76       ----

> <Gold.Chemscore.Fitness>
15.0493

> <Gold.Chemscore.DG>
-16.9827

> <Gold.Chemscore.ZeroCoef>
-5.4800

> <Gold.Chemscore.Hbond>
1.2344

> <Gold.Chemscore.Metal>
0.0000

> <Gold.Chemscore.Lipo>
108.3383

> <Gold.Chemscore.Internal_Hbond>
0.0000

> <Gold.Chemscore.DEClash>
0.1779

> <Gold.Chemscore.DEInternal>
1.7556

> <Gold.Chemscore.Rot>
2.0686

> <Gold.Chemscore.Internal.Correction>
   9.000000E+99

> <Gold.Chemscore.Hbonds>
donor molecule, donor type, donor heavy atom, donor atom, acceptor molecule, acceptor atom, score
      L1  H     6    26       P1  8028  1.00
      P1  H  7989  7998       L1    18  0.04

> <Gold.Chemscore.Hbond.Weighted>
-4.1229

> <Gold.Chemscore.Metal.Weighted>
-0.0000

> <Gold.Chemscore.Lipo.Weighted>
-12.6756

> <Gold.Chemscore.Internal_Hbond.Weighted>
0.0000

> <Gold.Chemscore.DEClash.Weighted>
0.1779

> <Gold.Chemscore.DEInternal.Weighted>
1.7556

> <Gold.Chemscore.Rot.Weighted>
5.2957

> <Gold.Chemscore.Internal.Correction.Weighted>
   9.000000E+99

> <Gold.Protein.RotatedTorsions>
[ 6907 6896 6895 6894 ] final   -3.20 input  -60.11 | X-H torsion
[ 7974 7965 7964 7962 ] final   -1.66 input  175.53 | X-H torsion
[ 8008 7997 7996 7995 ] final  -62.59 input   59.86 | X-H torsion
[ 10167 10162 10161 10158 ] final  129.85 input  -65.29 | X-H torsion
[ 10718 10713 10712 10709 ] final  -49.62 input   66.30 | X-H torsion
[ 10763 10752 10751 10750 ] final  -28.09 input  -60.55 | X-H torsion
[ 11005 11000 10999 10996 ] final -149.70 input  -57.11 | X-H torsion

> <Gold.Protein.ActiveResidues>
 VAL166  LYS551  ARG553  GLY616  TRP617  ASP618  TYR619  PRO620  LYS621  CYS622 
 ASP623  PHE694  ASN695  SER759  ASP760  ASP761  ALA762  ILE779  LEU786  VAL792 
 PHE793  MET794  SER795  GLU796  ALA797  LYS798  CYS799  TRP800  GLU811  SER814 

> <Gold.Protein.RotatedAtoms>
  151.5175  135.1066  159.9869 H   0  0  0  0  0  0  0  0  0  0  0  0  # atno 6907 bound_to 6896
  152.4635  133.7868  159.6891 H   0  0  0  0  0  0  0  0  0  0  0  0  # atno 6908 bound_to 6896
  150.8607  133.7583  159.3018 H   0  0  0  0  0  0  0  0  0  0  0  0  # atno 6909 bound_to 6896
  146.2414  140.1454  142.8335 H   0  0  0  0  0  0  0  0  0  0  0  0  # atno 7974 bound_to 7965
  154.4508  140.0993  156.6611 H   0  0  0  0  0  0  0  0  0  0  0  0  # atno 8008 bound_to 7997
  155.5292  140.3481  155.4404 H   0  0  0  0  0  0  0  0  0  0  0  0  # atno 8009 bound_to 7997
  156.0676  140.1341  156.9856 H   0  0  0  0  0  0  0  0  0  0  0  0  # atno 8010 bound_to 7997
  139.5458  144.6772  151.4478 H   0  0  0  0  0  0  0  0  0  0  0  0  # atno 10167 bound_to 10162
  156.1876  130.4152  149.9417 H   0  0  0  0  0  0  0  0  0  0  0  0  # atno 10718 bound_to 10713
  153.7426  135.6931  153.4963 H   0  0  0  0  0  0  0  0  0  0  0  0  # atno 10763 bound_to 10752
  153.2058  135.4420  155.0320 H   0  0  0  0  0  0  0  0  0  0  0  0  # atno 10764 bound_to 10752
  154.8215  135.3424  154.6951 H   0  0  0  0  0  0  0  0  0  0  0  0  # atno 10765 bound_to 10752
  140.7480  134.3439  157.5132 H   0  0  0  0  0  0  0  0  0  0  0  0  # atno 11005 bound_to 11000
  145.0212  140.8795  143.5166 LP  0  0  0  0  0  0  0  0  0  0  0  0  # atno 17320 bound_to 7965
  145.1503  139.2519  143.5444 LP  0  0  0  0  0  0  0  0  0  0  0  0  # atno 17321 bound_to 7965
  140.6705  143.8304  150.6994 LP  0  0  0  0  0  0  0  0  0  0  0  0  # atno 17342 bound_to 10162
  140.1726  143.4181  152.1990 LP  0  0  0  0  0  0  0  0  0  0  0  0  # atno 17343 bound_to 10162
  156.7168  130.8991  151.3614 LP  0  0  0  0  0  0  0  0  0  0  0  0  # atno 17370 bound_to 10713
  157.6909  130.9232  150.0510 LP  0  0  0  0  0  0  0  0  0  0  0  0  # atno 17371 bound_to 10713
  139.8793  134.9124  156.3059 LP  0  0  0  0  0  0  0  0  0  0  0  0  # atno 17394 bound_to 11000
  140.9776  133.7287  156.0625 LP  0  0  0  0  0  0  0  0  0  0  0  0  # atno 17395 bound_to 11000

$$$$
