AV-unprocessed.smi:2969|AV-procd|sdf|11329|dock2
  -GOLD-   2272016233D 1   1.00000     0.00000
 Structure written by MMmdl.
 40 40  0  0  0  0  0  0  0  0  1 V2000
  147.9541  141.6202  154.4727 C   0  0  0  0  0  0  0  0  0  0  0  0
  148.2834  140.2802  155.1430 C   0  0  0  0  0  0  0  0  0  0  0  0
  147.7223  140.1245  156.5710 C   0  0  0  0  0  0  0  0  0  0  0  0
  148.5576  139.3255  157.4502 N   0  0  0  0  0  0  0  0  0  0  0  0
  148.0738  138.2322  158.1748 C   0  0  0  0  0  0  0  0  0  0  0  0
  146.7287  137.9160  158.0485 N   0  0  0  0  0  0  0  0  0  0  0  0
  148.8791  137.5055  159.0069 C   0  0  0  0  0  0  0  0  0  0  0  0
  148.3977  136.3800  159.7016 N   0  0  0  0  0  0  0  0  0  0  0  0
  149.0010  135.0806  159.3578 C   0  0  0  0  0  0  0  0  0  0  0  0
  149.5968  135.0735  157.9407 C   0  0  0  0  0  0  0  0  0  0  0  0
  150.5059  133.9922  157.8231 O   0  0  0  0  0  0  0  0  0  0  0  0
  151.1222  133.9336  156.5495 C   0  0  0  0  0  0  0  0  0  0  0  0
  147.4034  136.4571  160.6280 C   0  0  0  0  0  0  0  0  0  0  0  0
  146.7890  137.5071  160.8280 O   0  0  0  0  0  0  0  0  0  0  0  0
  147.0461  135.2341  161.5004 C   0  0  0  0  0  0  0  0  0  0  0  0
  148.1052  134.8365  162.2065 F   0  0  0  0  0  0  0  0  0  0  0  0
  146.0751  135.5631  162.3536 F   0  0  0  0  0  0  0  0  0  0  0  0
  146.6104  134.2354  160.7345 F   0  0  0  0  0  0  0  0  0  0  0  0
  150.3072  137.8300  159.1304 C   0  0  0  0  0  0  0  0  0  0  0  0
  151.1280  137.2161  159.8110 O   0  0  0  0  0  0  0  0  0  0  0  0
  150.7240  138.9339  158.3919 N   0  0  0  0  0  0  0  0  0  0  0  0
  149.9172  139.7069  157.5653 C   0  0  0  0  0  0  0  0  0  0  0  0
  150.4089  140.6728  156.9809 O   0  0  0  0  0  0  0  0  0  0  0  0
  151.6962  139.1964  158.4633 H   0  0  0  0  0  0  0  0  0  0  0  0
  148.4354  141.6927  153.4974 H   0  0  0  0  0  0  0  0  0  0  0  0
  148.3007  142.4585  155.0777 H   0  0  0  0  0  0  0  0  0  0  0  0
  146.8812  141.7356  154.3179 H   0  0  0  0  0  0  0  0  0  0  0  0
  147.9237  139.4673  154.5118 H   0  0  0  0  0  0  0  0  0  0  0  0
  149.3671  140.1687  155.1838 H   0  0  0  0  0  0  0  0  0  0  0  0
  147.6238  141.0958  157.0560 H   0  0  0  0  0  0  0  0  0  0  0  0
  146.7114  139.7153  156.5657 H   0  0  0  0  0  0  0  0  0  0  0  0
  146.1085  138.4496  157.4562 H   0  0  0  0  0  0  0  0  0  0  0  0
  146.3239  137.1187  158.5179 H   0  0  0  0  0  0  0  0  0  0  0  0
  149.7770  134.8279  160.0824 H   0  0  0  0  0  0  0  0  0  0  0  0
  148.2649  134.2797  159.4377 H   0  0  0  0  0  0  0  0  0  0  0  0
  148.8097  135.0033  157.1884 H   0  0  0  0  0  0  0  0  0  0  0  0
  150.1305  136.0084  157.7645 H   0  0  0  0  0  0  0  0  0  0  0  0
  151.8118  133.0905  156.5157 H   0  0  0  0  0  0  0  0  0  0  0  0
  151.6888  134.8423  156.3428 H   0  0  0  0  0  0  0  0  0  0  0  0
  150.3820  133.7936  155.7606 H   0  0  0  0  0  0  0  0  0  0  0  0
  1  2  1  0  0  0  0
  1 25  1  0  0  0  0
  1 26  1  0  0  0  0
  1 27  1  0  0  0  0
  2  3  1  0  0  0  0
  2 28  1  0  0  0  0
  2 29  1  0  0  0  0
  3  4  1  0  0  0  0
  3 30  1  0  0  0  0
  3 31  1  0  0  0  0
  4 22  1  0  0  0  0
  4  5  1  0  0  0  0
  5  6  1  0  0  0  0
  5  7  2  0  0  0  0
  6 32  1  0  0  0  0
  6 33  1  0  0  0  0
  7  8  1  0  0  0  0
  7 19  1  0  0  0  0
  8  9  1  0  0  0  0
  8 13  1  0  0  0  0
  9 10  1  0  0  0  0
  9 34  1  0  0  0  0
  9 35  1  0  0  0  0
 10 11  1  0  0  0  0
 10 36  1  0  0  0  0
 10 37  1  0  0  0  0
 11 12  1  0  0  0  0
 12 38  1  0  0  0  0
 12 39  1  0  0  0  0
 12 40  1  0  0  0  0
 13 14  2  0  0  0  0
 13 15  1  0  0  0  0
 15 16  1  0  0  0  0
 15 17  1  0  0  0  0
 15 18  1  0  0  0  0
 19 20  2  0  0  0  0
 19 21  1  0  0  0  0
 21 24  1  0  0  0  0
 21 22  1  0  0  0  0
 22 23  2  0  0  0  0
M  END
> <s_m_source_file>
AV-unprocessed.smi

> <i_m_source_file_index>
2969

> <i_lp_mmshare_version>
43012

> <i_f3d_flags>
0

> <s_epik_input>
W0NIM11bQ0gyXVtDSDJdbjFjKFtOSDJdKWMoYyg9TylbbkhdYzE9TylOKEMoPU8pQyhGKShGKUYpW0NIMl1bQ0gyXU9bQ0gzXQ==

> <s_epik_cmdline>
J2VwaWtfcHl0aG9uJywgJy1waCcsICc3LjAnLCAnLXRuJywgJzgnLCAnLW1hJywgJzIwMCcsICctbWV0YWxfYmluZGluZycsICctaW1hZScsICc8aW5maWxlLm1hZT4nLCAnLW9tYWUnLCAnPG91dGZpbGUubWFlPic=

> <r_lp_tautomer_probability>
1

> <r_epik_Ionization_Penalty>
0.000513649

> <r_epik_Ionization_Penalty_Charging>
0.000443136

> <r_epik_Ionization_Penalty_Neutral>
7.05129e-05

> <r_epik_State_Penalty>
-0

> <r_epik_Charging_Adjusted_Penalty>
0.000443136

> <i_epik_Tot_Q>
0

> <i_epik_Tot_abs_Q>
0

> <r_epik_Metal_State_Penalty>
0.330936

> <b_epik_Metal_Only>
0

> <s_epik_Chemistry_Notes>
This compound has an imine and may undergo hydrolysis.

> <s_lp_Force_Field>
OPLS_2005

> <r_lp_Energy>
31.7287

> <b_lp_Chiralities_Consistent>
1

> <s_lp_Variant>
AV-unprocessed.smi:2969-1

> <Gold.Version>
5.8.1

> <Gold.Id.Protein>
6NUR|6NUR_protein|mol2

> <Gold.PLP.Fitness>
31.8422

> <Gold.PLP.PLP>
-25.3995

> <Gold.PLP.part.hbond>
-3.0000

> <Gold.PLP.part.metal>
0.0000

> <Gold.PLP.part.buried>
-5.1634

> <Gold.PLP.part.nonpolar>
-17.4077

> <Gold.PLP.part.repulsive>
0.1666

> <Gold.PLP.ligand.clash>
3.8747

> <Gold.PLP.ligand.torsion>
1.8821

> <Gold.PLP.Chemscore.Hbond>
3.0000

> <Gold.PLP.Chemscore.CHOScore>
0.0000

> <Gold.PLP.Chemscore.Metal>
0.0000

> <Gold.Chemscore.Hbonds>
donor molecule, donor type, donor heavy atom, donor atom, acceptor molecule, acceptor atom, score
      P1  H  6896  6908       L1    11  0.63
      P1  H  6896  6909       L1    20  0.89
      P1  H  6934  6947       L1    14  1.00

> <Gold.PLP.Chemscore.Internal.Correction>
5.0817

> <Gold.Rescore>
     Score         DG    S(hbond)    S(metal)    S(lipo)     H(rot)  DE(clash)    DE(int)     intcor
      7.69     -12.96       2.78        0.00      33.99       2.27       0.04       5.23       ----

> <Gold.Chemscore.Fitness>
7.6860

> <Gold.Chemscore.DG>
-12.9571

> <Gold.Chemscore.ZeroCoef>
-5.4800

> <Gold.Chemscore.Hbond>
2.7846

> <Gold.Chemscore.Metal>
0.0000

> <Gold.Chemscore.Lipo>
33.9920

> <Gold.Chemscore.Internal_Hbond>
0.0000

> <Gold.Chemscore.DEClash>
0.0378

> <Gold.Chemscore.DEInternal>
5.2333

> <Gold.Chemscore.Rot>
2.2658

> <Gold.Chemscore.Internal.Correction>
   9.000000E+99

> <Gold.Chemscore.Hbonds>
donor molecule, donor type, donor heavy atom, donor atom, acceptor molecule, acceptor atom, score
      P1  H  6896  6908       L1    11  0.31
      P1  H  6896  6909       L1    20  0.87
      P1  H  6934  6947       L1    14  0.97

> <Gold.Chemscore.Hbond.Weighted>
-9.3005

> <Gold.Chemscore.Metal.Weighted>
-0.0000

> <Gold.Chemscore.Lipo.Weighted>
-3.9771

> <Gold.Chemscore.Internal_Hbond.Weighted>
0.0000

> <Gold.Chemscore.DEClash.Weighted>
0.0378

> <Gold.Chemscore.DEInternal.Weighted>
5.2333

> <Gold.Chemscore.Rot.Weighted>
5.8005

> <Gold.Chemscore.Internal.Correction.Weighted>
   9.000000E+99

> <Gold.Protein.RotatedTorsions>
[ 6907 6896 6895 6894 ] final  109.85 input  -60.11 | X-H torsion
[ 7974 7965 7964 7962 ] final  112.93 input  175.53 | X-H torsion
[ 8008 7997 7996 7995 ] final -171.98 input   59.86 | X-H torsion
[ 10167 10162 10161 10158 ] final   59.96 input  -65.29 | X-H torsion
[ 10718 10713 10712 10709 ] final -113.15 input   66.30 | X-H torsion
[ 10763 10752 10751 10750 ] final  -42.95 input  -60.55 | X-H torsion
[ 11005 11000 10999 10996 ] final   -5.28 input  -57.11 | X-H torsion

> <Gold.Protein.ActiveResidues>
 VAL166  LYS551  ARG553  GLY616  TRP617  ASP618  TYR619  PRO620  LYS621  CYS622 
 ASP623  PHE694  ASN695  SER759  ASP760  ASP761  ALA762  ILE779  LEU786  VAL792 
 PHE793  MET794  SER795  GLU796  ALA797  LYS798  CYS799  TRP800  GLU811  SER814 

> <Gold.Protein.RotatedAtoms>
  152.5048  133.8884  159.7381 H   0  0  0  0  0  0  0  0  0  0  0  0  # atno 6907 bound_to 6896
  150.9329  133.6737  159.2813 H   0  0  0  0  0  0  0  0  0  0  0  0  # atno 6908 bound_to 6896
  151.4075  135.0985  159.9627 H   0  0  0  0  0  0  0  0  0  0  0  0  # atno 6909 bound_to 6896
  145.2233  139.2852  143.4206 H   0  0  0  0  0  0  0  0  0  0  0  0  # atno 7974 bound_to 7965
  155.9386  140.1104  157.1074 H   0  0  0  0  0  0  0  0  0  0  0  0  # atno 8008 bound_to 7997
  154.4085  140.1223  156.4963 H   0  0  0  0  0  0  0  0  0  0  0  0  # atno 8009 bound_to 7997
  155.6990  140.3472  155.4927 H   0  0  0  0  0  0  0  0  0  0  0  0  # atno 8010 bound_to 7997
  140.1708  144.4279  150.6662 H   0  0  0  0  0  0  0  0  0  0  0  0  # atno 10167 bound_to 10162
  156.0749  130.5958  150.8604 H   0  0  0  0  0  0  0  0  0  0  0  0  # atno 10718 bound_to 10713
  153.9875  135.6709  153.4752 H   0  0  0  0  0  0  0  0  0  0  0  0  # atno 10763 bound_to 10752
  153.0720  135.4969  154.8321 H   0  0  0  0  0  0  0  0  0  0  0  0  # atno 10764 bound_to 10752
  154.7129  135.3101  154.9132 H   0  0  0  0  0  0  0  0  0  0  0  0  # atno 10765 bound_to 10752
  140.6895  133.9084  155.8608 H   0  0  0  0  0  0  0  0  0  0  0  0  # atno 11005 bound_to 11000
  146.3370  140.2546  142.8600 LP  0  0  0  0  0  0  0  0  0  0  0  0  # atno 17320 bound_to 7965
  144.9744  140.8400  143.5435 LP  0  0  0  0  0  0  0  0  0  0  0  0  # atno 17321 bound_to 7965
  140.6583  143.2244  151.5916 LP  0  0  0  0  0  0  0  0  0  0  0  0  # atno 17342 bound_to 10162
  139.5339  144.2837  152.1208 LP  0  0  0  0  0  0  0  0  0  0  0  0  # atno 17343 bound_to 10162
  157.5839  131.0946  150.9227 LP  0  0  0  0  0  0  0  0  0  0  0  0  # atno 17370 bound_to 10713
  156.9417  130.5387  149.5280 LP  0  0  0  0  0  0  0  0  0  0  0  0  # atno 17371 bound_to 10713
  141.0253  134.0832  157.4075 LP  0  0  0  0  0  0  0  0  0  0  0  0  # atno 17394 bound_to 11000
  139.8928  135.0126  156.6863 LP  0  0  0  0  0  0  0  0  0  0  0  0  # atno 17395 bound_to 11000

$$$$
