#       Name:                AV-unprocessed.smi:1165
#       Creating user name   scv26
#       Creation time:       Fri Mar 27 03:51:11 2020


#       File generated by GOLD software.
#

@<TRIPOS>MOLECULE
AV-unprocessed.smi:1165
    45    46     1
SMALL
NO_CHARGES


@<TRIPOS>ATOM
      1 ****        -1.6996   3.3008   2.3775 C.3            1 S1                 0.0000
      2 ****        -1.6532   2.3175   1.2030 C.3            1 S1                 0.0000
      3 ****        -2.8281   1.3194   1.2404 C.3            1 S1                 0.0000
      4 ****        -2.8495   0.4808   0.0304 N.pl3          1 S1                 0.0000
      5 ****        -2.1276  -1.0999   0.0821 S.o2           1 S1                 0.0000
      6 ****        -2.4467  -1.7324   1.3712 O.2            1 S1                 0.0000
      7 ****        -2.4036  -1.7927  -1.1857 O.2            1 S1                 0.0000
      8 ****        -0.4627  -0.6635   0.0997 N.3            1 S1                 0.0000
      9 ****         0.5402  -1.7228   0.1311 C.3            1 S1                 0.0000
     10 ****         1.9437  -1.1211  -0.0112 C.3            1 S1                 0.0000
     11 ****         3.0246  -2.1834  -0.0040 C.ar           1 S1                 0.0000
     12 ****         3.3982  -2.8411  -1.1941 C.ar           1 S1                 0.0000
     13 ****         4.4073  -3.8215  -1.1392 C.ar           1 S1                 0.0000
     14 ****         5.0009  -4.1036   0.1074 C.ar           1 S1                 0.0000
     15 ****         4.6500  -3.4811   1.2536 N.ar           1 S1                 0.0000
     16 ****         3.6814  -2.5421   1.1922 C.ar           1 S1                 0.0000
     17 ****        -2.7674   1.2633  -1.2141 C.3            1 S1                 0.0000
     18 ****        -1.5890   2.2564  -1.1650 C.3            1 S1                 0.0000
     19 ****        -1.5601   3.1755  -2.3907 C.3            1 S1                 0.0000
     20 ****        -1.7052   3.0695  -0.0036 O.3            1 S1                 0.0000
     21 ****        -1.6465   2.7754   3.3312 H              1 S1                 0.0000
     22 ****        -2.6206   3.8847   2.3675 H              1 S1                 0.0000
     23 ****        -0.8627   3.9984   2.3351 H              1 S1                 0.0000
     24 ****        -0.7048   1.7812   1.2484 H              1 S1                 0.0000
     25 ****        -2.7798   0.6967   2.1335 H              1 S1                 0.0000
     26 ****        -3.7713   1.8645   1.2935 H              1 S1                 0.0000
     27 ****        -0.2694   0.0854   0.7640 H              1 S1                 0.0000
     28 ****         0.4500  -2.2721   1.0689 H              1 S1                 0.0000
     29 ****         0.3422  -2.4252  -0.6795 H              1 S1                 0.0000
     30 ****         2.0149  -0.5528  -0.9397 H              1 S1                 0.0000
     31 ****         2.1323  -0.4138   0.7977 H              1 S1                 0.0000
     32 ****         2.9206  -2.6000  -2.1325 H              1 S1                 0.0000
     33 ****         4.7192  -4.3455  -2.0307 H              1 S1                 0.0000
     34 ****         5.7780  -4.8495   0.1859 H              1 S1                 0.0000
     35 ****         3.4232  -2.0642   2.1258 H              1 S1                 0.0000
     36 ****        -2.6807   0.6003  -2.0747 H              1 S1                 0.0000
     37 ****        -3.7034   1.8099  -1.3360 H              1 S1                 0.0000
     38 ****        -0.6432   1.7152  -1.1285 H              1 S1                 0.0000
     39 ****        -1.4583   2.5994  -3.3108 H              1 S1                 0.0000
     40 ****        -0.7199   3.8684  -2.3381 H              1 S1                 0.0000
     41 ****        -2.4739   3.7657  -2.4640 H              1 S1                 0.0000
     42 ****        -0.3359  -0.3196  -0.8307 LP             1 S1                 0.0000
     43 ****         5.0936  -3.7084   2.1206 LP             1 S1                 0.0000
     44 ****        -0.9553   3.7311  -0.0003 LP             1 S1                 0.0000
     45 ****        -2.5784   3.5555  -0.0398 LP             1 S1                 0.0000
@<TRIPOS>BOND
    1    1    2 1     
    2    1   21 1     
    3    1   22 1     
    4    1   23 1     
    5    2   20 1     
    6    2    3 1     
    7    2   24 1     
    8    3    4 1     
    9    3   25 1     
   10    3   26 1     
   11    4    5 1     
   12    4   17 1     
   13    5    6 2     
   14    5    7 2     
   15    5    8 1     
   16    8    9 1     
   17    8   27 1     
   18    9   10 1     
   19    9   28 1     
   20    9   29 1     
   21   10   11 1     
   22   10   30 1     
   23   10   31 1     
   24   11   16 ar    
   25   11   12 ar    
   26   12   13 ar    
   27   12   32 1     
   28   13   14 ar    
   29   13   33 1     
   30   14   15 ar    
   31   14   34 1     
   32   15   16 ar    
   33   16   35 1     
   34   17   18 1     
   35   17   36 1     
   36   17   37 1     
   37   18   19 1     
   38   18   20 1     
   39   18   38 1     
   40   19   39 1     
   41   19   40 1     
   42   19   41 1     
   43    8   42 1     
   44   15   43 1     
   45   20   44 1     
   46   20   45 1     
@<TRIPOS>SUBSTRUCTURE
      1 S1             1
@<TRIPOS>SET
LONE_PAIRS      STATIC     ATOMS    <user>   **** ""
6 6 7 42 43 44 45
DONOR_HYDROGENS      STATIC     ATOMS    <user>   **** ""
1 27
ATOM$BLUE        STATIC     ATOMS    COLORGROUP SYSTEM
6 6 7 42 43 44 45
ATOM$RED        STATIC     ATOMS    COLORGROUP SYSTEM
1 27
