#       Name:                AV-unprocessed.smi:671
#       Creating user name   scv26
#       Creation time:       Fri Mar 27 00:24:52 2020


#       File generated by GOLD software.
#

@<TRIPOS>MOLECULE
AV-unprocessed.smi:671
    52    53     1
SMALL
NO_CHARGES


@<TRIPOS>ATOM
      1 ****         4.0199   0.1588   5.9857 C.3            1 S1                 0.0000
      2 ****         4.0213  -1.3287   5.8703 C.2            1 S1                 0.0000
      3 ****         4.3654  -2.1750   6.8779 N.pl3          1 S1                 1.0000
      4 ****         4.2727  -3.4477   6.4672 N.pl3          1 S1                 0.0000
      5 ****         4.6026  -4.5169   7.4094 C.3            1 S1                 0.0000
      6 ****         3.8582  -3.4946   5.1690 C.2            1 S1                 0.0000
      7 ****         3.6497  -4.7529   4.3905 C.3            1 S1                 0.0000
      8 ****         3.6949  -2.1560   4.7889 C.2            1 S1                 0.0000
      9 ****         3.2469  -1.6856   3.4335 C.3            1 S1                 0.0000
     10 ****         1.7207  -1.8050   3.2210 C.3            1 S1                 0.0000
     11 ****         0.9229  -0.8519   4.1245 C.3            1 S1                 0.0000
     12 ****         1.3801  -1.5261   1.8236 N.am           1 S1                 0.0000
     13 ****         1.4703  -2.3507   0.7634 C.2            1 S1                 0.0000
     14 ****         1.8765  -3.5054   0.8739 O.2            1 S1                 0.0000
     15 ****         1.0811  -1.8050  -0.4009 N.am           1 S1                 0.0000
     16 ****         1.0374  -2.4752  -1.6969 C.3            1 S1                 0.0000
     17 ****        -0.4172  -2.5918  -2.1929 C.3            1 S1                 0.0000
     18 ****        -0.5263  -1.6824  -3.4179 C.3            1 S1                 0.0000
     19 ****         0.8847  -1.6617  -3.9959 C.3            1 S1                 0.0000
     20 ****         1.7922  -1.6517  -2.7625 C.3            1 S1                 0.0000
     21 ****         3.2138  -2.1579  -3.0424 C.3            1 S1                 0.0000
     22 ****         4.6435   0.5979   5.2067 H              1 S1                 0.0000
     23 ****         4.4082   0.4699   6.9560 H              1 S1                 0.0000
     24 ****         3.0060   0.5441   5.8792 H              1 S1                 0.0000
     25 ****         4.8317  -5.4313   6.8619 H              1 S1                 0.0000
     26 ****         3.7494  -4.6889   8.0661 H              1 S1                 0.0000
     27 ****         5.4711  -4.2280   8.0028 H              1 S1                 0.0000
     28 ****         3.2160  -4.5404   3.4145 H              1 S1                 0.0000
     29 ****         2.9759  -5.4216   4.9264 H              1 S1                 0.0000
     30 ****         4.6012  -5.2627   4.2392 H              1 S1                 0.0000
     31 ****         3.5553  -0.6527   3.2684 H              1 S1                 0.0000
     32 ****         3.7728  -2.2618   2.6713 H              1 S1                 0.0000
     33 ****         1.4014  -2.8193   3.4654 H              1 S1                 0.0000
     34 ****         1.0906  -1.0684   5.1796 H              1 S1                 0.0000
     35 ****        -0.1483  -0.9459   3.9430 H              1 S1                 0.0000
     36 ****         1.1992   0.1884   3.9480 H              1 S1                 0.0000
     37 ****         1.0565  -0.5887   1.6317 H              1 S1                 0.0000
     38 ****         0.7756  -0.8434  -0.3856 H              1 S1                 0.0000
     39 ****         1.4615  -3.4791  -1.6333 H              1 S1                 0.0000
     40 ****        -0.6136  -3.6231  -2.4894 H              1 S1                 0.0000
     41 ****        -1.1559  -2.3338  -1.4324 H              1 S1                 0.0000
     42 ****        -1.2697  -2.0315  -4.1351 H              1 S1                 0.0000
     43 ****        -0.8099  -0.6765  -3.1069 H              1 S1                 0.0000
     44 ****         1.0520  -2.5679  -4.5803 H              1 S1                 0.0000
     45 ****         1.0568  -0.8069  -4.6508 H              1 S1                 0.0000
     46 ****         1.8599  -0.6148  -2.4269 H              1 S1                 0.0000
     47 ****         3.2056  -3.1873  -3.4023 H              1 S1                 0.0000
     48 ****         3.8238  -2.1255  -2.1391 H              1 S1                 0.0000
     49 ****         3.7056  -1.5449  -3.7982 H              1 S1                 0.0000
     50 ****         4.6597  -1.9490   7.8197 H              1 S1                 0.0000
     51 ****         2.1509  -3.8554   1.7695 LP             1 S1                 0.0000
     52 ****         1.9326  -4.0950   0.0681 LP             1 S1                 0.0000
@<TRIPOS>BOND
    1    1    2 1     
    2    1   22 1     
    3    1   23 1     
    4    1   24 1     
    5    2    8 1     
    6    2    3 2     
    7    3    4 1     
    8    3   50 1     
    9    4    5 1     
   10    4    6 1     
   11    5   25 1     
   12    5   26 1     
   13    5   27 1     
   14    6    7 1     
   15    6    8 2     
   16    7   28 1     
   17    7   29 1     
   18    7   30 1     
   19    8    9 1     
   20    9   10 1     
   21    9   31 1     
   22    9   32 1     
   23   10   11 1     
   24   10   12 1     
   25   10   33 1     
   26   11   34 1     
   27   11   35 1     
   28   11   36 1     
   29   12   13 am    
   30   12   37 1     
   31   13   14 2     
   32   13   15 am    
   33   15   16 1     
   34   15   38 1     
   35   16   20 1     
   36   16   17 1     
   37   16   39 1     
   38   17   18 1     
   39   17   40 1     
   40   17   41 1     
   41   18   19 1     
   42   18   42 1     
   43   18   43 1     
   44   19   20 1     
   45   19   44 1     
   46   19   45 1     
   47   20   21 1     
   48   20   46 1     
   49   21   47 1     
   50   21   48 1     
   51   21   49 1     
   52   14   51 1     
   53   14   52 1     
@<TRIPOS>SUBSTRUCTURE
      1 S1             1
@<TRIPOS>SET
LONE_PAIRS      STATIC     ATOMS    <user>   **** ""
2 51 52
DONOR_HYDROGENS      STATIC     ATOMS    <user>   **** ""
3 50 37 38
ATOM$BLUE        STATIC     ATOMS    COLORGROUP SYSTEM
2 51 52
ATOM$RED        STATIC     ATOMS    COLORGROUP SYSTEM
3 50 37 38
