AV-unprocessed.smi:749|AV-procd|sdf|3585|dock9
  -GOLD-   22720 0583D 1   1.00000     0.00000
 Structure written by MMmdl.
 43 44  0  0  0  0  0  0  0  0  1 V2000
  155.7693  140.7203  167.2699 C   0  0  0  0  0  0  0  0  0  0  0  0
  156.2966  139.7705  166.2887 N   0  0  0  0  0  0  0  0  0  0  0  0
  155.7876  139.9511  164.9204 C   0  0  0  0  0  0  0  0  0  0  0  0
  156.5952  139.2066  163.8432 C   0  0  2  0  0  0  0  0  0  0  0  0
  155.8423  139.1813  162.5942 N   0  0  0  0  0  0  0  0  0  0  0  0
  155.1524  140.2090  162.0721 C   0  0  0  0  0  0  0  0  0  0  0  0
  155.0767  141.3074  162.6202 O   0  0  0  0  0  0  0  0  0  0  0  0
  154.5363  139.9737  160.8945 N   0  0  0  0  0  0  0  0  0  0  0  0
  153.7359  140.8195  160.0751 C   0  0  0  0  0  0  0  0  0  0  0  0
  153.3098  142.0857  160.5556 C   0  0  0  0  0  0  0  0  0  0  0  0
  152.5855  142.5955  159.5125 C   0  0  0  0  0  0  0  0  0  0  0  0
  151.8404  143.8840  159.3025 C   0  0  0  0  0  0  0  0  0  0  0  0
  150.3732  143.6107  158.9162 C   0  0  0  0  0  0  0  0  0  0  0  0
  152.4978  144.6946  158.1698 C   0  0  0  0  0  0  0  0  0  0  0  0
  151.8547  144.7179  160.5973 C   0  0  0  0  0  0  0  0  0  0  0  0
  152.5763  141.7084  158.4786 O   0  0  0  0  0  0  0  0  0  0  0  0
  153.3117  140.5761  158.8442 N   0  0  0  0  0  0  0  0  0  0  0  0
  156.9007  137.7831  164.3191 C   0  0  0  0  0  0  0  0  0  0  0  0
  157.7026  137.8154  165.6252 C   0  0  0  0  0  0  0  0  0  0  0  0
  157.1281  138.7743  166.6793 C   0  0  0  0  0  0  0  0  0  0  0  0
  157.4727  138.6210  167.8514 O   0  0  0  0  0  0  0  0  0  0  0  0
  156.5768  141.3218  167.6898 H   0  0  0  0  0  0  0  0  0  0  0  0
  155.2712  140.1973  168.0879 H   0  0  0  0  0  0  0  0  0  0  0  0
  155.0405  141.4033  166.8312 H   0  0  0  0  0  0  0  0  0  0  0  0
  154.7536  139.6021  164.9129 H   0  0  0  0  0  0  0  0  0  0  0  0
  155.7583  141.0132  164.6720 H   0  0  0  0  0  0  0  0  0  0  0  0
  157.5360  139.7392  163.6888 H   0  0  0  0  0  0  0  0  0  0  0  0
  155.8508  138.3132  162.0773 H   0  0  0  0  0  0  0  0  0  0  0  0
  154.6431  139.0324  160.5456 H   0  0  0  0  0  0  0  0  0  0  0  0
  153.5043  142.5467  161.5125 H   0  0  0  0  0  0  0  0  0  0  0  0
  149.8232  144.5388  158.7565 H   0  0  0  0  0  0  0  0  0  0  0  0
  149.8529  143.0539  159.6965 H   0  0  0  0  0  0  0  0  0  0  0  0
  150.3056  143.0293  157.9957 H   0  0  0  0  0  0  0  0  0  0  0  0
  152.4996  144.1358  157.2335 H   0  0  0  0  0  0  0  0  0  0  0  0
  153.5334  144.9432  158.4048 H   0  0  0  0  0  0  0  0  0  0  0  0
  151.9708  145.6327  157.9922 H   0  0  0  0  0  0  0  0  0  0  0  0
  151.3098  145.6549  160.4744 H   0  0  0  0  0  0  0  0  0  0  0  0
  152.8715  144.9703  160.9003 H   0  0  0  0  0  0  0  0  0  0  0  0
  151.3925  144.1748  161.4226 H   0  0  0  0  0  0  0  0  0  0  0  0
  155.9724  137.2293  164.4688 H   0  0  0  0  0  0  0  0  0  0  0  0
  157.4658  137.2412  163.5598 H   0  0  0  0  0  0  0  0  0  0  0  0
  157.7671  136.8108  166.0448 H   0  0  0  0  0  0  0  0  0  0  0  0
  158.7252  138.1311  165.4158 H   0  0  0  0  0  0  0  0  0  0  0  0
  1  2  1  0  0  0  0
  1 22  1  0  0  0  0
  1 23  1  0  0  0  0
  1 24  1  0  0  0  0
  2 20  1  0  0  0  0
  2  3  1  0  0  0  0
  3  4  1  0  0  0  0
  3 25  1  0  0  0  0
  3 26  1  0  0  0  0
  4  5  1  0  0  0  0
  4 18  1  0  0  0  0
  4 27  1  0  0  0  0
  5  6  1  0  0  0  0
  5 28  1  0  0  0  0
  6  7  2  0  0  0  0
  6  8  1  0  0  0  0
  8  9  1  0  0  0  0
  8 29  1  0  0  0  0
  9 17  2  0  0  0  0
  9 10  1  0  0  0  0
 10 11  2  0  0  0  0
 10 30  1  0  0  0  0
 11 12  1  0  0  0  0
 11 16  1  0  0  0  0
 12 13  1  0  0  0  0
 12 14  1  0  0  0  0
 12 15  1  0  0  0  0
 13 31  1  0  0  0  0
 13 32  1  0  0  0  0
 13 33  1  0  0  0  0
 14 34  1  0  0  0  0
 14 35  1  0  0  0  0
 14 36  1  0  0  0  0
 15 37  1  0  0  0  0
 15 38  1  0  0  0  0
 15 39  1  0  0  0  0
 16 17  1  0  0  0  0
 18 19  1  0  0  0  0
 18 40  1  0  0  0  0
 18 41  1  0  0  0  0
 19 20  1  0  0  0  0
 19 42  1  0  0  0  0
 19 43  1  0  0  0  0
 20 21  2  0  0  0  0
M  END
> <s_m_source_file>
AV-unprocessed.smi

> <i_m_source_file_index>
749

> <i_lp_mmshare_version>
43012

> <i_f3d_flags>
0

> <s_epik_input>
Tz1DMVtDSDJdW0NIMl1bQ0BASF0oW0NIMl1OMVtDSDNdKVtOSF1DKD1PKVtOSF1jMltjSF1jKG9uMilDKFtDSDNdKShbQ0gzXSlbQ0gzXQ==

> <s_epik_cmdline>
J2VwaWtfcHl0aG9uJywgJy1waCcsICc3LjAnLCAnLXRuJywgJzgnLCAnLW1hJywgJzIwMCcsICctbWV0YWxfYmluZGluZycsICctaW1hZScsICc8aW5maWxlLm1hZT4nLCAnLW9tYWUnLCAnPG91dGZpbGUubWFlPic=

> <r_lp_tautomer_probability>
1

> <r_epik_Ionization_Penalty>
2.91905e-05

> <r_epik_Ionization_Penalty_Charging>
0

> <r_epik_Ionization_Penalty_Neutral>
2.91905e-05

> <r_epik_State_Penalty>
-0

> <r_epik_Charging_Adjusted_Penalty>
0

> <i_epik_Tot_Q>
0

> <i_epik_Tot_abs_Q>
0

> <r_epik_Metal_State_Penalty>
0.0102923

> <b_epik_Metal_Only>
0

> <s_lp_Force_Field>
OPLS_2005

> <r_lp_Energy>
15.3042

> <b_lp_Chiralities_Consistent>
1

> <s_lp_Variant>
AV-unprocessed.smi:749-2

> <Gold.Version>
5.8.1

> <Gold.Id.Protein>
6NUR|6NUR_protein|mol2

> <Gold.PLP.Fitness>
39.5958

> <Gold.PLP.PLP>
-39.5624

> <Gold.PLP.part.hbond>
-2.6837

> <Gold.PLP.part.metal>
0.0000

> <Gold.PLP.part.buried>
-4.0290

> <Gold.PLP.part.nonpolar>
-32.3246

> <Gold.PLP.part.repulsive>
0.0699

> <Gold.PLP.ligand.clash>
0.0000

> <Gold.PLP.ligand.torsion>
0.3100

> <Gold.PLP.Chemscore.Hbond>
0.2174

> <Gold.PLP.Chemscore.CHOScore>
0.0000

> <Gold.PLP.Chemscore.Metal>
0.0000

> <Gold.Chemscore.Hbonds>
donor molecule, donor type, donor heavy atom, donor atom, acceptor molecule, acceptor atom, score
      P1  H  7997  8010       L1    17  0.24

> <Gold.PLP.Chemscore.Internal.Correction>
0.0013

> <Gold.Rescore>
     Score         DG    S(hbond)    S(metal)    S(lipo)     H(rot)  DE(clash)    DE(int)     intcor
      8.80     -13.39       0.61        0.00      77.02       1.23       1.60       3.00       ----

> <Gold.Chemscore.Fitness>
8.7975

> <Gold.Chemscore.DG>
-13.3920

> <Gold.Chemscore.ZeroCoef>
-5.4800

> <Gold.Chemscore.Hbond>
0.6147

> <Gold.Chemscore.Metal>
0.0000

> <Gold.Chemscore.Lipo>
77.0249

> <Gold.Chemscore.Internal_Hbond>
0.0000

> <Gold.Chemscore.DEClash>
1.5981

> <Gold.Chemscore.DEInternal>
2.9964

> <Gold.Chemscore.Rot>
1.2317

> <Gold.Chemscore.Internal.Correction>
   9.000000E+99

> <Gold.Chemscore.Hbonds>
donor molecule, donor type, donor heavy atom, donor atom, acceptor molecule, acceptor atom, score
      P1  H  7997  8010       L1    17  0.18

> <Gold.Chemscore.Hbond.Weighted>
-2.0532

> <Gold.Chemscore.Metal.Weighted>
-0.0000

> <Gold.Chemscore.Lipo.Weighted>
-9.0119

> <Gold.Chemscore.Internal_Hbond.Weighted>
0.0000

> <Gold.Chemscore.DEClash.Weighted>
1.5981

> <Gold.Chemscore.DEInternal.Weighted>
2.9964

> <Gold.Chemscore.Rot.Weighted>
3.1531

> <Gold.Chemscore.Internal.Correction.Weighted>
   9.000000E+99

> <Gold.Protein.RotatedTorsions>
[ 6907 6896 6895 6894 ] final -132.23 input  -60.11 | X-H torsion
[ 7974 7965 7964 7962 ] final  165.85 input  175.53 | X-H torsion
[ 8008 7997 7996 7995 ] final   13.94 input   59.86 | X-H torsion
[ 10167 10162 10161 10158 ] final   -5.04 input  -65.29 | X-H torsion
[ 10718 10713 10712 10709 ] final  -31.39 input   66.30 | X-H torsion
[ 10763 10752 10751 10750 ] final   29.09 input  -60.55 | X-H torsion
[ 11005 11000 10999 10996 ] final  -10.49 input  -57.11 | X-H torsion

> <Gold.Protein.ActiveResidues>
 VAL166  LYS551  ARG553  GLY616  TRP617  ASP618  TYR619  PRO620  LYS621  CYS622 
 ASP623  PHE694  ASN695  SER759  ASP760  ASP761  ALA762  ILE779  LEU786  VAL792 
 PHE793  MET794  SER795  GLU796  ALA797  LYS798  CYS799  TRP800  GLU811  SER814 

> <Gold.Protein.RotatedAtoms>
  150.9600  133.6456  159.2755 H   0  0  0  0  0  0  0  0  0  0  0  0  # atno 6907 bound_to 6896
  151.3782  135.0934  159.9497 H   0  0  0  0  0  0  0  0  0  0  0  0  # atno 6908 bound_to 6896
  152.5144  133.9140  159.7556 H   0  0  0  0  0  0  0  0  0  0  0  0  # atno 6909 bound_to 6896
  144.7486  139.8529  143.6374 H   0  0  0  0  0  0  0  0  0  0  0  0  # atno 7974 bound_to 7965
  154.8415  140.2915  155.5656 H   0  0  0  0  0  0  0  0  0  0  0  0  # atno 8008 bound_to 7997
  156.3012  140.2513  156.3290 H   0  0  0  0  0  0  0  0  0  0  0  0  # atno 8009 bound_to 7997
  154.9120  140.0388  157.1941 H   0  0  0  0  0  0  0  0  0  0  0  0  # atno 8010 bound_to 7997
  140.6949  143.6355  150.8484 H   0  0  0  0  0  0  0  0  0  0  0  0  # atno 10167 bound_to 10162
  156.3878  130.4367  149.7418 H   0  0  0  0  0  0  0  0  0  0  0  0  # atno 10718 bound_to 10713
  153.0451  135.6497  154.0838 H   0  0  0  0  0  0  0  0  0  0  0  0  # atno 10763 bound_to 10752
  154.0537  135.2893  155.3338 H   0  0  0  0  0  0  0  0  0  0  0  0  # atno 10764 bound_to 10752
  154.6703  135.5358  153.8196 H   0  0  0  0  0  0  0  0  0  0  0  0  # atno 10765 bound_to 10752
  140.7453  133.8637  155.9000 H   0  0  0  0  0  0  0  0  0  0  0  0  # atno 11005 bound_to 11000
  146.1403  139.4458  143.0113 LP  0  0  0  0  0  0  0  0  0  0  0  0  # atno 17320 bound_to 7965
  145.7029  141.0130  143.1495 LP  0  0  0  0  0  0  0  0  0  0  0  0  # atno 17321 bound_to 7965
  140.0071  143.5682  152.2853 LP  0  0  0  0  0  0  0  0  0  0  0  0  # atno 17342 bound_to 10162
  139.6392  144.7653  151.2374 LP  0  0  0  0  0  0  0  0  0  0  0  0  # atno 17343 bound_to 10162
  156.4483  130.7894  151.2916 LP  0  0  0  0  0  0  0  0  0  0  0  0  # atno 17370 bound_to 10713
  157.7497  131.0103  150.3301 LP  0  0  0  0  0  0  0  0  0  0  0  0  # atno 17371 bound_to 10713
  140.9800  134.1418  157.4502 LP  0  0  0  0  0  0  0  0  0  0  0  0  # atno 17394 bound_to 11000
  139.8798  135.0007  156.6027 LP  0  0  0  0  0  0  0  0  0  0  0  0  # atno 17395 bound_to 11000

$$$$
