AV-unprocessed.smi:2787|AV-procd|sdf|10756|dock6
  -GOLD-   2272015183D 1   1.00000     0.00000
 Structure written by MMmdl.
 35 36  0  0  0  0  0  0  0  0  1 V2000
  149.6095  141.0842  153.4530 O   0  0  0  0  0  0  0  0  0  0  0  0
  148.9358  140.6594  154.6194 C   0  0  0  0  0  0  0  0  0  0  0  0
  149.3502  141.5183  155.8224 C   0  0  0  0  0  0  0  0  0  0  0  0
  150.8737  141.6920  155.9447 C   0  0  0  0  0  0  0  0  0  0  0  0
  151.2938  142.1766  157.3014 C   0  0  0  0  0  0  0  0  0  0  0  0
  151.0062  143.4123  157.7123 N   0  0  0  0  0  0  0  0  0  0  0  0
  151.5423  143.4457  158.9838 C   0  0  0  0  0  0  0  0  0  0  0  0
  151.5627  144.4825  159.9438 C   0  0  0  0  0  0  0  0  0  0  0  0
  152.1772  144.2826  161.1971 C   0  0  0  0  0  0  0  0  0  0  0  0
  152.7777  143.0456  161.5080 C   0  0  0  0  0  0  0  0  0  0  0  0
  152.7688  141.9996  160.5651 C   0  0  0  0  0  0  0  0  0  0  0  0
  152.1554  142.2043  159.3141 C   0  0  0  0  0  0  0  0  0  0  0  0
  151.9760  141.4048  158.1880 N   0  0  0  0  0  0  0  0  0  0  0  0
  152.4470  140.0330  158.0315 C   0  0  0  0  0  0  0  0  0  0  0  0
  151.4021  139.1063  157.3771 C   0  0  2  0  0  0  0  0  0  0  0  0
  150.7886  138.3078  158.3718 O   0  0  0  0  0  0  0  0  0  0  0  0
  152.0065  138.1952  156.2915 C   0  0  0  0  0  0  0  0  0  0  0  0
  151.0565  137.4308  155.7521 F   0  0  0  0  0  0  0  0  0  0  0  0
  152.5283  138.9477  155.3227 F   0  0  0  0  0  0  0  0  0  0  0  0
  152.9692  137.4224  156.7959 F   0  0  0  0  0  0  0  0  0  0  0  0
  149.6387  140.3627  152.8432 H   0  0  0  0  0  0  0  0  0  0  0  0
  147.8584  140.7093  154.4582 H   0  0  0  0  0  0  0  0  0  0  0  0
  149.1871  139.6143  154.8016 H   0  0  0  0  0  0  0  0  0  0  0  0
  148.8898  142.5021  155.7250 H   0  0  0  0  0  0  0  0  0  0  0  0
  148.9427  141.0866  156.7366 H   0  0  0  0  0  0  0  0  0  0  0  0
  151.3777  140.7588  155.7008 H   0  0  0  0  0  0  0  0  0  0  0  0
  151.2178  142.4150  155.2040 H   0  0  0  0  0  0  0  0  0  0  0  0
  151.1044  145.4332  159.7153 H   0  0  0  0  0  0  0  0  0  0  0  0
  152.1868  145.0820  161.9236 H   0  0  0  0  0  0  0  0  0  0  0  0
  153.2449  142.8999  162.4711 H   0  0  0  0  0  0  0  0  0  0  0  0
  153.2266  141.0511  160.8034 H   0  0  0  0  0  0  0  0  0  0  0  0
  153.3744  140.0385  157.4598 H   0  0  0  0  0  0  0  0  0  0  0  0
  152.7165  139.6480  159.0152 H   0  0  0  0  0  0  0  0  0  0  0  0
  150.6225  139.7126  156.9179 H   0  0  0  0  0  0  0  0  0  0  0  0
  150.0134  138.7536  158.6776 H   0  0  0  0  0  0  0  0  0  0  0  0
  1  2  1  0  0  0  0
  1 21  1  0  0  0  0
  2  3  1  0  0  0  0
  2 22  1  0  0  0  0
  2 23  1  0  0  0  0
  3  4  1  0  0  0  0
  3 24  1  0  0  0  0
  3 25  1  0  0  0  0
  4  5  1  0  0  0  0
  4 26  1  0  0  0  0
  4 27  1  0  0  0  0
  5 13  1  0  0  0  0
  5  6  2  0  0  0  0
  6  7  1  0  0  0  0
  7 12  2  0  0  0  0
  7  8  1  0  0  0  0
  8  9  2  0  0  0  0
  8 28  1  0  0  0  0
  9 10  1  0  0  0  0
  9 29  1  0  0  0  0
 10 11  2  0  0  0  0
 10 30  1  0  0  0  0
 11 12  1  0  0  0  0
 11 31  1  0  0  0  0
 12 13  1  0  0  0  0
 13 14  1  0  0  0  0
 14 15  1  0  0  0  0
 14 32  1  0  0  0  0
 14 33  1  0  0  0  0
 15 16  1  0  0  0  0
 15 17  1  0  0  0  0
 15 34  1  0  0  0  0
 16 35  1  0  0  0  0
 17 18  1  0  0  0  0
 17 19  1  0  0  0  0
 17 20  1  0  0  0  0
M  END
> <s_m_source_file>
AV-unprocessed.smi

> <i_m_source_file_index>
2787

> <i_lp_mmshare_version>
43012

> <i_f3d_flags>
0

> <s_epik_input>
W09IXVtDSDJdW0NIMl1bQ0gyXWMobjEpbihbQ0gyXVtDQEhdKFtPSF0pQyhGKShGKUYpYyhjMTIpW2NIXVtjSF1bY0hdW2NIXTI=

> <s_epik_cmdline>
J2VwaWtfcHl0aG9uJywgJy1waCcsICc3LjAnLCAnLXRuJywgJzgnLCAnLW1hJywgJzIwMCcsICctbWV0YWxfYmluZGluZycsICctaW1hZScsICc8aW5maWxlLm1hZT4nLCAnLW9tYWUnLCAnPG91dGZpbGUubWFlPic=

> <r_epik_Ionization_Penalty>
0.137914

> <r_epik_Ionization_Penalty_Charging>
0

> <r_epik_Ionization_Penalty_Neutral>
0.137914

> <r_epik_State_Penalty>
0.107668

> <r_epik_Charging_Adjusted_Penalty>
0.107668

> <i_epik_Tot_Q>
0

> <i_epik_Tot_abs_Q>
0

> <r_epik_Metal_State_Penalty>
0.000111872

> <b_epik_Metal_Only>
0

> <s_lp_Force_Field>
OPLS_2005

> <r_lp_Energy>
10.5181

> <b_lp_Chiralities_Consistent>
1

> <s_lp_Variant>
AV-unprocessed.smi:2787-1

> <Gold.Version>
5.8.1

> <Gold.Id.Protein>
6NUR|6NUR_protein|mol2

> <Gold.PLP.Fitness>
46.8867

> <Gold.PLP.PLP>
-43.4573

> <Gold.PLP.part.hbond>
-3.0000

> <Gold.PLP.part.metal>
0.0000

> <Gold.PLP.part.buried>
-5.6492

> <Gold.PLP.part.nonpolar>
-33.8953

> <Gold.PLP.part.repulsive>
0.1496

> <Gold.PLP.ligand.clash>
0.0000

> <Gold.PLP.ligand.torsion>
1.0241

> <Gold.PLP.Chemscore.Hbond>
1.8124

> <Gold.PLP.Chemscore.CHOScore>
0.0000

> <Gold.PLP.Chemscore.Metal>
0.0000

> <Gold.Chemscore.Hbonds>
donor molecule, donor type, donor heavy atom, donor atom, acceptor molecule, acceptor atom, score
      L1  H     1    21       P1  7957  0.82
      P1  H  7989  7998       L1     1  0.04
      P1  H  8011  8017       L1     1  0.95

> <Gold.PLP.Chemscore.Internal.Correction>
0.0403

> <Gold.Rescore>
     Score         DG    S(hbond)    S(metal)    S(lipo)     H(rot)  DE(clash)    DE(int)     intcor
     11.98     -12.99       1.28        0.00     102.86       3.44       0.24       0.77       ----

> <Gold.Chemscore.Fitness>
11.9825

> <Gold.Chemscore.DG>
-12.9933

> <Gold.Chemscore.ZeroCoef>
-5.4800

> <Gold.Chemscore.Hbond>
1.2806

> <Gold.Chemscore.Metal>
0.0000

> <Gold.Chemscore.Lipo>
102.8595

> <Gold.Chemscore.Internal_Hbond>
0.0000

> <Gold.Chemscore.DEClash>
0.2384

> <Gold.Chemscore.DEInternal>
0.7723

> <Gold.Chemscore.Rot>
3.4369

> <Gold.Chemscore.Internal.Correction>
   9.000000E+99

> <Gold.Chemscore.Hbonds>
donor molecule, donor type, donor heavy atom, donor atom, acceptor molecule, acceptor atom, score
      L1  H     1    21       P1  7957  0.81
      P1  H  8011  8017       L1     1  0.21

> <Gold.Chemscore.Hbond.Weighted>
-4.2771

> <Gold.Chemscore.Metal.Weighted>
-0.0000

> <Gold.Chemscore.Lipo.Weighted>
-12.0346

> <Gold.Chemscore.Internal_Hbond.Weighted>
0.0000

> <Gold.Chemscore.DEClash.Weighted>
0.2384

> <Gold.Chemscore.DEInternal.Weighted>
0.7723

> <Gold.Chemscore.Rot.Weighted>
8.7984

> <Gold.Chemscore.Internal.Correction.Weighted>
   9.000000E+99

> <Gold.Protein.RotatedTorsions>
[ 6907 6896 6895 6894 ] final -103.66 input  -60.11 | X-H torsion
[ 7974 7965 7964 7962 ] final  -73.36 input  175.53 | X-H torsion
[ 8008 7997 7996 7995 ] final  -45.09 input   59.86 | X-H torsion
[ 10167 10162 10161 10158 ] final  161.50 input  -65.29 | X-H torsion
[ 10718 10713 10712 10709 ] final    3.82 input   66.30 | X-H torsion
[ 10763 10752 10751 10750 ] final   20.00 input  -60.55 | X-H torsion
[ 11005 11000 10999 10996 ] final   21.00 input  -57.11 | X-H torsion

> <Gold.Protein.ActiveResidues>
 VAL166  LYS551  ARG553  GLY616  TRP617  ASP618  TYR619  PRO620  LYS621  CYS622 
 ASP623  PHE694  ASN695  SER759  ASP760  ASP761  ALA762  ILE779  LEU786  VAL792 
 PHE793  MET794  SER795  GLU796  ALA797  LYS798  CYS799  TRP800  GLU811  SER814 

> <Gold.Protein.RotatedAtoms>
  150.7250  134.0396  159.3760 H   0  0  0  0  0  0  0  0  0  0  0  0  # atno 6907 bound_to 6896
  151.8369  135.0601  160.0453 H   0  0  0  0  0  0  0  0  0  0  0  0  # atno 6908 bound_to 6896
  152.2892  133.5508  159.5583 H   0  0  0  0  0  0  0  0  0  0  0  0  # atno 6909 bound_to 6896
  145.6532  140.9276  143.0973 H   0  0  0  0  0  0  0  0  0  0  0  0  # atno 7974 bound_to 7965
  154.3999  140.1405  156.3791 H   0  0  0  0  0  0  0  0  0  0  0  0  # atno 8008 bound_to 7997
  155.8021  140.3475  155.5388 H   0  0  0  0  0  0  0  0  0  0  0  0  # atno 8009 bound_to 7997
  155.8473  140.0936  157.1687 H   0  0  0  0  0  0  0  0  0  0  0  0  # atno 8010 bound_to 7997
  139.4850  144.4530  151.8805 H   0  0  0  0  0  0  0  0  0  0  0  0  # atno 10167 bound_to 10162
  156.8835  130.5662  149.5652 H   0  0  0  0  0  0  0  0  0  0  0  0  # atno 10718 bound_to 10713
  153.1114  135.6697  153.9493 H   0  0  0  0  0  0  0  0  0  0  0  0  # atno 10763 bound_to 10752
  153.9035  135.3033  155.3450 H   0  0  0  0  0  0  0  0  0  0  0  0  # atno 10764 bound_to 10752
  154.7534  135.5024  153.9407 H   0  0  0  0  0  0  0  0  0  0  0  0  # atno 10765 bound_to 10752
  140.3964  134.1765  155.7663 H   0  0  0  0  0  0  0  0  0  0  0  0  # atno 11005 bound_to 11000
  144.7115  139.8353  143.7413 LP  0  0  0  0  0  0  0  0  0  0  0  0  # atno 17320 bound_to 7965
  146.1187  139.4201  143.0242 LP  0  0  0  0  0  0  0  0  0  0  0  0  # atno 17321 bound_to 7965
  140.3988  144.2520  150.5894 LP  0  0  0  0  0  0  0  0  0  0  0  0  # atno 17342 bound_to 10162
  140.5077  143.2299  151.8583 LP  0  0  0  0  0  0  0  0  0  0  0  0  # atno 17343 bound_to 10162
  156.0665  130.5707  150.9299 LP  0  0  0  0  0  0  0  0  0  0  0  0  # atno 17370 bound_to 10713
  157.6126  131.0935  150.8767 LP  0  0  0  0  0  0  0  0  0  0  0  0  # atno 17371 bound_to 10713
  141.1872  133.8285  157.1038 LP  0  0  0  0  0  0  0  0  0  0  0  0  # atno 17394 bound_to 11000
  140.0369  134.9874  157.0887 LP  0  0  0  0  0  0  0  0  0  0  0  0  # atno 17395 bound_to 11000

$$$$
