AV-unprocessed.smi:81|AV-procd|sdf|789|dock9
  -GOLD-   2262017163D 1   1.00000     0.00000
 Structure written by MMmdl.
 64 67  0  0  0  0  0  0  0  0  2 V2000
  147.0329  139.6560  153.0993 C   0  0  0  0  0  0  0  0  0  0  0  0
  147.9183  140.1635  154.2496 C   0  0  0  0  0  0  0  0  0  0  0  0
  148.0497  141.6922  154.1936 C   0  0  0  0  0  0  0  0  0  0  0  0
  149.3152  139.5027  154.2345 C   0  0  0  0  0  0  0  0  0  0  0  0
  149.7649  139.0250  155.5456 N   0  0  0  0  0  0  0  0  0  0  0  0
  149.1173  137.9238  156.0028 C   0  0  0  0  0  0  0  0  0  0  0  0
  148.4211  137.1373  155.1402 N   0  0  0  0  0  0  0  0  0  0  0  0
  147.7900  136.0481  155.5889 C   0  0  0  0  0  0  0  0  0  0  0  0
  147.7287  135.5727  156.8346 N   0  0  0  0  0  0  0  0  0  0  0  0
  148.4324  136.3568  157.7008 C   0  0  0  0  0  0  0  0  0  0  0  0
  149.1539  137.5370  157.3692 C   0  0  0  0  0  0  0  0  0  0  0  0
  149.7593  138.0612  158.5041 N   0  0  0  0  0  0  0  0  0  0  0  0
  149.4151  137.2359  159.4548 C   0  0  0  0  0  0  0  0  0  0  0  0
  148.6064  136.1920  159.0638 N   0  0  0  0  0  0  0  0  0  0  0  0
  148.0778  135.1338  159.9109 C   0  0  0  0  0  0  0  0  0  0  0  0
  146.7831  135.5214  160.6782 C   0  0  2  0  0  0  0  0  0  0  0  0
  145.7532  135.8176  159.7540 O   0  0  0  0  0  0  0  0  0  0  0  0
  146.9540  136.7056  161.6220 C   0  0  0  0  0  0  0  0  0  0  0  0
  147.5424  136.0518  162.8683 C   0  0  0  0  0  0  0  0  0  0  0  0
  147.0062  134.7324  162.8977 O   0  0  0  0  0  0  0  0  0  0  0  0
  146.3077  134.4562  161.6860 C   0  0  2  0  0  0  0  0  0  0  0  0
  146.4878  132.9864  161.2779 C   0  0  0  0  0  0  0  0  0  0  0  0
  150.0712  140.0582  156.5457 C   0  0  2  0  0  0  0  0  0  0  0  0
  148.8211  140.6905  157.1942 C   0  0  0  0  0  0  0  0  0  0  0  0
  149.2182  141.6975  158.2856 C   0  0  0  0  0  0  0  0  0  0  0  0
  150.1106  142.7497  157.7391 N   0  3  1  0  0  0  0  0  0  0  0  0
  150.4094  143.8056  158.7299 C   0  0  0  0  0  0  0  0  0  0  0  0
  151.3390  142.1782  157.1336 C   0  0  0  0  0  0  0  0  0  0  0  0
  150.9926  141.1791  156.0172 C   0  0  0  0  0  0  0  0  0  0  0  0
  147.4824  139.8697  152.1291 H   0  0  0  0  0  0  0  0  0  0  0  0
  146.0507  140.1288  153.1224 H   0  0  0  0  0  0  0  0  0  0  0  0
  146.8743  138.5795  153.1620 H   0  0  0  0  0  0  0  0  0  0  0  0
  147.4191  139.9246  155.1890 H   0  0  0  0  0  0  0  0  0  0  0  0
  148.5386  142.0155  153.2742 H   0  0  0  0  0  0  0  0  0  0  0  0
  148.6372  142.0662  155.0328 H   0  0  0  0  0  0  0  0  0  0  0  0
  147.0724  142.1734  154.2380 H   0  0  0  0  0  0  0  0  0  0  0  0
  149.3040  138.6636  153.5382 H   0  0  0  0  0  0  0  0  0  0  0  0
  150.0480  140.2079  153.8399 H   0  0  0  0  0  0  0  0  0  0  0  0
  147.2583  135.4751  154.8435 H   0  0  0  0  0  0  0  0  0  0  0  0
  149.7369  137.3712  160.4774 H   0  0  0  0  0  0  0  0  0  0  0  0
  147.8975  134.2632  159.2793 H   0  0  0  0  0  0  0  0  0  0  0  0
  148.8616  134.8417  160.6106 H   0  0  0  0  0  0  0  0  0  0  0  0
  145.5023  136.7219  159.8643 H   0  0  0  0  0  0  0  0  0  0  0  0
  147.5654  137.5182  161.2331 H   0  0  0  0  0  0  0  0  0  0  0  0
  145.9809  137.1301  161.8755 H   0  0  0  0  0  0  0  0  0  0  0  0
  148.6282  135.9864  162.7908 H   0  0  0  0  0  0  0  0  0  0  0  0
  147.3014  136.6006  163.7788 H   0  0  0  0  0  0  0  0  0  0  0  0
  145.2515  134.6259  161.9034 H   0  0  0  0  0  0  0  0  0  0  0  0
  145.9815  132.7775  160.3352 H   0  0  0  0  0  0  0  0  0  0  0  0
  146.0675  132.3229  162.0336 H   0  0  0  0  0  0  0  0  0  0  0  0
  147.5395  132.7238  161.1640 H   0  0  0  0  0  0  0  0  0  0  0  0
  150.6097  139.5443  157.3430 H   0  0  0  0  0  0  0  0  0  0  0  0
  148.2154  141.2042  156.4466 H   0  0  0  0  0  0  0  0  0  0  0  0
  148.1915  139.9132  157.6285 H   0  0  0  0  0  0  0  0  0  0  0  0
  148.3197  142.1590  158.6974 H   0  0  0  0  0  0  0  0  0  0  0  0
  149.7170  141.1834  159.1090 H   0  0  0  0  0  0  0  0  0  0  0  0
  150.9631  143.4019  159.5785 H   0  0  0  0  0  0  0  0  0  0  0  0
  149.4887  144.2544  159.1039 H   0  0  0  0  0  0  0  0  0  0  0  0
  151.0051  144.5994  158.2783 H   0  0  0  0  0  0  0  0  0  0  0  0
  151.9518  142.9818  156.7231 H   0  0  0  0  0  0  0  0  0  0  0  0
  151.9345  141.6878  157.9054 H   0  0  0  0  0  0  0  0  0  0  0  0
  151.9136  140.7588  155.6129 H   0  0  0  0  0  0  0  0  0  0  0  0
  150.5105  141.7160  155.1999 H   0  0  0  0  0  0  0  0  0  0  0  0
  149.6024  143.1973  156.9895 H   0  0  0  0  0  0  0  0  0  0  0  0
  1  2  1  0  0  0  0
  1 30  1  0  0  0  0
  1 31  1  0  0  0  0
  1 32  1  0  0  0  0
  2  3  1  0  0  0  0
  2  4  1  0  0  0  0
  2 33  1  0  0  0  0
  3 34  1  0  0  0  0
  3 35  1  0  0  0  0
  3 36  1  0  0  0  0
  4  5  1  0  0  0  0
  4 37  1  0  0  0  0
  4 38  1  0  0  0  0
  5  6  1  0  0  0  0
  5 23  1  0  0  0  0
  6 11  1  0  0  0  0
  6  7  2  0  0  0  0
  7  8  1  0  0  0  0
  8  9  2  0  0  0  0
  8 39  1  0  0  0  0
  9 10  1  0  0  0  0
 10 14  1  0  0  0  0
 10 11  2  0  0  0  0
 11 12  1  0  0  0  0
 12 13  2  0  0  0  0
 13 14  1  0  0  0  0
 13 40  1  0  0  0  0
 14 15  1  0  0  0  0
 15 16  1  0  0  0  0
 15 41  1  0  0  0  0
 15 42  1  0  0  0  0
 16 21  1  0  0  0  0
 16 17  1  0  0  0  0
 16 18  1  0  0  0  0
 17 43  1  0  0  0  0
 18 19  1  0  0  0  0
 18 44  1  0  0  0  0
 18 45  1  0  0  0  0
 19 20  1  0  0  0  0
 19 46  1  0  0  0  0
 19 47  1  0  0  0  0
 20 21  1  0  0  0  0
 21 22  1  0  0  0  0
 21 48  1  0  0  0  0
 22 49  1  0  0  0  0
 22 50  1  0  0  0  0
 22 51  1  0  0  0  0
 23 29  1  0  0  0  0
 23 24  1  0  0  0  0
 23 52  1  0  0  0  0
 24 25  1  0  0  0  0
 24 53  1  0  0  0  0
 24 54  1  0  0  0  0
 25 26  1  0  0  0  0
 25 55  1  0  0  0  0
 25 56  1  0  0  0  0
 26 27  1  0  0  0  0
 26 28  1  0  0  0  0
 26 64  1  0  0  0  0
 27 57  1  0  0  0  0
 27 58  1  0  0  0  0
 27 59  1  0  0  0  0
 28 29  1  0  0  0  0
 28 60  1  0  0  0  0
 28 61  1  0  0  0  0
 29 62  1  0  0  0  0
 29 63  1  0  0  0  0
M  CHG  1  26   1
M  END
> <s_m_source_file>
AV-unprocessed.smi

> <i_m_source_file_index>
81

> <i_lp_mmshare_version>
43012

> <i_f3d_flags>
0

> <s_epik_input>
W0NIMl0xW0NIMl1OKFtDSDNdKVtDSDJdW0NIMl1bQ0hdMU4oW0NIMl1bQ0hdKFtDSDNdKVtDSDNdKWMobltjSF1uMiljKGMyMyluW2NIXW4zW0NIMl1bQ0BAXTQoW09IXSlbQ0gyXVtDSDJdT1tDQEhdNFtDSDNd

> <s_epik_cmdline>
J2VwaWtfcHl0aG9uJywgJy1waCcsICc3LjAnLCAnLXRuJywgJzgnLCAnLW1hJywgJzIwMCcsICctbWV0YWxfYmluZGluZycsICctaW1hZScsICc8aW5maWxlLm1hZT4nLCAnLW9tYWUnLCAnPG91dGZpbGUubWFlPic=

> <r_lp_tautomer_probability>
1

> <r_epik_Ionization_Penalty>
0.00272708

> <r_epik_Ionization_Penalty_Charging>
0.00158983

> <r_epik_Ionization_Penalty_Neutral>
0.00113725

> <r_epik_State_Penalty>
-0

> <r_epik_Charging_Adjusted_Penalty>
0.00158983

> <i_epik_Tot_Q>
1

> <i_epik_Tot_abs_Q>
1

> <r_epik_Metal_State_Penalty>
-0

> <b_epik_Metal_Only>
0

> <s_lp_Force_Field>
OPLS_2005

> <r_lp_Energy>
46.4423

> <b_lp_Chiralities_Consistent>
1

> <s_lp_Variant>
AV-unprocessed.smi:81-4

> <Gold.Version>
5.8.1

> <Gold.Id.Protein>
6NUR|6NUR_protein|mol2

> <Gold.PLP.Fitness>
43.7059

> <Gold.PLP.PLP>
-40.2144

> <Gold.PLP.part.hbond>
-1.0000

> <Gold.PLP.part.metal>
0.0000

> <Gold.PLP.part.buried>
-3.1676

> <Gold.PLP.part.nonpolar>
-34.5023

> <Gold.PLP.part.repulsive>
0.1524

> <Gold.PLP.ligand.clash>
0.0000

> <Gold.PLP.ligand.torsion>
1.6885

> <Gold.PLP.Chemscore.Hbond>
2.0000

> <Gold.PLP.Chemscore.CHOScore>
0.0000

> <Gold.PLP.Chemscore.Metal>
0.0000

> <Gold.Chemscore.Hbonds>
donor molecule, donor type, donor heavy atom, donor atom, acceptor molecule, acceptor atom, score
      L1  H    26    64       P1  8028  1.46

> <Gold.PLP.Chemscore.Internal.Correction>
0.8684

> <Gold.Rescore>
     Score         DG    S(hbond)    S(metal)    S(lipo)     H(rot)  DE(clash)    DE(int)     intcor
     11.19     -14.48       0.98        0.00     105.28       2.58       0.24       3.05       ----

> <Gold.Chemscore.Fitness>
11.1919

> <Gold.Chemscore.DG>
-14.4835

> <Gold.Chemscore.ZeroCoef>
-5.4800

> <Gold.Chemscore.Hbond>
0.9832

> <Gold.Chemscore.Metal>
0.0000

> <Gold.Chemscore.Lipo>
105.2821

> <Gold.Chemscore.Internal_Hbond>
0.0000

> <Gold.Chemscore.DEClash>
0.2421

> <Gold.Chemscore.DEInternal>
3.0495

> <Gold.Chemscore.Rot>
2.5774

> <Gold.Chemscore.Internal.Correction>
   9.000000E+99

> <Gold.Chemscore.Hbonds>
donor molecule, donor type, donor heavy atom, donor atom, acceptor molecule, acceptor atom, score
      L1  H    26    64       P1  8028  0.72

> <Gold.Chemscore.Hbond.Weighted>
-3.2838

> <Gold.Chemscore.Metal.Weighted>
-0.0000

> <Gold.Chemscore.Lipo.Weighted>
-12.3180

> <Gold.Chemscore.Internal_Hbond.Weighted>
0.0000

> <Gold.Chemscore.DEClash.Weighted>
0.2421

> <Gold.Chemscore.DEInternal.Weighted>
3.0495

> <Gold.Chemscore.Rot.Weighted>
6.5982

> <Gold.Chemscore.Internal.Correction.Weighted>
   9.000000E+99

> <Gold.Protein.RotatedTorsions>
[ 6907 6896 6895 6894 ] final -177.82 input  -60.11 | X-H torsion
[ 7974 7965 7964 7962 ] final   70.89 input  175.53 | X-H torsion
[ 8008 7997 7996 7995 ] final -142.05 input   59.86 | X-H torsion
[ 10167 10162 10161 10158 ] final  135.12 input  -65.29 | X-H torsion
[ 10718 10713 10712 10709 ] final  133.28 input   66.30 | X-H torsion
[ 10763 10752 10751 10750 ] final -159.28 input  -60.55 | X-H torsion
[ 11005 11000 10999 10996 ] final   29.79 input  -57.11 | X-H torsion

> <Gold.Protein.ActiveResidues>
 VAL166  LYS551  ARG553  GLY616  TRP617  ASP618  TYR619  PRO620  LYS621  CYS622 
 ASP623  PHE694  ASN695  SER759  ASP760  ASP761  ALA762  ILE779  LEU786  VAL792 
 PHE793  MET794  SER795  GLU796  ALA797  LYS798  CYS799  TRP800  GLU811  SER814 

> <Gold.Protein.RotatedAtoms>
  151.6272  133.3334  159.3100 H   0  0  0  0  0  0  0  0  0  0  0  0  # atno 6907 bound_to 6896
  150.8075  134.7213  159.6669 H   0  0  0  0  0  0  0  0  0  0  0  0  # atno 6908 bound_to 6896
  152.4171  134.6027  160.0056 H   0  0  0  0  0  0  0  0  0  0  0  0  # atno 6909 bound_to 6896
  145.7725  139.2850  143.1312 H   0  0  0  0  0  0  0  0  0  0  0  0  # atno 7974 bound_to 7965
  155.4878  140.0565  157.2958 H   0  0  0  0  0  0  0  0  0  0  0  0  # atno 8008 bound_to 7997
  154.4635  140.2007  156.0132 H   0  0  0  0  0  0  0  0  0  0  0  0  # atno 8009 bound_to 7997
  156.0933  140.3230  155.7848 H   0  0  0  0  0  0  0  0  0  0  0  0  # atno 8010 bound_to 7997
  139.5229  144.6533  151.5238 H   0  0  0  0  0  0  0  0  0  0  0  0  # atno 10167 bound_to 10162
  157.4788  131.1084  150.9708 H   0  0  0  0  0  0  0  0  0  0  0  0  # atno 10718 bound_to 10713
  154.7487  135.3087  154.8597 H   0  0  0  0  0  0  0  0  0  0  0  0  # atno 10763 bound_to 10752
  153.9390  135.6777  153.4748 H   0  0  0  0  0  0  0  0  0  0  0  0  # atno 10764 bound_to 10752
  153.1083  135.4878  154.8918 H   0  0  0  0  0  0  0  0  0  0  0  0  # atno 10765 bound_to 10752
  140.3012  134.2754  155.7753 H   0  0  0  0  0  0  0  0  0  0  0  0  # atno 11005 bound_to 11000
  146.0155  140.8396  142.9949 LP  0  0  0  0  0  0  0  0  0  0  0  0  # atno 17320 bound_to 7965
  144.6810  140.2552  143.7326 LP  0  0  0  0  0  0  0  0  0  0  0  0  # atno 17321 bound_to 7965
  140.6347  143.9007  150.6637 LP  0  0  0  0  0  0  0  0  0  0  0  0  # atno 17342 bound_to 10162
  140.2322  143.3727  152.1556 LP  0  0  0  0  0  0  0  0  0  0  0  0  # atno 17343 bound_to 10162
  157.0448  130.5763  149.5361 LP  0  0  0  0  0  0  0  0  0  0  0  0  # atno 17370 bound_to 10713
  156.0111  130.5202  150.7990 LP  0  0  0  0  0  0  0  0  0  0  0  0  # atno 17371 bound_to 10713
  141.2127  133.7647  156.9769 LP  0  0  0  0  0  0  0  0  0  0  0  0  # atno 17394 bound_to 11000
  140.1108  134.9478  157.2062 LP  0  0  0  0  0  0  0  0  0  0  0  0  # atno 17395 bound_to 11000

$$$$
