AV-unprocessed.smi:653|AV-procd|sdf|3206|dock9
  -GOLD-   22720 0143D 1   1.00000     0.00000
 Structure written by MMmdl.
 44 45  0  0  0  0  0  0  0  0  1 V2000
  151.0134  145.3880  160.2653 C   0  0  0  0  0  0  0  0  0  0  0  0
  151.8153  144.1059  160.3530 C   0  0  0  0  0  0  0  0  0  0  0  0
  152.1942  143.4152  159.1830 C   0  0  0  0  0  0  0  0  0  0  0  0
  152.9375  142.2269  159.3165 C   0  0  0  0  0  0  0  0  0  0  0  0
  153.2705  141.7741  160.6100 C   0  0  0  0  0  0  0  0  0  0  0  0
  154.0703  140.4985  160.8084 C   0  0  0  0  0  0  0  0  0  0  0  0
  153.9619  139.5894  159.5814 C   0  0  0  0  0  0  0  0  0  0  0  0
  154.9524  139.3660  158.8848 O   0  0  0  0  0  0  0  0  0  0  0  0
  152.7500  139.0736  159.3262 N   0  0  0  0  0  0  0  0  0  0  0  0
  152.4336  138.1856  158.2124 C   0  0  0  0  0  0  0  0  0  0  0  0
  150.9168  138.1484  157.8967 C   0  0  2  0  0  0  0  0  0  0  0  0
  150.2492  136.8716  158.3902 C   0  0  0  0  0  0  0  0  0  0  0  0
  150.4318  135.8971  157.2234 C   0  0  0  0  0  0  0  0  0  0  0  0
  150.8133  136.6902  156.1027 O   0  0  0  0  0  0  0  0  0  0  0  0
  150.5800  138.0608  156.3983 C   0  0  2  0  0  0  0  0  0  0  0  0
  151.3548  138.9920  155.4378 C   0  0  0  0  0  0  0  0  0  0  0  0
  152.8050  138.5206  155.2325 C   0  0  0  0  0  0  0  0  0  0  0  0
  151.3437  140.4422  155.9478 C   0  0  0  0  0  0  0  0  0  0  0  0
  152.8405  142.5387  161.7156 C   0  0  0  0  0  0  0  0  0  0  0  0
  152.1279  143.6796  161.5970 N   0  0  0  0  0  0  0  0  0  0  0  0
  151.2416  145.9251  159.3442 H   0  0  0  0  0  0  0  0  0  0  0  0
  151.2362  146.0485  161.1041 H   0  0  0  0  0  0  0  0  0  0  0  0
  149.9463  145.1653  160.2769 H   0  0  0  0  0  0  0  0  0  0  0  0
  151.9231  143.7861  158.2055 H   0  0  0  0  0  0  0  0  0  0  0  0
  153.2464  141.6750  158.4410 H   0  0  0  0  0  0  0  0  0  0  0  0
  155.1124  140.7538  161.0071 H   0  0  0  0  0  0  0  0  0  0  0  0
  153.7048  139.9597  161.6834 H   0  0  0  0  0  0  0  0  0  0  0  0
  151.9921  139.3101  159.9499 H   0  0  0  0  0  0  0  0  0  0  0  0
  153.0074  138.5056  157.3425 H   0  0  0  0  0  0  0  0  0  0  0  0
  152.7930  137.1874  158.4637 H   0  0  0  0  0  0  0  0  0  0  0  0
  150.4368  139.0228  158.3378 H   0  0  0  0  0  0  0  0  0  0  0  0
  150.6531  136.4890  159.3277 H   0  0  0  0  0  0  0  0  0  0  0  0
  149.1855  137.0554  158.5470 H   0  0  0  0  0  0  0  0  0  0  0  0
  151.2183  135.1707  157.4294 H   0  0  0  0  0  0  0  0  0  0  0  0
  149.5114  135.3512  157.0145 H   0  0  0  0  0  0  0  0  0  0  0  0
  149.5104  138.2422  156.2726 H   0  0  0  0  0  0  0  0  0  0  0  0
  150.8568  138.9923  154.4681 H   0  0  0  0  0  0  0  0  0  0  0  0
  153.3545  138.5134  156.1743 H   0  0  0  0  0  0  0  0  0  0  0  0
  153.3368  139.1774  154.5436 H   0  0  0  0  0  0  0  0  0  0  0  0
  152.8495  137.5142  154.8163 H   0  0  0  0  0  0  0  0  0  0  0  0
  151.8189  140.5228  156.9259 H   0  0  0  0  0  0  0  0  0  0  0  0
  150.3262  140.8229  156.0401 H   0  0  0  0  0  0  0  0  0  0  0  0
  151.8771  141.1033  155.2642 H   0  0  0  0  0  0  0  0  0  0  0  0
  153.0756  142.2272  162.7229 H   0  0  0  0  0  0  0  0  0  0  0  0
  1  2  1  0  0  0  0
  1 21  1  0  0  0  0
  1 22  1  0  0  0  0
  1 23  1  0  0  0  0
  2 20  1  0  0  0  0
  2  3  2  0  0  0  0
  3  4  1  0  0  0  0
  3 24  1  0  0  0  0
  4  5  2  0  0  0  0
  4 25  1  0  0  0  0
  5  6  1  0  0  0  0
  5 19  1  0  0  0  0
  6  7  1  0  0  0  0
  6 26  1  0  0  0  0
  6 27  1  0  0  0  0
  7  8  2  0  0  0  0
  7  9  1  0  0  0  0
  9 10  1  0  0  0  0
  9 28  1  0  0  0  0
 10 11  1  0  0  0  0
 10 29  1  0  0  0  0
 10 30  1  0  0  0  0
 11 15  1  0  0  0  0
 11 12  1  0  0  0  0
 11 31  1  0  0  0  0
 12 13  1  0  0  0  0
 12 32  1  0  0  0  0
 12 33  1  0  0  0  0
 13 14  1  0  0  0  0
 13 34  1  0  0  0  0
 13 35  1  0  0  0  0
 14 15  1  0  0  0  0
 15 16  1  0  0  0  0
 15 36  1  0  0  0  0
 16 17  1  0  0  0  0
 16 18  1  0  0  0  0
 16 37  1  0  0  0  0
 17 38  1  0  0  0  0
 17 39  1  0  0  0  0
 17 40  1  0  0  0  0
 18 41  1  0  0  0  0
 18 42  1  0  0  0  0
 18 43  1  0  0  0  0
 19 20  2  0  0  0  0
 19 44  1  0  0  0  0
M  END
> <s_m_source_file>
AV-unprocessed.smi

> <i_m_source_file_index>
653

> <i_lp_mmshare_version>
43012

> <i_f3d_flags>
0

> <s_epik_input>
W0NIM11jMVtjSF1bY0hdYyhbY0hdbjEpW0NIMl1DKD1PKVtOSF1bQ0gyXVtDQEBIXTJbQ0gyXVtDSDJdT1tDQEhdMltDSF0oW0NIM10pW0NIM10=

> <s_epik_cmdline>
J2VwaWtfcHl0aG9uJywgJy1waCcsICc3LjAnLCAnLXRuJywgJzgnLCAnLW1hJywgJzIwMCcsICctbWV0YWxfYmluZGluZycsICctaW1hZScsICc8aW5maWxlLm1hZT4nLCAnLW9tYWUnLCAnPG91dGZpbGUubWFlPic=

> <r_epik_Ionization_Penalty>
0.0166429

> <r_epik_Ionization_Penalty_Charging>
0

> <r_epik_Ionization_Penalty_Neutral>
0.0166429

> <r_epik_State_Penalty>
0.0131478

> <r_epik_Charging_Adjusted_Penalty>
0.0131478

> <i_epik_Tot_Q>
0

> <i_epik_Tot_abs_Q>
0

> <r_epik_Metal_State_Penalty>
0.012786

> <b_epik_Metal_Only>
0

> <s_lp_Force_Field>
OPLS_2005

> <r_lp_Energy>
20.8525

> <b_lp_Chiralities_Consistent>
1

> <s_lp_Variant>
AV-unprocessed.smi:653-3

> <Gold.Version>
5.8.1

> <Gold.Id.Protein>
6NUR|6NUR_protein|mol2

> <Gold.PLP.Fitness>
43.2447

> <Gold.PLP.PLP>
-42.6559

> <Gold.PLP.part.hbond>
-1.0000

> <Gold.PLP.part.metal>
0.0000

> <Gold.PLP.part.buried>
-5.7797

> <Gold.PLP.part.nonpolar>
-36.4158

> <Gold.PLP.part.repulsive>
0.2634

> <Gold.PLP.ligand.clash>
0.0000

> <Gold.PLP.ligand.torsion>
1.2310

> <Gold.PLP.Chemscore.Hbond>
1.0000

> <Gold.PLP.Chemscore.CHOScore>
0.0000

> <Gold.PLP.Chemscore.Metal>
0.0000

> <Gold.Chemscore.Hbonds>
donor molecule, donor type, donor heavy atom, donor atom, acceptor molecule, acceptor atom, score
      P1  H  7997  8008       L1     8  1.00

> <Gold.PLP.Chemscore.Internal.Correction>
0.0508

> <Gold.Rescore>
     Score         DG    S(hbond)    S(metal)    S(lipo)     H(rot)  DE(clash)    DE(int)     intcor
     17.72     -19.09       1.00        0.00     120.36       1.48       0.00       1.37       ----

> <Gold.Chemscore.Fitness>
17.7187

> <Gold.Chemscore.DG>
-19.0932

> <Gold.Chemscore.ZeroCoef>
-5.4800

> <Gold.Chemscore.Hbond>
0.9978

> <Gold.Chemscore.Metal>
0.0000

> <Gold.Chemscore.Lipo>
120.3599

> <Gold.Chemscore.Internal_Hbond>
0.0000

> <Gold.Chemscore.DEClash>
0.0029

> <Gold.Chemscore.DEInternal>
1.3716

> <Gold.Chemscore.Rot>
1.4850

> <Gold.Chemscore.Internal.Correction>
   9.000000E+99

> <Gold.Chemscore.Hbonds>
donor molecule, donor type, donor heavy atom, donor atom, acceptor molecule, acceptor atom, score
      P1  H  7997  8008       L1     8  0.98

> <Gold.Chemscore.Hbond.Weighted>
-3.3326

> <Gold.Chemscore.Metal.Weighted>
-0.0000

> <Gold.Chemscore.Lipo.Weighted>
-14.0821

> <Gold.Chemscore.Internal_Hbond.Weighted>
0.0000

> <Gold.Chemscore.DEClash.Weighted>
0.0029

> <Gold.Chemscore.DEInternal.Weighted>
1.3716

> <Gold.Chemscore.Rot.Weighted>
3.8015

> <Gold.Chemscore.Internal.Correction.Weighted>
   9.000000E+99

> <Gold.Protein.RotatedTorsions>
[ 6907 6896 6895 6894 ] final -114.01 input  -60.11 | X-H torsion
[ 7974 7965 7964 7962 ] final -166.27 input  175.53 | X-H torsion
[ 8008 7997 7996 7995 ] final -117.11 input   59.86 | X-H torsion
[ 10167 10162 10161 10158 ] final -140.39 input  -65.29 | X-H torsion
[ 10718 10713 10712 10709 ] final   88.95 input   66.30 | X-H torsion
[ 10763 10752 10751 10750 ] final  145.34 input  -60.55 | X-H torsion
[ 11005 11000 10999 10996 ] final   63.27 input  -57.11 | X-H torsion

> <Gold.Protein.ActiveResidues>
 VAL166  LYS551  ARG553  GLY616  TRP617  ASP618  TYR619  PRO620  LYS621  CYS622 
 ASP623  PHE694  ASN695  SER759  ASP760  ASP761  ALA762  ILE779  LEU786  VAL792 
 PHE793  MET794  SER795  GLU796  ALA797  LYS798  CYS799  TRP800  GLU811  SER814 

> <Gold.Protein.RotatedAtoms>
  150.7871  133.8862  159.3299 H   0  0  0  0  0  0  0  0  0  0  0  0  # atno 6907 bound_to 6896
  151.6710  135.0974  160.0207 H   0  0  0  0  0  0  0  0  0  0  0  0  # atno 6908 bound_to 6896
  152.3937  133.6677  159.6294 H   0  0  0  0  0  0  0  0  0  0  0  0  # atno 6909 bound_to 6896
  144.7249  140.2691  143.6253 H   0  0  0  0  0  0  0  0  0  0  0  0  # atno 7974 bound_to 7965
  155.0785  140.0394  157.2631 H   0  0  0  0  0  0  0  0  0  0  0  0  # atno 8008 bound_to 7997
  154.6925  140.2656  155.6773 H   0  0  0  0  0  0  0  0  0  0  0  0  # atno 8009 bound_to 7997
  156.2733  140.2756  156.1508 H   0  0  0  0  0  0  0  0  0  0  0  0  # atno 8010 bound_to 7997
  139.8286  143.7477  152.2666 H   0  0  0  0  0  0  0  0  0  0  0  0  # atno 10167 bound_to 10162
  157.6952  131.0314  150.3352 H   0  0  0  0  0  0  0  0  0  0  0  0  # atno 10718 bound_to 10713
  154.0038  135.2921  155.3400 H   0  0  0  0  0  0  0  0  0  0  0  0  # atno 10763 bound_to 10752
  154.7144  135.5136  153.8718 H   0  0  0  0  0  0  0  0  0  0  0  0  # atno 10764 bound_to 10752
  153.0754  135.6661  154.0277 H   0  0  0  0  0  0  0  0  0  0  0  0  # atno 10765 bound_to 10752
  140.0036  134.6404  155.9891 H   0  0  0  0  0  0  0  0  0  0  0  0  # atno 11005 bound_to 11000
  145.8061  139.1984  143.2020 LP  0  0  0  0  0  0  0  0  0  0  0  0  # atno 17320 bound_to 7965
  146.0636  140.7945  142.9723 LP  0  0  0  0  0  0  0  0  0  0  0  0  # atno 17321 bound_to 7965
  139.7677  144.7486  151.0269 LP  0  0  0  0  0  0  0  0  0  0  0  0  # atno 17342 bound_to 10162
  140.7808  143.4679  151.0187 LP  0  0  0  0  0  0  0  0  0  0  0  0  # atno 17343 bound_to 10162
  156.3820  130.3882  149.7094 LP  0  0  0  0  0  0  0  0  0  0  0  0  # atno 17370 bound_to 10713
  156.4473  130.7890  151.2911 LP  0  0  0  0  0  0  0  0  0  0  0  0  # atno 17371 bound_to 10713
  141.1660  133.6537  156.4482 LP  0  0  0  0  0  0  0  0  0  0  0  0  # atno 17394 bound_to 11000
  140.4682  134.6777  157.5117 LP  0  0  0  0  0  0  0  0  0  0  0  0  # atno 17395 bound_to 11000

$$$$
