AV-unprocessed.smi:2706|AV-procd|sdf|10444|dock1
  -GOLD-   2272014483D 1   1.00000     0.00000
 Structure written by MMmdl.
 43 46  0  0  0  0  0  0  0  0  1 V2000
  148.4402  136.7044  155.7521 C   0  0  0  0  0  0  0  0  0  0  0  0
  147.5225  137.0880  154.6867 N   0  0  0  0  0  0  0  0  0  0  0  0
  146.6014  136.1033  154.1277 C   0  0  0  0  0  0  0  0  0  0  0  0
  147.4840  138.4244  154.2278 C   0  0  0  0  0  0  0  0  0  0  0  0
  146.8325  138.7761  153.0211 C   0  0  0  0  0  0  0  0  0  0  0  0
  146.8303  140.1230  152.6165 C   0  0  0  0  0  0  0  0  0  0  0  0
  147.4748  141.0784  153.4221 C   0  0  0  0  0  0  0  0  0  0  0  0
  148.1043  140.6619  154.6138 C   0  0  0  0  0  0  0  0  0  0  0  0
  148.7296  141.6952  155.3611 N   0  0  0  0  0  0  0  0  0  0  0  0
  149.5233  141.5767  156.4404 C   0  0  0  0  0  0  0  0  0  0  0  0
  149.8366  140.5151  156.9807 O   0  0  0  0  0  0  0  0  0  0  0  0
  149.9390  142.7773  156.8671 N   0  0  0  0  0  0  0  0  0  0  0  0
  150.7834  143.0115  157.9933 C   0  0  2  0  0  0  0  0  0  0  0  0
  150.3547  144.0993  158.9568 C   0  0  1  0  0  0  0  0  0  0  0  0
  150.9400  144.3891  160.3369 C   0  0  1  0  0  0  0  0  0  0  0  0
  151.9214  143.2818  160.7733 C   0  0  0  0  0  0  0  0  0  0  0  0
  153.1228  143.5104  159.8292 C   0  0  0  0  0  0  0  0  0  0  0  0
  152.6588  144.7164  158.9860 C   0  0  2  0  0  0  0  0  0  0  0  0
  151.9085  145.5289  160.0366 C   0  0  0  0  0  0  0  0  0  0  0  0
  151.5359  144.3255  158.0282 C   0  0  1  0  0  0  0  0  0  0  0  0
  148.0985  139.3605  154.9911 N   0  0  0  0  0  0  0  0  0  0  0  0
  149.4734  136.8683  155.4450 H   0  0  0  0  0  0  0  0  0  0  0  0
  148.3331  135.6500  156.0073 H   0  0  0  0  0  0  0  0  0  0  0  0
  148.2457  137.2860  156.6538 H   0  0  0  0  0  0  0  0  0  0  0  0
  146.7456  136.0113  153.0507 H   0  0  0  0  0  0  0  0  0  0  0  0
  145.5678  136.3969  154.3138 H   0  0  0  0  0  0  0  0  0  0  0  0
  146.7538  135.1185  154.5693 H   0  0  0  0  0  0  0  0  0  0  0  0
  146.3367  138.0445  152.4012 H   0  0  0  0  0  0  0  0  0  0  0  0
  146.3411  140.4189  151.7004 H   0  0  0  0  0  0  0  0  0  0  0  0
  147.4825  142.1170  153.1247 H   0  0  0  0  0  0  0  0  0  0  0  0
  148.5530  142.6336  155.0348 H   0  0  0  0  0  0  0  0  0  0  0  0
  149.6301  143.5928  156.3586 H   0  0  0  0  0  0  0  0  0  0  0  0
  151.2761  142.1366  158.4103 H   0  0  0  0  0  0  0  0  0  0  0  0
  149.4544  144.6628  158.7172 H   0  0  0  0  0  0  0  0  0  0  0  0
  150.1694  144.6210  161.0724 H   0  0  0  0  0  0  0  0  0  0  0  0
  152.2224  143.4215  161.8125 H   0  0  0  0  0  0  0  0  0  0  0  0
  151.4922  142.2832  160.6880 H   0  0  0  0  0  0  0  0  0  0  0  0
  154.0150  143.7622  160.4039 H   0  0  0  0  0  0  0  0  0  0  0  0
  153.3611  142.6386  159.2193 H   0  0  0  0  0  0  0  0  0  0  0  0
  153.4656  145.2487  158.4816 H   0  0  0  0  0  0  0  0  0  0  0  0
  151.4183  146.4143  159.6274 H   0  0  0  0  0  0  0  0  0  0  0  0
  152.5235  145.8210  160.8900 H   0  0  0  0  0  0  0  0  0  0  0  0
  151.3669  145.0276  157.2134 H   0  0  0  0  0  0  0  0  0  0  0  0
  1  2  1  0  0  0  0
  1 22  1  0  0  0  0
  1 23  1  0  0  0  0
  1 24  1  0  0  0  0
  2  3  1  0  0  0  0
  2  4  1  0  0  0  0
  3 25  1  0  0  0  0
  3 26  1  0  0  0  0
  3 27  1  0  0  0  0
  4 21  1  0  0  0  0
  4  5  2  0  0  0  0
  5  6  1  0  0  0  0
  5 28  1  0  0  0  0
  6  7  2  0  0  0  0
  6 29  1  0  0  0  0
  7  8  1  0  0  0  0
  7 30  1  0  0  0  0
  8  9  1  0  0  0  0
  8 21  2  0  0  0  0
  9 10  1  0  0  0  0
  9 31  1  0  0  0  0
 10 11  2  0  0  0  0
 10 12  1  0  0  0  0
 12 13  1  0  0  0  0
 12 32  1  0  0  0  0
 13 20  1  0  0  0  0
 13 14  1  0  0  0  0
 13 33  1  0  0  0  0
 14 20  1  0  0  0  0
 14 15  1  0  0  0  0
 14 34  1  0  0  0  0
 15 19  1  0  0  0  0
 15 16  1  0  0  0  0
 15 35  1  0  0  0  0
 16 17  1  0  0  0  0
 16 36  1  0  0  0  0
 16 37  1  0  0  0  0
 17 18  1  0  0  0  0
 17 38  1  0  0  0  0
 17 39  1  0  0  0  0
 18 19  1  0  0  0  0
 18 20  1  0  0  0  0
 18 40  1  0  0  0  0
 19 41  1  0  0  0  0
 19 42  1  0  0  0  0
 20 43  1  0  0  0  0
M  END
> <s_m_source_file>
AV-unprocessed.smi

> <i_m_source_file_index>
2706

> <i_lp_mmshare_version>
43012

> <i_f3d_flags>
0

> <s_epik_input>
W0NIM11OKFtDSDNdKWMxW2NIXVtjSF1bY0hdYyhuMSlbTkhdQyg9TylbTkhdW0NASF0yW0NAQEhdM1tDQEBIXShbQ0gyXTQpW0NIMl1bQ0gyXVtDQEBIXTRbQ0BIXTIz

> <s_epik_cmdline>
J2VwaWtfcHl0aG9uJywgJy1waCcsICc3LjAnLCAnLXRuJywgJzgnLCAnLW1hJywgJzIwMCcsICctbWV0YWxfYmluZGluZycsICctaW1hZScsICc8aW5maWxlLm1hZT4nLCAnLW9tYWUnLCAnPG91dGZpbGUubWFlPic=

> <r_lp_tautomer_probability>
1

> <r_epik_Ionization_Penalty>
0.0296788

> <r_epik_Ionization_Penalty_Charging>
0

> <r_epik_Ionization_Penalty_Neutral>
0.0296788

> <r_epik_State_Penalty>
0.0248512

> <r_epik_Charging_Adjusted_Penalty>
0.0248512

> <i_epik_Tot_Q>
0

> <i_epik_Tot_abs_Q>
0

> <r_epik_Metal_State_Penalty>
0.0237882

> <b_epik_Metal_Only>
0

> <s_lp_Force_Field>
OPLS_2005

> <r_lp_Energy>
79.5337

> <b_lp_Chiralities_Consistent>
1

> <s_lp_Variant>
AV-unprocessed.smi:2706-1

> <Gold.Version>
5.8.1

> <Gold.Id.Protein>
6NUR|6NUR_protein|mol2

> <Gold.PLP.Fitness>
42.8073

> <Gold.PLP.PLP>
-39.0200

> <Gold.PLP.part.hbond>
-1.9344

> <Gold.PLP.part.metal>
0.0000

> <Gold.PLP.part.buried>
-4.1317

> <Gold.PLP.part.nonpolar>
-34.4292

> <Gold.PLP.part.repulsive>
0.2373

> <Gold.PLP.ligand.clash>
0.0000

> <Gold.PLP.ligand.torsion>
0.3450

> <Gold.PLP.Chemscore.Hbond>
1.4789

> <Gold.PLP.Chemscore.CHOScore>
0.0000

> <Gold.PLP.Chemscore.Metal>
0.0000

> <Gold.Chemscore.Hbonds>
donor molecule, donor type, donor heavy atom, donor atom, acceptor molecule, acceptor atom, score
      L1  H     9    31       P1  8028  0.50
      L1  H    12    32       P1  8028  0.98

> <Gold.PLP.Chemscore.Internal.Correction>
0.0406

> <Gold.Rescore>
     Score         DG    S(hbond)    S(metal)    S(lipo)     H(rot)  DE(clash)    DE(int)     intcor
     21.13     -22.98       1.94        0.00     116.02       1.00       0.30       1.56       ----

> <Gold.Chemscore.Fitness>
21.1262

> <Gold.Chemscore.DG>
-22.9832

> <Gold.Chemscore.ZeroCoef>
-5.4800

> <Gold.Chemscore.Hbond>
1.9428

> <Gold.Chemscore.Metal>
0.0000

> <Gold.Chemscore.Lipo>
116.0198

> <Gold.Chemscore.Internal_Hbond>
0.0000

> <Gold.Chemscore.DEClash>
0.2963

> <Gold.Chemscore.DEInternal>
1.5607

> <Gold.Chemscore.Rot>
1.0000

> <Gold.Chemscore.Internal.Correction>
   9.000000E+99

> <Gold.Chemscore.Hbonds>
donor molecule, donor type, donor heavy atom, donor atom, acceptor molecule, acceptor atom, score
      L1  H     9    31       P1  8028  0.49
      L1  H    12    32       P1  8028  0.91

> <Gold.Chemscore.Hbond.Weighted>
-6.4889

> <Gold.Chemscore.Metal.Weighted>
-0.0000

> <Gold.Chemscore.Lipo.Weighted>
-13.5743

> <Gold.Chemscore.Internal_Hbond.Weighted>
0.0000

> <Gold.Chemscore.DEClash.Weighted>
0.2963

> <Gold.Chemscore.DEInternal.Weighted>
1.5607

> <Gold.Chemscore.Rot.Weighted>
2.5600

> <Gold.Chemscore.Internal.Correction.Weighted>
   9.000000E+99

> <Gold.Protein.RotatedTorsions>
[ 6907 6896 6895 6894 ] final -138.85 input  -60.11 | X-H torsion
[ 7974 7965 7964 7962 ] final -136.44 input  175.53 | X-H torsion
[ 8008 7997 7996 7995 ] final   24.68 input   59.86 | X-H torsion
[ 10167 10162 10161 10158 ] final -117.03 input  -65.29 | X-H torsion
[ 10718 10713 10712 10709 ] final   -7.20 input   66.30 | X-H torsion
[ 10763 10752 10751 10750 ] final -130.35 input  -60.55 | X-H torsion
[ 11005 11000 10999 10996 ] final    0.58 input  -57.11 | X-H torsion

> <Gold.Protein.ActiveResidues>
 VAL166  LYS551  ARG553  GLY616  TRP617  ASP618  TYR619  PRO620  LYS621  CYS622 
 ASP623  PHE694  ASN695  SER759  ASP760  ASP761  ALA762  ILE779  LEU786  VAL792 
 PHE793  MET794  SER795  GLU796  ALA797  LYS798  CYS799  TRP800  GLU811  SER814 

> <Gold.Protein.RotatedAtoms>
  151.0403  133.5712  159.2651 H   0  0  0  0  0  0  0  0  0  0  0  0  # atno 6907 bound_to 6896
  151.2761  135.0699  159.9162 H   0  0  0  0  0  0  0  0  0  0  0  0  # atno 6908 bound_to 6896
  152.5363  134.0125  159.7999 H   0  0  0  0  0  0  0  0  0  0  0  0  # atno 6909 bound_to 6896
  144.8927  140.6664  143.5135 H   0  0  0  0  0  0  0  0  0  0  0  0  # atno 7974 bound_to 7965
  154.9999  140.3124  155.4871 H   0  0  0  0  0  0  0  0  0  0  0  0  # atno 8008 bound_to 7997
  156.2926  140.2233  156.5050 H   0  0  0  0  0  0  0  0  0  0  0  0  # atno 8009 bound_to 7997
  154.7627  140.0458  157.0975 H   0  0  0  0  0  0  0  0  0  0  0  0  # atno 8010 bound_to 7997
  140.0727  143.4862  152.1970 H   0  0  0  0  0  0  0  0  0  0  0  0  # atno 10167 bound_to 10162
  156.7207  130.5150  149.5869 H   0  0  0  0  0  0  0  0  0  0  0  0  # atno 10718 bound_to 10713
  154.8755  135.3865  154.4068 H   0  0  0  0  0  0  0  0  0  0  0  0  # atno 10763 bound_to 10752
  153.4787  135.7030  153.5956 H   0  0  0  0  0  0  0  0  0  0  0  0  # atno 10764 bound_to 10752
  153.4381  135.3862  155.2179 H   0  0  0  0  0  0  0  0  0  0  0  0  # atno 10765 bound_to 10752
  140.6249  133.9627  155.8244 H   0  0  0  0  0  0  0  0  0  0  0  0  # atno 11005 bound_to 11000
  145.3754  139.1649  143.4309 LP  0  0  0  0  0  0  0  0  0  0  0  0  # atno 17320 bound_to 7965
  146.3063  140.3830  142.8686 LP  0  0  0  0  0  0  0  0  0  0  0  0  # atno 17321 bound_to 7965
  139.5826  144.7517  151.3601 LP  0  0  0  0  0  0  0  0  0  0  0  0  # atno 17342 bound_to 10162
  140.7117  143.7372  150.7580 LP  0  0  0  0  0  0  0  0  0  0  0  0  # atno 17343 bound_to 10162
  156.1597  130.6365  151.0702 LP  0  0  0  0  0  0  0  0  0  0  0  0  # atno 17370 bound_to 10713
  157.6899  131.0813  150.7137 LP  0  0  0  0  0  0  0  0  0  0  0  0  # atno 17371 bound_to 10713
  141.0716  134.0197  157.3518 LP  0  0  0  0  0  0  0  0  0  0  0  0  # atno 17394 bound_to 11000
  139.9138  135.0194  156.7801 LP  0  0  0  0  0  0  0  0  0  0  0  0  # atno 17395 bound_to 11000

$$$$
