AV-unprocessed.smi:1829|AV-procd|sdf|7429|dock9
  -GOLD-   22720 9113D 1   1.00000     0.00000
 Structure written by MMmdl.
 45 47  0  0  0  0  0  0  0  0  1 V2000
  144.3614  144.5961  155.7719 C   0  0  0  0  0  0  0  0  0  0  0  0
  144.4135  143.2664  155.0030 C   0  0  0  0  0  0  0  0  0  0  0  0
  143.2784  142.3215  155.4280 C   0  0  0  0  0  0  0  0  0  0  0  0
  145.7761  142.5958  155.1267 C   0  0  0  0  0  0  0  0  0  0  0  0
  146.3421  142.3745  156.4005 C   0  0  0  0  0  0  0  0  0  0  0  0
  147.6036  141.7600  156.5223 C   0  0  0  0  0  0  0  0  0  0  0  0
  148.3134  141.3568  155.3720 C   0  0  0  0  0  0  0  0  0  0  0  0
  149.6797  140.7039  155.5106 C   0  0  1  0  0  0  0  0  0  0  0  0
  150.1075  140.1000  154.3052 O   0  0  0  0  0  0  0  0  0  0  0  0
  150.7356  141.7158  155.9983 C   0  0  0  0  0  0  0  0  0  0  0  0
  151.4575  141.2501  157.1753 N   0  0  0  0  0  0  0  0  0  0  0  0
  152.0192  140.0343  157.3963 C   0  0  0  0  0  0  0  0  0  0  0  0
  151.9549  138.9424  156.3658 C   0  0  0  0  0  0  0  0  0  0  0  0
  153.1995  138.6418  155.7665 O   0  0  0  0  0  0  0  0  0  0  0  0
  152.6273  139.8874  158.5764 N   0  0  0  0  0  0  0  0  0  0  0  0
  152.4412  141.1184  159.1734 C   0  0  0  0  0  0  0  0  0  0  0  0
  152.8503  141.5982  160.4383 C   0  0  0  0  0  0  0  0  0  0  0  0
  152.5408  142.9155  160.8362 C   0  0  0  0  0  0  0  0  0  0  0  0
  151.8197  143.7701  159.9772 C   0  0  0  0  0  0  0  0  0  0  0  0
  151.4027  143.3117  158.7127 C   0  0  0  0  0  0  0  0  0  0  0  0
  151.7139  141.9958  158.3210 C   0  0  0  0  0  0  0  0  0  0  0  0
  147.7497  141.5801  154.0971 C   0  0  0  0  0  0  0  0  0  0  0  0
  146.4889  142.1948  153.9756 C   0  0  0  0  0  0  0  0  0  0  0  0
  145.1411  145.2775  155.4299 H   0  0  0  0  0  0  0  0  0  0  0  0
  144.4944  144.4478  156.8439 H   0  0  0  0  0  0  0  0  0  0  0  0
  143.4025  145.0943  155.6257 H   0  0  0  0  0  0  0  0  0  0  0  0
  144.2555  143.5010  153.9495 H   0  0  0  0  0  0  0  0  0  0  0  0
  143.2905  141.4048  154.8375 H   0  0  0  0  0  0  0  0  0  0  0  0
  142.3047  142.7913  155.2858 H   0  0  0  0  0  0  0  0  0  0  0  0
  143.3586  142.0420  156.4789 H   0  0  0  0  0  0  0  0  0  0  0  0
  145.8127  142.6771  157.2921 H   0  0  0  0  0  0  0  0  0  0  0  0
  148.0247  141.6023  157.5046 H   0  0  0  0  0  0  0  0  0  0  0  0
  149.5984  139.9011  156.2447 H   0  0  0  0  0  0  0  0  0  0  0  0
  149.4712  139.4475  154.0556 H   0  0  0  0  0  0  0  0  0  0  0  0
  151.4413  141.9504  155.2016 H   0  0  0  0  0  0  0  0  0  0  0  0
  150.2509  142.6582  156.2567 H   0  0  0  0  0  0  0  0  0  0  0  0
  151.5698  138.0329  156.8267 H   0  0  0  0  0  0  0  0  0  0  0  0
  151.2551  139.2350  155.5826 H   0  0  0  0  0  0  0  0  0  0  0  0
  153.0390  138.2248  154.9340 H   0  0  0  0  0  0  0  0  0  0  0  0
  153.4031  140.9512  161.1032 H   0  0  0  0  0  0  0  0  0  0  0  0
  152.8584  143.2718  161.8052 H   0  0  0  0  0  0  0  0  0  0  0  0
  151.5867  144.7775  160.2897 H   0  0  0  0  0  0  0  0  0  0  0  0
  150.8501  143.9629  158.0518 H   0  0  0  0  0  0  0  0  0  0  0  0
  148.2851  141.2837  153.2069 H   0  0  0  0  0  0  0  0  0  0  0  0
  146.0724  142.3587  152.9925 H   0  0  0  0  0  0  0  0  0  0  0  0
  1  2  1  0  0  0  0
  1 24  1  0  0  0  0
  1 25  1  0  0  0  0
  1 26  1  0  0  0  0
  2  3  1  0  0  0  0
  2  4  1  0  0  0  0
  2 27  1  0  0  0  0
  3 28  1  0  0  0  0
  3 29  1  0  0  0  0
  3 30  1  0  0  0  0
  4 23  1  0  0  0  0
  4  5  2  0  0  0  0
  5  6  1  0  0  0  0
  5 31  1  0  0  0  0
  6  7  2  0  0  0  0
  6 32  1  0  0  0  0
  7  8  1  0  0  0  0
  7 22  1  0  0  0  0
  8  9  1  0  0  0  0
  8 10  1  0  0  0  0
  8 33  1  0  0  0  0
  9 34  1  0  0  0  0
 10 11  1  0  0  0  0
 10 35  1  0  0  0  0
 10 36  1  0  0  0  0
 11 21  1  0  0  0  0
 11 12  1  0  0  0  0
 12 13  1  0  0  0  0
 12 15  2  0  0  0  0
 13 14  1  0  0  0  0
 13 37  1  0  0  0  0
 13 38  1  0  0  0  0
 14 39  1  0  0  0  0
 15 16  1  0  0  0  0
 16 21  2  0  0  0  0
 16 17  1  0  0  0  0
 17 18  2  0  0  0  0
 17 40  1  0  0  0  0
 18 19  1  0  0  0  0
 18 41  1  0  0  0  0
 19 20  2  0  0  0  0
 19 42  1  0  0  0  0
 20 21  1  0  0  0  0
 20 43  1  0  0  0  0
 22 23  2  0  0  0  0
 22 44  1  0  0  0  0
 23 45  1  0  0  0  0
M  END
> <s_m_source_file>
AV-unprocessed.smi

> <i_m_source_file_index>
1829

> <i_lp_mmshare_version>
43012

> <i_f3d_flags>
0

> <s_epik_input>
W0NIM11bQ0hdKFtDSDNdKWMxW2NIXVtjSF1jKFtjSF1bY0hdMSlbQ0BIXShbT0hdKVtDSDJdbihjKG4yKVtDSDJdW09IXSljKGMyMylbY0hdW2NIXVtjSF1bY0hdMw==

> <s_epik_cmdline>
J2VwaWtfcHl0aG9uJywgJy1waCcsICc3LjAnLCAnLXRuJywgJzgnLCAnLW1hJywgJzIwMCcsICctbWV0YWxfYmluZGluZycsICctaW1hZScsICc8aW5maWxlLm1hZT4nLCAnLW9tYWUnLCAnPG91dGZpbGUubWFlPic=

> <r_epik_Ionization_Penalty>
0.0634718

> <r_epik_Ionization_Penalty_Charging>
0

> <r_epik_Ionization_Penalty_Neutral>
0.0634718

> <r_epik_State_Penalty>
0.0551572

> <r_epik_Charging_Adjusted_Penalty>
0.0551572

> <i_epik_Tot_Q>
0

> <i_epik_Tot_abs_Q>
0

> <r_epik_Metal_State_Penalty>
5.78034e-05

> <b_epik_Metal_Only>
0

> <s_lp_Force_Field>
OPLS_2005

> <r_lp_Energy>
13.3672

> <b_lp_Chiralities_Consistent>
1

> <s_lp_Variant>
AV-unprocessed.smi:1829-2

> <Gold.Version>
5.8.1

> <Gold.Id.Protein>
6NUR|6NUR_protein|mol2

> <Gold.PLP.Fitness>
51.0409

> <Gold.PLP.PLP>
-47.9241

> <Gold.PLP.part.hbond>
-3.5777

> <Gold.PLP.part.metal>
0.0000

> <Gold.PLP.part.buried>
-7.1538

> <Gold.PLP.part.nonpolar>
-37.0329

> <Gold.PLP.part.repulsive>
0.0000

> <Gold.PLP.ligand.clash>
0.0055

> <Gold.PLP.ligand.torsion>
1.3880

> <Gold.PLP.Chemscore.Hbond>
1.9360

> <Gold.PLP.Chemscore.CHOScore>
0.0000

> <Gold.PLP.Chemscore.Metal>
0.0000

> <Gold.Chemscore.Hbonds>
donor molecule, donor type, donor heavy atom, donor atom, acceptor molecule, acceptor atom, score
      P1  H  7989  7998       L1     9  1.00
      P1  H  7997  8009       L1    14  0.98

> <Gold.PLP.Chemscore.Internal.Correction>
0.0904

> <Gold.Rescore>
     Score         DG    S(hbond)    S(metal)    S(lipo)     H(rot)  DE(clash)    DE(int)     intcor
     16.53     -18.89       1.82        0.00     121.17       2.68       0.21       2.15       ----

> <Gold.Chemscore.Fitness>
16.5286

> <Gold.Chemscore.DG>
-18.8899

> <Gold.Chemscore.ZeroCoef>
-5.4800

> <Gold.Chemscore.Hbond>
1.8216

> <Gold.Chemscore.Metal>
0.0000

> <Gold.Chemscore.Lipo>
121.1663

> <Gold.Chemscore.Internal_Hbond>
0.0000

> <Gold.Chemscore.DEClash>
0.2077

> <Gold.Chemscore.DEInternal>
2.1536

> <Gold.Chemscore.Rot>
2.6761

> <Gold.Chemscore.Internal.Correction>
   9.000000E+99

> <Gold.Chemscore.Hbonds>
donor molecule, donor type, donor heavy atom, donor atom, acceptor molecule, acceptor atom, score
      P1  H  7989  7998       L1     9  0.88
      P1  H  7997  8009       L1    14  0.60

> <Gold.Chemscore.Hbond.Weighted>
-6.0842

> <Gold.Chemscore.Metal.Weighted>
-0.0000

> <Gold.Chemscore.Lipo.Weighted>
-14.1765

> <Gold.Chemscore.Internal_Hbond.Weighted>
0.0000

> <Gold.Chemscore.DEClash.Weighted>
0.2077

> <Gold.Chemscore.DEInternal.Weighted>
2.1536

> <Gold.Chemscore.Rot.Weighted>
6.8507

> <Gold.Chemscore.Internal.Correction.Weighted>
   9.000000E+99

> <Gold.Protein.RotatedTorsions>
[ 6907 6896 6895 6894 ] final   45.53 input  -60.11 | X-H torsion
[ 7974 7965 7964 7962 ] final  159.53 input  175.53 | X-H torsion
[ 8008 7997 7996 7995 ] final -147.59 input   59.86 | X-H torsion
[ 10167 10162 10161 10158 ] final  174.06 input  -65.29 | X-H torsion
[ 10718 10713 10712 10709 ] final -136.04 input   66.30 | X-H torsion
[ 10763 10752 10751 10750 ] final  -13.61 input  -60.55 | X-H torsion
[ 11005 11000 10999 10996 ] final  152.62 input  -57.11 | X-H torsion

> <Gold.Protein.ActiveResidues>
 VAL166  LYS551  ARG553  GLY616  TRP617  ASP618  TYR619  PRO620  LYS621  CYS622 
 ASP623  PHE694  ASN695  SER759  ASP760  ASP761  ALA762  ILE779  LEU786  VAL792 
 PHE793  MET794  SER795  GLU796  ALA797  LYS798  CYS799  TRP800  GLU811  SER814 

> <Gold.Protein.RotatedAtoms>
  152.2457  134.8184  160.0453 H   0  0  0  0  0  0  0  0  0  0  0  0  # atno 6907 bound_to 6896
  151.8882  133.3505  159.3797 H   0  0  0  0  0  0  0  0  0  0  0  0  # atno 6908 bound_to 6896
  150.7067  134.4877  159.5544 H   0  0  0  0  0  0  0  0  0  0  0  0  # atno 6909 bound_to 6896
  144.7785  139.7630  143.6269 H   0  0  0  0  0  0  0  0  0  0  0  0  # atno 7974 bound_to 7965
  155.5779  140.0640  157.2790 H   0  0  0  0  0  0  0  0  0  0  0  0  # atno 8008 bound_to 7997
  154.4341  140.1857  156.0993 H   0  0  0  0  0  0  0  0  0  0  0  0  # atno 8009 bound_to 7997
  156.0327  140.3304  155.7161 H   0  0  0  0  0  0  0  0  0  0  0  0  # atno 8010 bound_to 7997
  139.5129  144.3189  152.0221 H   0  0  0  0  0  0  0  0  0  0  0  0  # atno 10167 bound_to 10162
  156.2727  130.7275  151.1247 H   0  0  0  0  0  0  0  0  0  0  0  0  # atno 10718 bound_to 10713
  153.5158  135.7016  153.5757 H   0  0  0  0  0  0  0  0  0  0  0  0  # atno 10763 bound_to 10752
  153.3827  135.3916  155.1868 H   0  0  0  0  0  0  0  0  0  0  0  0  # atno 10764 bound_to 10752
  154.8699  135.3839  154.4643 H   0  0  0  0  0  0  0  0  0  0  0  0  # atno 10765 bound_to 10752
  140.1324  134.8793  157.2221 H   0  0  0  0  0  0  0  0  0  0  0  0  # atno 11005 bound_to 11000
  146.1980  139.5257  142.9762 LP  0  0  0  0  0  0  0  0  0  0  0  0  # atno 17320 bound_to 7965
  145.6116  141.0338  143.1963 LP  0  0  0  0  0  0  0  0  0  0  0  0  # atno 17321 bound_to 7965
  140.2632  144.4045  150.6178 LP  0  0  0  0  0  0  0  0  0  0  0  0  # atno 17342 bound_to 10162
  140.6142  143.2171  151.6825 LP  0  0  0  0  0  0  0  0  0  0  0  0  # atno 17343 bound_to 10162
  157.7289  131.0628  150.5798 LP  0  0  0  0  0  0  0  0  0  0  0  0  # atno 17370 bound_to 10713
  156.5896  130.4325  149.5942 LP  0  0  0  0  0  0  0  0  0  0  0  0  # atno 17371 bound_to 10713
  140.2825  134.3333  155.7339 LP  0  0  0  0  0  0  0  0  0  0  0  0  # atno 17394 bound_to 11000
  141.2172  133.7487  156.9385 LP  0  0  0  0  0  0  0  0  0  0  0  0  # atno 17395 bound_to 11000

$$$$
