AV-unprocessed.smi:2441|AV-procd|sdf|9620|dock6
  -GOLD-   2272013253D 1   1.00000     0.00000
 Structure written by MMmdl.
 40 41  0  0  0  0  0  0  0  0  1 V2000
  145.2088  143.4026  156.3938 C   0  0  0  0  0  0  0  0  0  0  0  0
  145.7955  142.3340  155.4554 C   0  0  1  0  0  0  0  0  0  0  0  0
  146.2332  142.9412  154.1062 C   0  0  0  0  0  0  0  0  0  0  0  0
  146.7720  141.8659  153.1491 C   0  0  0  0  0  0  0  0  0  0  0  0
  147.9197  141.0696  153.7879 C   0  0  0  0  0  0  0  0  0  0  0  0
  147.4933  140.4597  155.1345 C   0  0  0  0  0  0  0  0  0  0  0  0
  146.9426  141.5214  156.1080 C   0  0  1  0  0  0  0  0  0  0  0  0
  148.0295  142.3917  156.5625 N   0  0  0  0  0  0  0  0  0  0  0  0
  148.7164  142.2726  157.7080 C   0  0  0  0  0  0  0  0  0  0  0  0
  148.4995  141.3945  158.5424 O   0  0  0  0  0  0  0  0  0  0  0  0
  149.6642  143.2244  157.7934 N   0  0  0  0  0  0  0  0  0  0  0  0
  150.5915  143.4747  158.8202 C   0  0  0  0  0  0  0  0  0  0  0  0
  150.6393  144.6137  159.5561 C   0  0  0  0  0  0  0  0  0  0  0  0
  151.6327  144.7884  160.5878 C   0  0  0  0  0  0  0  0  0  0  0  0
  152.5154  143.8017  160.7944 C   0  0  0  0  0  0  0  0  0  0  0  0
  152.4946  142.6192  160.0377 N   0  0  0  0  0  0  0  0  0  0  0  0
  153.5214  141.6290  160.3756 C   0  0  0  0  0  0  0  0  0  0  0  0
  151.5733  142.3962  159.0515 C   0  0  0  0  0  0  0  0  0  0  0  0
  151.5688  141.3502  158.3981 O   0  0  0  0  0  0  0  0  0  0  0  0
  145.9313  144.1887  156.6143 H   0  0  0  0  0  0  0  0  0  0  0  0
  144.8959  142.9625  157.3410 H   0  0  0  0  0  0  0  0  0  0  0  0
  144.3340  143.8763  155.9478 H   0  0  0  0  0  0  0  0  0  0  0  0
  144.9889  141.6303  155.2434 H   0  0  0  0  0  0  0  0  0  0  0  0
  145.3906  143.4518  153.6385 H   0  0  0  0  0  0  0  0  0  0  0  0
  146.9980  143.7016  154.2699 H   0  0  0  0  0  0  0  0  0  0  0  0
  145.9651  141.1850  152.8752 H   0  0  0  0  0  0  0  0  0  0  0  0
  147.1129  142.3301  152.2232 H   0  0  0  0  0  0  0  0  0  0  0  0
  148.2432  140.2789  153.1104 H   0  0  0  0  0  0  0  0  0  0  0  0
  148.7826  141.7208  153.9323 H   0  0  0  0  0  0  0  0  0  0  0  0
  146.7243  139.7072  154.9551 H   0  0  0  0  0  0  0  0  0  0  0  0
  148.3328  139.9309  155.5881 H   0  0  0  0  0  0  0  0  0  0  0  0
  146.5254  140.9872  156.9634 H   0  0  0  0  0  0  0  0  0  0  0  0
  148.2825  143.1469  155.9423 H   0  0  0  0  0  0  0  0  0  0  0  0
  149.7572  143.8325  156.9926 H   0  0  0  0  0  0  0  0  0  0  0  0
  149.9547  145.4294  159.3909 H   0  0  0  0  0  0  0  0  0  0  0  0
  151.6631  145.6916  161.1793 H   0  0  0  0  0  0  0  0  0  0  0  0
  153.2905  143.8493  161.5462 H   0  0  0  0  0  0  0  0  0  0  0  0
  153.5434  140.7617  159.7149 H   0  0  0  0  0  0  0  0  0  0  0  0
  153.3640  141.2623  161.3905 H   0  0  0  0  0  0  0  0  0  0  0  0
  154.5108  142.0863  160.3349 H   0  0  0  0  0  0  0  0  0  0  0  0
  1  2  1  0  0  0  0
  1 20  1  0  0  0  0
  1 21  1  0  0  0  0
  1 22  1  0  0  0  0
  2  7  1  0  0  0  0
  2  3  1  0  0  0  0
  2 23  1  0  0  0  0
  3  4  1  0  0  0  0
  3 24  1  0  0  0  0
  3 25  1  0  0  0  0
  4  5  1  0  0  0  0
  4 26  1  0  0  0  0
  4 27  1  0  0  0  0
  5  6  1  0  0  0  0
  5 28  1  0  0  0  0
  5 29  1  0  0  0  0
  6  7  1  0  0  0  0
  6 30  1  0  0  0  0
  6 31  1  0  0  0  0
  7  8  1  0  0  0  0
  7 32  1  0  0  0  0
  8  9  1  0  0  0  0
  8 33  1  0  0  0  0
  9 10  2  0  0  0  0
  9 11  1  0  0  0  0
 11 12  1  0  0  0  0
 11 34  1  0  0  0  0
 12 18  1  0  0  0  0
 12 13  2  0  0  0  0
 13 14  1  0  0  0  0
 13 35  1  0  0  0  0
 14 15  2  0  0  0  0
 14 36  1  0  0  0  0
 15 16  1  0  0  0  0
 15 37  1  0  0  0  0
 16 17  1  0  0  0  0
 16 18  1  0  0  0  0
 17 38  1  0  0  0  0
 17 39  1  0  0  0  0
 17 40  1  0  0  0  0
 18 19  2  0  0  0  0
M  END
> <s_m_source_file>
AV-unprocessed.smi

> <i_m_source_file_index>
2441

> <i_lp_mmshare_version>
43012

> <i_f3d_flags>
0

> <s_epik_input>
W0NIM11bQ0BASF0xW0NIMl1bQ0gyXVtDSDJdW0NIMl1bQ0BIXTFbTkhdQyg9TylbTkhdYzJbY0hdW2NIXVtjSF1uKFtDSDNdKWMyPU8=

> <s_epik_cmdline>
J2VwaWtfcHl0aG9uJywgJy1waCcsICc3LjAnLCAnLXRuJywgJzgnLCAnLW1hJywgJzIwMCcsICctbWV0YWxfYmluZGluZycsICctaW1hZScsICc8aW5maWxlLm1hZT4nLCAnLW9tYWUnLCAnPG91dGZpbGUubWFlPic=

> <r_lp_tautomer_probability>
1

> <r_epik_Ionization_Penalty>
2.64999e-05

> <r_epik_Ionization_Penalty_Charging>
5.09663e-06

> <r_epik_Ionization_Penalty_Neutral>
2.14032e-05

> <r_epik_State_Penalty>
-0

> <r_epik_Charging_Adjusted_Penalty>
5.09663e-06

> <i_epik_Tot_Q>
0

> <i_epik_Tot_abs_Q>
0

> <r_epik_Metal_State_Penalty>
-0

> <b_epik_Metal_Only>
0

> <s_lp_Force_Field>
OPLS_2005

> <r_lp_Energy>
23.2252

> <b_lp_Chiralities_Consistent>
1

> <s_lp_Variant>
AV-unprocessed.smi:2441-2

> <Gold.Version>
5.8.1

> <Gold.Id.Protein>
6NUR|6NUR_protein|mol2

> <Gold.PLP.Fitness>
41.2144

> <Gold.PLP.PLP>
-37.2128

> <Gold.PLP.part.hbond>
-3.4406

> <Gold.PLP.part.metal>
0.0000

> <Gold.PLP.part.buried>
-5.2550

> <Gold.PLP.part.nonpolar>
-29.2230

> <Gold.PLP.part.repulsive>
0.0794

> <Gold.PLP.ligand.clash>
0.0000

> <Gold.PLP.ligand.torsion>
0.8950

> <Gold.PLP.Chemscore.Hbond>
1.9280

> <Gold.PLP.Chemscore.CHOScore>
0.0000

> <Gold.PLP.Chemscore.Metal>
0.0000

> <Gold.Chemscore.Hbonds>
donor molecule, donor type, donor heavy atom, donor atom, acceptor molecule, acceptor atom, score
      L1  H     8    33       P1  8028  1.00
      L1  H    11    34       P1  8028  0.93

> <Gold.PLP.Chemscore.Internal.Correction>
0.0076

> <Gold.Rescore>
     Score         DG    S(hbond)    S(metal)    S(lipo)     H(rot)  DE(clash)    DE(int)     intcor
     17.30     -18.39       1.69        0.00      84.00       1.00       0.16       0.93       ----

> <Gold.Chemscore.Fitness>
17.2997

> <Gold.Chemscore.DG>
-18.3906

> <Gold.Chemscore.ZeroCoef>
-5.4800

> <Gold.Chemscore.Hbond>
1.6893

> <Gold.Chemscore.Metal>
0.0000

> <Gold.Chemscore.Lipo>
84.0031

> <Gold.Chemscore.Internal_Hbond>
0.0000

> <Gold.Chemscore.DEClash>
0.1639

> <Gold.Chemscore.DEInternal>
0.9270

> <Gold.Chemscore.Rot>
1.0000

> <Gold.Chemscore.Internal.Correction>
   9.000000E+99

> <Gold.Chemscore.Hbonds>
donor molecule, donor type, donor heavy atom, donor atom, acceptor molecule, acceptor atom, score
      L1  H     8    33       P1  8028  0.82
      L1  H    11    34       P1  8028  0.83

> <Gold.Chemscore.Hbond.Weighted>
-5.6422

> <Gold.Chemscore.Metal.Weighted>
-0.0000

> <Gold.Chemscore.Lipo.Weighted>
-9.8284

> <Gold.Chemscore.Internal_Hbond.Weighted>
0.0000

> <Gold.Chemscore.DEClash.Weighted>
0.1639

> <Gold.Chemscore.DEInternal.Weighted>
0.9270

> <Gold.Chemscore.Rot.Weighted>
2.5600

> <Gold.Chemscore.Internal.Correction.Weighted>
   9.000000E+99

> <Gold.Protein.RotatedTorsions>
[ 6907 6896 6895 6894 ] final -167.47 input  -60.11 | X-H torsion
[ 7974 7965 7964 7962 ] final -177.82 input  175.53 | X-H torsion
[ 8008 7997 7996 7995 ] final  -51.46 input   59.86 | X-H torsion
[ 10167 10162 10161 10158 ] final  -46.24 input  -65.29 | X-H torsion
[ 10718 10713 10712 10709 ] final    3.46 input   66.30 | X-H torsion
[ 10763 10752 10751 10750 ] final -178.45 input  -60.55 | X-H torsion
[ 11005 11000 10999 10996 ] final   14.92 input  -57.11 | X-H torsion

> <Gold.Protein.ActiveResidues>
 VAL166  LYS551  ARG553  GLY616  TRP617  ASP618  TYR619  PRO620  LYS621  CYS622 
 ASP623  PHE694  ASN695  SER759  ASP760  ASP761  ALA762  ILE779  LEU786  VAL792 
 PHE793  MET794  SER795  GLU796  ALA797  LYS798  CYS799  TRP800  GLU811  SER814 

> <Gold.Protein.RotatedAtoms>
  151.4600  133.3595  159.2807 H   0  0  0  0  0  0  0  0  0  0  0  0  # atno 6907 bound_to 6896
  150.9032  134.8447  159.7385 H   0  0  0  0  0  0  0  0  0  0  0  0  # atno 6908 bound_to 6896
  152.4891  134.4523  159.9630 H   0  0  0  0  0  0  0  0  0  0  0  0  # atno 6909 bound_to 6896
  144.7129  140.0961  143.6419 H   0  0  0  0  0  0  0  0  0  0  0  0  # atno 7974 bound_to 7965
  154.4083  140.1247  156.4832 H   0  0  0  0  0  0  0  0  0  0  0  0  # atno 8008 bound_to 7997
  155.7064  140.3494  155.4935 H   0  0  0  0  0  0  0  0  0  0  0  0  # atno 8009 bound_to 7997
  155.9339  140.1074  157.1100 H   0  0  0  0  0  0  0  0  0  0  0  0  # atno 8010 bound_to 7997
  140.6825  143.2840  151.3755 H   0  0  0  0  0  0  0  0  0  0  0  0  # atno 10167 bound_to 10162
  156.8782  130.5644  149.5654 H   0  0  0  0  0  0  0  0  0  0  0  0  # atno 10718 bound_to 10713
  154.5476  135.2810  155.1039 H   0  0  0  0  0  0  0  0  0  0  0  0  # atno 10763 bound_to 10752
  154.2497  135.6341  153.5239 H   0  0  0  0  0  0  0  0  0  0  0  0  # atno 10764 bound_to 10752
  152.9994  135.5580  154.6032 H   0  0  0  0  0  0  0  0  0  0  0  0  # atno 10765 bound_to 10752
  140.4641  134.1097  155.7721 H   0  0  0  0  0  0  0  0  0  0  0  0  # atno 11005 bound_to 11000
  145.9578  139.2779  143.1174 LP  0  0  0  0  0  0  0  0  0  0  0  0  # atno 17320 bound_to 7965
  145.9253  140.9086  143.0384 LP  0  0  0  0  0  0  0  0  0  0  0  0  # atno 17321 bound_to 7965
  139.6158  144.1005  152.2344 LP  0  0  0  0  0  0  0  0  0  0  0  0  # atno 17342 bound_to 10162
  140.0434  144.5990  150.7393 LP  0  0  0  0  0  0  0  0  0  0  0  0  # atno 17343 bound_to 10162
  156.0691  130.5728  150.9347 LP  0  0  0  0  0  0  0  0  0  0  0  0  # atno 17370 bound_to 10713
  157.6156  131.0933  150.8717 LP  0  0  0  0  0  0  0  0  0  0  0  0  # atno 17371 bound_to 10713
  141.1607  133.8797  157.1854 LP  0  0  0  0  0  0  0  0  0  0  0  0  # atno 17394 bound_to 11000
  139.9926  135.0059  157.0010 LP  0  0  0  0  0  0  0  0  0  0  0  0  # atno 17395 bound_to 11000

$$$$
