#       Name:                AV-unprocessed.smi:2369
#       Creating user name   scv26
#       Creation time:       Fri Mar 27 13:06:32 2020


#       File generated by GOLD software.
#

@<TRIPOS>MOLECULE
AV-unprocessed.smi:2369
    45    46     1
SMALL
NO_CHARGES


@<TRIPOS>ATOM
      1 ****        -5.0680   3.5071   0.5121 C.3            1 S1                 0.0000
      2 ****        -4.3784   2.1607   0.4443 C.ar           1 S1                 0.0000
      3 ****        -5.1063   0.9675   0.6139 C.ar           1 S1                 0.0000
      4 ****        -4.4075  -0.2534   0.5415 C.ar           1 S1                 0.0000
      5 ****        -5.1268  -1.5743   0.7160 C.3            1 S1                 0.0000
      6 ****        -3.0777  -0.3291   0.3204 N.ar           1 S1                 0.0000
      7 ****        -2.3662   0.8136   0.1566 C.ar           1 S1                 0.0000
      8 ****        -0.9660   0.8426  -0.0803 N.am           1 S1                 0.0000
      9 ****        -0.1180  -0.1963  -0.1803 C.2            1 S1                 0.0000
     10 ****        -0.4300  -1.3836  -0.0811 O.2            1 S1                 0.0000
     11 ****         1.1366   0.2217  -0.4043 N.am           1 S1                 0.0000
     12 ****         2.2987  -0.6473  -0.5648 C.3            1 S1                 0.0000
     13 ****         2.8498  -1.0800   0.8103 C.3            1 S1                 0.0000
     14 ****         4.1210  -1.9319   0.6645 C.3            1 S1                 0.0000
     15 ****         5.1942  -1.1912  -0.1514 C.3            1 S1                 0.0000
     16 ****         6.3181  -2.0285  -0.3230 O.3            1 S1                 0.0000
     17 ****         4.6501  -0.7709  -1.5275 C.3            1 S1                 0.0000
     18 ****         3.3806   0.0837  -1.3826 C.3            1 S1                 0.0000
     19 ****        -2.9903   2.0801   0.2133 C.ar           1 S1                 0.0000
     20 ****        -6.1511   3.3993   0.4458 H              1 S1                 0.0000
     21 ****        -4.7400   4.1453  -0.3089 H              1 S1                 0.0000
     22 ****        -4.8297   4.0054   1.4520 H              1 S1                 0.0000
     23 ****        -6.1713   0.9874   0.7950 H              1 S1                 0.0000
     24 ****        -6.2080  -1.4353   0.7408 H              1 S1                 0.0000
     25 ****        -4.8214  -2.0492   1.6486 H              1 S1                 0.0000
     26 ****        -4.8908  -2.2491  -0.1074 H              1 S1                 0.0000
     27 ****        -0.5631   1.7619  -0.1841 H              1 S1                 0.0000
     28 ****         1.3013   1.2155  -0.4714 H              1 S1                 0.0000
     29 ****         1.9999  -1.5383  -1.1209 H              1 S1                 0.0000
     30 ****         3.0733  -0.1986   1.4132 H              1 S1                 0.0000
     31 ****         2.0955  -1.6455   1.3587 H              1 S1                 0.0000
     32 ****         4.5086  -2.1872   1.6514 H              1 S1                 0.0000
     33 ****         3.8682  -2.8748   0.1773 H              1 S1                 0.0000
     34 ****         5.5174  -0.3051   0.3963 H              1 S1                 0.0000
     35 ****         6.0480  -2.8013  -0.7952 H              1 S1                 0.0000
     36 ****         5.4090  -0.2130  -2.0773 H              1 S1                 0.0000
     37 ****         4.4229  -1.6562  -2.1235 H              1 S1                 0.0000
     38 ****         2.9951   0.3374  -2.3710 H              1 S1                 0.0000
     39 ****         3.6360   1.0277  -0.8988 H              1 S1                 0.0000
     40 ****        -2.4123   2.9837   0.0818 H              1 S1                 0.0000
     41 ****        -2.6224  -1.2184   0.2779 LP             1 S1                 0.0000
     42 ****        -1.3823  -1.6379   0.0877 LP             1 S1                 0.0000
     43 ****         0.2689  -2.0933  -0.1694 LP             1 S1                 0.0000
     44 ****         6.6833  -2.2898   0.5705 LP             1 S1                 0.0000
     45 ****         7.0225  -1.5450  -0.8426 LP             1 S1                 0.0000
@<TRIPOS>BOND
    1    1    2 1     
    2    1   20 1     
    3    1   21 1     
    4    1   22 1     
    5    2   19 ar    
    6    2    3 ar    
    7    3    4 ar    
    8    3   23 1     
    9    4    5 1     
   10    4    6 ar    
   11    5   24 1     
   12    5   25 1     
   13    5   26 1     
   14    6    7 ar    
   15    7    8 1     
   16    7   19 ar    
   17    8    9 am    
   18    8   27 1     
   19    9   10 2     
   20    9   11 am    
   21   11   12 1     
   22   11   28 1     
   23   12   18 1     
   24   12   13 1     
   25   12   29 1     
   26   13   14 1     
   27   13   30 1     
   28   13   31 1     
   29   14   15 1     
   30   14   32 1     
   31   14   33 1     
   32   15   16 1     
   33   15   17 1     
   34   15   34 1     
   35   16   35 1     
   36   17   18 1     
   37   17   36 1     
   38   17   37 1     
   39   18   38 1     
   40   18   39 1     
   41   19   40 1     
   42    6   41 1     
   43   10   42 1     
   44   10   43 1     
   45   16   44 1     
   46   16   45 1     
@<TRIPOS>SUBSTRUCTURE
      1 S1             1
@<TRIPOS>SET
LONE_PAIRS      STATIC     ATOMS    <user>   **** ""
5 41 42 43 44 45
DONOR_HYDROGENS      STATIC     ATOMS    <user>   **** ""
3 27 28 35
ATOM$BLUE        STATIC     ATOMS    COLORGROUP SYSTEM
5 41 42 43 44 45
ATOM$RED        STATIC     ATOMS    COLORGROUP SYSTEM
3 27 28 35
