AV-unprocessed.smi:3056|AV-procd|sdf|11645|dock2
  -GOLD-   2272017 43D 1   1.00000     0.00000
 Structure written by MMmdl.
 48 49  0  0  0  0  0  0  0  0  2 V2000
  150.5354  142.8721  157.8925 C   0  0  0  0  0  0  0  0  0  0  0  0
  150.2317  142.0235  156.6912 C   0  0  0  0  0  0  0  0  0  0  0  0
  151.1048  141.1344  156.0039 C   0  0  0  0  0  0  0  0  0  0  0  0
  150.5213  140.5307  154.9816 N   0  0  0  0  0  0  0  0  0  0  0  0
  149.2623  141.0210  154.9644 N   0  0  0  0  0  0  0  0  0  0  0  0
  148.3229  140.5349  153.9567 C   0  0  2  0  0  0  0  0  0  0  0  0
  147.0842  141.4441  153.8530 C   0  0  0  0  0  0  0  0  0  0  0  0
  147.9440  139.0421  154.1669 C   0  0  2  0  0  0  0  0  0  0  0  0
  149.0479  138.2119  154.8464 C   0  0  0  0  0  0  0  0  0  0  0  0
  147.5828  138.3954  152.8819 N   0  3  0  0  0  0  0  0  0  0  0  0
  146.2639  137.7204  152.8425 C   0  0  0  0  0  0  0  0  0  0  0  0
  146.0073  136.9553  151.5318 C   0  0  0  0  0  0  0  0  0  0  0  0
  146.5889  137.3198  150.5083 O   0  0  0  0  0  0  0  0  0  0  0  0
  145.1484  135.9079  151.5397 N   0  0  0  0  0  0  0  0  0  0  0  0
  144.4289  135.3884  152.7068 C   0  0  0  0  0  0  0  0  0  0  0  0
  144.9123  133.9521  152.9733 C   0  0  0  0  0  0  0  0  0  0  0  0
  144.6981  133.1516  151.8133 O   0  0  0  0  0  0  0  0  0  0  0  0
  145.3672  133.6435  150.6532 C   0  0  1  0  0  0  0  0  0  0  0  0
  145.0808  132.6854  149.4920 C   0  0  0  0  0  0  0  0  0  0  0  0
  144.8820  135.0781  150.3610 C   0  0  0  0  0  0  0  0  0  0  0  0
  149.0592  141.9148  155.9992 C   0  0  0  0  0  0  0  0  0  0  0  0
  151.6029  142.8976  158.1127 H   0  0  0  0  0  0  0  0  0  0  0  0
  150.0315  142.5006  158.7848 H   0  0  0  0  0  0  0  0  0  0  0  0
  150.2145  143.9039  157.7477 H   0  0  0  0  0  0  0  0  0  0  0  0
  152.1388  140.9082  156.2197 H   0  0  0  0  0  0  0  0  0  0  0  0
  148.8247  140.6293  152.9928 H   0  0  0  0  0  0  0  0  0  0  0  0
  146.4424  141.1348  153.0279 H   0  0  0  0  0  0  0  0  0  0  0  0
  147.3733  142.4793  153.6689 H   0  0  0  0  0  0  0  0  0  0  0  0
  146.4808  141.4261  154.7603 H   0  0  0  0  0  0  0  0  0  0  0  0
  147.0696  138.9996  154.8178 H   0  0  0  0  0  0  0  0  0  0  0  0
  149.3349  138.6369  155.8079 H   0  0  0  0  0  0  0  0  0  0  0  0
  149.9446  138.1429  154.2300 H   0  0  0  0  0  0  0  0  0  0  0  0
  148.7049  137.1940  155.0341 H   0  0  0  0  0  0  0  0  0  0  0  0
  147.6096  139.1059  152.1640 H   0  0  0  0  0  0  0  0  0  0  0  0
  146.1574  137.0546  153.6986 H   0  0  0  0  0  0  0  0  0  0  0  0
  145.5016  138.4944  152.9367 H   0  0  0  0  0  0  0  0  0  0  0  0
  144.5507  135.9891  153.6063 H   0  0  0  0  0  0  0  0  0  0  0  0
  143.3587  135.3876  152.4950 H   0  0  0  0  0  0  0  0  0  0  0  0
  145.9689  133.9406  153.2456 H   0  0  0  0  0  0  0  0  0  0  0  0
  144.3619  133.5171  153.8077 H   0  0  0  0  0  0  0  0  0  0  0  0
  146.4425  133.6511  150.8409 H   0  0  0  0  0  0  0  0  0  0  0  0
  145.5898  133.0073  148.5831 H   0  0  0  0  0  0  0  0  0  0  0  0
  144.0131  132.6319  149.2774 H   0  0  0  0  0  0  0  0  0  0  0  0
  145.4242  131.6773  149.7255 H   0  0  0  0  0  0  0  0  0  0  0  0
  143.8110  135.0827  150.1514 H   0  0  0  0  0  0  0  0  0  0  0  0
  145.3672  135.4550  149.4597 H   0  0  0  0  0  0  0  0  0  0  0  0
  148.1076  142.3987  156.1618 H   0  0  0  0  0  0  0  0  0  0  0  0
  148.2814  137.6974  152.6689 H   0  0  0  0  0  0  0  0  0  0  0  0
  1  2  1  0  0  0  0
  1 22  1  0  0  0  0
  1 23  1  0  0  0  0
  1 24  1  0  0  0  0
  2 21  2  0  0  0  0
  2  3  1  0  0  0  0
  3  4  2  0  0  0  0
  3 25  1  0  0  0  0
  4  5  1  0  0  0  0
  5  6  1  0  0  0  0
  5 21  1  0  0  0  0
  6  7  1  0  0  0  0
  6  8  1  0  0  0  0
  6 26  1  0  0  0  0
  7 27  1  0  0  0  0
  7 28  1  0  0  0  0
  7 29  1  0  0  0  0
  8  9  1  0  0  0  0
  8 10  1  0  0  0  0
  8 30  1  0  0  0  0
  9 31  1  0  0  0  0
  9 32  1  0  0  0  0
  9 33  1  0  0  0  0
 10 11  1  0  0  0  0
 10 34  1  0  0  0  0
 10 48  1  0  0  0  0
 11 12  1  0  0  0  0
 11 35  1  0  0  0  0
 11 36  1  0  0  0  0
 12 13  2  0  0  0  0
 12 14  1  0  0  0  0
 14 20  1  0  0  0  0
 14 15  1  0  0  0  0
 15 16  1  0  0  0  0
 15 37  1  0  0  0  0
 15 38  1  0  0  0  0
 16 17  1  0  0  0  0
 16 39  1  0  0  0  0
 16 40  1  0  0  0  0
 17 18  1  0  0  0  0
 18 19  1  0  0  0  0
 18 20  1  0  0  0  0
 18 41  1  0  0  0  0
 19 42  1  0  0  0  0
 19 43  1  0  0  0  0
 19 44  1  0  0  0  0
 20 45  1  0  0  0  0
 20 46  1  0  0  0  0
 21 47  1  0  0  0  0
M  CHG  1  10   1
M  END
> <s_m_source_file>
AV-unprocessed.smi

> <i_m_source_file_index>
3056

> <i_lp_mmshare_version>
43012

> <i_f3d_flags>
0

> <s_epik_input>
W0NIM11jMVtjSF1ubihbY0hdMSlbQ0BIXShbQ0gzXSlbQ0BIXShbQ0gzXSlbTkhdW0NIMl1DKD1PKU4yW0NIMl1bQ0gyXU9bQ0BASF0oW0NIM10pW0NIMl0y

> <s_epik_cmdline>
J2VwaWtfcHl0aG9uJywgJy1waCcsICc3LjAnLCAnLXRuJywgJzgnLCAnLW1hJywgJzIwMCcsICctbWV0YWxfYmluZGluZycsICctaW1hZScsICc8aW5maWxlLm1hZT4nLCAnLW9tYWUnLCAnPG91dGZpbGUubWFlPic=

> <r_lp_tautomer_probability>
1

> <r_epik_Ionization_Penalty>
0.233715

> <r_epik_Ionization_Penalty_Charging>
0.233698

> <r_epik_Ionization_Penalty_Neutral>
1.68157e-05

> <r_epik_State_Penalty>
0.225221

> <r_epik_Charging_Adjusted_Penalty>
0.458919

> <i_epik_Tot_Q>
1

> <i_epik_Tot_abs_Q>
1

> <r_epik_Metal_State_Penalty>
0.225535

> <b_epik_Metal_Only>
0

> <s_lp_Force_Field>
OPLS_2005

> <r_lp_Energy>
27.9094

> <b_lp_Chiralities_Consistent>
1

> <s_lp_Variant>
AV-unprocessed.smi:3056-1

> <Gold.Version>
5.8.1

> <Gold.Id.Protein>
6NUR|6NUR_protein|mol2

> <Gold.PLP.Fitness>
47.5591

> <Gold.PLP.PLP>
-36.1711

> <Gold.PLP.part.hbond>
-3.8828

> <Gold.PLP.part.metal>
0.0000

> <Gold.PLP.part.buried>
1.3667

> <Gold.PLP.part.nonpolar>
-35.3766

> <Gold.PLP.part.repulsive>
2.6397

> <Gold.PLP.ligand.clash>
0.0000

> <Gold.PLP.ligand.torsion>
1.9626

> <Gold.PLP.Chemscore.Hbond>
4.2460

> <Gold.PLP.Chemscore.CHOScore>
0.8064

> <Gold.PLP.Chemscore.Metal>
0.0000

> <Gold.Chemscore.Hbonds>
donor molecule, donor type, donor heavy atom, donor atom, acceptor molecule, acceptor atom, score
      L1  H    10    34       P1  7957  0.04
      L1  H    10    48       P1  7948  2.00
      P1  H  7954  7966       L1    13  0.94
      P1  H  7989  7998       L1     4  0.99
      L1  C    21    47       P1  8028  0.35

> <Gold.PLP.Chemscore.Internal.Correction>
0.1560

> <Gold.Rescore>
     Score         DG    S(hbond)    S(metal)    S(lipo)     H(rot)  DE(clash)    DE(int)     intcor
     16.02     -19.94       2.86        0.00      80.04       1.74       1.88       2.05       ----

> <Gold.Chemscore.Fitness>
16.0179

> <Gold.Chemscore.DG>
-19.9432

> <Gold.Chemscore.ZeroCoef>
-5.4800

> <Gold.Chemscore.Hbond>
2.8566

> <Gold.Chemscore.Metal>
0.0000

> <Gold.Chemscore.Lipo>
80.0416

> <Gold.Chemscore.Internal_Hbond>
0.0000

> <Gold.Chemscore.DEClash>
1.8766

> <Gold.Chemscore.DEInternal>
2.0487

> <Gold.Chemscore.Rot>
1.7354

> <Gold.Chemscore.Internal.Correction>
   9.000000E+99

> <Gold.Chemscore.Hbonds>
donor molecule, donor type, donor heavy atom, donor atom, acceptor molecule, acceptor atom, score
      L1  H    10    34       P1  7957  0.07
      L1  H    10    48       P1  7948  0.99
      P1  H  7954  7966       L1    13  0.91
      P1  H  7989  7998       L1     4  0.45

> <Gold.Chemscore.Hbond.Weighted>
-9.5409

> <Gold.Chemscore.Metal.Weighted>
-0.0000

> <Gold.Chemscore.Lipo.Weighted>
-9.3649

> <Gold.Chemscore.Internal_Hbond.Weighted>
0.0000

> <Gold.Chemscore.DEClash.Weighted>
1.8766

> <Gold.Chemscore.DEInternal.Weighted>
2.0487

> <Gold.Chemscore.Rot.Weighted>
4.4426

> <Gold.Chemscore.Internal.Correction.Weighted>
   9.000000E+99

> <Gold.Protein.RotatedTorsions>
[ 6907 6896 6895 6894 ] final   89.83 input  -60.11 | X-H torsion
[ 7974 7965 7964 7962 ] final -157.12 input  175.53 | X-H torsion
[ 8008 7997 7996 7995 ] final -149.01 input   59.86 | X-H torsion
[ 10167 10162 10161 10158 ] final  112.47 input  -65.29 | X-H torsion
[ 10718 10713 10712 10709 ] final -111.04 input   66.30 | X-H torsion
[ 10763 10752 10751 10750 ] final   17.30 input  -60.55 | X-H torsion
[ 11005 11000 10999 10996 ] final -140.13 input  -57.11 | X-H torsion

> <Gold.Protein.ActiveResidues>
 VAL166  LYS551  ARG553  GLY616  TRP617  ASP618  TYR619  PRO620  LYS621  CYS622 
 ASP623  PHE694  ASN695  SER759  ASP760  ASP761  ALA762  ILE779  LEU786  VAL792 
 PHE793  MET794  SER795  GLU796  ALA797  LYS798  CYS799  TRP800  GLU811  SER814 

> <Gold.Protein.RotatedAtoms>
  152.5440  134.1905  159.8671 H   0  0  0  0  0  0  0  0  0  0  0  0  # atno 6907 bound_to 6896
  151.1901  133.4665  159.2602 H   0  0  0  0  0  0  0  0  0  0  0  0  # atno 6908 bound_to 6896
  151.1092  135.0029  159.8541 H   0  0  0  0  0  0  0  0  0  0  0  0  # atno 6909 bound_to 6896
  144.7562  140.4014  143.6010 H   0  0  0  0  0  0  0  0  0  0  0  0  # atno 7974 bound_to 7965
  155.6008  140.0662  157.2733 H   0  0  0  0  0  0  0  0  0  0  0  0  # atno 8008 bound_to 7997
  154.4279  140.1818  156.1219 H   0  0  0  0  0  0  0  0  0  0  0  0  # atno 8009 bound_to 7997
  156.0160  140.3321  155.6993 H   0  0  0  0  0  0  0  0  0  0  0  0  # atno 8010 bound_to 7997
  139.6533  144.7128  151.2005 H   0  0  0  0  0  0  0  0  0  0  0  0  # atno 10167 bound_to 10162
  156.0624  130.5846  150.8319 H   0  0  0  0  0  0  0  0  0  0  0  0  # atno 10718 bound_to 10713
  153.1351  135.6748  153.9116 H   0  0  0  0  0  0  0  0  0  0  0  0  # atno 10763 bound_to 10752
  153.8590  135.3083  155.3438 H   0  0  0  0  0  0  0  0  0  0  0  0  # atno 10764 bound_to 10752
  154.7740  135.4924  153.9790 H   0  0  0  0  0  0  0  0  0  0  0  0  # atno 10765 bound_to 10752
  140.8452  134.2353  157.4789 H   0  0  0  0  0  0  0  0  0  0  0  0  # atno 11005 bound_to 11000
  145.6771  139.1611  143.2722 LP  0  0  0  0  0  0  0  0  0  0  0  0  # atno 17320 bound_to 7965
  146.1575  140.6836  142.9293 LP  0  0  0  0  0  0  0  0  0  0  0  0  # atno 17321 bound_to 7965
  140.7548  143.6114  150.8602 LP  0  0  0  0  0  0  0  0  0  0  0  0  # atno 17342 bound_to 10162
  139.9764  143.5999  152.2957 LP  0  0  0  0  0  0  0  0  0  0  0  0  # atno 17343 bound_to 10162
  157.5643  131.0946  150.9513 LP  0  0  0  0  0  0  0  0  0  0  0  0  # atno 17370 bound_to 10713
  156.9744  130.5503  149.5292 LP  0  0  0  0  0  0  0  0  0  0  0  0  # atno 17371 bound_to 10713
  139.8703  134.9655  156.4532 LP  0  0  0  0  0  0  0  0  0  0  0  0  # atno 17394 bound_to 11000
  140.8851  133.7889  155.9510 LP  0  0  0  0  0  0  0  0  0  0  0  0  # atno 17395 bound_to 11000

$$$$
