AV-unprocessed.smi:1444|AV-procd|sdf|5883|dock3
  -GOLD-   22720 5563D 1   1.00000     0.00000
 Structure written by MMmdl.
 44 45  0  0  0  0  0  0  0  0  2 V2000
  149.3924  131.9425  153.5455 C   0  0  0  0  0  0  0  0  0  0  0  0
  148.3869  132.8856  153.1905 O   0  0  0  0  0  0  0  0  0  0  0  0
  147.2124  132.4200  152.6302 C   0  0  0  0  0  0  0  0  0  0  0  0
  146.9896  131.0820  152.6219 N   0  0  0  0  0  0  0  0  0  0  0  0
  145.8445  130.6245  152.0767 C   0  0  0  0  0  0  0  0  0  0  0  0
  144.8677  131.4688  151.5188 C   0  0  0  0  0  0  0  0  0  0  0  0
  145.0959  132.8571  151.5256 C   0  0  0  0  0  0  0  0  0  0  0  0
  146.2959  133.3547  152.0920 C   0  0  0  0  0  0  0  0  0  0  0  0
  146.6475  134.7333  152.1610 N   0  0  0  0  0  0  0  0  0  0  0  0
  145.8833  135.8081  152.4189 C   0  0  0  0  0  0  0  0  0  0  0  0
  144.6794  135.7933  152.6706 O   0  0  0  0  0  0  0  0  0  0  0  0
  146.6134  136.9326  152.3813 N   0  0  0  0  0  0  0  0  0  0  0  0
  146.1141  138.2942  152.5776 C   0  0  2  0  0  0  0  0  0  0  0  0
  146.5415  139.1572  151.3827 C   0  0  0  0  0  0  0  0  0  0  0  0
  146.6198  138.8942  153.9097 C   0  0  0  0  0  0  0  0  0  0  0  0
  146.2766  140.3301  154.0697 N   0  3  0  0  0  0  0  0  0  0  0  0
  146.0440  140.7176  155.4805 C   0  0  0  0  0  0  0  0  0  0  0  0
  145.6198  142.1941  155.5633 C   0  0  0  0  0  0  0  0  0  0  0  0
  146.6141  143.0119  154.9584 O   0  0  0  0  0  0  0  0  0  0  0  0
  146.7924  142.7040  153.5810 C   0  0  0  0  0  0  0  0  0  0  0  0
  147.2565  141.2455  153.4359 C   0  0  0  0  0  0  0  0  0  0  0  0
  150.2469  132.4704  153.9687 H   0  0  0  0  0  0  0  0  0  0  0  0
  149.7450  131.3878  152.6746 H   0  0  0  0  0  0  0  0  0  0  0  0
  149.0333  131.2392  154.2982 H   0  0  0  0  0  0  0  0  0  0  0  0
  145.7025  129.5540  152.0861 H   0  0  0  0  0  0  0  0  0  0  0  0
  143.9630  131.0598  151.0940 H   0  0  0  0  0  0  0  0  0  0  0  0
  144.3429  133.4977  151.0970 H   0  0  0  0  0  0  0  0  0  0  0  0
  147.6203  134.9260  151.9707 H   0  0  0  0  0  0  0  0  0  0  0  0
  147.5965  136.8430  152.1692 H   0  0  0  0  0  0  0  0  0  0  0  0
  145.0232  138.2784  152.5785 H   0  0  0  0  0  0  0  0  0  0  0  0
  146.1550  140.1726  151.4746 H   0  0  0  0  0  0  0  0  0  0  0  0
  146.1636  138.7465  150.4456 H   0  0  0  0  0  0  0  0  0  0  0  0
  147.6274  139.2208  151.3045 H   0  0  0  0  0  0  0  0  0  0  0  0
  146.1727  138.3262  154.7272 H   0  0  0  0  0  0  0  0  0  0  0  0
  147.6988  138.7652  154.0075 H   0  0  0  0  0  0  0  0  0  0  0  0
  145.2661  140.0892  155.9159 H   0  0  0  0  0  0  0  0  0  0  0  0
  146.9534  140.5544  156.0612 H   0  0  0  0  0  0  0  0  0  0  0  0
  144.6565  142.3506  155.0749 H   0  0  0  0  0  0  0  0  0  0  0  0
  145.5014  142.4933  156.6050 H   0  0  0  0  0  0  0  0  0  0  0  0
  145.8639  142.8735  153.0332 H   0  0  0  0  0  0  0  0  0  0  0  0
  147.5384  143.3790  153.1611 H   0  0  0  0  0  0  0  0  0  0  0  0
  148.2349  141.1177  153.9016 H   0  0  0  0  0  0  0  0  0  0  0  0
  147.3728  141.0070  152.3792 H   0  0  0  0  0  0  0  0  0  0  0  0
  145.3971  140.4667  153.5915 H   0  0  0  0  0  0  0  0  0  0  0  0
  1  2  1  0  0  0  0
  1 22  1  0  0  0  0
  1 23  1  0  0  0  0
  1 24  1  0  0  0  0
  2  3  1  0  0  0  0
  3  8  1  0  0  0  0
  3  4  2  0  0  0  0
  4  5  1  0  0  0  0
  5  6  2  0  0  0  0
  5 25  1  0  0  0  0
  6  7  1  0  0  0  0
  6 26  1  0  0  0  0
  7  8  2  0  0  0  0
  7 27  1  0  0  0  0
  8  9  1  0  0  0  0
  9 10  1  0  0  0  0
  9 28  1  0  0  0  0
 10 11  2  0  0  0  0
 10 12  1  0  0  0  0
 12 13  1  0  0  0  0
 12 29  1  0  0  0  0
 13 14  1  0  0  0  0
 13 15  1  0  0  0  0
 13 30  1  0  0  0  0
 14 31  1  0  0  0  0
 14 32  1  0  0  0  0
 14 33  1  0  0  0  0
 15 16  1  0  0  0  0
 15 34  1  0  0  0  0
 15 35  1  0  0  0  0
 16 21  1  0  0  0  0
 16 17  1  0  0  0  0
 16 44  1  0  0  0  0
 17 18  1  0  0  0  0
 17 36  1  0  0  0  0
 17 37  1  0  0  0  0
 18 19  1  0  0  0  0
 18 38  1  0  0  0  0
 18 39  1  0  0  0  0
 19 20  1  0  0  0  0
 20 21  1  0  0  0  0
 20 40  1  0  0  0  0
 20 41  1  0  0  0  0
 21 42  1  0  0  0  0
 21 43  1  0  0  0  0
M  CHG  1  16   1
M  END
> <s_m_source_file>
AV-unprocessed.smi

> <i_m_source_file_index>
1444

> <i_lp_mmshare_version>
43012

> <i_f3d_flags>
0

> <s_epik_input>
W0NIM11PYzFuW2NIXVtjSF1bY0hdYzFbTkhdQyg9TylbTkhdW0NASF0oW0NIM10pW0NIMl1OMltDSDJdW0NIMl1PW0NIMl1bQ0gyXTI=

> <s_epik_cmdline>
J2VwaWtfcHl0aG9uJywgJy1waCcsICc3LjAnLCAnLXRuJywgJzgnLCAnLW1hJywgJzIwMCcsICctbWV0YWxfYmluZGluZycsICctaW1hZScsICc8aW5maWxlLm1hZT4nLCAnLW9tYWUnLCAnPG91dGZpbGUubWFlPic=

> <r_lp_tautomer_probability>
1

> <r_epik_Ionization_Penalty>
0.602604

> <r_epik_Ionization_Penalty_Charging>
0.602531

> <r_epik_Ionization_Penalty_Neutral>
7.37688e-05

> <r_epik_State_Penalty>
0.617039

> <r_epik_Charging_Adjusted_Penalty>
1.21957

> <i_epik_Tot_Q>
1

> <i_epik_Tot_abs_Q>
1

> <r_epik_Metal_State_Penalty>
0.617045

> <b_epik_Metal_Only>
0

> <s_lp_Force_Field>
OPLS_2005

> <r_lp_Energy>
24.7121

> <b_lp_Chiralities_Consistent>
1

> <s_lp_Variant>
AV-unprocessed.smi:1444-3

> <Gold.Version>
5.8.1

> <Gold.Id.Protein>
6NUR|6NUR_protein|mol2

> <Gold.PLP.Fitness>
44.5885

> <Gold.PLP.PLP>
-34.4973

> <Gold.PLP.part.hbond>
-2.8219

> <Gold.PLP.part.metal>
0.0000

> <Gold.PLP.part.buried>
-3.6582

> <Gold.PLP.part.nonpolar>
-28.5538

> <Gold.PLP.part.repulsive>
1.6326

> <Gold.PLP.ligand.clash>
0.0000

> <Gold.PLP.ligand.torsion>
0.8292

> <Gold.PLP.Chemscore.Hbond>
3.9033

> <Gold.PLP.Chemscore.CHOScore>
0.0000

> <Gold.PLP.Chemscore.Metal>
0.0000

> <Gold.Chemscore.Hbonds>
donor molecule, donor type, donor heavy atom, donor atom, acceptor molecule, acceptor atom, score
      L1  H     9    28       P1  7948  0.96
      L1  H    12    29       P1  7948  0.94
      L1  H    16    44       P1 10175  1.95

> <Gold.PLP.Chemscore.Internal.Correction>
0.0398

> <Gold.Rescore>
     Score         DG    S(hbond)    S(metal)    S(lipo)     H(rot)  DE(clash)    DE(int)     intcor
     16.53     -18.92       2.94        0.00      69.93       1.78       0.45       1.94       ----

> <Gold.Chemscore.Fitness>
16.5286

> <Gold.Chemscore.DG>
-18.9184

> <Gold.Chemscore.ZeroCoef>
-5.4800

> <Gold.Chemscore.Hbond>
2.9381

> <Gold.Chemscore.Metal>
0.0000

> <Gold.Chemscore.Lipo>
69.9340

> <Gold.Chemscore.Internal_Hbond>
0.0000

> <Gold.Chemscore.DEClash>
0.4515

> <Gold.Chemscore.DEInternal>
1.9383

> <Gold.Chemscore.Rot>
1.7801

> <Gold.Chemscore.Internal.Correction>
   9.000000E+99

> <Gold.Chemscore.Hbonds>
donor molecule, donor type, donor heavy atom, donor atom, acceptor molecule, acceptor atom, score
      L1  H     9    28       P1  7948  0.72
      L1  H    12    29       P1  7948  0.90
      L1  H    16    44       P1 10175  0.90

> <Gold.Chemscore.Hbond.Weighted>
-9.8132

> <Gold.Chemscore.Metal.Weighted>
-0.0000

> <Gold.Chemscore.Lipo.Weighted>
-8.1823

> <Gold.Chemscore.Internal_Hbond.Weighted>
0.0000

> <Gold.Chemscore.DEClash.Weighted>
0.4515

> <Gold.Chemscore.DEInternal.Weighted>
1.9383

> <Gold.Chemscore.Rot.Weighted>
4.5570

> <Gold.Chemscore.Internal.Correction.Weighted>
   9.000000E+99

> <Gold.Protein.RotatedTorsions>
[ 6907 6896 6895 6894 ] final   55.15 input  -60.11 | X-H torsion
[ 7974 7965 7964 7962 ] final   84.16 input  175.53 | X-H torsion
[ 8008 7997 7996 7995 ] final   40.66 input   59.86 | X-H torsion
[ 10167 10162 10161 10158 ] final   23.26 input  -65.29 | X-H torsion
[ 10718 10713 10712 10709 ] final   20.03 input   66.30 | X-H torsion
[ 10763 10752 10751 10750 ] final   96.58 input  -60.55 | X-H torsion
[ 11005 11000 10999 10996 ] final -149.85 input  -57.11 | X-H torsion

> <Gold.Protein.ActiveResidues>
 VAL166  LYS551  ARG553  GLY616  TRP617  ASP618  TYR619  PRO620  LYS621  CYS622 
 ASP623  PHE694  ASN695  SER759  ASP760  ASP761  ALA762  ILE779  LEU786  VAL792 
 PHE793  MET794  SER795  GLU796  ALA797  LYS798  CYS799  TRP800  GLU811  SER814 

> <Gold.Protein.RotatedAtoms>
  152.3510  134.7006  160.0236 H   0  0  0  0  0  0  0  0  0  0  0  0  # atno 6907 bound_to 6896
  151.7360  133.3314  159.3361 H   0  0  0  0  0  0  0  0  0  0  0  0  # atno 6908 bound_to 6896
  150.7540  134.6254  159.6203 H   0  0  0  0  0  0  0  0  0  0  0  0  # atno 6909 bound_to 6896
  145.6024  139.2354  143.2238 H   0  0  0  0  0  0  0  0  0  0  0  0  # atno 7974 bound_to 7965
  155.2567  140.3356  155.4277 H   0  0  0  0  0  0  0  0  0  0  0  0  # atno 8008 bound_to 7997
  156.2192  140.1802  156.7560 H   0  0  0  0  0  0  0  0  0  0  0  0  # atno 8009 bound_to 7997
  154.5800  140.0655  156.9074 H   0  0  0  0  0  0  0  0  0  0  0  0  # atno 8010 bound_to 7997
  140.5283  143.9885  150.6452 H   0  0  0  0  0  0  0  0  0  0  0  0  # atno 10167 bound_to 10162
  157.1187  130.6540  149.5918 H   0  0  0  0  0  0  0  0  0  0  0  0  # atno 10718 bound_to 10713
  153.2666  135.4213  155.0946 H   0  0  0  0  0  0  0  0  0  0  0  0  # atno 10763 bound_to 10752
  154.8440  135.3462  154.6303 H   0  0  0  0  0  0  0  0  0  0  0  0  # atno 10764 bound_to 10752
  153.6723  135.7043  153.5200 H   0  0  0  0  0  0  0  0  0  0  0  0  # atno 10765 bound_to 10752
  140.7464  134.3456  157.5136 H   0  0  0  0  0  0  0  0  0  0  0  0  # atno 11005 bound_to 11000
  146.1566  140.6849  142.9297 LP  0  0  0  0  0  0  0  0  0  0  0  0  # atno 17320 bound_to 7965
  144.7304  140.4654  143.6942 LP  0  0  0  0  0  0  0  0  0  0  0  0  # atno 17321 bound_to 7965
  140.3253  143.3112  152.0743 LP  0  0  0  0  0  0  0  0  0  0  0  0  # atno 17342 bound_to 10162
  139.4946  144.6546  151.6600 LP  0  0  0  0  0  0  0  0  0  0  0  0  # atno 17343 bound_to 10162
  155.9833  130.4852  150.6928 LP  0  0  0  0  0  0  0  0  0  0  0  0  # atno 17370 bound_to 10713
  157.4495  131.0871  151.0860 LP  0  0  0  0  0  0  0  0  0  0  0  0  # atno 17371 bound_to 10713
  139.8796  134.9114  156.3035 LP  0  0  0  0  0  0  0  0  0  0  0  0  # atno 17394 bound_to 11000
  140.9791  133.7279  156.0645 LP  0  0  0  0  0  0  0  0  0  0  0  0  # atno 17395 bound_to 11000

$$$$
