AV-unprocessed.smi:2270|AV-procd|sdf|9158|dock3
  -GOLD-   2272012363D 1   1.00000     0.00000
 Structure written by MMmdl.
 52 53  0  0  0  0  0  0  0  0  1 V2000
  153.4289  142.0019  160.5434 C   0  0  0  0  0  0  0  0  0  0  0  0
  152.4908  143.0538  159.9901 C   0  0  0  0  0  0  0  0  0  0  0  0
  152.3776  144.3162  160.6046 C   0  0  0  0  0  0  0  0  0  0  0  0
  151.4856  145.2483  160.0453 C   0  0  0  0  0  0  0  0  0  0  0  0
  150.7481  144.8817  158.9030 C   0  0  0  0  0  0  0  0  0  0  0  0
  150.9204  143.5938  158.3476 C   0  0  0  0  0  0  0  0  0  0  0  0
  150.1333  143.3239  157.1969 N   0  0  0  0  0  0  0  0  0  0  0  0
  149.9478  142.1469  156.5736 C   0  0  0  0  0  0  0  0  0  0  0  0
  150.4393  141.0716  156.9179 O   0  0  0  0  0  0  0  0  0  0  0  0
  149.1503  142.2854  155.5050 N   0  0  0  0  0  0  0  0  0  0  0  0
  148.7688  141.2063  154.5990 C   0  0  0  0  0  0  0  0  0  0  0  0
  147.2869  140.7657  154.7709 C   0  0  2  0  0  0  0  0  0  0  0  0
  146.8186  139.7026  153.7266 C   0  0  0  0  0  0  0  0  0  0  0  0
  147.3836  138.2769  153.8856 C   0  0  0  0  0  0  0  0  0  0  0  0
  146.9685  140.1997  152.2787 C   0  0  0  0  0  0  0  0  0  0  0  0
  146.3372  141.8721  155.0002 N   0  0  0  0  0  0  0  0  0  0  0  0
  146.0269  142.6219  153.7788 C   0  0  0  0  0  0  0  0  0  0  0  0
  145.1605  143.8577  154.0825 C   0  0  0  0  0  0  0  0  0  0  0  0
  143.9064  143.4813  154.7313 N   0  0  0  0  0  0  0  0  0  0  0  0
  143.0781  144.6442  155.0100 C   0  0  0  0  0  0  0  0  0  0  0  0
  144.2090  142.7328  155.9493 C   0  0  0  0  0  0  0  0  0  0  0  0
  145.0775  141.4963  155.6512 C   0  0  0  0  0  0  0  0  0  0  0  0
  151.7828  142.7018  158.8954 N   0  0  0  0  0  0  0  0  0  0  0  0
  154.1918  142.4533  161.1782 H   0  0  0  0  0  0  0  0  0  0  0  0
  153.9330  141.4695  159.7360 H   0  0  0  0  0  0  0  0  0  0  0  0
  152.8724  141.2778  161.1384 H   0  0  0  0  0  0  0  0  0  0  0  0
  152.9570  144.5657  161.4814 H   0  0  0  0  0  0  0  0  0  0  0  0
  151.3680  146.2279  160.4844 H   0  0  0  0  0  0  0  0  0  0  0  0
  150.0587  145.5862  158.4607 H   0  0  0  0  0  0  0  0  0  0  0  0
  149.6631  144.1219  156.7967 H   0  0  0  0  0  0  0  0  0  0  0  0
  148.7889  143.2041  155.2947 H   0  0  0  0  0  0  0  0  0  0  0  0
  148.9675  141.5284  153.5767 H   0  0  0  0  0  0  0  0  0  0  0  0
  149.4438  140.3711  154.7831 H   0  0  0  0  0  0  0  0  0  0  0  0
  147.2781  140.1966  155.7018 H   0  0  0  0  0  0  0  0  0  0  0  0
  145.7440  139.5968  153.8787 H   0  0  0  0  0  0  0  0  0  0  0  0
  148.4214  138.1991  153.5705 H   0  0  0  0  0  0  0  0  0  0  0  0
  146.8223  137.5801  153.2627 H   0  0  0  0  0  0  0  0  0  0  0  0
  147.3079  137.9123  154.9088 H   0  0  0  0  0  0  0  0  0  0  0  0
  148.0167  140.2884  151.9923 H   0  0  0  0  0  0  0  0  0  0  0  0
  146.5030  141.1772  152.1487 H   0  0  0  0  0  0  0  0  0  0  0  0
  146.4933  139.5138  151.5770 H   0  0  0  0  0  0  0  0  0  0  0  0
  146.9498  142.9457  153.2967 H   0  0  0  0  0  0  0  0  0  0  0  0
  145.5045  141.9883  153.0619 H   0  0  0  0  0  0  0  0  0  0  0  0
  145.7178  144.5492  154.7165 H   0  0  0  0  0  0  0  0  0  0  0  0
  144.9496  144.3872  153.1528 H   0  0  0  0  0  0  0  0  0  0  0  0
  142.1370  144.3457  155.4730 H   0  0  0  0  0  0  0  0  0  0  0  0
  142.8402  145.1778  154.0895 H   0  0  0  0  0  0  0  0  0  0  0  0
  143.5844  145.3369  155.6836 H   0  0  0  0  0  0  0  0  0  0  0  0
  144.7225  143.3754  156.6663 H   0  0  0  0  0  0  0  0  0  0  0  0
  143.2811  142.4141  156.4253 H   0  0  0  0  0  0  0  0  0  0  0  0
  144.5147  140.8074  155.0206 H   0  0  0  0  0  0  0  0  0  0  0  0
  145.2658  140.9819  156.5876 H   0  0  0  0  0  0  0  0  0  0  0  0
  1  2  1  0  0  0  0
  1 24  1  0  0  0  0
  1 25  1  0  0  0  0
  1 26  1  0  0  0  0
  2 23  1  0  0  0  0
  2  3  2  0  0  0  0
  3  4  1  0  0  0  0
  3 27  1  0  0  0  0
  4  5  2  0  0  0  0
  4 28  1  0  0  0  0
  5  6  1  0  0  0  0
  5 29  1  0  0  0  0
  6  7  1  0  0  0  0
  6 23  2  0  0  0  0
  7  8  1  0  0  0  0
  7 30  1  0  0  0  0
  8  9  2  0  0  0  0
  8 10  1  0  0  0  0
 10 11  1  0  0  0  0
 10 31  1  0  0  0  0
 11 12  1  0  0  0  0
 11 32  1  0  0  0  0
 11 33  1  0  0  0  0
 12 13  1  0  0  0  0
 12 16  1  0  0  0  0
 12 34  1  0  0  0  0
 13 14  1  0  0  0  0
 13 15  1  0  0  0  0
 13 35  1  0  0  0  0
 14 36  1  0  0  0  0
 14 37  1  0  0  0  0
 14 38  1  0  0  0  0
 15 39  1  0  0  0  0
 15 40  1  0  0  0  0
 15 41  1  0  0  0  0
 16 22  1  0  0  0  0
 16 17  1  0  0  0  0
 17 18  1  0  0  0  0
 17 42  1  0  0  0  0
 17 43  1  0  0  0  0
 18 19  1  0  0  0  0
 18 44  1  0  0  0  0
 18 45  1  0  0  0  0
 19 20  1  0  0  0  0
 19 21  1  0  0  0  0
 20 46  1  0  0  0  0
 20 47  1  0  0  0  0
 20 48  1  0  0  0  0
 21 22  1  0  0  0  0
 21 49  1  0  0  0  0
 21 50  1  0  0  0  0
 22 51  1  0  0  0  0
 22 52  1  0  0  0  0
M  END
> <s_m_source_file>
AV-unprocessed.smi

> <i_m_source_file_index>
2270

> <i_lp_mmshare_version>
43012

> <i_f3d_flags>
0

> <s_epik_input>
W0NIM11jMVtjSF1bY0hdW2NIXWMobjEpW05IXUMoPU8pW05IXVtDSDJdW0NASF0oW0NIXShbQ0gzXSlbQ0gzXSlOMltDSDJdW0NIMl1OKFtDSDNdKVtDSDJdW0NIMl0y

> <s_epik_cmdline>
J2VwaWtfcHl0aG9uJywgJy1waCcsICc3LjAnLCAnLXRuJywgJzgnLCAnLW1hJywgJzIwMCcsICctbWV0YWxfYmluZGluZycsICctaW1hZScsICc8aW5maWxlLm1hZT4nLCAnLW9tYWUnLCAnPG91dGZpbGUubWFlPic=

> <r_epik_Ionization_Penalty>
2.57754

> <r_epik_Ionization_Penalty_Charging>
0

> <r_epik_Ionization_Penalty_Neutral>
2.57754

> <r_epik_State_Penalty>
2.00874

> <r_epik_Charging_Adjusted_Penalty>
2.00874

> <i_epik_Tot_Q>
0

> <i_epik_Tot_abs_Q>
0

> <r_epik_Metal_State_Penalty>
2.00874

> <b_epik_Metal_Only>
0

> <s_lp_Force_Field>
OPLS_2005

> <r_lp_Energy>
48.2009

> <b_lp_Chiralities_Consistent>
1

> <s_lp_Variant>
AV-unprocessed.smi:2270-5

> <Gold.Version>
5.8.1

> <Gold.Id.Protein>
6NUR|6NUR_protein|mol2

> <Gold.PLP.Fitness>
48.3507

> <Gold.PLP.PLP>
-43.1355

> <Gold.PLP.part.hbond>
-2.0000

> <Gold.PLP.part.metal>
0.0000

> <Gold.PLP.part.buried>
-5.5457

> <Gold.PLP.part.nonpolar>
-35.9261

> <Gold.PLP.part.repulsive>
0.8626

> <Gold.PLP.ligand.clash>
0.0000

> <Gold.PLP.ligand.torsion>
0.6412

> <Gold.PLP.Chemscore.Hbond>
1.9920

> <Gold.PLP.Chemscore.CHOScore>
0.0000

> <Gold.PLP.Chemscore.Metal>
0.0000

> <Gold.Chemscore.Hbonds>
donor molecule, donor type, donor heavy atom, donor atom, acceptor molecule, acceptor atom, score
      L1  H     7    30       P1  8028  0.88
      L1  H    10    31       P1  8028  0.91

> <Gold.PLP.Chemscore.Internal.Correction>
0.5216

> <Gold.Rescore>
     Score         DG    S(hbond)    S(metal)    S(lipo)     H(rot)  DE(clash)    DE(int)     intcor
     17.32     -20.52       1.90        0.00     108.51       1.56       1.45       1.74       ----

> <Gold.Chemscore.Fitness>
17.3220

> <Gold.Chemscore.DG>
-20.5165

> <Gold.Chemscore.ZeroCoef>
-5.4800

> <Gold.Chemscore.Hbond>
1.8973

> <Gold.Chemscore.Metal>
0.0000

> <Gold.Chemscore.Lipo>
108.5131

> <Gold.Chemscore.Internal_Hbond>
0.0000

> <Gold.Chemscore.DEClash>
1.4528

> <Gold.Chemscore.DEInternal>
1.7417

> <Gold.Chemscore.Rot>
1.5612

> <Gold.Chemscore.Internal.Correction>
   9.000000E+99

> <Gold.Chemscore.Hbonds>
donor molecule, donor type, donor heavy atom, donor atom, acceptor molecule, acceptor atom, score
      L1  H     7    30       P1  8028  0.72
      L1  H    10    31       P1  8028  0.85

> <Gold.Chemscore.Hbond.Weighted>
-6.3370

> <Gold.Chemscore.Metal.Weighted>
-0.0000

> <Gold.Chemscore.Lipo.Weighted>
-12.6960

> <Gold.Chemscore.Internal_Hbond.Weighted>
0.0000

> <Gold.Chemscore.DEClash.Weighted>
1.4528

> <Gold.Chemscore.DEInternal.Weighted>
1.7417

> <Gold.Chemscore.Rot.Weighted>
3.9966

> <Gold.Chemscore.Internal.Correction.Weighted>
   9.000000E+99

> <Gold.Protein.RotatedTorsions>
[ 6907 6896 6895 6894 ] final -110.97 input  -60.11 | X-H torsion
[ 7974 7965 7964 7962 ] final -161.57 input  175.53 | X-H torsion
[ 8008 7997 7996 7995 ] final  -83.25 input   59.86 | X-H torsion
[ 10167 10162 10161 10158 ] final -147.54 input  -65.29 | X-H torsion
[ 10718 10713 10712 10709 ] final  -13.40 input   66.30 | X-H torsion
[ 10763 10752 10751 10750 ] final   62.34 input  -60.55 | X-H torsion
[ 11005 11000 10999 10996 ] final -151.37 input  -57.11 | X-H torsion

> <Gold.Protein.ActiveResidues>
 VAL166  LYS551  ARG553  GLY616  TRP617  ASP618  TYR619  PRO620  LYS621  CYS622 
 ASP623  PHE694  ASN695  SER759  ASP760  ASP761  ALA762  ILE779  LEU786  VAL792 
 PHE793  MET794  SER795  GLU796  ALA797  LYS798  CYS799  TRP800  GLU811  SER814 

> <Gold.Protein.RotatedAtoms>
  150.7659  133.9304  159.3425 H   0  0  0  0  0  0  0  0  0  0  0  0  # atno 6907 bound_to 6896
  151.7202  135.0894  160.0292 H   0  0  0  0  0  0  0  0  0  0  0  0  # atno 6908 bound_to 6896
  152.3654  133.6313  159.6082 H   0  0  0  0  0  0  0  0  0  0  0  0  # atno 6909 bound_to 6896
  144.7386  140.3378  143.6140 H   0  0  0  0  0  0  0  0  0  0  0  0  # atno 7974 bound_to 7965
  154.6171  140.0621  156.9568 H   0  0  0  0  0  0  0  0  0  0  0  0  # atno 8008 bound_to 7997
  155.1878  140.3304  155.4345 H   0  0  0  0  0  0  0  0  0  0  0  0  # atno 8009 bound_to 7997
  156.2410  140.1886  156.6970 H   0  0  0  0  0  0  0  0  0  0  0  0  # atno 8010 bound_to 7997
  139.7613  143.8373  152.2607 H   0  0  0  0  0  0  0  0  0  0  0  0  # atno 10167 bound_to 10162
  156.6308  130.4901  149.6130 H   0  0  0  0  0  0  0  0  0  0  0  0  # atno 10718 bound_to 10713
  152.9980  135.5468  154.6178 H   0  0  0  0  0  0  0  0  0  0  0  0  # atno 10763 bound_to 10752
  154.5484  135.2825  155.1033 H   0  0  0  0  0  0  0  0  0  0  0  0  # atno 10764 bound_to 10752
  154.2283  135.6438  153.5219 H   0  0  0  0  0  0  0  0  0  0  0  0  # atno 10765 bound_to 10752
  140.7303  134.3629  157.5168 H   0  0  0  0  0  0  0  0  0  0  0  0  # atno 11005 bound_to 11000
  145.7405  139.1763  143.2378 LP  0  0  0  0  0  0  0  0  0  0  0  0  # atno 17320 bound_to 7965
  146.1137  140.7396  142.9491 LP  0  0  0  0  0  0  0  0  0  0  0  0  # atno 17321 bound_to 7965
  139.8380  144.7223  150.9367 LP  0  0  0  0  0  0  0  0  0  0  0  0  # atno 17342 bound_to 10162
  140.7807  143.4009  151.1150 LP  0  0  0  0  0  0  0  0  0  0  0  0  # atno 17343 bound_to 10162
  156.2236  130.6752  151.1393 LP  0  0  0  0  0  0  0  0  0  0  0  0  # atno 17370 bound_to 10713
  157.7200  131.0687  150.6173 LP  0  0  0  0  0  0  0  0  0  0  0  0  # atno 17371 bound_to 10713
  139.8828  134.9014  156.2809 LP  0  0  0  0  0  0  0  0  0  0  0  0  # atno 17394 bound_to 11000
  140.9927  133.7199  156.0838 LP  0  0  0  0  0  0  0  0  0  0  0  0  # atno 17395 bound_to 11000

$$$$
