AV-unprocessed.smi:1576|AV-procd|sdf|6343|dock9
  -GOLD-   22720 6563D 1   1.00000     0.00000
 Structure written by MMmdl.
 45 47  0  0  0  0  0  0  0  0  1 V2000
  148.3530  135.8148  156.1628 O   0  0  0  0  0  0  0  0  0  0  0  0
  148.7320  135.9306  154.9978 C   0  0  0  0  0  0  0  0  0  0  0  0
  149.5268  136.9083  154.5305 N   0  0  0  0  0  0  0  0  0  0  0  0
  150.0318  138.0444  155.2189 C   0  0  0  0  0  0  0  0  0  0  0  0
  150.2428  137.9370  156.6071 C   0  0  0  0  0  0  0  0  0  0  0  0
  150.7652  139.0375  157.3120 C   0  0  0  0  0  0  0  0  0  0  0  0
  151.0745  140.2240  156.6070 C   0  0  0  0  0  0  0  0  0  0  0  0
  151.6014  141.3389  157.2940 N   0  0  0  0  0  0  0  0  0  0  0  0
  150.9433  142.6332  157.0956 C   0  0  0  0  0  0  0  0  0  0  0  0
  151.8332  143.7898  157.5816 C   0  0  0  0  0  0  0  0  0  0  0  0
  152.2772  143.5707  159.0352 C   0  0  0  0  0  0  0  0  0  0  0  0
  152.9638  142.2036  159.1742 C   0  0  0  0  0  0  0  0  0  0  0  0
  152.0563  141.0728  158.6602 C   0  0  0  0  0  0  0  0  0  0  0  0
  150.8873  140.3220  155.2681 N   0  0  0  0  0  0  0  0  0  0  0  0
  150.3828  139.2657  154.5960 C   0  0  0  0  0  0  0  0  0  0  0  0
  148.4126  135.0621  154.0279 N   0  0  0  0  0  0  0  0  0  0  0  0
  147.5682  133.8812  154.1975 C   0  0  2  0  0  0  0  0  0  0  0  0
  147.8376  132.8519  153.0791 C   0  0  0  0  0  0  0  0  0  0  0  0
  147.1099  133.2929  151.8025 C   0  0  0  0  0  0  0  0  0  0  0  0
  145.6075  134.1823  152.3596 S   0  0  0  0  0  0  0  0  0  0  0  0
  145.6096  135.5326  151.7764 O   0  0  0  0  0  0  0  0  0  0  0  0
  144.4360  133.3027  152.2287 O   0  0  0  0  0  0  0  0  0  0  0  0
  146.0862  134.2806  154.1272 C   0  0  0  0  0  0  0  0  0  0  0  0
  149.8304  136.8136  153.5724 H   0  0  0  0  0  0  0  0  0  0  0  0
  150.0087  137.0212  157.1302 H   0  0  0  0  0  0  0  0  0  0  0  0
  150.9378  138.9555  158.3748 H   0  0  0  0  0  0  0  0  0  0  0  0
  150.7142  142.7807  156.0393 H   0  0  0  0  0  0  0  0  0  0  0  0
  149.9956  142.6393  157.6358 H   0  0  0  0  0  0  0  0  0  0  0  0
  152.7117  143.8682  156.9396 H   0  0  0  0  0  0  0  0  0  0  0  0
  151.2977  144.7353  157.4904 H   0  0  0  0  0  0  0  0  0  0  0  0
  152.9536  144.3669  159.3475 H   0  0  0  0  0  0  0  0  0  0  0  0
  151.4107  143.6172  159.6960 H   0  0  0  0  0  0  0  0  0  0  0  0
  153.8981  142.2050  158.6109 H   0  0  0  0  0  0  0  0  0  0  0  0
  153.2302  142.0228  160.2158 H   0  0  0  0  0  0  0  0  0  0  0  0
  151.1813  140.9786  159.3045 H   0  0  0  0  0  0  0  0  0  0  0  0
  152.5954  140.1289  158.7284 H   0  0  0  0  0  0  0  0  0  0  0  0
  150.2875  139.4150  153.5321 H   0  0  0  0  0  0  0  0  0  0  0  0
  148.7778  135.2297  153.1017 H   0  0  0  0  0  0  0  0  0  0  0  0
  147.7761  133.4404  155.1744 H   0  0  0  0  0  0  0  0  0  0  0  0
  148.9020  132.6933  152.9026 H   0  0  0  0  0  0  0  0  0  0  0  0
  147.4301  131.8902  153.3932 H   0  0  0  0  0  0  0  0  0  0  0  0
  147.7220  133.9910  151.2311 H   0  0  0  0  0  0  0  0  0  0  0  0
  146.8379  132.4581  151.1565 H   0  0  0  0  0  0  0  0  0  0  0  0
  145.4747  133.5625  154.6741 H   0  0  0  0  0  0  0  0  0  0  0  0
  145.8780  135.2749  154.5234 H   0  0  0  0  0  0  0  0  0  0  0  0
  1  2  2  0  0  0  0
  2  3  1  0  0  0  0
  2 16  1  0  0  0  0
  3  4  1  0  0  0  0
  3 24  1  0  0  0  0
  4 15  1  0  0  0  0
  4  5  2  0  0  0  0
  5  6  1  0  0  0  0
  5 25  1  0  0  0  0
  6  7  2  0  0  0  0
  6 26  1  0  0  0  0
  7  8  1  0  0  0  0
  7 14  1  0  0  0  0
  8 13  1  0  0  0  0
  8  9  1  0  0  0  0
  9 10  1  0  0  0  0
  9 27  1  0  0  0  0
  9 28  1  0  0  0  0
 10 11  1  0  0  0  0
 10 29  1  0  0  0  0
 10 30  1  0  0  0  0
 11 12  1  0  0  0  0
 11 31  1  0  0  0  0
 11 32  1  0  0  0  0
 12 13  1  0  0  0  0
 12 33  1  0  0  0  0
 12 34  1  0  0  0  0
 13 35  1  0  0  0  0
 13 36  1  0  0  0  0
 14 15  2  0  0  0  0
 15 37  1  0  0  0  0
 16 17  1  0  0  0  0
 16 38  1  0  0  0  0
 17 23  1  0  0  0  0
 17 18  1  0  0  0  0
 17 39  1  0  0  0  0
 18 19  1  0  0  0  0
 18 40  1  0  0  0  0
 18 41  1  0  0  0  0
 19 20  1  0  0  0  0
 19 42  1  0  0  0  0
 19 43  1  0  0  0  0
 20 21  2  0  0  0  0
 20 22  2  0  0  0  0
 20 23  1  0  0  0  0
 23 44  1  0  0  0  0
 23 45  1  0  0  0  0
M  END
> <s_m_source_file>
AV-unprocessed.smi

> <i_m_source_file_index>
1576

> <i_lp_mmshare_version>
43012

> <i_f3d_flags>
0

> <s_epik_input>
Tz1TMSg9TylbQ0gyXVtDSDJdW0NASF0oW0NIMl0xKVtOSF1DKD1PKVtOSF1jMltjSF1bY0hdYyhuW2NIXTIpTjNbQ0gyXVtDSDJdW0NIMl1bQ0gyXVtDSDJdMw==

> <s_epik_cmdline>
J2VwaWtfcHl0aG9uJywgJy1waCcsICc3LjAnLCAnLXRuJywgJzgnLCAnLW1hJywgJzIwMCcsICctbWV0YWxfYmluZGluZycsICctaW1hZScsICc8aW5maWxlLm1hZT4nLCAnLW9tYWUnLCAnPG91dGZpbGUubWFlPic=

> <r_lp_tautomer_probability>
1

> <r_epik_Ionization_Penalty>
0.0900267

> <r_epik_Ionization_Penalty_Charging>
0

> <r_epik_Ionization_Penalty_Neutral>
0.0900267

> <r_epik_State_Penalty>
0.0748882

> <r_epik_Charging_Adjusted_Penalty>
0.0748882

> <i_epik_Tot_Q>
0

> <i_epik_Tot_abs_Q>
0

> <r_epik_Metal_State_Penalty>
0.0662821

> <b_epik_Metal_Only>
0

> <s_lp_Force_Field>
OPLS_2005

> <r_lp_Energy>
21.2293

> <b_lp_Chiralities_Consistent>
1

> <s_lp_Variant>
AV-unprocessed.smi:1576-1

> <Gold.Version>
5.8.1

> <Gold.Id.Protein>
6NUR|6NUR_protein|mol2

> <Gold.PLP.Fitness>
41.8053

> <Gold.PLP.PLP>
-33.7032

> <Gold.PLP.part.hbond>
-2.8970

> <Gold.PLP.part.metal>
0.0000

> <Gold.PLP.part.buried>
-3.9927

> <Gold.PLP.part.nonpolar>
-27.3094

> <Gold.PLP.part.repulsive>
0.4036

> <Gold.PLP.ligand.clash>
0.0000

> <Gold.PLP.ligand.torsion>
0.6903

> <Gold.PLP.Chemscore.Hbond>
2.0360

> <Gold.PLP.Chemscore.CHOScore>
0.9855

> <Gold.PLP.Chemscore.Metal>
0.0000

> <Gold.Chemscore.Hbonds>
donor molecule, donor type, donor heavy atom, donor atom, acceptor molecule, acceptor atom, score
      L1  H     3    24       P1  7948  0.74
      L1  H    16    38       P1  7948  1.00
      P1  H  7989  7998       L1    14  0.30
      L1  C    15    37       P1  7957  0.99

> <Gold.PLP.Chemscore.Internal.Correction>
0.4180

> <Gold.Rescore>
     Score         DG    S(hbond)    S(metal)    S(lipo)     H(rot)  DE(clash)    DE(int)     intcor
     16.53     -18.59       1.86        0.00      85.90       1.24       0.03       2.03       ----

> <Gold.Chemscore.Fitness>
16.5256

> <Gold.Chemscore.DG>
-18.5875

> <Gold.Chemscore.ZeroCoef>
-5.4800

> <Gold.Chemscore.Hbond>
1.8633

> <Gold.Chemscore.Metal>
0.0000

> <Gold.Chemscore.Lipo>
85.8963

> <Gold.Chemscore.Internal_Hbond>
0.0000

> <Gold.Chemscore.DEClash>
0.0329

> <Gold.Chemscore.DEInternal>
2.0291

> <Gold.Chemscore.Rot>
1.2366

> <Gold.Chemscore.Internal.Correction>
   9.000000E+99

> <Gold.Chemscore.Hbonds>
donor molecule, donor type, donor heavy atom, donor atom, acceptor molecule, acceptor atom, score
      L1  H     3    24       P1  7948  0.32
      L1  H    16    38       P1  7948  0.56

> <Gold.Chemscore.Hbond.Weighted>
-6.2234

> <Gold.Chemscore.Metal.Weighted>
-0.0000

> <Gold.Chemscore.Lipo.Weighted>
-10.0499

> <Gold.Chemscore.Internal_Hbond.Weighted>
0.0000

> <Gold.Chemscore.DEClash.Weighted>
0.0329

> <Gold.Chemscore.DEInternal.Weighted>
2.0291

> <Gold.Chemscore.Rot.Weighted>
3.1657

> <Gold.Chemscore.Internal.Correction.Weighted>
   9.000000E+99

> <Gold.Protein.RotatedTorsions>
[ 6907 6896 6895 6894 ] final  -37.33 input  -60.11 | X-H torsion
[ 7974 7965 7964 7962 ] final  153.39 input  175.53 | X-H torsion
[ 8008 7997 7996 7995 ] final  101.66 input   59.86 | X-H torsion
[ 10167 10162 10161 10158 ] final   72.98 input  -65.29 | X-H torsion
[ 10718 10713 10712 10709 ] final   26.15 input   66.30 | X-H torsion
[ 10763 10752 10751 10750 ] final -148.63 input  -60.55 | X-H torsion
[ 11005 11000 10999 10996 ] final  -92.61 input  -57.11 | X-H torsion

> <Gold.Protein.ActiveResidues>
 VAL166  LYS551  ARG553  GLY616  TRP617  ASP618  TYR619  PRO620  LYS621  CYS622 
 ASP623  PHE694  ASN695  SER759  ASP760  ASP761  ALA762  ILE779  LEU786  VAL792 
 PHE793  MET794  SER795  GLU796  ALA797  LYS798  CYS799  TRP800  GLU811  SER814 

> <Gold.Protein.RotatedAtoms>
  151.0160  134.9433  159.8033 H   0  0  0  0  0  0  0  0  0  0  0  0  # atno 6907 bound_to 6896
  152.5314  134.2965  159.9072 H   0  0  0  0  0  0  0  0  0  0  0  0  # atno 6908 bound_to 6896
  151.2972  133.4097  159.2671 H   0  0  0  0  0  0  0  0  0  0  0  0  # atno 6909 bound_to 6896
  144.8158  139.6794  143.6122 H   0  0  0  0  0  0  0  0  0  0  0  0  # atno 7974 bound_to 7965
  156.1320  140.3194  155.8363 H   0  0  0  0  0  0  0  0  0  0  0  0  # atno 8008 bound_to 7997
  155.4314  140.0519  157.3035 H   0  0  0  0  0  0  0  0  0  0  0  0  # atno 8009 bound_to 7997
  154.4907  140.2091  155.9568 H   0  0  0  0  0  0  0  0  0  0  0  0  # atno 8010 bound_to 7997
  140.0294  144.5478  150.7519 H   0  0  0  0  0  0  0  0  0  0  0  0  # atno 10167 bound_to 10162
  157.2029  130.6898  149.6196 H   0  0  0  0  0  0  0  0  0  0  0  0  # atno 10718 bound_to 10713
  154.8222  135.3329  154.7004 H   0  0  0  0  0  0  0  0  0  0  0  0  # atno 10763 bound_to 10752
  153.7635  135.6931  153.4925 H   0  0  0  0  0  0  0  0  0  0  0  0  # atno 10764 bound_to 10752
  153.2094  135.4487  155.0311 H   0  0  0  0  0  0  0  0  0  0  0  0  # atno 10765 bound_to 10752
  141.1517  133.7832  157.0044 H   0  0  0  0  0  0  0  0  0  0  0  0  # atno 11005 bound_to 11000
  146.2460  139.6100  142.9459 LP  0  0  0  0  0  0  0  0  0  0  0  0  # atno 17320 bound_to 7965
  145.5219  141.0431  143.2431 LP  0  0  0  0  0  0  0  0  0  0  0  0  # atno 17321 bound_to 7965
  140.7308  143.2688  151.3957 LP  0  0  0  0  0  0  0  0  0  0  0  0  # atno 17342 bound_to 10162
  139.6086  144.1145  152.2275 LP  0  0  0  0  0  0  0  0  0  0  0  0  # atno 17343 bound_to 10162
  155.9698  130.4576  150.5970 LP  0  0  0  0  0  0  0  0  0  0  0  0  # atno 17370 bound_to 10713
  157.3749  131.0771  151.1526 LP  0  0  0  0  0  0  0  0  0  0  0  0  # atno 17371 bound_to 10713
  140.0919  134.9587  157.1789 LP  0  0  0  0  0  0  0  0  0  0  0  0  # atno 17394 bound_to 11000
  140.3435  134.2678  155.7208 LP  0  0  0  0  0  0  0  0  0  0  0  0  # atno 17395 bound_to 11000

$$$$
