#       Name:                AV-unprocessed.smi:1658
#       Creating user name   scv26
#       Creation time:       Fri Mar 27 07:35:18 2020


#       File generated by GOLD software.
#

@<TRIPOS>MOLECULE
AV-unprocessed.smi:1658
    54    55     1
SMALL
NO_CHARGES


@<TRIPOS>ATOM
      1 ****        -7.0634   3.6089   0.2362 C.3            1 S1                 0.0000
      2 ****        -5.8647   4.2203   0.7003 O.3            1 S1                 0.0000
      3 ****        -4.7146   3.4592   0.7425 C.ar           1 S1                 0.0000
      4 ****        -3.5240   4.0623   1.1949 C.ar           1 S1                 0.0000
      5 ****        -2.3448   3.2940   1.2373 C.ar           1 S1                 0.0000
      6 ****        -2.3934   1.9440   0.8167 C.ar           1 S1                 0.0000
      7 ****        -1.2771   1.0659   0.8337 N.am           1 S1                 0.0000
      8 ****         0.0273   1.3802   0.7610 C.2            1 S1                 0.0000
      9 ****         0.4757   2.5182   0.6234 O.2            1 S1                 0.0000
     10 ****         0.7915   0.2817   0.8303 N.am           1 S1                 0.0000
     11 ****         2.2501   0.2428   0.7271 C.3            1 S1                 0.0000
     12 ****         2.7343  -0.5959  -0.4914 C.3            1 S1                 0.0000
     13 ****         2.3253   0.1990  -1.7576 C.3            1 S1                 0.0000
     14 ****         4.2814  -0.6186  -0.4449 C.3            1 S1                 0.0000
     15 ****         2.1310  -1.9590  -0.4959 N.3            1 S1                 0.0000
     16 ****         2.4467  -2.7710  -1.6771 C.3            1 S1                 0.0000
     17 ****         1.6999  -4.1160  -1.6725 C.3            1 S1                 0.0000
     18 ****         2.0026  -4.8293  -0.4798 O.3            1 S1                 0.0000
     19 ****         1.6541  -4.1005   0.6905 C.3            1 S1                 0.0000
     20 ****         2.4018  -2.7568   0.7061 C.3            1 S1                 0.0000
     21 ****        -3.6380   1.4302   0.3979 C.ar           1 S1                 0.0000
     22 ****        -4.7715   2.1614   0.3531 N.ar           1 S1                 0.0000
     23 ****        -7.8719   4.3394   0.2562 H              1 S1                 0.0000
     24 ****        -7.3571   2.7728   0.8725 H              1 S1                 0.0000
     25 ****        -6.9606   3.2584  -0.7918 H              1 S1                 0.0000
     26 ****        -3.5161   5.0958   1.5079 H              1 S1                 0.0000
     27 ****        -1.4360   3.7468   1.6027 H              1 S1                 0.0000
     28 ****        -1.4985   0.0809   0.8408 H              1 S1                 0.0000
     29 ****         0.3282  -0.6095   0.9312 H              1 S1                 0.0000
     30 ****         2.6620   1.2520   0.6700 H              1 S1                 0.0000
     31 ****         2.6428  -0.1560   1.6619 H              1 S1                 0.0000
     32 ****         2.6080   1.2496  -1.6790 H              1 S1                 0.0000
     33 ****         1.2480   0.1653  -1.9246 H              1 S1                 0.0000
     34 ****         2.8101  -0.1790  -2.6577 H              1 S1                 0.0000
     35 ****         4.6873   0.3936  -0.4597 H              1 S1                 0.0000
     36 ****         4.7131  -1.1406  -1.2986 H              1 S1                 0.0000
     37 ****         4.6592  -1.0936   0.4603 H              1 S1                 0.0000
     38 ****         2.1772  -2.2474  -2.5925 H              1 S1                 0.0000
     39 ****         3.5180  -2.9658  -1.7259 H              1 S1                 0.0000
     40 ****         0.6225  -3.9605  -1.7490 H              1 S1                 0.0000
     41 ****         1.9979  -4.7172  -2.5315 H              1 S1                 0.0000
     42 ****         0.5749  -3.9423   0.7229 H              1 S1                 0.0000
     43 ****         1.9178  -4.6899   1.5686 H              1 S1                 0.0000
     44 ****         3.4705  -2.9519   0.7962 H              1 S1                 0.0000
     45 ****         2.1008  -2.2226   1.6051 H              1 S1                 0.0000
     46 ****        -3.7279   0.4009   0.0818 H              1 S1                 0.0000
     47 ****        -6.0389   4.5448   1.6300 LP             1 S1                 0.0000
     48 ****        -5.6808   5.0014   0.1036 LP             1 S1                 0.0000
     49 ****        -0.1483   3.2968   0.5566 LP             1 S1                 0.0000
     50 ****         1.4640   2.6642   0.5784 LP             1 S1                 0.0000
     51 ****         1.1559  -1.7380  -0.5166 LP             1 S1                 0.0000
     52 ****         2.9842  -5.0193  -0.4595 LP             1 S1                 0.0000
     53 ****         1.4962  -5.6916  -0.4839 LP             1 S1                 0.0000
     54 ****        -5.6310   1.7567   0.0409 LP             1 S1                 0.0000
@<TRIPOS>BOND
    1    1    2 1     
    2    1   23 1     
    3    1   24 1     
    4    1   25 1     
    5    2    3 1     
    6    3   22 ar    
    7    3    4 ar    
    8    4    5 ar    
    9    4   26 1     
   10    5    6 ar    
   11    5   27 1     
   12    6    7 1     
   13    6   21 ar    
   14    7    8 am    
   15    7   28 1     
   16    8    9 2     
   17    8   10 am    
   18   10   11 1     
   19   10   29 1     
   20   11   12 1     
   21   11   30 1     
   22   11   31 1     
   23   12   13 1     
   24   12   14 1     
   25   12   15 1     
   26   13   32 1     
   27   13   33 1     
   28   13   34 1     
   29   14   35 1     
   30   14   36 1     
   31   14   37 1     
   32   15   20 1     
   33   15   16 1     
   34   16   17 1     
   35   16   38 1     
   36   16   39 1     
   37   17   18 1     
   38   17   40 1     
   39   17   41 1     
   40   18   19 1     
   41   19   20 1     
   42   19   42 1     
   43   19   43 1     
   44   20   44 1     
   45   20   45 1     
   46   21   22 ar    
   47   21   46 1     
   48    2   47 1     
   49    2   48 1     
   50    9   49 1     
   51    9   50 1     
   52   15   51 1     
   53   18   52 1     
   54   18   53 1     
   55   22   54 1     
@<TRIPOS>SUBSTRUCTURE
      1 S1             1
@<TRIPOS>SET
LONE_PAIRS      STATIC     ATOMS    <user>   **** ""
8 47 48 49 50 51 52 53 54
DONOR_HYDROGENS      STATIC     ATOMS    <user>   **** ""
2 28 29
ATOM$BLUE        STATIC     ATOMS    COLORGROUP SYSTEM
8 47 48 49 50 51 52 53 54
ATOM$RED        STATIC     ATOMS    COLORGROUP SYSTEM
2 28 29
