AV-unprocessed.smi:1449|AV-procd|sdf|5896|dock5
  -GOLD-   22720 5583D 1   1.00000     0.00000
 Structure written by MMmdl.
 34 35  0  0  0  0  0  0  0  0  1 V2000
  145.4328  130.7775  151.0466 C   0  0  0  0  0  0  0  0  0  0  0  0
  146.1407  131.9890  150.8084 O   0  0  0  0  0  0  0  0  0  0  0  0
  145.5082  133.1834  151.0861 C   0  0  0  0  0  0  0  0  0  0  0  0
  146.1750  134.3861  150.7802 C   0  0  0  0  0  0  0  0  0  0  0  0
  145.5380  135.6099  151.0615 C   0  0  0  0  0  0  0  0  0  0  0  0
  144.2439  135.5915  151.6346 C   0  0  0  0  0  0  0  0  0  0  0  0
  143.5016  136.7521  151.9836 N   0  0  0  0  0  0  0  0  0  0  0  0
  142.4881  136.8776  152.8631 C   0  0  0  0  0  0  0  0  0  0  0  0
  142.0550  135.9698  153.5690 O   0  0  0  0  0  0  0  0  0  0  0  0
  141.9794  138.1203  152.9448 N   0  0  0  0  0  0  0  0  0  0  0  0
  140.8848  138.6005  153.7896 C   0  0  1  0  0  0  0  0  0  0  0  0
  139.5335  138.0366  153.3120 C   0  0  0  0  0  0  0  0  0  0  0  0
  138.4881  138.2624  154.4113 C   0  0  0  0  0  0  0  0  0  0  0  0
  139.4000  138.2013  156.0001 S   0  0  0  0  0  0  0  0  0  0  0  0
  139.1960  139.4706  156.7145 O   0  0  0  0  0  0  0  0  0  0  0  0
  139.1544  136.9112  156.6620 O   0  0  0  0  0  0  0  0  0  0  0  0
  141.0746  138.1844  155.2572 C   0  0  0  0  0  0  0  0  0  0  0  0
  143.6683  134.3346  151.9127 C   0  0  0  0  0  0  0  0  0  0  0  0
  144.2735  133.1580  151.6461 N   0  0  0  0  0  0  0  0  0  0  0  0
  146.0663  129.9320  150.7791 H   0  0  0  0  0  0  0  0  0  0  0  0
  144.5285  130.7181  150.4393 H   0  0  0  0  0  0  0  0  0  0  0  0
  145.1662  130.6704  152.0990 H   0  0  0  0  0  0  0  0  0  0  0  0
  147.1618  134.3710  150.3415 H   0  0  0  0  0  0  0  0  0  0  0  0
  146.0607  136.5282  150.8448 H   0  0  0  0  0  0  0  0  0  0  0  0
  143.8035  137.6054  151.5366 H   0  0  0  0  0  0  0  0  0  0  0  0
  142.4223  138.8200  152.3666 H   0  0  0  0  0  0  0  0  0  0  0  0
  140.8188  139.6887  153.7363 H   0  0  0  0  0  0  0  0  0  0  0  0
  139.2203  138.4792  152.3659 H   0  0  0  0  0  0  0  0  0  0  0  0
  139.6321  136.9633  153.1430 H   0  0  0  0  0  0  0  0  0  0  0  0
  138.0378  139.2511  154.3203 H   0  0  0  0  0  0  0  0  0  0  0  0
  137.6937  137.5159  154.4024 H   0  0  0  0  0  0  0  0  0  0  0  0
  141.4598  137.1667  155.3321 H   0  0  0  0  0  0  0  0  0  0  0  0
  141.7376  138.8484  155.8122 H   0  0  0  0  0  0  0  0  0  0  0  0
  142.6881  134.2685  152.3620 H   0  0  0  0  0  0  0  0  0  0  0  0
  1  2  1  0  0  0  0
  1 20  1  0  0  0  0
  1 21  1  0  0  0  0
  1 22  1  0  0  0  0
  2  3  1  0  0  0  0
  3 19  1  0  0  0  0
  3  4  2  0  0  0  0
  4  5  1  0  0  0  0
  4 23  1  0  0  0  0
  5  6  2  0  0  0  0
  5 24  1  0  0  0  0
  6  7  1  0  0  0  0
  6 18  1  0  0  0  0
  7  8  1  0  0  0  0
  7 25  1  0  0  0  0
  8  9  2  0  0  0  0
  8 10  1  0  0  0  0
 10 11  1  0  0  0  0
 10 26  1  0  0  0  0
 11 17  1  0  0  0  0
 11 12  1  0  0  0  0
 11 27  1  0  0  0  0
 12 13  1  0  0  0  0
 12 28  1  0  0  0  0
 12 29  1  0  0  0  0
 13 14  1  0  0  0  0
 13 30  1  0  0  0  0
 13 31  1  0  0  0  0
 14 15  2  0  0  0  0
 14 16  2  0  0  0  0
 14 17  1  0  0  0  0
 17 32  1  0  0  0  0
 17 33  1  0  0  0  0
 18 19  2  0  0  0  0
 18 34  1  0  0  0  0
M  END
> <s_m_source_file>
AV-unprocessed.smi

> <i_m_source_file_index>
1449

> <i_lp_mmshare_version>
43012

> <i_f3d_flags>
0

> <s_epik_input>
W0NIM11PYzFbY0hdW2NIXWMoW2NIXW4xKVtOSF1DKD1PKVtOSF1bQ0BASF0oW0NIMl0yKVtDSDJdW0NIMl1TMig9Tyk9Tw==

> <s_epik_cmdline>
J2VwaWtfcHl0aG9uJywgJy1waCcsICc3LjAnLCAnLXRuJywgJzgnLCAnLW1hJywgJzIwMCcsICctbWV0YWxfYmluZGluZycsICctaW1hZScsICc8aW5maWxlLm1hZT4nLCAnLW9tYWUnLCAnPG91dGZpbGUubWFlPic=

> <r_lp_tautomer_probability>
1

> <r_epik_Ionization_Penalty>
7.6506e-05

> <r_epik_Ionization_Penalty_Charging>
0

> <r_epik_Ionization_Penalty_Neutral>
7.6506e-05

> <r_epik_State_Penalty>
-0

> <r_epik_Charging_Adjusted_Penalty>
0

> <i_epik_Tot_Q>
0

> <i_epik_Tot_abs_Q>
0

> <r_epik_Metal_State_Penalty>
-0

> <b_epik_Metal_Only>
0

> <s_lp_Force_Field>
OPLS_2005

> <r_lp_Energy>
18.5668

> <b_lp_Chiralities_Consistent>
1

> <s_lp_Variant>
AV-unprocessed.smi:1449-2

> <Gold.Version>
5.8.1

> <Gold.Id.Protein>
6NUR|6NUR_protein|mol2

> <Gold.PLP.Fitness>
34.3510

> <Gold.PLP.PLP>
-26.4843

> <Gold.PLP.part.hbond>
-3.0000

> <Gold.PLP.part.metal>
0.0000

> <Gold.PLP.part.buried>
-6.2931

> <Gold.PLP.part.nonpolar>
-17.1374

> <Gold.PLP.part.repulsive>
0.9066

> <Gold.PLP.ligand.clash>
0.0000

> <Gold.PLP.ligand.torsion>
0.2080

> <Gold.PLP.Chemscore.Hbond>
2.7600

> <Gold.PLP.Chemscore.CHOScore>
0.0000

> <Gold.PLP.Chemscore.Metal>
0.0000

> <Gold.Chemscore.Hbonds>
donor molecule, donor type, donor heavy atom, donor atom, acceptor molecule, acceptor atom, score
      L1  H     7    25       P1 10171  0.88
      L1  H    10    26       P1 10175  0.86
      P1  H 11000 11005       L1    16  0.99

> <Gold.PLP.Chemscore.Internal.Correction>
0.0028

> <Gold.Rescore>
     Score         DG    S(hbond)    S(metal)    S(lipo)     H(rot)  DE(clash)    DE(int)     intcor
     14.27     -17.36       2.62        0.00      55.47       1.31       0.35       2.74       ----

> <Gold.Chemscore.Fitness>
14.2660

> <Gold.Chemscore.DG>
-17.3561

> <Gold.Chemscore.ZeroCoef>
-5.4800

> <Gold.Chemscore.Hbond>
2.6175

> <Gold.Chemscore.Metal>
0.0000

> <Gold.Chemscore.Lipo>
55.4663

> <Gold.Chemscore.Internal_Hbond>
0.0000

> <Gold.Chemscore.DEClash>
0.3482

> <Gold.Chemscore.DEInternal>
2.7419

> <Gold.Chemscore.Rot>
1.3109

> <Gold.Chemscore.Internal.Correction>
   9.000000E+99

> <Gold.Chemscore.Hbonds>
donor molecule, donor type, donor heavy atom, donor atom, acceptor molecule, acceptor atom, score
      L1  H     7    25       P1 10171  0.85
      L1  H    10    26       P1 10175  0.78
      P1  H 11000 11005       L1    16  0.92

> <Gold.Chemscore.Hbond.Weighted>
-8.7424

> <Gold.Chemscore.Metal.Weighted>
-0.0000

> <Gold.Chemscore.Lipo.Weighted>
-6.4896

> <Gold.Chemscore.Internal_Hbond.Weighted>
0.0000

> <Gold.Chemscore.DEClash.Weighted>
0.3482

> <Gold.Chemscore.DEInternal.Weighted>
2.7419

> <Gold.Chemscore.Rot.Weighted>
3.3559

> <Gold.Chemscore.Internal.Correction.Weighted>
   9.000000E+99

> <Gold.Protein.RotatedTorsions>
[ 6907 6896 6895 6894 ] final   23.45 input  -60.11 | X-H torsion
[ 7974 7965 7964 7962 ] final -117.25 input  175.53 | X-H torsion
[ 8008 7997 7996 7995 ] final  -49.02 input   59.86 | X-H torsion
[ 10167 10162 10161 10158 ] final -158.94 input  -65.29 | X-H torsion
[ 10718 10713 10712 10709 ] final  -39.25 input   66.30 | X-H torsion
[ 10763 10752 10751 10750 ] final   25.18 input  -60.55 | X-H torsion
[ 11005 11000 10999 10996 ] final  106.83 input  -57.11 | X-H torsion

> <Gold.Protein.ActiveResidues>
 VAL166  LYS551  ARG553  GLY616  TRP617  ASP618  TYR619  PRO620  LYS621  CYS622 
 ASP623  PHE694  ASN695  SER759  ASP760  ASP761  ALA762  ILE779  LEU786  VAL792 
 PHE793  MET794  SER795  GLU796  ALA797  LYS798  CYS799  TRP800  GLU811  SER814 

> <Gold.Protein.RotatedAtoms>
  151.9425  135.0207  160.0536 H   0  0  0  0  0  0  0  0  0  0  0  0  # atno 6907 bound_to 6896
  152.2024  133.4846  159.5074 H   0  0  0  0  0  0  0  0  0  0  0  0  # atno 6908 bound_to 6896
  150.6957  134.1490  159.4176 H   0  0  0  0  0  0  0  0  0  0  0  0  # atno 6909 bound_to 6896
  145.0873  140.8466  143.4003 H   0  0  0  0  0  0  0  0  0  0  0  0  # atno 7974 bound_to 7965
  154.4037  140.1307  156.4435 H   0  0  0  0  0  0  0  0  0  0  0  0  # atno 8008 bound_to 7997
  155.7436  140.3489  155.5096 H   0  0  0  0  0  0  0  0  0  0  0  0  # atno 8009 bound_to 7997
  155.9016  140.1020  157.1336 H   0  0  0  0  0  0  0  0  0  0  0  0  # atno 8010 bound_to 7997
  139.6654  143.9839  152.2251 H   0  0  0  0  0  0  0  0  0  0  0  0  # atno 10167 bound_to 10162
  156.2946  130.4232  149.8204 H   0  0  0  0  0  0  0  0  0  0  0  0  # atno 10718 bound_to 10713
  153.0710  135.6589  154.0247 H   0  0  0  0  0  0  0  0  0  0  0  0  # atno 10763 bound_to 10752
  153.9892  135.2947  155.3415 H   0  0  0  0  0  0  0  0  0  0  0  0  # atno 10764 bound_to 10752
  154.7085  135.5215  153.8700 H   0  0  0  0  0  0  0  0  0  0  0  0  # atno 10765 bound_to 10752
  139.8819  134.9382  156.5727 H   0  0  0  0  0  0  0  0  0  0  0  0  # atno 11005 bound_to 11000
  145.1107  139.2759  143.5639 LP  0  0  0  0  0  0  0  0  0  0  0  0  # atno 17320 bound_to 7965
  146.3531  140.0701  142.8624 LP  0  0  0  0  0  0  0  0  0  0  0  0  # atno 17321 bound_to 7965
  139.9589  144.6571  150.8098 LP  0  0  0  0  0  0  0  0  0  0  0  0  # atno 17342 bound_to 10162
  140.7597  143.3134  151.2790 LP  0  0  0  0  0  0  0  0  0  0  0  0  # atno 17343 bound_to 10162
  156.5604  130.8381  151.3327 LP  0  0  0  0  0  0  0  0  0  0  0  0  # atno 17370 bound_to 10713
  157.7352  130.9758  150.2068 LP  0  0  0  0  0  0  0  0  0  0  0  0  # atno 17371 bound_to 10713
  140.8086  133.8447  155.8790 LP  0  0  0  0  0  0  0  0  0  0  0  0  # atno 17394 bound_to 11000
  140.9527  134.1758  157.4716 LP  0  0  0  0  0  0  0  0  0  0  0  0  # atno 17395 bound_to 11000

$$$$
