#       Name:                AV-unprocessed.smi:1484
#       Creating user name   scv26
#       Creation time:       Fri Mar 27 06:08:51 2020


#       File generated by GOLD software.
#

@<TRIPOS>MOLECULE
AV-unprocessed.smi:1484
    44    45     1
SMALL
NO_CHARGES


@<TRIPOS>ATOM
      1 ****        -2.6457  -2.7146  -1.7964 C.3            1 S1                 0.0000
      2 ****        -2.0033  -2.1358  -0.5279 C.3            1 S1                 0.0000
      3 ****        -2.4903  -2.8716   0.7349 C.3            1 S1                 0.0000
      4 ****        -1.8515  -2.2939   2.0075 C.3            1 S1                 0.0000
      5 ****        -2.1117  -0.7824   2.1273 C.3            1 S1                 0.0000
      6 ****        -1.6519  -0.0120   0.8747 C.3            1 S1                 0.0000
      7 ****        -0.1919   0.0151   0.8060 N.am           1 S1                 0.0000
      8 ****         0.5446   0.9490   0.1853 C.2            1 S1                 0.0000
      9 ****         0.0505   1.9077  -0.4106 O.2            1 S1                 0.0000
     10 ****         2.0664   0.7450   0.2556 C.3            1 S1                 0.0000
     11 ****         2.8518   1.8513  -0.3110 N.am           1 S1                 0.0000
     12 ****         3.3839   2.7694   0.6926 N.pl3          1 S1                -1.0000
     13 ****         4.1128   3.8432   0.2879 C.2            1 S1                 0.0000
     14 ****         4.5788   4.6662   1.0725 O.2            1 S1                 0.0000
     15 ****         4.3485   4.0128  -1.1363 C.2            1 S1                 0.0000
     16 ****         3.8628   3.1381  -2.0389 C.2            1 S1                 0.0000
     17 ****         3.0718   1.9763  -1.6511 C.2            1 S1                 0.0000
     18 ****         2.6316   1.1691  -2.4699 O.2            1 S1                 0.0000
     19 ****        -2.2660  -0.6200  -0.4054 C.3            1 S1                 0.0000
     20 ****        -3.7297  -2.5969  -1.7819 H              1 S1                 0.0000
     21 ****        -2.4275  -3.7781  -1.8968 H              1 S1                 0.0000
     22 ****        -2.2683  -2.2156  -2.6894 H              1 S1                 0.0000
     23 ****        -0.9264  -2.2878  -0.6118 H              1 S1                 0.0000
     24 ****        -3.5762  -2.7985   0.8094 H              1 S1                 0.0000
     25 ****        -2.2573  -3.9344   0.6608 H              1 S1                 0.0000
     26 ****        -2.2454  -2.8070   2.8851 H              1 S1                 0.0000
     27 ****        -0.7777  -2.4850   1.9973 H              1 S1                 0.0000
     28 ****        -3.1800  -0.6178   2.2741 H              1 S1                 0.0000
     29 ****        -1.6197  -0.3862   3.0168 H              1 S1                 0.0000
     30 ****        -2.0041   1.0165   0.9726 H              1 S1                 0.0000
     31 ****         0.2977  -0.7366   1.2690 H              1 S1                 0.0000
     32 ****         2.3437   0.5865   1.2996 H              1 S1                 0.0000
     33 ****         2.3168  -0.1866  -0.2548 H              1 S1                 0.0000
     34 ****         4.9276   4.8581  -1.4779 H              1 S1                 0.0000
     35 ****         4.0638   3.3032  -3.0868 H              1 S1                 0.0000
     36 ****        -1.8864  -0.1010  -1.2866 H              1 S1                 0.0000
     37 ****        -3.3424  -0.4439  -0.3961 H              1 S1                 0.0000
     38 ****        -0.9430   2.0158  -0.4468 LP             1 S1                 0.0000
     39 ****         0.6430   2.5776  -0.8580 LP             1 S1                 0.0000
     40 ****         3.2142   2.6101   1.6652 LP             1 S1                 0.0000
     41 ****         4.4277   4.5612   2.0554 LP             1 S1                 0.0000
     42 ****         5.1091   5.4408   0.7281 LP             1 S1                 0.0000
     43 ****         2.0909   0.3870  -2.1600 LP             1 S1                 0.0000
     44 ****         2.8147   1.2955  -3.4448 LP             1 S1                 0.0000
@<TRIPOS>BOND
    1    1    2 1     
    2    1   20 1     
    3    1   21 1     
    4    1   22 1     
    5    2   19 1     
    6    2    3 1     
    7    2   23 1     
    8    3    4 1     
    9    3   24 1     
   10    3   25 1     
   11    4    5 1     
   12    4   26 1     
   13    4   27 1     
   14    5    6 1     
   15    5   28 1     
   16    5   29 1     
   17    6    7 1     
   18    6   19 1     
   19    6   30 1     
   20    7    8 am    
   21    7   31 1     
   22    8    9 2     
   23    8   10 1     
   24   10   32 1     
   25   10   33 1     
   26   10   11 1     
   27   11   12 1     
   28   11   17 am    
   29   12   13 1     
   30   13   14 2     
   31   13   15 1     
   32   15   34 1     
   33   15   16 2     
   34   16   35 1     
   35   16   17 1     
   36   17   18 2     
   37   19   36 1     
   38   19   37 1     
   39    9   38 1     
   40    9   39 1     
   41   12   40 1     
   42   14   41 1     
   43   14   42 1     
   44   18   43 1     
   45   18   44 1     
@<TRIPOS>SUBSTRUCTURE
      1 S1             1
@<TRIPOS>SET
LONE_PAIRS      STATIC     ATOMS    <user>   **** ""
7 38 39 40 41 42 43 44
DONOR_HYDROGENS      STATIC     ATOMS    <user>   **** ""
1 31
ATOM$BLUE        STATIC     ATOMS    COLORGROUP SYSTEM
7 38 39 40 41 42 43 44
ATOM$RED        STATIC     ATOMS    COLORGROUP SYSTEM
1 31
