AV-unprocessed.smi:414|AV-procd|sdf|2514|dock10
  -GOLD-   2262022463D 1   1.00000     0.00000
 Structure written by MMmdl.
 38 39  0  0  0  0  0  0  0  0  1 V2000
  153.0215  142.7790  161.2430 C   0  0  0  0  0  0  0  0  0  0  0  0
  152.0230  142.7948  160.0769 C   0  0  2  0  0  0  0  0  0  0  0  0
  151.8883  141.4025  159.4311 C   0  0  0  0  0  0  0  0  0  0  0  0
  150.8911  141.4156  158.2612 C   0  0  0  0  0  0  0  0  0  0  0  0
  151.2786  142.4635  157.2022 C   0  0  1  0  0  0  0  0  0  0  0  0
  150.2767  142.4804  156.1408 N   0  0  0  0  0  0  0  0  0  0  0  0
  150.0794  141.5021  155.2436 C   0  0  0  0  0  0  0  0  0  0  0  0
  150.7523  140.4708  155.2114 O   0  0  0  0  0  0  0  0  0  0  0  0
  148.9651  141.7456  154.2156 C   0  0  0  0  0  0  0  0  0  0  0  0
  147.6198  141.5046  154.7575 N   0  0  0  0  0  0  0  0  0  0  0  0
  147.2603  142.0202  155.9947 C   0  0  0  0  0  0  0  0  0  0  0  0
  146.0363  141.8469  156.5476 C   0  0  0  0  0  0  0  0  0  0  0  0
  145.0090  141.0865  155.8441 C   0  0  0  0  0  0  0  0  0  0  0  0
  143.8729  140.8738  156.2619 O   0  0  0  0  0  0  0  0  0  0  0  0
  145.4082  140.5861  154.6018 N   0  0  0  0  0  0  0  0  0  0  0  0
  146.6673  140.7624  154.0256 C   0  0  0  0  0  0  0  0  0  0  0  0
  146.9144  140.2811  152.9203 O   0  0  0  0  0  0  0  0  0  0  0  0
  151.4168  143.8587  157.8442 C   0  0  0  0  0  0  0  0  0  0  0  0
  152.4117  143.8420  159.0160 C   0  0  0  0  0  0  0  0  0  0  0  0
  144.7287  140.0553  154.0764 H   0  0  0  0  0  0  0  0  0  0  0  0
  154.0217  142.5057  160.9053 H   0  0  0  0  0  0  0  0  0  0  0  0
  152.7206  142.0625  162.0081 H   0  0  0  0  0  0  0  0  0  0  0  0
  153.0864  143.7586  161.7176 H   0  0  0  0  0  0  0  0  0  0  0  0
  151.0491  143.0731  160.4827 H   0  0  0  0  0  0  0  0  0  0  0  0
  152.8624  141.0657  159.0732 H   0  0  0  0  0  0  0  0  0  0  0  0
  151.5657  140.6748  160.1765 H   0  0  0  0  0  0  0  0  0  0  0  0
  150.8466  140.4246  157.8074 H   0  0  0  0  0  0  0  0  0  0  0  0
  149.8907  141.6257  158.6427 H   0  0  0  0  0  0  0  0  0  0  0  0
  152.2415  142.1733  156.7766 H   0  0  0  0  0  0  0  0  0  0  0  0
  149.6826  143.2951  156.0898 H   0  0  0  0  0  0  0  0  0  0  0  0
  149.0363  142.7635  153.8266 H   0  0  0  0  0  0  0  0  0  0  0  0
  149.1489  141.0967  153.3579 H   0  0  0  0  0  0  0  0  0  0  0  0
  147.9882  142.5945  156.5500 H   0  0  0  0  0  0  0  0  0  0  0  0
  145.8158  142.2744  157.5150 H   0  0  0  0  0  0  0  0  0  0  0  0
  151.7447  144.5858  157.1002 H   0  0  0  0  0  0  0  0  0  0  0  0
  150.4438  144.1998  158.2008 H   0  0  0  0  0  0  0  0  0  0  0  0
  152.4577  144.8330  159.4686 H   0  0  0  0  0  0  0  0  0  0  0  0
  153.4125  143.6297  158.6372 H   0  0  0  0  0  0  0  0  0  0  0  0
  1  2  1  0  0  0  0
  1 21  1  0  0  0  0
  1 22  1  0  0  0  0
  1 23  1  0  0  0  0
  2 19  1  0  0  0  0
  2  3  1  0  0  0  0
  2 24  1  0  0  0  0
  3  4  1  0  0  0  0
  3 25  1  0  0  0  0
  3 26  1  0  0  0  0
  4  5  1  0  0  0  0
  4 27  1  0  0  0  0
  4 28  1  0  0  0  0
  5  6  1  0  0  0  0
  5 18  1  0  0  0  0
  5 29  1  0  0  0  0
  6  7  1  0  0  0  0
  6 30  1  0  0  0  0
  7  8  2  0  0  0  0
  7  9  1  0  0  0  0
  9 10  1  0  0  0  0
  9 31  1  0  0  0  0
  9 32  1  0  0  0  0
 10 16  1  0  0  0  0
 10 11  1  0  0  0  0
 11 12  2  0  0  0  0
 11 33  1  0  0  0  0
 12 13  1  0  0  0  0
 12 34  1  0  0  0  0
 13 14  2  0  0  0  0
 13 15  1  0  0  0  0
 15 20  1  0  0  0  0
 15 16  1  0  0  0  0
 16 17  2  0  0  0  0
 18 19  1  0  0  0  0
 18 35  1  0  0  0  0
 18 36  1  0  0  0  0
 19 37  1  0  0  0  0
 19 38  1  0  0  0  0
M  END
> <s_m_source_file>
AV-unprocessed.smi

> <i_m_source_file_index>
414

> <i_lp_mmshare_version>
43012

> <i_f3d_flags>
0

> <s_epik_input>
W0NIM11bQ0BASF0xW0NIMl1bQ0gyXVtDQEhdKFtDSDJdW0NIMl0xKVtOSF1DKD1PKVtDSDJdbjJbY0hdW2NIXWMoPU8pW25IXWMyPU8=

> <s_epik_cmdline>
J2VwaWtfcHl0aG9uJywgJy1waCcsICc3LjAnLCAnLXRuJywgJzgnLCAnLW1hJywgJzIwMCcsICctbWV0YWxfYmluZGluZycsICctaW1hZScsICc8aW5maWxlLm1hZT4nLCAnLW9tYWUnLCAnPG91dGZpbGUubWFlPic=

> <r_lp_tautomer_probability>
0.999537

> <r_epik_Ionization_Penalty>
0.00309124

> <r_epik_Ionization_Penalty_Charging>
0.00309122

> <r_epik_Ionization_Penalty_Neutral>
1.90469e-08

> <r_epik_State_Penalty>
0.00217484

> <r_epik_Charging_Adjusted_Penalty>
0.00526606

> <i_epik_Tot_Q>
0

> <i_epik_Tot_abs_Q>
0

> <r_epik_Metal_State_Penalty>
0.362537

> <b_epik_Metal_Only>
0

> <s_lp_Force_Field>
OPLS_2005

> <r_lp_Energy>
8.30971

> <b_lp_Chiralities_Consistent>
1

> <s_lp_Variant>
AV-unprocessed.smi:414-1

> <Gold.Version>
5.8.1

> <Gold.Id.Protein>
6NUR|6NUR_protein|mol2

> <Gold.PLP.Fitness>
43.2558

> <Gold.PLP.PLP>
-34.7452

> <Gold.PLP.part.hbond>
-3.0000

> <Gold.PLP.part.metal>
0.0000

> <Gold.PLP.part.buried>
-1.8956

> <Gold.PLP.part.nonpolar>
-29.0233

> <Gold.PLP.part.repulsive>
0.4693

> <Gold.PLP.ligand.clash>
0.0000

> <Gold.PLP.ligand.torsion>
0.5197

> <Gold.PLP.Chemscore.Hbond>
2.3580

> <Gold.PLP.Chemscore.CHOScore>
0.8238

> <Gold.PLP.Chemscore.Metal>
0.0000

> <Gold.Chemscore.Hbonds>
donor molecule, donor type, donor heavy atom, donor atom, acceptor molecule, acceptor atom, score
      L1  H     6    30       P1  8028  1.00
      L1  H    15    20       P1 10175  0.64
      P1  H  7989  7998       L1     8  0.75
      L1  C    11    33       P1  8028  0.81

> <Gold.PLP.Chemscore.Internal.Correction>
0.0045

> <Gold.Rescore>
     Score         DG    S(hbond)    S(metal)    S(lipo)     H(rot)  DE(clash)    DE(int)     intcor
     15.44     -15.99       1.61        0.00      80.88       1.69       0.08       0.48       ----

> <Gold.Chemscore.Fitness>
15.4385

> <Gold.Chemscore.DG>
-15.9918

> <Gold.Chemscore.ZeroCoef>
-5.4800

> <Gold.Chemscore.Hbond>
1.6072

> <Gold.Chemscore.Metal>
0.0000

> <Gold.Chemscore.Lipo>
80.8845

> <Gold.Chemscore.Internal_Hbond>
0.0000

> <Gold.Chemscore.DEClash>
0.0764

> <Gold.Chemscore.DEInternal>
0.4769

> <Gold.Chemscore.Rot>
1.6874

> <Gold.Chemscore.Internal.Correction>
   9.000000E+99

> <Gold.Chemscore.Hbonds>
donor molecule, donor type, donor heavy atom, donor atom, acceptor molecule, acceptor atom, score
      L1  H     6    30       P1  8028  1.00
      L1  H    15    20       P1 10175  0.63
      P1  H  7989  7998       L1     8  0.09

> <Gold.Chemscore.Hbond.Weighted>
-5.3681

> <Gold.Chemscore.Metal.Weighted>
-0.0000

> <Gold.Chemscore.Lipo.Weighted>
-9.4635

> <Gold.Chemscore.Internal_Hbond.Weighted>
0.0000

> <Gold.Chemscore.DEClash.Weighted>
0.0764

> <Gold.Chemscore.DEInternal.Weighted>
0.4769

> <Gold.Chemscore.Rot.Weighted>
4.3198

> <Gold.Chemscore.Internal.Correction.Weighted>
   9.000000E+99

> <Gold.Protein.RotatedTorsions>
[ 6907 6896 6895 6894 ] final -171.96 input  -60.11 | X-H torsion
[ 7974 7965 7964 7962 ] final    7.33 input  175.53 | X-H torsion
[ 8008 7997 7996 7995 ] final -165.68 input   59.86 | X-H torsion
[ 10167 10162 10161 10158 ] final   12.76 input  -65.29 | X-H torsion
[ 10718 10713 10712 10709 ] final  120.40 input   66.30 | X-H torsion
[ 10763 10752 10751 10750 ] final  108.55 input  -60.55 | X-H torsion
[ 11005 11000 10999 10996 ] final    5.68 input  -57.11 | X-H torsion

> <Gold.Protein.ActiveResidues>
 VAL166  LYS551  ARG553  GLY616  TRP617  ASP618  TYR619  PRO620  LYS621  CYS622 
 ASP623  PHE694  ASN695  SER759  ASP760  ASP761  ALA762  ILE779  LEU786  VAL792 
 PHE793  MET794  SER795  GLU796  ALA797  LYS798  CYS799  TRP800  GLU811  SER814 

> <Gold.Protein.RotatedAtoms>
  151.5322  133.3447  159.2920 H   0  0  0  0  0  0  0  0  0  0  0  0  # atno 6907 bound_to 6896
  150.8586  134.7935  159.7076 H   0  0  0  0  0  0  0  0  0  0  0  0  # atno 6908 bound_to 6896
  152.4612  134.5187  159.9828 H   0  0  0  0  0  0  0  0  0  0  0  0  # atno 6909 bound_to 6896
  146.2427  140.0099  142.8407 H   0  0  0  0  0  0  0  0  0  0  0  0  # atno 7974 bound_to 7965
  155.8532  140.0966  157.1661 H   0  0  0  0  0  0  0  0  0  0  0  0  # atno 8008 bound_to 7997
  154.3986  140.1379  156.3932 H   0  0  0  0  0  0  0  0  0  0  0  0  # atno 8009 bound_to 7997
  155.7938  140.3455  155.5366 H   0  0  0  0  0  0  0  0  0  0  0  0  # atno 8010 bound_to 7997
  140.6047  143.8533  150.7001 H   0  0  0  0  0  0  0  0  0  0  0  0  # atno 10167 bound_to 10162
  157.5893  131.1066  150.8030 H   0  0  0  0  0  0  0  0  0  0  0  0  # atno 10718 bound_to 10713
  153.4222  135.3808  155.2118 H   0  0  0  0  0  0  0  0  0  0  0  0  # atno 10763 bound_to 10752
  154.8745  135.3820  154.4370 H   0  0  0  0  0  0  0  0  0  0  0  0  # atno 10764 bound_to 10752
  153.4892  135.7088  153.5957 H   0  0  0  0  0  0  0  0  0  0  0  0  # atno 10765 bound_to 10752
  140.5680  134.0129  155.7997 H   0  0  0  0  0  0  0  0  0  0  0  0  # atno 11005 bound_to 11000
  145.1337  140.9532  143.4529 LP  0  0  0  0  0  0  0  0  0  0  0  0  # atno 17320 bound_to 7965
  145.0362  139.3298  143.5999 LP  0  0  0  0  0  0  0  0  0  0  0  0  # atno 17321 bound_to 7965
  140.2087  143.3900  152.1735 LP  0  0  0  0  0  0  0  0  0  0  0  0  # atno 17342 bound_to 10162
  139.5316  144.7165  151.5037 LP  0  0  0  0  0  0  0  0  0  0  0  0  # atno 17343 bound_to 10162
  156.8456  130.5063  149.5317 LP  0  0  0  0  0  0  0  0  0  0  0  0  # atno 17370 bound_to 10713
  156.0946  130.5922  150.9791 LP  0  0  0  0  0  0  0  0  0  0  0  0  # atno 17371 bound_to 10713
  141.1074  133.9672  157.2973 LP  0  0  0  0  0  0  0  0  0  0  0  0  # atno 17394 bound_to 11000
  139.9375  135.0195  156.8604 LP  0  0  0  0  0  0  0  0  0  0  0  0  # atno 17395 bound_to 11000

$$$$
