AV-unprocessed.smi:1582|AV-procd|sdf|6361|dock6
  -GOLD-   22720 6583D 1   1.00000     0.00000
 Structure written by MMmdl.
 41 42  0  0  0  0  0  0  0  0  2 V2000
  144.7133  138.2046  152.3914 O   0  0  0  0  0  0  0  0  0  0  0  0
  145.8255  137.7173  152.1891 C   0  0  0  0  0  0  0  0  0  0  0  0
  146.9695  138.4006  152.3336 N   0  0  0  0  0  0  0  0  0  0  0  0
  147.0653  139.8064  152.7132 C   0  0  0  0  0  0  0  0  0  0  0  0
  148.0116  140.0224  153.9128 C   0  0  2  0  0  0  0  0  0  0  0  0
  147.5748  139.2029  154.9794 O   0  0  0  0  0  0  0  0  0  0  0  0
  147.9620  141.4806  154.4151 C   0  0  0  0  0  0  0  0  0  0  0  0
  148.8933  141.7316  155.5457 N   0  3  0  0  0  0  0  0  0  0  0  0
  150.1216  140.8994  155.4574 C   0  0  0  0  0  0  0  0  0  0  0  0
  151.1319  141.2773  156.5536 C   0  0  0  0  0  0  0  0  0  0  0  0
  150.4986  141.1663  157.9461 C   0  0  0  0  0  0  0  0  0  0  0  0
  149.2183  142.0090  158.0053 C   0  0  0  0  0  0  0  0  0  0  0  0
  148.2464  141.6145  156.8805 C   0  0  0  0  0  0  0  0  0  0  0  0
  146.0566  136.4520  151.8027 N   0  0  0  0  0  0  0  0  0  0  0  0
  145.0948  135.4468  151.5286 C   0  0  0  0  0  0  0  0  0  0  0  0
  145.3024  134.0539  151.7219 C   0  0  0  0  0  0  0  0  0  0  0  0
  144.2316  133.3529  151.3777 N   0  0  0  0  0  0  0  0  0  0  0  0
  143.3420  134.2850  150.9675 N   0  0  0  0  0  0  0  0  0  0  0  0
  143.8237  135.5733  151.0423 C   0  0  0  0  0  0  0  0  0  0  0  0
  142.4205  134.0292  150.6422 H   0  0  0  0  0  0  0  0  0  0  0  0
  147.8370  137.9191  152.1461 H   0  0  0  0  0  0  0  0  0  0  0  0
  147.4652  140.3209  151.8391 H   0  0  0  0  0  0  0  0  0  0  0  0
  146.0797  140.2411  152.8912 H   0  0  0  0  0  0  0  0  0  0  0  0
  149.0283  139.7465  153.6332 H   0  0  0  0  0  0  0  0  0  0  0  0
  146.6540  139.3652  155.1251 H   0  0  0  0  0  0  0  0  0  0  0  0
  148.1891  142.1755  153.6051 H   0  0  0  0  0  0  0  0  0  0  0  0
  146.9389  141.7021  154.7239 H   0  0  0  0  0  0  0  0  0  0  0  0
  149.8541  139.8445  155.5374 H   0  0  0  0  0  0  0  0  0  0  0  0
  150.5898  141.0353  154.4817 H   0  0  0  0  0  0  0  0  0  0  0  0
  152.0092  140.6329  156.4904 H   0  0  0  0  0  0  0  0  0  0  0  0
  151.4845  142.2969  156.3913 H   0  0  0  0  0  0  0  0  0  0  0  0
  150.2656  140.1232  158.1640 H   0  0  0  0  0  0  0  0  0  0  0  0
  151.2040  141.4959  158.7095 H   0  0  0  0  0  0  0  0  0  0  0  0
  148.7363  141.8857  158.9757 H   0  0  0  0  0  0  0  0  0  0  0  0
  149.4705  143.0667  157.9170 H   0  0  0  0  0  0  0  0  0  0  0  0
  147.3674  142.2553  156.9355 H   0  0  0  0  0  0  0  0  0  0  0  0
  147.8994  140.5907  157.0293 H   0  0  0  0  0  0  0  0  0  0  0  0
  147.0211  136.1824  151.6757 H   0  0  0  0  0  0  0  0  0  0  0  0
  146.1767  133.5386  152.0918 H   0  0  0  0  0  0  0  0  0  0  0  0
  143.2330  136.4290  150.7504 H   0  0  0  0  0  0  0  0  0  0  0  0
  149.1980  142.6900  155.4471 H   0  0  0  0  0  0  0  0  0  0  0  0
  1  2  2  0  0  0  0
  2  3  1  0  0  0  0
  2 14  1  0  0  0  0
  3  4  1  0  0  0  0
  3 21  1  0  0  0  0
  4  5  1  0  0  0  0
  4 22  1  0  0  0  0
  4 23  1  0  0  0  0
  5  6  1  0  0  0  0
  5  7  1  0  0  0  0
  5 24  1  0  0  0  0
  6 25  1  0  0  0  0
  7  8  1  0  0  0  0
  7 26  1  0  0  0  0
  7 27  1  0  0  0  0
  8 13  1  0  0  0  0
  8  9  1  0  0  0  0
  8 41  1  0  0  0  0
  9 10  1  0  0  0  0
  9 28  1  0  0  0  0
  9 29  1  0  0  0  0
 10 11  1  0  0  0  0
 10 30  1  0  0  0  0
 10 31  1  0  0  0  0
 11 12  1  0  0  0  0
 11 32  1  0  0  0  0
 11 33  1  0  0  0  0
 12 13  1  0  0  0  0
 12 34  1  0  0  0  0
 12 35  1  0  0  0  0
 13 36  1  0  0  0  0
 13 37  1  0  0  0  0
 14 15  1  0  0  0  0
 14 38  1  0  0  0  0
 15 19  2  0  0  0  0
 15 16  1  0  0  0  0
 16 17  2  0  0  0  0
 16 39  1  0  0  0  0
 17 18  1  0  0  0  0
 18 20  1  0  0  0  0
 18 19  1  0  0  0  0
 19 40  1  0  0  0  0
M  CHG  1   8   1
M  END
> <s_m_source_file>
AV-unprocessed.smi

> <i_m_source_file_index>
1582

> <i_lp_mmshare_version>
43012

> <i_f3d_flags>
0

> <s_epik_input>
W2NIXTFbbkhdbltjSF1jMVtOSF1DKD1PKVtOSF1bQ0gyXVtDQEhdKFtPSF0pW0NIMl1OMltDSDJdW0NIMl1bQ0gyXVtDSDJdW0NIMl0y

> <s_epik_cmdline>
J2VwaWtfcHl0aG9uJywgJy1waCcsICc3LjAnLCAnLXRuJywgJzgnLCAnLW1hJywgJzIwMCcsICctbWV0YWxfYmluZGluZycsICctaW1hZScsICc8aW5maWxlLm1hZT4nLCAnLW9tYWUnLCAnPG91dGZpbGUubWFlPic=

> <r_lp_tautomer_probability>
0.5

> <r_epik_Ionization_Penalty>
0.00519658

> <r_epik_Ionization_Penalty_Charging>
0.00515354

> <r_epik_Ionization_Penalty_Neutral>
4.30332e-05

> <r_epik_State_Penalty>
0.00375424

> <r_epik_Charging_Adjusted_Penalty>
0.00890779

> <i_epik_Tot_Q>
1

> <i_epik_Tot_abs_Q>
1

> <r_epik_Metal_State_Penalty>
-0

> <b_epik_Metal_Only>
0

> <s_lp_Force_Field>
OPLS_2005

> <r_lp_Energy>
21.997

> <b_lp_Chiralities_Consistent>
1

> <s_lp_Variant>
AV-unprocessed.smi:1582-1

> <Gold.Version>
5.8.1

> <Gold.Id.Protein>
6NUR|6NUR_protein|mol2

> <Gold.PLP.Fitness>
41.8748

> <Gold.PLP.PLP>
-26.5116

> <Gold.PLP.part.hbond>
-4.5996

> <Gold.PLP.part.metal>
0.0000

> <Gold.PLP.part.buried>
-3.2923

> <Gold.PLP.part.nonpolar>
-23.9934

> <Gold.PLP.part.repulsive>
5.4816

> <Gold.PLP.ligand.clash>
0.0000

> <Gold.PLP.ligand.torsion>
0.6474

> <Gold.PLP.Chemscore.Hbond>
4.5361

> <Gold.PLP.Chemscore.CHOScore>
1.0000

> <Gold.PLP.Chemscore.Metal>
0.0000

> <Gold.Chemscore.Hbonds>
donor molecule, donor type, donor heavy atom, donor atom, acceptor molecule, acceptor atom, score
      L1  H     3    21       P1  7948  1.00
      L1  H     8    41       P1  8028  1.85
      L1  H    14    38       P1  7948  1.00
      L1  H    18    20       P1 10186  0.94
      L1  C    19    40       P1 10171  1.00

> <Gold.PLP.Chemscore.Internal.Correction>
0.0497

> <Gold.Rescore>
     Score         DG    S(hbond)    S(metal)    S(lipo)     H(rot)  DE(clash)    DE(int)     intcor
     13.88     -18.68       3.81        0.00      60.73       2.59       3.34       1.45       ----

> <Gold.Chemscore.Fitness>
13.8829

> <Gold.Chemscore.DG>
-18.6768

> <Gold.Chemscore.ZeroCoef>
-5.4800

> <Gold.Chemscore.Hbond>
3.8069

> <Gold.Chemscore.Metal>
0.0000

> <Gold.Chemscore.Lipo>
60.7349

> <Gold.Chemscore.Internal_Hbond>
0.0000

> <Gold.Chemscore.DEClash>
3.3405

> <Gold.Chemscore.DEInternal>
1.4534

> <Gold.Chemscore.Rot>
2.5876

> <Gold.Chemscore.Internal.Correction>
   9.000000E+99

> <Gold.Chemscore.Hbonds>
donor molecule, donor type, donor heavy atom, donor atom, acceptor molecule, acceptor atom, score
      L1  H     3    21       P1  7948  0.92
      L1  H     8    41       P1  8028  0.84
      L1  H    14    38       P1  7948  0.99
      L1  H    18    20       P1 10186  0.64

> <Gold.Chemscore.Hbond.Weighted>
-12.7150

> <Gold.Chemscore.Metal.Weighted>
-0.0000

> <Gold.Chemscore.Lipo.Weighted>
-7.1060

> <Gold.Chemscore.Internal_Hbond.Weighted>
0.0000

> <Gold.Chemscore.DEClash.Weighted>
3.3405

> <Gold.Chemscore.DEInternal.Weighted>
1.4534

> <Gold.Chemscore.Rot.Weighted>
6.6242

> <Gold.Chemscore.Internal.Correction.Weighted>
   9.000000E+99

> <Gold.Protein.RotatedTorsions>
[ 6907 6896 6895 6894 ] final  -55.64 input  -60.11 | X-H torsion
[ 7974 7965 7964 7962 ] final -178.91 input  175.53 | X-H torsion
[ 8008 7997 7996 7995 ] final -171.05 input   59.86 | X-H torsion
[ 10167 10162 10161 10158 ] final  -20.79 input  -65.29 | X-H torsion
[ 10718 10713 10712 10709 ] final   80.39 input   66.30 | X-H torsion
[ 10763 10752 10751 10750 ] final  173.85 input  -60.55 | X-H torsion
[ 11005 11000 10999 10996 ] final  174.79 input  -57.11 | X-H torsion

> <Gold.Protein.ActiveResidues>
 VAL166  LYS551  ARG553  GLY616  TRP617  ASP618  TYR619  PRO620  LYS621  CYS622 
 ASP623  PHE694  ASN695  SER759  ASP760  ASP761  ALA762  ILE779  LEU786  VAL792 
 PHE793  MET794  SER795  GLU796  ALA797  LYS798  CYS799  TRP800  GLU811  SER814 

> <Gold.Protein.RotatedAtoms>
  150.8234  134.7453  159.6791 H   0  0  0  0  0  0  0  0  0  0  0  0  # atno 6907 bound_to 6896
  152.4347  134.5705  159.9930 H   0  0  0  0  0  0  0  0  0  0  0  0  # atno 6908 bound_to 6896
  151.5884  133.3332  159.3058 H   0  0  0  0  0  0  0  0  0  0  0  0  # atno 6909 bound_to 6896
  144.7133  140.0798  143.6426 H   0  0  0  0  0  0  0  0  0  0  0  0  # atno 7974 bound_to 7965
  155.9264  140.1083  157.1166 H   0  0  0  0  0  0  0  0  0  0  0  0  # atno 8008 bound_to 7997
  154.4063  140.1246  156.4811 H   0  0  0  0  0  0  0  0  0  0  0  0  # atno 8009 bound_to 7997
  155.7133  140.3470  155.4986 H   0  0  0  0  0  0  0  0  0  0  0  0  # atno 8010 bound_to 7997
  140.7278  143.4689  151.0275 H   0  0  0  0  0  0  0  0  0  0  0  0  # atno 10167 bound_to 10162
  157.6805  130.9957  150.2073 H   0  0  0  0  0  0  0  0  0  0  0  0  # atno 10718 bound_to 10713
  154.4458  135.2763  155.1816 H   0  0  0  0  0  0  0  0  0  0  0  0  # atno 10763 bound_to 10752
  154.3664  135.6118  153.5720 H   0  0  0  0  0  0  0  0  0  0  0  0  # atno 10764 bound_to 10752
  152.9843  135.5846  154.4793 H   0  0  0  0  0  0  0  0  0  0  0  0  # atno 10765 bound_to 10752
  140.3551  134.7161  157.4294 H   0  0  0  0  0  0  0  0  0  0  0  0  # atno 11005 bound_to 11000
  145.9712  139.2871  143.1098 LP  0  0  0  0  0  0  0  0  0  0  0  0  # atno 17320 bound_to 7965
  145.9114  140.9177  143.0452 LP  0  0  0  0  0  0  0  0  0  0  0  0  # atno 17321 bound_to 7965
  139.8379  143.7603  152.3180 LP  0  0  0  0  0  0  0  0  0  0  0  0  # atno 17342 bound_to 10162
  139.7741  144.7466  151.0181 LP  0  0  0  0  0  0  0  0  0  0  0  0  # atno 17343 bound_to 10162
  156.2751  130.3726  149.7992 LP  0  0  0  0  0  0  0  0  0  0  0  0  # atno 17370 bound_to 10713
  156.5697  130.8419  151.3353 LP  0  0  0  0  0  0  0  0  0  0  0  0  # atno 17371 bound_to 10713
  140.0671  134.5914  155.8683 LP  0  0  0  0  0  0  0  0  0  0  0  0  # atno 17394 bound_to 11000
  141.2001  133.6610  156.5877 LP  0  0  0  0  0  0  0  0  0  0  0  0  # atno 17395 bound_to 11000

$$$$
