AV-unprocessed.smi:3181|AV-procd|sdf|12138|dock1
  -GOLD-   2272017573D 1   1.00000     0.00000
 Structure written by MMmdl.
 42 43  0  0  0  0  0  0  0  0  2 V2000
  148.0143  140.7190  156.8085 C   0  0  0  0  0  0  0  0  0  0  0  0
  149.4886  141.1552  156.7871 C   0  0  1  0  0  0  0  0  0  0  0  0
  150.1104  141.0608  155.3766 C   0  0  0  0  0  0  0  0  0  0  0  0
  150.6959  139.7616  155.1022 N   0  0  0  0  0  0  0  0  0  0  0  0
  150.3948  138.8497  154.1761 C   0  0  0  0  0  0  0  0  0  0  0  0
  151.1604  137.7687  154.2217 N   0  0  0  0  0  0  0  0  0  0  0  0
  151.9737  138.1079  155.2659 C   0  0  0  0  0  0  0  0  0  0  0  0
  151.7397  139.2948  155.8264 N   0  0  0  0  0  0  0  0  0  0  0  0
  149.6006  142.5392  157.3011 N   0  3  0  0  0  0  0  0  0  0  0  0
  150.9399  142.9535  157.7792 C   0  0  1  0  0  0  0  0  0  0  0  0
  150.9444  144.4072  158.2957 C   0  0  0  0  0  0  0  0  0  0  0  0
  152.3196  144.8021  158.8614 C   0  0  0  0  0  0  0  0  0  0  0  0
  152.8032  143.8389  159.9643 C   0  0  1  0  0  0  0  0  0  0  0  0
  152.0174  144.0348  161.2770 C   0  0  0  0  0  0  0  0  0  0  0  0
  152.8004  142.3832  159.4323 C   0  0  1  0  0  0  0  0  0  0  0  0
  153.3232  141.3603  160.4543 C   0  0  0  0  0  0  0  0  0  0  0  0
  151.4177  141.9855  158.8780 C   0  0  0  0  0  0  0  0  0  0  0  0
  147.8996  139.6784  156.5042 H   0  0  0  0  0  0  0  0  0  0  0  0
  147.4091  141.3305  156.1383 H   0  0  0  0  0  0  0  0  0  0  0  0
  147.5946  140.8087  157.8109 H   0  0  0  0  0  0  0  0  0  0  0  0
  150.0308  140.4838  157.4549 H   0  0  0  0  0  0  0  0  0  0  0  0
  149.3527  141.2616  154.6177 H   0  0  0  0  0  0  0  0  0  0  0  0
  150.8873  141.8140  155.2429 H   0  0  0  0  0  0  0  0  0  0  0  0
  149.5986  138.9758  153.4571 H   0  0  0  0  0  0  0  0  0  0  0  0
  152.7619  137.4613  155.6227 H   0  0  0  0  0  0  0  0  0  0  0  0
  149.2858  143.1839  156.5902 H   0  0  0  0  0  0  0  0  0  0  0  0
  151.6351  142.8738  156.9416 H   0  0  0  0  0  0  0  0  0  0  0  0
  150.6889  145.0968  157.4908 H   0  0  0  0  0  0  0  0  0  0  0  0
  150.1787  144.5340  159.0619 H   0  0  0  0  0  0  0  0  0  0  0  0
  153.0471  144.8080  158.0487 H   0  0  0  0  0  0  0  0  0  0  0  0
  152.2872  145.8244  159.2403 H   0  0  0  0  0  0  0  0  0  0  0  0
  153.8382  144.1041  160.1853 H   0  0  0  0  0  0  0  0  0  0  0  0
  150.9716  143.7453  161.1804 H   0  0  0  0  0  0  0  0  0  0  0  0
  152.0396  145.0791  161.5896 H   0  0  0  0  0  0  0  0  0  0  0  0
  152.4477  143.4529  162.0916 H   0  0  0  0  0  0  0  0  0  0  0  0
  153.4982  142.3552  158.5937 H   0  0  0  0  0  0  0  0  0  0  0  0
  152.6430  141.2461  161.2984 H   0  0  0  0  0  0  0  0  0  0  0  0
  154.2970  141.6572  160.8451 H   0  0  0  0  0  0  0  0  0  0  0  0
  153.4405  140.3779  159.9962 H   0  0  0  0  0  0  0  0  0  0  0  0
  150.6881  141.9506  159.6880 H   0  0  0  0  0  0  0  0  0  0  0  0
  151.4670  140.9739  158.4722 H   0  0  0  0  0  0  0  0  0  0  0  0
  148.9740  142.6110  158.0900 H   0  0  0  0  0  0  0  0  0  0  0  0
  1  2  1  0  0  0  0
  1 18  1  0  0  0  0
  1 19  1  0  0  0  0
  1 20  1  0  0  0  0
  2  3  1  0  0  0  0
  2  9  1  0  0  0  0
  2 21  1  0  0  0  0
  3  4  1  0  0  0  0
  3 22  1  0  0  0  0
  3 23  1  0  0  0  0
  4  8  1  0  0  0  0
  4  5  1  0  0  0  0
  5  6  2  0  0  0  0
  5 24  1  0  0  0  0
  6  7  1  0  0  0  0
  7  8  2  0  0  0  0
  7 25  1  0  0  0  0
  9 10  1  0  0  0  0
  9 26  1  0  0  0  0
  9 42  1  0  0  0  0
 10 17  1  0  0  0  0
 10 11  1  0  0  0  0
 10 27  1  0  0  0  0
 11 12  1  0  0  0  0
 11 28  1  0  0  0  0
 11 29  1  0  0  0  0
 12 13  1  0  0  0  0
 12 30  1  0  0  0  0
 12 31  1  0  0  0  0
 13 14  1  0  0  0  0
 13 15  1  0  0  0  0
 13 32  1  0  0  0  0
 14 33  1  0  0  0  0
 14 34  1  0  0  0  0
 14 35  1  0  0  0  0
 15 16  1  0  0  0  0
 15 17  1  0  0  0  0
 15 36  1  0  0  0  0
 16 37  1  0  0  0  0
 16 38  1  0  0  0  0
 16 39  1  0  0  0  0
 17 40  1  0  0  0  0
 17 41  1  0  0  0  0
M  CHG  1   9   1
M  END
> <s_m_source_file>
AV-unprocessed.smi

> <i_m_source_file_index>
3181

> <i_lp_mmshare_version>
43012

> <i_f3d_flags>
0

> <s_epik_input>
bjFbY0hdbltjSF1uMVtDSDJdW0NAQEhdKFtDSDNdKVtOSF1bQ0BASF0yW0NIMl1bQ0gyXVtDQEBIXShbQ0gzXSlbQ0BASF0oW0NIM10pW0NIMl0y

> <s_epik_cmdline>
J2VwaWtfcHl0aG9uJywgJy1waCcsICc3LjAnLCAnLXRuJywgJzgnLCAnLW1hJywgJzIwMCcsICctbWV0YWxfYmluZGluZycsICctaW1hZScsICc8aW5maWxlLm1hZT4nLCAnLW9tYWUnLCAnPG91dGZpbGUubWFlPic=

> <r_lp_tautomer_probability>
1

> <r_epik_Ionization_Penalty>
0.000617007

> <r_epik_Ionization_Penalty_Charging>
0.000616215

> <r_epik_Ionization_Penalty_Neutral>
7.92544e-07

> <r_epik_State_Penalty>
0.000388807

> <r_epik_Charging_Adjusted_Penalty>
0.00100502

> <i_epik_Tot_Q>
1

> <i_epik_Tot_abs_Q>
1

> <r_epik_Metal_State_Penalty>
-0

> <b_epik_Metal_Only>
0

> <s_lp_Force_Field>
OPLS_2005

> <r_lp_Energy>
21.3144

> <b_lp_Chiralities_Consistent>
1

> <s_lp_Variant>
AV-unprocessed.smi:3181-4

> <Gold.Version>
5.8.1

> <Gold.Id.Protein>
6NUR|6NUR_protein|mol2

> <Gold.PLP.Fitness>
49.6829

> <Gold.PLP.PLP>
-41.6912

> <Gold.PLP.part.hbond>
-1.0000

> <Gold.PLP.part.metal>
0.0000

> <Gold.PLP.part.buried>
-3.7924

> <Gold.PLP.part.nonpolar>
-36.8146

> <Gold.PLP.part.repulsive>
0.2482

> <Gold.PLP.ligand.clash>
0.0000

> <Gold.PLP.ligand.torsion>
0.5444

> <Gold.PLP.Chemscore.Hbond>
2.0000

> <Gold.PLP.Chemscore.CHOScore>
1.0000

> <Gold.PLP.Chemscore.Metal>
0.0000

> <Gold.Chemscore.Hbonds>
donor molecule, donor type, donor heavy atom, donor atom, acceptor molecule, acceptor atom, score
      L1  H     9    26       P1  8028  2.00
      L1  C     5    24       P1  7957  1.00

> <Gold.PLP.Chemscore.Internal.Correction>
0.0806

> <Gold.Rescore>
     Score         DG    S(hbond)    S(metal)    S(lipo)     H(rot)  DE(clash)    DE(int)     intcor
     15.39     -15.69       0.99        0.00     105.07       2.11       0.01       0.28       ----

> <Gold.Chemscore.Fitness>
15.3944

> <Gold.Chemscore.DG>
-15.6920

> <Gold.Chemscore.ZeroCoef>
-5.4800

> <Gold.Chemscore.Hbond>
0.9937

> <Gold.Chemscore.Metal>
0.0000

> <Gold.Chemscore.Lipo>
105.0714

> <Gold.Chemscore.Internal_Hbond>
0.0000

> <Gold.Chemscore.DEClash>
0.0149

> <Gold.Chemscore.DEInternal>
0.2828

> <Gold.Chemscore.Rot>
2.1095

> <Gold.Chemscore.Internal.Correction>
   9.000000E+99

> <Gold.Chemscore.Hbonds>
donor molecule, donor type, donor heavy atom, donor atom, acceptor molecule, acceptor atom, score
      L1  H     9    26       P1  8028  1.00

> <Gold.Chemscore.Hbond.Weighted>
-3.3190

> <Gold.Chemscore.Metal.Weighted>
-0.0000

> <Gold.Chemscore.Lipo.Weighted>
-12.2934

> <Gold.Chemscore.Internal_Hbond.Weighted>
0.0000

> <Gold.Chemscore.DEClash.Weighted>
0.0149

> <Gold.Chemscore.DEInternal.Weighted>
0.2828

> <Gold.Chemscore.Rot.Weighted>
5.4003

> <Gold.Chemscore.Internal.Correction.Weighted>
   9.000000E+99

> <Gold.Protein.RotatedTorsions>
[ 6907 6896 6895 6894 ] final -106.06 input  -60.11 | X-H torsion
[ 7974 7965 7964 7962 ] final   30.28 input  175.53 | X-H torsion
[ 8008 7997 7996 7995 ] final   66.37 input   59.86 | X-H torsion
[ 10167 10162 10161 10158 ] final -120.34 input  -65.29 | X-H torsion
[ 10718 10713 10712 10709 ] final -139.53 input   66.30 | X-H torsion
[ 10763 10752 10751 10750 ] final  -78.39 input  -60.55 | X-H torsion
[ 11005 11000 10999 10996 ] final  -10.74 input  -57.11 | X-H torsion

> <Gold.Protein.ActiveResidues>
 VAL166  LYS551  ARG553  GLY616  TRP617  ASP618  TYR619  PRO620  LYS621  CYS622 
 ASP623  PHE694  ASN695  SER759  ASP760  ASP761  ALA762  ILE779  LEU786  VAL792 
 PHE793  MET794  SER795  GLU796  ALA797  LYS798  CYS799  TRP800  GLU811  SER814 

> <Gold.Protein.RotatedAtoms>
  150.7369  134.0033  159.3645 H   0  0  0  0  0  0  0  0  0  0  0  0  # atno 6907 bound_to 6896
  151.7989  135.0712  160.0407 H   0  0  0  0  0  0  0  0  0  0  0  0  # atno 6908 bound_to 6896
  152.3155  133.5761  159.5745 H   0  0  0  0  0  0  0  0  0  0  0  0  # atno 6909 bound_to 6896
  146.1621  139.6809  142.9026 H   0  0  0  0  0  0  0  0  0  0  0  0  # atno 7974 bound_to 7965
  155.6763  140.3497  155.4838 H   0  0  0  0  0  0  0  0  0  0  0  0  # atno 8008 bound_to 7997
  155.9645  140.1143  157.0889 H   0  0  0  0  0  0  0  0  0  0  0  0  # atno 8009 bound_to 7997
  154.4151  140.1169  156.5209 H   0  0  0  0  0  0  0  0  0  0  0  0  # atno 8010 bound_to 7997
  140.0369  143.5192  152.2149 H   0  0  0  0  0  0  0  0  0  0  0  0  # atno 10167 bound_to 10162
  156.3118  130.7486  151.1563 H   0  0  0  0  0  0  0  0  0  0  0  0  # atno 10718 bound_to 10713
  154.5253  135.5731  153.6714 H   0  0  0  0  0  0  0  0  0  0  0  0  # atno 10763 bound_to 10752
  152.9926  135.6191  154.2701 H   0  0  0  0  0  0  0  0  0  0  0  0  # atno 10764 bound_to 10752
  154.2624  135.2856  155.2752 H   0  0  0  0  0  0  0  0  0  0  0  0  # atno 10765 bound_to 10752
  140.7480  133.8616  155.9021 H   0  0  0  0  0  0  0  0  0  0  0  0  # atno 11005 bound_to 11000
  145.4561  141.0431  143.2777 LP  0  0  0  0  0  0  0  0  0  0  0  0  # atno 17320 bound_to 7965
  144.8041  139.6084  143.7058 LP  0  0  0  0  0  0  0  0  0  0  0  0  # atno 17321 bound_to 7965
  139.6039  144.7590  151.3107 LP  0  0  0  0  0  0  0  0  0  0  0  0  # atno 17342 bound_to 10162
  140.7277  143.6955  150.7887 LP  0  0  0  0  0  0  0  0  0  0  0  0  # atno 17343 bound_to 10162
  157.7393  131.0531  150.5243 LP  0  0  0  0  0  0  0  0  0  0  0  0  # atno 17370 bound_to 10713
  156.5383  130.4202  149.6166 LP  0  0  0  0  0  0  0  0  0  0  0  0  # atno 17371 bound_to 10713
  140.9777  134.1447  157.4522 LP  0  0  0  0  0  0  0  0  0  0  0  0  # atno 17394 bound_to 11000
  139.8793  135.0000  156.5986 LP  0  0  0  0  0  0  0  0  0  0  0  0  # atno 17395 bound_to 11000

$$$$
