#       Name:                AV-unprocessed.smi:240
#       Creating user name   scv26
#       Creation time:       Thu Mar 26 20:45:06 2020


#       File generated by GOLD software.
#

@<TRIPOS>MOLECULE
AV-unprocessed.smi:240
    67    71     1
SMALL
NO_CHARGES


@<TRIPOS>ATOM
      1 ****        -2.0335  -2.3313  -2.6924 O.3            1 S1                 0.0000
      2 ****        -2.6154  -2.8772  -1.5268 C.3            1 S1                 0.0000
      3 ****        -2.1887  -4.3293  -1.3179 C.3            1 S1                 0.0000
      4 ****        -2.4497  -4.5856   0.1687 C.3            1 S1                 0.0000
      5 ****        -2.3323  -3.2201   0.8657 C.3            1 S1                 0.0000
      6 ****        -2.1272  -2.1761  -0.2503 C.3            1 S1                 0.0000
      7 ****        -2.7188  -0.7585   0.0202 C.3            1 S1                 0.0000
      8 ****        -4.2659  -0.7393   0.1240 C.3            1 S1                 0.0000
      9 ****        -4.7301   0.5861   0.3528 O.3            1 S1                 0.0000
     10 ****        -4.2389   1.1162   1.5762 C.3            1 S1                 0.0000
     11 ****        -2.7086   1.1927   1.5051 C.3            1 S1                 0.0000
     12 ****        -2.1475  -0.1220   1.2159 N.3            1 S1                 0.0000
     13 ****        -0.7991  -0.0962   1.3138 C.ar           1 S1                 0.0000
     14 ****        -0.2559  -0.6026   2.4477 N.ar           1 S1                 0.0000
     15 ****         1.0716  -0.6221   2.6010 C.ar           1 S1                 0.0000
     16 ****         2.0156  -0.1883   1.7630 N.ar           1 S1                 0.0000
     17 ****         1.4705   0.3376   0.6284 C.ar           1 S1                 0.0000
     18 ****         0.0830   0.4226   0.3232 C.ar           1 S1                 0.0000
     19 ****        -0.0925   1.0115  -0.9230 N.2            1 S1                 0.0000
     20 ****         1.1222   1.2512  -1.3353 C.2            1 S1                 0.0000
     21 ****         2.1226   0.8893  -0.4613 N.pl3          1 S1                 0.0000
     22 ****         3.5567   1.0329  -0.6667 C.3            1 S1                 0.0000
     23 ****         4.1593   2.3398  -0.0902 C.3            1 S1                 0.0000
     24 ****         3.9001   2.4034   1.3002 O.3            1 S1                 0.0000
     25 ****         3.6405   3.6175  -0.7548 C.3            1 S1                 0.0000
     26 ****         4.7554   3.9798  -1.7255 C.3            1 S1                 0.0000
     27 ****         5.9181   3.6534  -0.9866 O.3            1 S1                 0.0000
     28 ****         5.6810   2.4136  -0.3323 C.3            1 S1                 0.0000
     29 ****        -2.3005  -1.4277  -2.7664 H              1 S1                 0.0000
     30 ****        -3.7005  -2.8428  -1.6134 H              1 S1                 0.0000
     31 ****        -2.7241  -5.0242  -1.9657 H              1 S1                 0.0000
     32 ****        -1.1222  -4.4401  -1.5210 H              1 S1                 0.0000
     33 ****        -3.4590  -4.9771   0.3025 H              1 S1                 0.0000
     34 ****        -1.7573  -5.3205   0.5803 H              1 S1                 0.0000
     35 ****        -3.2312  -3.0302   1.4504 H              1 S1                 0.0000
     36 ****        -1.4942  -3.2033   1.5633 H              1 S1                 0.0000
     37 ****        -1.0474  -2.0774  -0.3745 H              1 S1                 0.0000
     38 ****        -2.4608  -0.1315  -0.8332 H              1 S1                 0.0000
     39 ****        -4.7246  -1.0825  -0.8018 H              1 S1                 0.0000
     40 ****        -4.6307  -1.3896   0.9191 H              1 S1                 0.0000
     41 ****        -4.6589   2.1105   1.7277 H              1 S1                 0.0000
     42 ****        -4.5635   0.4990   2.4156 H              1 S1                 0.0000
     43 ****        -2.4097   1.8981   0.7282 H              1 S1                 0.0000
     44 ****        -2.3146   1.5691   2.4505 H              1 S1                 0.0000
     45 ****         1.4290  -1.0487   3.5265 H              1 S1                 0.0000
     46 ****         1.3220   1.7040  -2.2956 H              1 S1                 0.0000
     47 ****         4.0485   0.1678  -0.2198 H              1 S1                 0.0000
     48 ****         3.7524   0.9721  -1.7381 H              1 S1                 0.0000
     49 ****         4.3065   3.1835   1.6457 H              1 S1                 0.0000
     50 ****         2.6765   3.5111  -1.2492 H              1 S1                 0.0000
     51 ****         3.5417   4.4214  -0.0236 H              1 S1                 0.0000
     52 ****         4.7050   3.3707  -2.6294 H              1 S1                 0.0000
     53 ****         4.7413   5.0314  -2.0123 H              1 S1                 0.0000
     54 ****         6.2690   2.3484   0.5841 H              1 S1                 0.0000
     55 ****         6.0155   1.6105  -0.9908 H              1 S1                 0.0000
     56 ****        -2.3436  -2.8414  -3.4948 LP             1 S1                 0.0000
     57 ****        -1.0370  -2.3843  -2.6284 LP             1 S1                 0.0000
     58 ****        -5.7296   0.5779   0.3822 LP             1 S1                 0.0000
     59 ****        -4.4236   1.1702  -0.3988 LP             1 S1                 0.0000
     60 ****        -2.4408  -0.7610   1.9270 LP             1 S1                 0.0000
     61 ****        -0.8481  -0.9614   3.1691 LP             1 S1                 0.0000
     62 ****         2.9976  -0.2420   1.9438 LP             1 S1                 0.0000
     63 ****        -0.9520   1.2067  -1.3954 LP             1 S1                 0.0000
     64 ****         4.2810   1.5964   1.7515 LP             1 S1                 0.0000
     65 ****         2.9133   2.4389   1.4580 LP             1 S1                 0.0000
     66 ****         6.1025   4.3659  -0.3096 LP             1 S1                 0.0000
     67 ****         6.7008   3.5688  -1.6032 LP             1 S1                 0.0000
@<TRIPOS>BOND
    1    1    2 1     
    2    1   29 1     
    3    2    6 1     
    4    2    3 1     
    5    2   30 1     
    6    3    4 1     
    7    3   31 1     
    8    3   32 1     
    9    4    5 1     
   10    4   33 1     
   11    4   34 1     
   12    5    6 1     
   13    5   35 1     
   14    5   36 1     
   15    6    7 1     
   16    6   37 1     
   17    7   12 1     
   18    7    8 1     
   19    7   38 1     
   20    8    9 1     
   21    8   39 1     
   22    8   40 1     
   23    9   10 1     
   24   10   11 1     
   25   10   41 1     
   26   10   42 1     
   27   11   12 1     
   28   11   43 1     
   29   11   44 1     
   30   12   13 1     
   31   13   18 ar    
   32   13   14 ar    
   33   14   15 ar    
   34   15   16 ar    
   35   15   45 1     
   36   16   17 ar    
   37   17   21 1     
   38   17   18 ar    
   39   18   19 1     
   40   19   20 2     
   41   20   21 1     
   42   20   46 1     
   43   21   22 1     
   44   22   23 1     
   45   22   47 1     
   46   22   48 1     
   47   23   28 1     
   48   23   24 1     
   49   23   25 1     
   50   24   49 1     
   51   25   26 1     
   52   25   50 1     
   53   25   51 1     
   54   26   27 1     
   55   26   52 1     
   56   26   53 1     
   57   27   28 1     
   58   28   54 1     
   59   28   55 1     
   60    1   56 1     
   61    1   57 1     
   62    9   58 1     
   63    9   59 1     
   64   12   60 1     
   65   14   61 1     
   66   16   62 1     
   67   19   63 1     
   68   24   64 1     
   69   24   65 1     
   70   27   66 1     
   71   27   67 1     
@<TRIPOS>SUBSTRUCTURE
      1 S1             1
@<TRIPOS>SET
LONE_PAIRS      STATIC     ATOMS    <user>   **** ""
12 56 57 58 59 60 61 62 63 64 65 66 67
DONOR_HYDROGENS      STATIC     ATOMS    <user>   **** ""
2 29 49
ATOM$BLUE        STATIC     ATOMS    COLORGROUP SYSTEM
12 56 57 58 59 60 61 62 63 64 65 66 67
ATOM$RED        STATIC     ATOMS    COLORGROUP SYSTEM
2 29 49
