AV-unprocessed.smi:1350|AV-procd|sdf|5521|dock9
  -GOLD-   22720 5113D 1   1.00000     0.00000
 Structure written by MMmdl.
 43 45  0  0  0  0  0  0  0  0  1 V2000
  146.0119  141.7548  157.7806 C   0  0  0  0  0  0  0  0  0  0  0  0
  146.4131  141.6792  156.4208 O   0  0  0  0  0  0  0  0  0  0  0  0
  145.9085  142.6103  155.5357 C   0  0  0  0  0  0  0  0  0  0  0  0
  144.9216  143.5684  155.8829 C   0  0  0  0  0  0  0  0  0  0  0  0
  144.4547  144.4935  154.9299 C   0  0  0  0  0  0  0  0  0  0  0  0
  144.9656  144.4756  153.6200 C   0  0  0  0  0  0  0  0  0  0  0  0
  145.9437  143.5300  153.2634 C   0  0  0  0  0  0  0  0  0  0  0  0
  146.4132  142.5980  154.2131 C   0  0  0  0  0  0  0  0  0  0  0  0
  147.4723  141.5876  153.8100 C   0  0  0  0  0  0  0  0  0  0  0  0
  148.4164  141.3852  154.8484 O   0  0  0  0  0  0  0  0  0  0  0  0
  149.3741  140.3865  154.5393 C   0  0  0  0  0  0  0  0  0  0  0  0
  150.5076  140.4510  155.5747 C   0  0  1  0  0  0  0  0  0  0  0  0
  151.6875  139.9480  154.9793 O   0  0  0  0  0  0  0  0  0  0  0  0
  150.7635  141.8909  156.0599 C   0  0  0  0  0  0  0  0  0  0  0  0
  151.2029  141.9417  157.4432 N   0  0  0  0  0  0  0  0  0  0  0  0
  151.4257  140.8931  158.2586 C   0  0  0  0  0  0  0  0  0  0  0  0
  151.8241  141.1587  159.4994 N   0  0  0  0  0  0  0  0  0  0  0  0
  151.8662  142.5423  159.4883 C   0  0  0  0  0  0  0  0  0  0  0  0
  152.2160  143.4566  160.5077 C   0  0  0  0  0  0  0  0  0  0  0  0
  152.1867  144.8453  160.2627 C   0  0  0  0  0  0  0  0  0  0  0  0
  151.8086  145.3405  158.9976 C   0  0  0  0  0  0  0  0  0  0  0  0
  151.4555  144.4490  157.9664 C   0  0  0  0  0  0  0  0  0  0  0  0
  151.4843  143.0640  158.2152 C   0  0  0  0  0  0  0  0  0  0  0  0
  146.4865  140.9485  158.3398 H   0  0  0  0  0  0  0  0  0  0  0  0
  144.9325  141.6372  157.8852 H   0  0  0  0  0  0  0  0  0  0  0  0
  146.3200  142.6971  158.2357 H   0  0  0  0  0  0  0  0  0  0  0  0
  144.5056  143.6166  156.8776 H   0  0  0  0  0  0  0  0  0  0  0  0
  143.7036  145.2191  155.2055 H   0  0  0  0  0  0  0  0  0  0  0  0
  144.6081  145.1865  152.8895 H   0  0  0  0  0  0  0  0  0  0  0  0
  146.3313  143.5227  152.2552 H   0  0  0  0  0  0  0  0  0  0  0  0
  147.0039  140.6369  153.5503 H   0  0  0  0  0  0  0  0  0  0  0  0
  147.9726  141.9536  152.9118 H   0  0  0  0  0  0  0  0  0  0  0  0
  148.9212  139.3939  154.5048 H   0  0  0  0  0  0  0  0  0  0  0  0
  149.7746  140.5937  153.5456 H   0  0  0  0  0  0  0  0  0  0  0  0
  150.2518  139.8287  156.4336 H   0  0  0  0  0  0  0  0  0  0  0  0
  151.5730  139.0220  154.8287 H   0  0  0  0  0  0  0  0  0  0  0  0
  151.5107  142.3805  155.4340 H   0  0  0  0  0  0  0  0  0  0  0  0
  149.8516  142.4836  155.9751 H   0  0  0  0  0  0  0  0  0  0  0  0
  151.2875  139.8765  157.9210 H   0  0  0  0  0  0  0  0  0  0  0  0
  152.5083  143.0885  161.4799 H   0  0  0  0  0  0  0  0  0  0  0  0
  152.4571  145.5344  161.0494 H   0  0  0  0  0  0  0  0  0  0  0  0
  151.7904  146.4057  158.8190 H   0  0  0  0  0  0  0  0  0  0  0  0
  151.1685  144.8237  156.9951 H   0  0  0  0  0  0  0  0  0  0  0  0
  1  2  1  0  0  0  0
  1 24  1  0  0  0  0
  1 25  1  0  0  0  0
  1 26  1  0  0  0  0
  2  3  1  0  0  0  0
  3  8  1  0  0  0  0
  3  4  2  0  0  0  0
  4  5  1  0  0  0  0
  4 27  1  0  0  0  0
  5  6  2  0  0  0  0
  5 28  1  0  0  0  0
  6  7  1  0  0  0  0
  6 29  1  0  0  0  0
  7  8  2  0  0  0  0
  7 30  1  0  0  0  0
  8  9  1  0  0  0  0
  9 10  1  0  0  0  0
  9 31  1  0  0  0  0
  9 32  1  0  0  0  0
 10 11  1  0  0  0  0
 11 12  1  0  0  0  0
 11 33  1  0  0  0  0
 11 34  1  0  0  0  0
 12 13  1  0  0  0  0
 12 14  1  0  0  0  0
 12 35  1  0  0  0  0
 13 36  1  0  0  0  0
 14 15  1  0  0  0  0
 14 37  1  0  0  0  0
 14 38  1  0  0  0  0
 15 23  1  0  0  0  0
 15 16  1  0  0  0  0
 16 17  2  0  0  0  0
 16 39  1  0  0  0  0
 17 18  1  0  0  0  0
 18 23  2  0  0  0  0
 18 19  1  0  0  0  0
 19 20  2  0  0  0  0
 19 40  1  0  0  0  0
 20 21  1  0  0  0  0
 20 41  1  0  0  0  0
 21 22  2  0  0  0  0
 21 42  1  0  0  0  0
 22 23  1  0  0  0  0
 22 43  1  0  0  0  0
M  END
> <s_m_source_file>
AV-unprocessed.smi

> <i_m_source_file_index>
1350

> <i_lp_mmshare_version>
43012

> <i_f3d_flags>
0

> <s_epik_input>
W0NIM11PYzFbY0hdW2NIXVtjSF1bY0hdYzFbQ0gyXU9bQ0gyXVtDQEhdKFtPSF0pW0NIMl1uKFtjSF1uMiljKGMyMylbY0hdW2NIXVtjSF1bY0hdMw==

> <s_epik_cmdline>
J2VwaWtfcHl0aG9uJywgJy1waCcsICc3LjAnLCAnLXRuJywgJzgnLCAnLW1hJywgJzIwMCcsICctbWV0YWxfYmluZGluZycsICctaW1hZScsICc8aW5maWxlLm1hZT4nLCAnLW9tYWUnLCAnPG91dGZpbGUubWFlPic=

> <r_lp_tautomer_probability>
1

> <r_epik_Ionization_Penalty>
0.0713119

> <r_epik_Ionization_Penalty_Charging>
0

> <r_epik_Ionization_Penalty_Neutral>
0.0713119

> <r_epik_State_Penalty>
0.06259

> <r_epik_Charging_Adjusted_Penalty>
0.06259

> <i_epik_Tot_Q>
0

> <i_epik_Tot_abs_Q>
0

> <r_epik_Metal_State_Penalty>
6.60119e-05

> <b_epik_Metal_Only>
0

> <s_lp_Force_Field>
OPLS_2005

> <r_lp_Energy>
19.121

> <b_lp_Chiralities_Consistent>
1

> <s_lp_Variant>
AV-unprocessed.smi:1350-2

> <Gold.Version>
5.8.1

> <Gold.Id.Protein>
6NUR|6NUR_protein|mol2

> <Gold.PLP.Fitness>
55.3253

> <Gold.PLP.PLP>
-54.3529

> <Gold.PLP.part.hbond>
-1.0000

> <Gold.PLP.part.metal>
0.0000

> <Gold.PLP.part.buried>
-9.8442

> <Gold.PLP.part.nonpolar>
-43.9305

> <Gold.PLP.part.repulsive>
0.1943

> <Gold.PLP.ligand.clash>
0.0000

> <Gold.PLP.ligand.torsion>
1.1047

> <Gold.PLP.Chemscore.Hbond>
1.0000

> <Gold.PLP.Chemscore.CHOScore>
0.0000

> <Gold.PLP.Chemscore.Metal>
0.0000

> <Gold.Chemscore.Hbonds>
donor molecule, donor type, donor heavy atom, donor atom, acceptor molecule, acceptor atom, score
      P1  H  7989  7998       L1    13  0.95

> <Gold.PLP.Chemscore.Internal.Correction>
0.1817

> <Gold.Rescore>
     Score         DG    S(hbond)    S(metal)    S(lipo)     H(rot)  DE(clash)    DE(int)     intcor
     13.86     -16.61       0.72        0.00     132.19       2.63       0.14       2.61       ----

> <Gold.Chemscore.Fitness>
13.8627

> <Gold.Chemscore.DG>
-16.6147

> <Gold.Chemscore.ZeroCoef>
-5.4800

> <Gold.Chemscore.Hbond>
0.7195

> <Gold.Chemscore.Metal>
0.0000

> <Gold.Chemscore.Lipo>
132.1912

> <Gold.Chemscore.Internal_Hbond>
0.0000

> <Gold.Chemscore.DEClash>
0.1388

> <Gold.Chemscore.DEInternal>
2.6132

> <Gold.Chemscore.Rot>
2.6308

> <Gold.Chemscore.Internal.Correction>
   9.000000E+99

> <Gold.Chemscore.Hbonds>
donor molecule, donor type, donor heavy atom, donor atom, acceptor molecule, acceptor atom, score
      P1  H  7989  7998       L1    13  0.17

> <Gold.Chemscore.Hbond.Weighted>
-2.4031

> <Gold.Chemscore.Metal.Weighted>
-0.0000

> <Gold.Chemscore.Lipo.Weighted>
-15.4664

> <Gold.Chemscore.Internal_Hbond.Weighted>
0.0000

> <Gold.Chemscore.DEClash.Weighted>
0.1388

> <Gold.Chemscore.DEInternal.Weighted>
2.6132

> <Gold.Chemscore.Rot.Weighted>
6.7347

> <Gold.Chemscore.Internal.Correction.Weighted>
   9.000000E+99

> <Gold.Protein.RotatedTorsions>
[ 6907 6896 6895 6894 ] final  167.69 input  -60.11 | X-H torsion
[ 7974 7965 7964 7962 ] final -134.50 input  175.53 | X-H torsion
[ 8008 7997 7996 7995 ] final -128.27 input   59.86 | X-H torsion
[ 10167 10162 10161 10158 ] final  137.50 input  -65.29 | X-H torsion
[ 10718 10713 10712 10709 ] final -116.12 input   66.30 | X-H torsion
[ 10763 10752 10751 10750 ] final  -40.40 input  -60.55 | X-H torsion
[ 11005 11000 10999 10996 ] final -103.40 input  -57.11 | X-H torsion

> <Gold.Protein.ActiveResidues>
 VAL166  LYS551  ARG553  GLY616  TRP617  ASP618  TYR619  PRO620  LYS621  CYS622 
 ASP623  PHE694  ASN695  SER759  ASP760  ASP761  ALA762  ILE779  LEU786  VAL792 
 PHE793  MET794  SER795  GLU796  ALA797  LYS798  CYS799  TRP800  GLU811  SER814 

> <Gold.Protein.RotatedAtoms>
  151.8593  133.3454  159.3698 H   0  0  0  0  0  0  0  0  0  0  0  0  # atno 6907 bound_to 6896
  150.7183  134.5222  159.5668 H   0  0  0  0  0  0  0  0  0  0  0  0  # atno 6908 bound_to 6896
  152.2732  134.7911  160.0461 H   0  0  0  0  0  0  0  0  0  0  0  0  # atno 6909 bound_to 6896
  144.9097  140.6879  143.5032 H   0  0  0  0  0  0  0  0  0  0  0  0  # atno 7974 bound_to 7965
  155.2598  140.0435  157.2996 H   0  0  0  0  0  0  0  0  0  0  0  0  # atno 8008 bound_to 7997
  154.5717  140.2376  155.8151 H   0  0  0  0  0  0  0  0  0  0  0  0  # atno 8009 bound_to 7997
  156.2128  140.2994  155.9778 H   0  0  0  0  0  0  0  0  0  0  0  0  # atno 8010 bound_to 7997
  139.5142  144.6406  151.5578 H   0  0  0  0  0  0  0  0  0  0  0  0  # atno 10167 bound_to 10162
  156.0941  130.6118  150.8994 H   0  0  0  0  0  0  0  0  0  0  0  0  # atno 10718 bound_to 10713
  153.9453  135.6757  153.4744 H   0  0  0  0  0  0  0  0  0  0  0  0  # atno 10763 bound_to 10752
  153.0911  135.4874  154.8688 H   0  0  0  0  0  0  0  0  0  0  0  0  # atno 10764 bound_to 10752
  154.7355  135.3148  154.8778 H   0  0  0  0  0  0  0  0  0  0  0  0  # atno 10765 bound_to 10752
  141.1147  133.8637  157.1481 H   0  0  0  0  0  0  0  0  0  0  0  0  # atno 11005 bound_to 11000
  145.3475  139.1715  143.4452 LP  0  0  0  0  0  0  0  0  0  0  0  0  # atno 17320 bound_to 7965
  146.3152  140.3523  142.8657 LP  0  0  0  0  0  0  0  0  0  0  0  0  # atno 17321 bound_to 7965
  140.6172  143.9327  150.6497 LP  0  0  0  0  0  0  0  0  0  0  0  0  # atno 17342 bound_to 10162
  140.2588  143.3539  152.1341 LP  0  0  0  0  0  0  0  0  0  0  0  0  # atno 17343 bound_to 10162
  157.6098  131.0937  150.8815 LP  0  0  0  0  0  0  0  0  0  0  0  0  # atno 17370 bound_to 10713
  156.8956  130.5228  149.5284 LP  0  0  0  0  0  0  0  0  0  0  0  0  # atno 17371 bound_to 10713
  140.0062  135.0007  157.0298 LP  0  0  0  0  0  0  0  0  0  0  0  0  # atno 17394 bound_to 11000
  140.4678  134.1418  155.7199 LP  0  0  0  0  0  0  0  0  0  0  0  0  # atno 17395 bound_to 11000

$$$$
