AV-unprocessed.smi:1033|AV-procd|sdf|4491|dock7
  -GOLD-   22720 2473D 1   1.00000     0.00000
 Structure written by MMmdl.
 56 58  0  0  0  0  0  0  0  0  2 V2000
  152.1627  144.9705  160.4007 C   0  0  0  0  0  0  0  0  0  0  0  0
  152.0094  143.7023  159.5793 C   0  0  0  0  0  0  0  0  0  0  0  0
  151.4124  143.7798  158.3011 C   0  0  0  0  0  0  0  0  0  0  0  0
  151.2517  142.6247  157.5053 C   0  0  0  0  0  0  0  0  0  0  0  0
  150.6981  142.4704  156.2460 N   0  0  0  0  0  0  0  0  0  0  0  0
  150.8385  141.1631  156.0492 C   0  0  0  0  0  0  0  0  0  0  0  0
  151.4103  140.4488  157.0375 N   0  0  0  0  0  0  0  0  0  0  0  0
  151.6521  139.0176  157.0492 C   0  0  0  0  0  0  0  0  0  0  0  0
  150.3969  138.2064  156.6728 C   0  0  1  0  0  0  0  0  0  0  0  0
  149.2790  138.8434  157.2575 O   0  0  0  0  0  0  0  0  0  0  0  0
  150.1676  138.0953  155.1490 C   0  0  0  0  0  0  0  0  0  0  0  0
  149.6441  136.7660  154.7455 N   0  3  0  0  0  0  0  0  0  0  0  0
  148.3916  136.3810  155.4510 C   0  0  0  0  0  0  0  0  0  0  0  0
  147.8910  135.0167  154.9368 C   0  0  0  0  0  0  0  0  0  0  0  0
  148.8768  133.9468  155.0920 N   0  0  0  0  0  0  0  0  0  0  0  0
  149.1340  133.5304  156.4769 C   0  0  0  0  0  0  0  0  0  0  0  0
  150.3845  132.6496  156.6958 C   0  0  2  0  0  0  0  0  0  0  0  0
  150.4298  131.4108  155.7846 C   0  0  0  0  0  0  0  0  0  0  0  0
  150.3560  132.1636  158.0221 O   0  0  0  0  0  0  0  0  0  0  0  0
  150.0973  134.3421  154.3887 C   0  0  0  0  0  0  0  0  0  0  0  0
  150.6667  135.6946  154.8681 C   0  0  0  0  0  0  0  0  0  0  0  0
  151.7090  141.3793  158.0275 C   0  0  0  0  0  0  0  0  0  0  0  0
  152.3050  141.2893  159.2980 C   0  0  0  0  0  0  0  0  0  0  0  0
  152.4579  142.4536  160.0796 C   0  0  0  0  0  0  0  0  0  0  0  0
  153.1045  142.3473  161.4496 C   0  0  0  0  0  0  0  0  0  0  0  0
  151.7297  145.8310  159.8899 H   0  0  0  0  0  0  0  0  0  0  0  0
  153.2168  145.1833  160.5801 H   0  0  0  0  0  0  0  0  0  0  0  0
  151.6611  144.8671  161.3630 H   0  0  0  0  0  0  0  0  0  0  0  0
  151.0716  144.7313  157.9194 H   0  0  0  0  0  0  0  0  0  0  0  0
  150.4996  140.6952  155.1363 H   0  0  0  0  0  0  0  0  0  0  0  0
  152.4630  138.8054  156.3509 H   0  0  0  0  0  0  0  0  0  0  0  0
  152.0117  138.7323  158.0388 H   0  0  0  0  0  0  0  0  0  0  0  0
  150.4862  137.2157  157.1171 H   0  0  0  0  0  0  0  0  0  0  0  0
  149.5824  139.5660  157.7865 H   0  0  0  0  0  0  0  0  0  0  0  0
  149.4681  138.8765  154.8469 H   0  0  0  0  0  0  0  0  0  0  0  0
  151.0878  138.2845  154.5952 H   0  0  0  0  0  0  0  0  0  0  0  0
  148.5615  136.3513  156.5280 H   0  0  0  0  0  0  0  0  0  0  0  0
  147.6165  137.1265  155.2792 H   0  0  0  0  0  0  0  0  0  0  0  0
  146.9536  134.7438  155.4179 H   0  0  0  0  0  0  0  0  0  0  0  0
  147.6442  135.1153  153.8786 H   0  0  0  0  0  0  0  0  0  0  0  0
  149.2641  134.4413  157.0638 H   0  0  0  0  0  0  0  0  0  0  0  0
  148.2619  133.0405  156.9096 H   0  0  0  0  0  0  0  0  0  0  0  0
  151.2946  133.2401  156.5819 H   0  0  0  0  0  0  0  0  0  0  0  0
  150.4739  131.6740  154.7296 H   0  0  0  0  0  0  0  0  0  0  0  0
  149.5497  130.7825  155.9267 H   0  0  0  0  0  0  0  0  0  0  0  0
  151.3077  130.8005  155.9997 H   0  0  0  0  0  0  0  0  0  0  0  0
  150.4402  131.2224  158.0003 H   0  0  0  0  0  0  0  0  0  0  0  0
  150.8545  133.5639  154.4918 H   0  0  0  0  0  0  0  0  0  0  0  0
  149.8860  134.4081  153.3205 H   0  0  0  0  0  0  0  0  0  0  0  0
  151.5355  135.9515  154.2610 H   0  0  0  0  0  0  0  0  0  0  0  0
  151.0146  135.6294  155.8998 H   0  0  0  0  0  0  0  0  0  0  0  0
  152.6425  140.3329  159.6688 H   0  0  0  0  0  0  0  0  0  0  0  0
  153.4238  141.3265  161.6613 H   0  0  0  0  0  0  0  0  0  0  0  0
  152.4021  142.6473  162.2276 H   0  0  0  0  0  0  0  0  0  0  0  0
  153.9829  142.9904  161.5088 H   0  0  0  0  0  0  0  0  0  0  0  0
  149.4211  136.8313  153.7622 H   0  0  0  0  0  0  0  0  0  0  0  0
  1  2  1  0  0  0  0
  1 26  1  0  0  0  0
  1 27  1  0  0  0  0
  1 28  1  0  0  0  0
  2 24  1  0  0  0  0
  2  3  2  0  0  0  0
  3  4  1  0  0  0  0
  3 29  1  0  0  0  0
  4 22  2  0  0  0  0
  4  5  1  0  0  0  0
  5  6  2  0  0  0  0
  6  7  1  0  0  0  0
  6 30  1  0  0  0  0
  7  8  1  0  0  0  0
  7 22  1  0  0  0  0
  8  9  1  0  0  0  0
  8 31  1  0  0  0  0
  8 32  1  0  0  0  0
  9 10  1  0  0  0  0
  9 11  1  0  0  0  0
  9 33  1  0  0  0  0
 10 34  1  0  0  0  0
 11 12  1  0  0  0  0
 11 35  1  0  0  0  0
 11 36  1  0  0  0  0
 12 21  1  0  0  0  0
 12 13  1  0  0  0  0
 12 56  1  0  0  0  0
 13 14  1  0  0  0  0
 13 37  1  0  0  0  0
 13 38  1  0  0  0  0
 14 15  1  0  0  0  0
 14 39  1  0  0  0  0
 14 40  1  0  0  0  0
 15 16  1  0  0  0  0
 15 20  1  0  0  0  0
 16 17  1  0  0  0  0
 16 41  1  0  0  0  0
 16 42  1  0  0  0  0
 17 18  1  0  0  0  0
 17 19  1  0  0  0  0
 17 43  1  0  0  0  0
 18 44  1  0  0  0  0
 18 45  1  0  0  0  0
 18 46  1  0  0  0  0
 19 47  1  0  0  0  0
 20 21  1  0  0  0  0
 20 48  1  0  0  0  0
 20 49  1  0  0  0  0
 21 50  1  0  0  0  0
 21 51  1  0  0  0  0
 22 23  1  0  0  0  0
 23 24  2  0  0  0  0
 23 52  1  0  0  0  0
 24 25  1  0  0  0  0
 25 53  1  0  0  0  0
 25 54  1  0  0  0  0
 25 55  1  0  0  0  0
M  CHG  1  12   1
M  END
> <s_m_source_file>
AV-unprocessed.smi

> <i_m_source_file_index>
1033

> <i_lp_mmshare_version>
43012

> <i_f3d_flags>
0

> <s_epik_input>
W0NIM11jKFtjSF0xKWMoW0NIM10pW2NIXWMoYzEyKW4oW2NIXW4yKVtDSDJdW0NASF0oW09IXSlbQ0gyXU4zW0NIMl1bQ0gyXU4oW0NIMl1bQ0gyXTMpW0NIMl1bQ0BIXShbQ0gzXSlbT0hd

> <s_epik_cmdline>
J2VwaWtfcHl0aG9uJywgJy1waCcsICc3LjAnLCAnLXRuJywgJzgnLCAnLW1hJywgJzIwMCcsICctbWV0YWxfYmluZGluZycsICctaW1hZScsICc8aW5maWxlLm1hZT4nLCAnLW9tYWUnLCAnPG91dGZpbGUubWFlPic=

> <r_epik_Ionization_Penalty>
0.131893

> <r_epik_Ionization_Penalty_Charging>
0.00208556

> <r_epik_Ionization_Penalty_Neutral>
0.129808

> <r_epik_State_Penalty>
0.452125

> <r_epik_Charging_Adjusted_Penalty>
0.454211

> <i_epik_Tot_Q>
1

> <i_epik_Tot_abs_Q>
1

> <r_epik_Metal_State_Penalty>
0.376389

> <b_epik_Metal_Only>
0

> <s_lp_Force_Field>
OPLS_2005

> <r_lp_Energy>
35.7629

> <b_lp_Chiralities_Consistent>
1

> <s_lp_Variant>
AV-unprocessed.smi:1033-2

> <Gold.Version>
5.8.1

> <Gold.Id.Protein>
6NUR|6NUR_protein|mol2

> <Gold.PLP.Fitness>
48.6357

> <Gold.PLP.PLP>
-41.6259

> <Gold.PLP.part.hbond>
-2.0000

> <Gold.PLP.part.metal>
0.0000

> <Gold.PLP.part.buried>
-5.2951

> <Gold.PLP.part.nonpolar>
-34.9858

> <Gold.PLP.part.repulsive>
1.4059

> <Gold.PLP.ligand.clash>
0.0000

> <Gold.PLP.ligand.torsion>
1.0247

> <Gold.PLP.Chemscore.Hbond>
3.0000

> <Gold.PLP.Chemscore.CHOScore>
0.0000

> <Gold.PLP.Chemscore.Metal>
0.0000

> <Gold.Chemscore.Hbonds>
donor molecule, donor type, donor heavy atom, donor atom, acceptor molecule, acceptor atom, score
      L1  H    12    56       P1  7948  2.00
      P1  H  6896  6907       L1    19  1.00

> <Gold.PLP.Chemscore.Internal.Correction>
0.0592

> <Gold.Rescore>
     Score         DG    S(hbond)    S(metal)    S(lipo)     H(rot)  DE(clash)    DE(int)     intcor
     16.77     -18.08       1.84        0.00     122.22       3.07       0.37       0.93       ----

> <Gold.Chemscore.Fitness>
16.7726

> <Gold.Chemscore.DG>
-18.0759

> <Gold.Chemscore.ZeroCoef>
-5.4800

> <Gold.Chemscore.Hbond>
1.8390

> <Gold.Chemscore.Metal>
0.0000

> <Gold.Chemscore.Lipo>
122.2244

> <Gold.Chemscore.Internal_Hbond>
0.0000

> <Gold.Chemscore.DEClash>
0.3750

> <Gold.Chemscore.DEInternal>
0.9284

> <Gold.Chemscore.Rot>
3.0650

> <Gold.Chemscore.Internal.Correction>
   9.000000E+99

> <Gold.Chemscore.Hbonds>
donor molecule, donor type, donor heavy atom, donor atom, acceptor molecule, acceptor atom, score
      L1  H    12    56       P1  7948  0.87
      P1  H  6896  6907       L1    19  0.78

> <Gold.Chemscore.Hbond.Weighted>
-6.1421

> <Gold.Chemscore.Metal.Weighted>
-0.0000

> <Gold.Chemscore.Lipo.Weighted>
-14.3003

> <Gold.Chemscore.Internal_Hbond.Weighted>
0.0000

> <Gold.Chemscore.DEClash.Weighted>
0.3750

> <Gold.Chemscore.DEInternal.Weighted>
0.9284

> <Gold.Chemscore.Rot.Weighted>
7.8465

> <Gold.Chemscore.Internal.Correction.Weighted>
   9.000000E+99

> <Gold.Protein.RotatedTorsions>
[ 6907 6896 6895 6894 ] final -149.21 input  -60.11 | X-H torsion
[ 7974 7965 7964 7962 ] final   15.54 input  175.53 | X-H torsion
[ 8008 7997 7996 7995 ] final  176.88 input   59.86 | X-H torsion
[ 10167 10162 10161 10158 ] final  146.38 input  -65.29 | X-H torsion
[ 10718 10713 10712 10709 ] final  -75.08 input   66.30 | X-H torsion
[ 10763 10752 10751 10750 ] final  -48.47 input  -60.55 | X-H torsion
[ 11005 11000 10999 10996 ] final   77.48 input  -57.11 | X-H torsion

> <Gold.Protein.ActiveResidues>
 VAL166  LYS551  ARG553  GLY616  TRP617  ASP618  TYR619  PRO620  LYS621  CYS622 
 ASP623  PHE694  ASN695  SER759  ASP760  ASP761  ALA762  ILE779  LEU786  VAL792 
 PHE793  MET794  SER795  GLU796  ALA797  LYS798  CYS799  TRP800  GLU811  SER814 

> <Gold.Protein.RotatedAtoms>
  151.1808  133.4726  159.2593 H   0  0  0  0  0  0  0  0  0  0  0  0  # atno 6907 bound_to 6896
  151.1261  135.0105  159.8571 H   0  0  0  0  0  0  0  0  0  0  0  0  # atno 6908 bound_to 6896
  152.5458  134.1715  159.8652 H   0  0  0  0  0  0  0  0  0  0  0  0  # atno 6909 bound_to 6896
  146.2275  139.8880  142.8559 H   0  0  0  0  0  0  0  0  0  0  0  0  # atno 7974 bound_to 7965
  156.0716  140.1372  156.9821 H   0  0  0  0  0  0  0  0  0  0  0  0  # atno 8008 bound_to 7997
  154.4535  140.0970  156.6740 H   0  0  0  0  0  0  0  0  0  0  0  0  # atno 8009 bound_to 7997
  155.5218  140.3456  155.4410 H   0  0  0  0  0  0  0  0  0  0  0  0  # atno 8010 bound_to 7997
  139.4908  144.5834  151.6827 H   0  0  0  0  0  0  0  0  0  0  0  0  # atno 10167 bound_to 10162
  156.0220  130.4432  150.2989 H   0  0  0  0  0  0  0  0  0  0  0  0  # atno 10718 bound_to 10713
  154.0783  135.6595  153.4834 H   0  0  0  0  0  0  0  0  0  0  0  0  # atno 10763 bound_to 10752
  153.0365  135.5174  154.7499 H   0  0  0  0  0  0  0  0  0  0  0  0  # atno 10764 bound_to 10752
  154.6586  135.3011  154.9864 H   0  0  0  0  0  0  0  0  0  0  0  0  # atno 10765 bound_to 10752
  139.9253  134.7686  156.1527 H   0  0  0  0  0  0  0  0  0  0  0  0  # atno 11005 bound_to 11000
  145.2446  141.0022  143.3916 LP  0  0  0  0  0  0  0  0  0  0  0  0  # atno 17320 bound_to 7965
  144.9424  139.4174  143.6442 LP  0  0  0  0  0  0  0  0  0  0  0  0  # atno 17321 bound_to 7965
  140.5445  144.0526  150.6101 LP  0  0  0  0  0  0  0  0  0  0  0  0  # atno 17342 bound_to 10162
  140.3559  143.2936  152.0436 LP  0  0  0  0  0  0  0  0  0  0  0  0  # atno 17343 bound_to 10162
  157.1092  131.0217  151.3055 LP  0  0  0  0  0  0  0  0  0  0  0  0  # atno 17370 bound_to 10713
  157.4718  130.7713  149.7330 LP  0  0  0  0  0  0  0  0  0  0  0  0  # atno 17371 bound_to 10713
  141.0805  133.6756  156.2327 LP  0  0  0  0  0  0  0  0  0  0  0  0  # atno 17394 bound_to 11000
  140.6355  134.5220  157.5564 LP  0  0  0  0  0  0  0  0  0  0  0  0  # atno 17395 bound_to 11000

$$$$
