#       Name:                AV-unprocessed.smi:342
#       Creating user name   scv26
#       Creation time:       Thu Mar 26 22:31:25 2020


#       File generated by GOLD software.
#

@<TRIPOS>MOLECULE
AV-unprocessed.smi:342
    47    49     1
SMALL
NO_CHARGES


@<TRIPOS>ATOM
      1 ****        -0.2502   2.9354  -0.3026 O.3            1 S1                 0.0000
      2 ****         0.1503   1.5802  -0.3111 C.3            1 S1                 0.0000
      3 ****        -0.4530   0.8743   0.9231 C.3            1 S1                 0.0000
      4 ****        -1.9340   0.7884   0.8629 N.4            1 S1                 1.0000
      5 ****        -2.4322  -0.2759  -0.0442 C.3            1 S1                 0.0000
      6 ****        -3.9697  -0.2709  -0.0823 C.3            1 S1                 0.0000
      7 ****        -4.4804  -0.4364   1.2346 O.3            1 S1                 0.0000
      8 ****        -4.0820   0.6226   2.0960 C.3            1 S1                 0.0000
      9 ****        -2.5479   0.6503   2.2050 C.3            1 S1                 0.0000
     10 ****         1.6923   1.5430  -0.3603 C.3            1 S1                 0.0000
     11 ****         2.2272   0.1869  -0.3528 N.pl3          1 S1                 0.0000
     12 ****         2.9476  -0.4384   0.6164 C.2            1 S1                 0.0000
     13 ****         3.3334   0.2400   1.9022 C.3            1 S1                 0.0000
     14 ****         3.9877  -0.5986   2.7069 F              1 S1                 0.0000
     15 ****         4.1312   1.2804   1.6620 F              1 S1                 0.0000
     16 ****         2.2537   0.6673   2.5560 F              1 S1                 0.0000
     17 ****         3.3010  -1.6971   0.3467 N.2            1 S1                 0.0000
     18 ****         2.7823  -1.9011  -0.9155 C.ar           1 S1                 0.0000
     19 ****         2.8272  -3.0380  -1.7535 C.ar           1 S1                 0.0000
     20 ****         2.2227  -3.0100  -3.0271 C.ar           1 S1                 0.0000
     21 ****         1.5676  -1.8469  -3.4802 C.ar           1 S1                 0.0000
     22 ****         1.5106  -0.7037  -2.6600 C.ar           1 S1                 0.0000
     23 ****         2.1116  -0.7380  -1.3870 C.ar           1 S1                 0.0000
     24 ****         0.1478   3.3649   0.4397 H              1 S1                 0.0000
     25 ****        -0.2347   1.1314  -1.2251 H              1 S1                 0.0000
     26 ****        -0.0512  -0.1331   1.0383 H              1 S1                 0.0000
     27 ****        -0.1536   1.4250   1.8160 H              1 S1                 0.0000
     28 ****        -2.0481  -0.1331  -1.0531 H              1 S1                 0.0000
     29 ****        -2.0734  -1.2480   0.2983 H              1 S1                 0.0000
     30 ****        -4.3460   0.6559  -0.5186 H              1 S1                 0.0000
     31 ****        -4.3328  -1.0871  -0.7071 H              1 S1                 0.0000
     32 ****        -4.4648   1.5744   1.7241 H              1 S1                 0.0000
     33 ****        -4.5255   0.4638   3.0789 H              1 S1                 0.0000
     34 ****        -2.1898  -0.2653   2.6786 H              1 S1                 0.0000
     35 ****        -2.2418   1.4821   2.8408 H              1 S1                 0.0000
     36 ****         2.0470   2.0360  -1.2665 H              1 S1                 0.0000
     37 ****         2.1079   2.1083   0.4725 H              1 S1                 0.0000
     38 ****         3.3305  -3.9325  -1.4174 H              1 S1                 0.0000
     39 ****         2.2647  -3.8840  -3.6605 H              1 S1                 0.0000
     40 ****         1.1104  -1.8330  -4.4589 H              1 S1                 0.0000
     41 ****         1.0137   0.1887  -3.0099 H              1 S1                 0.0000
     42 ****        -2.2568   1.6714   0.4927 H              1 S1                 0.0000
     43 ****        -1.2460   2.9915  -0.2295 LP             1 S1                 0.0000
     44 ****         0.0476   3.3795  -1.1476 LP             1 S1                 0.0000
     45 ****        -4.1411  -1.3004   1.6066 LP             1 S1                 0.0000
     46 ****        -5.4793  -0.4607   1.1931 LP             1 S1                 0.0000
     47 ****         3.8155  -2.3356   0.9191 LP             1 S1                 0.0000
@<TRIPOS>BOND
    1    1    2 1     
    2    1   24 1     
    3    2    3 1     
    4    2   10 1     
    5    2   25 1     
    6    3    4 1     
    7    3   26 1     
    8    3   27 1     
    9    4    9 1     
   10    4    5 1     
   11    4   42 1     
   12    5    6 1     
   13    5   28 1     
   14    5   29 1     
   15    6    7 1     
   16    6   30 1     
   17    6   31 1     
   18    7    8 1     
   19    8    9 1     
   20    8   32 1     
   21    8   33 1     
   22    9   34 1     
   23    9   35 1     
   24   10   11 1     
   25   10   36 1     
   26   10   37 1     
   27   11   23 1     
   28   11   12 1     
   29   12   13 1     
   30   12   17 2     
   31   13   14 1     
   32   13   15 1     
   33   13   16 1     
   34   17   18 1     
   35   18   23 ar    
   36   18   19 ar    
   37   19   20 ar    
   38   19   38 1     
   39   20   21 ar    
   40   20   39 1     
   41   21   22 ar    
   42   21   40 1     
   43   22   23 ar    
   44   22   41 1     
   45    1   43 1     
   46    1   44 1     
   47    7   45 1     
   48    7   46 1     
   49   17   47 1     
@<TRIPOS>SUBSTRUCTURE
      1 S1             1
@<TRIPOS>SET
LONE_PAIRS      STATIC     ATOMS    <user>   **** ""
5 43 44 45 46 47
DONOR_HYDROGENS      STATIC     ATOMS    <user>   **** ""
2 24 42
ATOM$BLUE        STATIC     ATOMS    COLORGROUP SYSTEM
5 43 44 45 46 47
ATOM$RED        STATIC     ATOMS    COLORGROUP SYSTEM
2 24 42
