AV-unprocessed.smi:1856|AV-procd|sdf|7535|dock3
  -GOLD-   22720 9253D 1   1.00000     0.00000
 Structure written by MMmdl.
 44 45  0  0  0  0  0  0  0  0  1 V2000
  146.7750  136.0878  162.3006 C   0  0  0  0  0  0  0  0  0  0  0  0
  148.0179  136.0666  161.3979 C   0  0  0  0  0  0  0  0  0  0  0  0
  147.8822  136.8765  160.0935 C   0  0  0  0  0  0  0  0  0  0  0  0
  149.1318  136.8273  159.2092 C   0  0  0  0  0  0  0  0  0  0  0  0
  149.5023  135.7603  158.7196 O   0  0  0  0  0  0  0  0  0  0  0  0
  149.7581  137.9950  158.9975 N   0  0  0  0  0  0  0  0  0  0  0  0
  150.9444  138.1888  158.1673 C   0  0  2  0  0  0  0  0  0  0  0  0
  152.1092  137.3234  158.6690 C   0  0  0  0  0  0  0  0  0  0  0  0
  151.2735  139.6591  158.1837 C   0  0  0  0  0  0  0  0  0  0  0  0
  152.2381  140.1569  158.9626 N   0  0  0  0  0  0  0  0  0  0  0  0
  152.2043  141.5058  158.6730 C   0  0  0  0  0  0  0  0  0  0  0  0
  152.9851  142.5716  159.1745 C   0  0  0  0  0  0  0  0  0  0  0  0
  152.7652  143.8903  158.7256 C   0  0  0  0  0  0  0  0  0  0  0  0
  151.7631  144.1611  157.7716 C   0  0  0  0  0  0  0  0  0  0  0  0
  150.9739  143.1133  157.2597 C   0  0  0  0  0  0  0  0  0  0  0  0
  151.1984  141.7978  157.7098 C   0  0  0  0  0  0  0  0  0  0  0  0
  150.6128  140.5684  157.4195 N   0  0  0  0  0  0  0  0  0  0  0  0
  149.5195  140.3427  156.4831 C   0  0  0  0  0  0  0  0  0  0  0  0
  149.9813  140.3438  155.0113 C   0  0  1  0  0  0  0  0  0  0  0  0
  150.8807  139.1548  154.6399 C   0  0  0  0  0  0  0  0  0  0  0  0
  148.8361  140.3181  154.1866 O   0  0  0  0  0  0  0  0  0  0  0  0
  146.9747  135.5744  163.2412 H   0  0  0  0  0  0  0  0  0  0  0  0
  145.9259  135.5890  161.8332 H   0  0  0  0  0  0  0  0  0  0  0  0
  146.4779  137.1097  162.5374 H   0  0  0  0  0  0  0  0  0  0  0  0
  148.8607  136.4657  161.9632 H   0  0  0  0  0  0  0  0  0  0  0  0
  148.2797  135.0333  161.1657 H   0  0  0  0  0  0  0  0  0  0  0  0
  147.0304  136.5137  159.5171 H   0  0  0  0  0  0  0  0  0  0  0  0
  147.6582  137.9158  160.3387 H   0  0  0  0  0  0  0  0  0  0  0  0
  149.3763  138.8226  159.4327 H   0  0  0  0  0  0  0  0  0  0  0  0
  150.7187  137.8770  157.1494 H   0  0  0  0  0  0  0  0  0  0  0  0
  152.9957  137.4689  158.0513 H   0  0  0  0  0  0  0  0  0  0  0  0
  151.8539  136.2638  158.6353 H   0  0  0  0  0  0  0  0  0  0  0  0
  152.3760  137.5692  159.6976 H   0  0  0  0  0  0  0  0  0  0  0  0
  153.7546  142.3744  159.9061 H   0  0  0  0  0  0  0  0  0  0  0  0
  153.3673  144.6978  159.1154 H   0  0  0  0  0  0  0  0  0  0  0  0
  151.6000  145.1740  157.4333 H   0  0  0  0  0  0  0  0  0  0  0  0
  150.2044  143.3202  156.5312 H   0  0  0  0  0  0  0  0  0  0  0  0
  149.0519  139.3873  156.7235 H   0  0  0  0  0  0  0  0  0  0  0  0
  148.7494  141.0962  156.6507 H   0  0  0  0  0  0  0  0  0  0  0  0
  150.5191  141.2672  154.7952 H   0  0  0  0  0  0  0  0  0  0  0  0
  151.8121  139.1686  155.2061 H   0  0  0  0  0  0  0  0  0  0  0  0
  151.1453  139.1783  153.5824 H   0  0  0  0  0  0  0  0  0  0  0  0
  150.3838  138.2044  154.8386 H   0  0  0  0  0  0  0  0  0  0  0  0
  149.1075  140.4526  153.2914 H   0  0  0  0  0  0  0  0  0  0  0  0
  1  2  1  0  0  0  0
  1 22  1  0  0  0  0
  1 23  1  0  0  0  0
  1 24  1  0  0  0  0
  2  3  1  0  0  0  0
  2 25  1  0  0  0  0
  2 26  1  0  0  0  0
  3  4  1  0  0  0  0
  3 27  1  0  0  0  0
  3 28  1  0  0  0  0
  4  5  2  0  0  0  0
  4  6  1  0  0  0  0
  6  7  1  0  0  0  0
  6 29  1  0  0  0  0
  7  8  1  0  0  0  0
  7  9  1  0  0  0  0
  7 30  1  0  0  0  0
  8 31  1  0  0  0  0
  8 32  1  0  0  0  0
  8 33  1  0  0  0  0
  9 17  1  0  0  0  0
  9 10  2  0  0  0  0
 10 11  1  0  0  0  0
 11 16  2  0  0  0  0
 11 12  1  0  0  0  0
 12 13  2  0  0  0  0
 12 34  1  0  0  0  0
 13 14  1  0  0  0  0
 13 35  1  0  0  0  0
 14 15  2  0  0  0  0
 14 36  1  0  0  0  0
 15 16  1  0  0  0  0
 15 37  1  0  0  0  0
 16 17  1  0  0  0  0
 17 18  1  0  0  0  0
 18 19  1  0  0  0  0
 18 38  1  0  0  0  0
 18 39  1  0  0  0  0
 19 20  1  0  0  0  0
 19 21  1  0  0  0  0
 19 40  1  0  0  0  0
 20 41  1  0  0  0  0
 20 42  1  0  0  0  0
 20 43  1  0  0  0  0
 21 44  1  0  0  0  0
M  END
> <s_m_source_file>
AV-unprocessed.smi

> <i_m_source_file_index>
1856

> <i_lp_mmshare_version>
43012

> <i_f3d_flags>
0

> <s_epik_input>
W0NIM11bQ0gyXVtDSDJdQyg9TylbTkhdW0NASF0oW0NIM10pYyhuMSluKFtDSDJdW0NASF0oW0NIM10pW09IXSljKGMxMilbY0hdW2NIXVtjSF1bY0hdMg==

> <s_epik_cmdline>
J2VwaWtfcHl0aG9uJywgJy1waCcsICc3LjAnLCAnLXRuJywgJzgnLCAnLW1hJywgJzIwMCcsICctbWV0YWxfYmluZGluZycsICctaW1hZScsICc8aW5maWxlLm1hZT4nLCAnLW9tYWUnLCAnPG91dGZpbGUubWFlPic=

> <r_epik_Ionization_Penalty>
0.134222

> <r_epik_Ionization_Penalty_Charging>
0

> <r_epik_Ionization_Penalty_Neutral>
0.134222

> <r_epik_State_Penalty>
0.123585

> <r_epik_Charging_Adjusted_Penalty>
0.123585

> <i_epik_Tot_Q>
0

> <i_epik_Tot_abs_Q>
0

> <r_epik_Metal_State_Penalty>
0.100548

> <b_epik_Metal_Only>
0

> <s_lp_Force_Field>
OPLS_2005

> <r_lp_Energy>
3.90486

> <b_lp_Chiralities_Consistent>
1

> <s_lp_Variant>
AV-unprocessed.smi:1856-3

> <Gold.Version>
5.8.1

> <Gold.Id.Protein>
6NUR|6NUR_protein|mol2

> <Gold.PLP.Fitness>
47.1355

> <Gold.PLP.PLP>
-42.8089

> <Gold.PLP.part.hbond>
-2.5202

> <Gold.PLP.part.metal>
0.0000

> <Gold.PLP.part.buried>
-2.6401

> <Gold.PLP.part.nonpolar>
-38.4853

> <Gold.PLP.part.repulsive>
0.2304

> <Gold.PLP.ligand.clash>
0.0000

> <Gold.PLP.ligand.torsion>
0.8711

> <Gold.PLP.Chemscore.Hbond>
1.9920

> <Gold.PLP.Chemscore.CHOScore>
0.0000

> <Gold.PLP.Chemscore.Metal>
0.0000

> <Gold.Chemscore.Hbonds>
donor molecule, donor type, donor heavy atom, donor atom, acceptor molecule, acceptor atom, score
      L1  H    21    44       P1  7957  0.50
      P1  H  6896  6907       L1     5  1.00

> <Gold.PLP.Chemscore.Internal.Correction>
0.0927

> <Gold.Rescore>
     Score         DG    S(hbond)    S(metal)    S(lipo)     H(rot)  DE(clash)    DE(int)     intcor
     17.90     -19.34       1.89        0.00     118.13       2.45       0.51       0.93       ----

> <Gold.Chemscore.Fitness>
17.9029

> <Gold.Chemscore.DG>
-19.3400

> <Gold.Chemscore.ZeroCoef>
-5.4800

> <Gold.Chemscore.Hbond>
1.8864

> <Gold.Chemscore.Metal>
0.0000

> <Gold.Chemscore.Lipo>
118.1271

> <Gold.Chemscore.Internal_Hbond>
0.0000

> <Gold.Chemscore.DEClash>
0.5069

> <Gold.Chemscore.DEInternal>
0.9303

> <Gold.Chemscore.Rot>
2.4459

> <Gold.Chemscore.Internal.Correction>
   9.000000E+99

> <Gold.Chemscore.Hbonds>
donor molecule, donor type, donor heavy atom, donor atom, acceptor molecule, acceptor atom, score
      L1  H    21    44       P1  7957  0.52
      P1  H  6896  6907       L1     5  0.94

> <Gold.Chemscore.Hbond.Weighted>
-6.3006

> <Gold.Chemscore.Metal.Weighted>
-0.0000

> <Gold.Chemscore.Lipo.Weighted>
-13.8209

> <Gold.Chemscore.Internal_Hbond.Weighted>
0.0000

> <Gold.Chemscore.DEClash.Weighted>
0.5069

> <Gold.Chemscore.DEInternal.Weighted>
0.9303

> <Gold.Chemscore.Rot.Weighted>
6.2614

> <Gold.Chemscore.Internal.Correction.Weighted>
   9.000000E+99

> <Gold.Protein.RotatedTorsions>
[ 6907 6896 6895 6894 ] final  -53.21 input  -60.11 | X-H torsion
[ 7974 7965 7964 7962 ] final  116.94 input  175.53 | X-H torsion
[ 8008 7997 7996 7995 ] final   23.82 input   59.86 | X-H torsion
[ 10167 10162 10161 10158 ] final  149.88 input  -65.29 | X-H torsion
[ 10718 10713 10712 10709 ] final   43.70 input   66.30 | X-H torsion
[ 10763 10752 10751 10750 ] final  -86.83 input  -60.55 | X-H torsion
[ 11005 11000 10999 10996 ] final -115.42 input  -57.11 | X-H torsion

> <Gold.Protein.ActiveResidues>
 VAL166  LYS551  ARG553  GLY616  TRP617  ASP618  TYR619  PRO620  LYS621  CYS622 
 ASP623  PHE694  ASN695  SER759  ASP760  ASP761  ALA762  ILE779  LEU786  VAL792 
 PHE793  MET794  SER795  GLU796  ALA797  LYS798  CYS799  TRP800  GLU811  SER814 

> <Gold.Protein.RotatedAtoms>
  150.8447  134.7752  159.6960 H   0  0  0  0  0  0  0  0  0  0  0  0  # atno 6907 bound_to 6896
  152.4526  134.5356  159.9834 H   0  0  0  0  0  0  0  0  0  0  0  0  # atno 6908 bound_to 6896
  151.5489  133.3382  159.2985 H   0  0  0  0  0  0  0  0  0  0  0  0  # atno 6909 bound_to 6896
  145.1735  139.3088  143.4455 H   0  0  0  0  0  0  0  0  0  0  0  0  # atno 7974 bound_to 7965
  154.9868  140.3109  155.4923 H   0  0  0  0  0  0  0  0  0  0  0  0  # atno 8008 bound_to 7997
  156.2945  140.2256  156.4911 H   0  0  0  0  0  0  0  0  0  0  0  0  # atno 8009 bound_to 7997
  154.7739  140.0450  157.1062 H   0  0  0  0  0  0  0  0  0  0  0  0  # atno 8010 bound_to 7997
  139.4856  144.5567  151.7305 H   0  0  0  0  0  0  0  0  0  0  0  0  # atno 10167 bound_to 10162
  157.4188  130.7957  149.7497 H   0  0  0  0  0  0  0  0  0  0  0  0  # atno 10718 bound_to 10713
  154.6268  135.5435  153.7636 H   0  0  0  0  0  0  0  0  0  0  0  0  # atno 10763 bound_to 10752
  153.0265  135.6426  154.1360 H   0  0  0  0  0  0  0  0  0  0  0  0  # atno 10764 bound_to 10752
  154.1292  135.2915  155.3169 H   0  0  0  0  0  0  0  0  0  0  0  0  # atno 10765 bound_to 10752
  141.0489  133.9719  157.2870 H   0  0  0  0  0  0  0  0  0  0  0  0  # atno 11005 bound_to 11000
  146.3465  140.1889  142.8589 LP  0  0  0  0  0  0  0  0  0  0  0  0  # atno 17320 bound_to 7965
  145.0209  140.8792  143.5167 LP  0  0  0  0  0  0  0  0  0  0  0  0  # atno 17321 bound_to 7965
  140.5129  144.0997  150.6000 LP  0  0  0  0  0  0  0  0  0  0  0  0  # atno 17342 bound_to 10162
  140.3929  143.2743  152.0039 LP  0  0  0  0  0  0  0  0  0  0  0  0  # atno 17343 bound_to 10162
  155.9874  130.3967  150.3167 LP  0  0  0  0  0  0  0  0  0  0  0  0  # atno 17370 bound_to 10713
  157.1313  131.0272  151.2968 LP  0  0  0  0  0  0  0  0  0  0  0  0  # atno 17371 bound_to 10713
  139.9334  135.0198  156.8476 LP  0  0  0  0  0  0  0  0  0  0  0  0  # atno 17394 bound_to 11000
  140.6094  134.0097  155.7570 LP  0  0  0  0  0  0  0  0  0  0  0  0  # atno 17395 bound_to 11000

$$$$
