AV-unprocessed.smi:3029|AV-procd|sdf|11531|dock10
  -GOLD-   2272016473D 1   1.00000     0.00000
 Structure written by MMmdl.
 41 42  0  0  0  0  0  0  0  0  3 V2000
  150.8716  139.7769  154.4170 O   0  0  0  0  0  0  0  0  0  0  0  0
  149.9551  140.2328  155.1009 C   0  0  0  0  0  0  0  0  0  0  0  0
  148.5479  140.0729  154.7205 C   0  0  0  0  0  0  0  0  0  0  0  0
  147.5483  140.5553  155.4846 C   0  0  0  0  0  0  0  0  0  0  0  0
  147.8394  141.2538  156.7218 C   0  0  0  0  0  0  0  0  0  0  0  0
  146.7732  141.7578  157.5594 N   0  3  0  0  0  0  0  0  0  0  0  0
  147.0579  142.3164  158.6145 O   0  0  0  0  0  0  0  0  0  0  0  0
  145.6133  141.6101  157.1877 O   0  5  0  0  0  0  0  0  0  0  0  0
  149.1336  141.4093  157.0637 C   0  0  0  0  0  0  0  0  0  0  0  0
  150.1824  140.9175  156.2629 N   0  0  0  0  0  0  0  0  0  0  0  0
  151.5513  141.1435  156.7438 C   0  0  0  0  0  0  0  0  0  0  0  0
  151.8037  140.3949  158.0614 C   0  0  0  0  0  0  0  0  0  0  0  0
  151.7444  141.3309  159.1734 N   0  0  0  0  0  0  0  0  0  0  0  0
  152.9386  142.1692  159.2440 C   0  0  2  0  0  0  0  0  0  0  0  0
  154.0771  141.3474  159.8849 C   0  0  0  0  0  0  0  0  0  0  0  0
  153.8868  141.1439  161.3985 C   0  0  0  0  0  0  0  0  0  0  0  0
  153.6750  142.4786  162.1249 C   0  0  0  0  0  0  0  0  0  0  0  0
  152.4992  143.2603  161.5204 C   0  0  0  0  0  0  0  0  0  0  0  0
  152.6931  143.5018  160.0076 C   0  0  2  0  0  0  0  0  0  0  0  0
  151.5967  144.4095  159.4032 C   0  0  0  0  0  0  0  0  0  0  0  0
  150.3968  143.8291  159.4385 F   0  0  0  0  0  0  0  0  0  0  0  0
  151.5318  145.5484  160.0933 F   0  0  0  0  0  0  0  0  0  0  0  0
  151.8988  144.7130  158.1407 F   0  0  0  0  0  0  0  0  0  0  0  0
  148.3083  139.5557  153.8028 H   0  0  0  0  0  0  0  0  0  0  0  0
  146.5273  140.4143  155.1617 H   0  0  0  0  0  0  0  0  0  0  0  0
  149.4556  141.9081  157.9668 H   0  0  0  0  0  0  0  0  0  0  0  0
  152.2758  140.8322  155.9886 H   0  0  0  0  0  0  0  0  0  0  0  0
  151.7298  142.2110  156.8840 H   0  0  0  0  0  0  0  0  0  0  0  0
  151.0545  139.6146  158.2008 H   0  0  0  0  0  0  0  0  0  0  0  0
  152.7788  139.9096  158.0343 H   0  0  0  0  0  0  0  0  0  0  0  0
  151.6439  140.8140  160.0354 H   0  0  0  0  0  0  0  0  0  0  0  0
  153.2586  142.4111  158.2290 H   0  0  0  0  0  0  0  0  0  0  0  0
  154.1804  140.3825  159.3864 H   0  0  0  0  0  0  0  0  0  0  0  0
  155.0204  141.8697  159.7204 H   0  0  0  0  0  0  0  0  0  0  0  0
  153.0303  140.4926  161.5774 H   0  0  0  0  0  0  0  0  0  0  0  0
  154.7536  140.6295  161.8141 H   0  0  0  0  0  0  0  0  0  0  0  0
  153.4942  142.2988  163.1850 H   0  0  0  0  0  0  0  0  0  0  0  0
  154.5844  143.0778  162.0635 H   0  0  0  0  0  0  0  0  0  0  0  0
  151.5692  142.7173  161.6932 H   0  0  0  0  0  0  0  0  0  0  0  0
  152.3980  144.2124  162.0416 H   0  0  0  0  0  0  0  0  0  0  0  0
  153.6213  144.0678  159.9104 H   0  0  0  0  0  0  0  0  0  0  0  0
  1  2  2  0  0  0  0
  2 10  1  0  0  0  0
  2  3  1  0  0  0  0
  3  4  2  0  0  0  0
  3 24  1  0  0  0  0
  4  5  1  0  0  0  0
  4 25  1  0  0  0  0
  5  6  1  0  0  0  0
  5  9  2  0  0  0  0
  6  7  2  0  0  0  0
  6  8  1  0  0  0  0
  9 10  1  0  0  0  0
  9 26  1  0  0  0  0
 10 11  1  0  0  0  0
 11 12  1  0  0  0  0
 11 27  1  0  0  0  0
 11 28  1  0  0  0  0
 12 13  1  0  0  0  0
 12 29  1  0  0  0  0
 12 30  1  0  0  0  0
 13 14  1  0  0  0  0
 13 31  1  0  0  0  0
 14 19  1  0  0  0  0
 14 15  1  0  0  0  0
 14 32  1  0  0  0  0
 15 16  1  0  0  0  0
 15 33  1  0  0  0  0
 15 34  1  0  0  0  0
 16 17  1  0  0  0  0
 16 35  1  0  0  0  0
 16 36  1  0  0  0  0
 17 18  1  0  0  0  0
 17 37  1  0  0  0  0
 17 38  1  0  0  0  0
 18 19  1  0  0  0  0
 18 39  1  0  0  0  0
 18 40  1  0  0  0  0
 19 20  1  0  0  0  0
 19 41  1  0  0  0  0
 20 21  1  0  0  0  0
 20 22  1  0  0  0  0
 20 23  1  0  0  0  0
M  CHG  1   6   1
M  CHG  1   8  -1
M  END
> <s_m_source_file>
AV-unprocessed.smi

> <i_m_source_file_index>
3029

> <i_lp_mmshare_version>
43012

> <i_f3d_flags>
0

> <s_epik_input>
Tz1jMVtjSF1bY0hdYyhbTitdKD1PKVtPLV0pW2NIXW4xW0NIMl1bQ0gyXVtOSF1bQ0BASF0yW0NIMl1bQ0gyXVtDSDJdW0NIMl1bQ0BIXTJDKEYpKEYpRg==

> <s_epik_cmdline>
J2VwaWtfcHl0aG9uJywgJy1waCcsICc3LjAnLCAnLXRuJywgJzgnLCAnLW1hJywgJzIwMCcsICctbWV0YWxfYmluZGluZycsICctaW1hZScsICc8aW5maWxlLm1hZT4nLCAnLW9tYWUnLCAnPG91dGZpbGUubWFlPic=

> <r_lp_tautomer_probability>
1

> <r_epik_Ionization_Penalty>
1.65565

> <r_epik_Ionization_Penalty_Charging>
3.32684e-10

> <r_epik_Ionization_Penalty_Neutral>
1.65565

> <r_epik_State_Penalty>
1.75811

> <r_epik_Charging_Adjusted_Penalty>
1.75811

> <i_epik_Tot_Q>
0

> <i_epik_Tot_abs_Q>
2

> <r_epik_Metal_State_Penalty>
1.75811

> <b_epik_Metal_Only>
0

> <s_lp_Force_Field>
OPLS_2005

> <r_lp_Energy>
35.9342

> <b_lp_Chiralities_Consistent>
1

> <s_lp_Variant>
AV-unprocessed.smi:3029-7

> <Gold.Version>
5.8.1

> <Gold.Id.Protein>
6NUR|6NUR_protein|mol2

> <Gold.PLP.Fitness>
55.4513

> <Gold.PLP.PLP>
-53.5976

> <Gold.PLP.part.hbond>
-1.0000

> <Gold.PLP.part.metal>
0.0000

> <Gold.PLP.part.buried>
-6.7766

> <Gold.PLP.part.nonpolar>
-45.3697

> <Gold.PLP.part.repulsive>
0.3527

> <Gold.PLP.ligand.clash>
0.0000

> <Gold.PLP.ligand.torsion>
0.6244

> <Gold.PLP.Chemscore.Hbond>
0.9913

> <Gold.PLP.Chemscore.CHOScore>
0.0000

> <Gold.PLP.Chemscore.Metal>
0.0000

> <Gold.Chemscore.Hbonds>
donor molecule, donor type, donor heavy atom, donor atom, acceptor molecule, acceptor atom, score
      P1  H  7989  7998       L1     1  1.00

> <Gold.PLP.Chemscore.Internal.Correction>
0.1287

> <Gold.Rescore>
     Score         DG    S(hbond)    S(metal)    S(lipo)     H(rot)  DE(clash)    DE(int)     intcor
     14.70     -16.54       0.98        0.00     107.24       1.86       0.01       1.83       ----

> <Gold.Chemscore.Fitness>
14.7028

> <Gold.Chemscore.DG>
-16.5444

> <Gold.Chemscore.ZeroCoef>
-5.4800

> <Gold.Chemscore.Hbond>
0.9805

> <Gold.Chemscore.Metal>
0.0000

> <Gold.Chemscore.Lipo>
107.2412

> <Gold.Chemscore.Internal_Hbond>
0.0000

> <Gold.Chemscore.DEClash>
0.0126

> <Gold.Chemscore.DEInternal>
1.8289

> <Gold.Chemscore.Rot>
1.8584

> <Gold.Chemscore.Internal.Correction>
   9.000000E+99

> <Gold.Chemscore.Hbonds>
donor molecule, donor type, donor heavy atom, donor atom, acceptor molecule, acceptor atom, score
      P1  H  7989  7998       L1     1  0.90

> <Gold.Chemscore.Hbond.Weighted>
-3.2747

> <Gold.Chemscore.Metal.Weighted>
-0.0000

> <Gold.Chemscore.Lipo.Weighted>
-12.5472

> <Gold.Chemscore.Internal_Hbond.Weighted>
0.0000

> <Gold.Chemscore.DEClash.Weighted>
0.0126

> <Gold.Chemscore.DEInternal.Weighted>
1.8289

> <Gold.Chemscore.Rot.Weighted>
4.7576

> <Gold.Chemscore.Internal.Correction.Weighted>
   9.000000E+99

> <Gold.Protein.RotatedTorsions>
[ 6907 6896 6895 6894 ] final -128.28 input  -60.11 | X-H torsion
[ 7974 7965 7964 7962 ] final  -79.82 input  175.53 | X-H torsion
[ 8008 7997 7996 7995 ] final    3.54 input   59.86 | X-H torsion
[ 10167 10162 10161 10158 ] final   25.55 input  -65.29 | X-H torsion
[ 10718 10713 10712 10709 ] final  179.65 input   66.30 | X-H torsion
[ 10763 10752 10751 10750 ] final -153.76 input  -60.55 | X-H torsion
[ 11005 11000 10999 10996 ] final   39.22 input  -57.11 | X-H torsion

> <Gold.Protein.ActiveResidues>
 VAL166  LYS551  ARG553  GLY616  TRP617  ASP618  TYR619  PRO620  LYS621  CYS622 
 ASP623  PHE694  ASN695  SER759  ASP760  ASP761  ALA762  ILE779  LEU786  VAL792 
 PHE793  MET794  SER795  GLU796  ALA797  LYS798  CYS799  TRP800  GLU811  SER814 

> <Gold.Protein.RotatedAtoms>
  150.9162  133.6936  159.2842 H   0  0  0  0  0  0  0  0  0  0  0  0  # atno 6907 bound_to 6896
  151.4406  135.1018  159.9679 H   0  0  0  0  0  0  0  0  0  0  0  0  # atno 6908 bound_to 6896
  152.4956  133.8571  159.7286 H   0  0  0  0  0  0  0  0  0  0  0  0  # atno 6909 bound_to 6896
  145.5682  140.9470  143.1410 H   0  0  0  0  0  0  0  0  0  0  0  0  # atno 7974 bound_to 7965
  154.7049  140.2681  155.6684 H   0  0  0  0  0  0  0  0  0  0  0  0  # atno 8008 bound_to 7997
  156.2777  140.2764  156.1596 H   0  0  0  0  0  0  0  0  0  0  0  0  # atno 8009 bound_to 7997
  155.0713  140.0372  157.2599 H   0  0  0  0  0  0  0  0  0  0  0  0  # atno 8010 bound_to 7997
  140.5097  144.0181  150.6367 H   0  0  0  0  0  0  0  0  0  0  0  0  # atno 10167 bound_to 10162
  156.8726  130.9789  151.3071 H   0  0  0  0  0  0  0  0  0  0  0  0  # atno 10718 bound_to 10713
  154.7906  135.3205  154.7787 H   0  0  0  0  0  0  0  0  0  0  0  0  # atno 10763 bound_to 10752
  153.8476  135.6865  153.4800 H   0  0  0  0  0  0  0  0  0  0  0  0  # atno 10764 bound_to 10752
  153.1574  135.4674  154.9664 H   0  0  0  0  0  0  0  0  0  0  0  0  # atno 10765 bound_to 10752
  140.2049  134.3825  155.8077 H   0  0  0  0  0  0  0  0  0  0  0  0  # atno 11005 bound_to 11000
  144.7450  139.7344  143.7295 LP  0  0  0  0  0  0  0  0  0  0  0  0  # atno 17320 bound_to 7965
  146.1803  139.4993  142.9870 LP  0  0  0  0  0  0  0  0  0  0  0  0  # atno 17321 bound_to 7965
  140.3500  143.2968  152.0497 LP  0  0  0  0  0  0  0  0  0  0  0  0  # atno 17342 bound_to 10162
  139.4893  144.6380  151.6935 LP  0  0  0  0  0  0  0  0  0  0  0  0  # atno 17343 bound_to 10162
  157.6187  130.8638  149.9072 LP  0  0  0  0  0  0  0  0  0  0  0  0  # atno 17370 bound_to 10713
  156.0719  130.3684  150.0759 LP  0  0  0  0  0  0  0  0  0  0  0  0  # atno 17371 bound_to 10713
  141.2227  133.7113  156.8321 LP  0  0  0  0  0  0  0  0  0  0  0  0  # atno 17394 bound_to 11000
  140.2013  134.8895  157.3172 LP  0  0  0  0  0  0  0  0  0  0  0  0  # atno 17395 bound_to 11000

$$$$
