#       Name:                AV-unprocessed.smi:3104
#       Creating user name   scv26
#       Creation time:       Fri Mar 27 17:18:49 2020


#       File generated by GOLD software.
#

@<TRIPOS>MOLECULE
AV-unprocessed.smi:3104
    38    39     1
SMALL
NO_CHARGES


@<TRIPOS>ATOM
      1 ****        -3.3363  -3.7153  -2.8197 C.3            1 S1                 0.0000
      2 ****        -2.4808  -2.5692  -2.3615 C.2            1 S1                 0.0000
      3 ****        -1.7402  -1.6549  -3.1629 C.2            1 S1                 0.0000
      4 ****        -1.0871  -0.7555  -2.4458 N.2            1 S1                 0.0000
      5 ****        -1.3838  -1.0619  -1.1633 N.pl3          1 S1                 0.0000
      6 ****        -0.8307  -0.2679  -0.0730 C.3            1 S1                 0.0000
      7 ****        -1.3693   1.1738  -0.1472 C.3            1 S1                 0.0000
      8 ****         0.7204  -0.3339  -0.0325 C.3            1 S1                 0.0000
      9 ****         1.2646  -1.7730  -0.0850 C.3            1 S1                 0.0000
     10 ****         1.2362   0.3264   1.1879 N.4            1 S1                 1.0000
     11 ****         1.9468   1.5989   0.9512 C.3            1 S1                 0.0000
     12 ****         2.3693   2.2374   2.2575 C.3            1 S1                 0.0000
     13 ****         1.5138   3.2944   2.9177 C.3            1 S1                 0.0000
     14 ****         2.8281   3.6773   2.2839 C.3            1 S1                 0.0000
     15 ****        -2.2258  -2.1519  -1.0859 C.2            1 S1                 0.0000
     16 ****        -3.3898  -3.7724  -3.9072 H              1 S1                 0.0000
     17 ****        -4.3589  -3.6262  -2.4527 H              1 S1                 0.0000
     18 ****        -2.9493  -4.6716  -2.4674 H              1 S1                 0.0000
     19 ****        -1.6583  -1.6184  -4.2393 H              1 S1                 0.0000
     20 ****        -1.2076  -0.7087   0.8514 H              1 S1                 0.0000
     21 ****        -1.0980   1.7493   0.7378 H              1 S1                 0.0000
     22 ****        -2.4579   1.1814  -0.2123 H              1 S1                 0.0000
     23 ****        -0.9815   1.7020  -1.0189 H              1 S1                 0.0000
     24 ****         1.1129   0.1852  -0.9090 H              1 S1                 0.0000
     25 ****         1.0036  -2.2723  -1.0182 H              1 S1                 0.0000
     26 ****         0.8736  -2.3753   0.7357 H              1 S1                 0.0000
     27 ****         2.3528  -1.7815  -0.0145 H              1 S1                 0.0000
     28 ****         0.4596   0.4982   1.8106 H              1 S1                 0.0000
     29 ****         2.8353   1.4086   0.3478 H              1 S1                 0.0000
     30 ****         1.3137   2.2897   0.3930 H              1 S1                 0.0000
     31 ****         2.9107   1.5669   2.9226 H              1 S1                 0.0000
     32 ****         0.6030   3.6027   2.4080 H              1 S1                 0.0000
     33 ****         1.4616   3.2918   4.0046 H              1 S1                 0.0000
     34 ****         3.6513   3.9310   2.9486 H              1 S1                 0.0000
     35 ****         2.7904   4.2402   1.3531 H              1 S1                 0.0000
     36 ****        -2.5706  -2.5389  -0.1382 H              1 S1                 0.0000
     37 ****         1.8770  -0.3070   1.6438 H              1 S1                 0.0000
     38 ****        -0.5040  -0.0143  -2.7784 LP             1 S1                 0.0000
@<TRIPOS>BOND
    1    1    2 1     
    2    1   16 1     
    3    1   17 1     
    4    1   18 1     
    5    2   15 2     
    6    2    3 1     
    7    3    4 2     
    8    3   19 1     
    9    4    5 1     
   10    5    6 1     
   11    5   15 1     
   12    6    7 1     
   13    6    8 1     
   14    6   20 1     
   15    7   21 1     
   16    7   22 1     
   17    7   23 1     
   18    8    9 1     
   19    8   10 1     
   20    8   24 1     
   21    9   25 1     
   22    9   26 1     
   23    9   27 1     
   24   10   11 1     
   25   10   28 1     
   26   10   37 1     
   27   11   12 1     
   28   11   29 1     
   29   11   30 1     
   30   12   14 1     
   31   12   13 1     
   32   12   31 1     
   33   13   14 1     
   34   13   32 1     
   35   13   33 1     
   36   14   34 1     
   37   14   35 1     
   38   15   36 1     
   39    4   38 1     
@<TRIPOS>SUBSTRUCTURE
      1 S1             1
@<TRIPOS>SET
LONE_PAIRS      STATIC     ATOMS    <user>   **** ""
1 38
DONOR_HYDROGENS      STATIC     ATOMS    <user>   **** ""
2 28 37
ATOM$BLUE        STATIC     ATOMS    COLORGROUP SYSTEM
1 38
ATOM$RED        STATIC     ATOMS    COLORGROUP SYSTEM
2 28 37
