AV-unprocessed.smi:1497|AV-procd|sdf|6058|dock5
  -GOLD-   22720 6173D 1   1.00000     0.00000
 Structure written by MMmdl.
 33 34  0  0  0  0  0  0  0  0  1 V2000
  148.5360  138.5718  152.9583 N   0  0  0  0  0  0  0  0  0  0  0  0
  147.8401  139.0893  153.9746 C   0  0  0  0  0  0  0  0  0  0  0  0
  146.9510  138.4635  154.5473 O   0  0  0  0  0  0  0  0  0  0  0  0
  148.1860  140.5163  154.4059 C   0  0  0  0  0  0  0  0  0  0  0  0
  149.4062  140.5512  155.1925 N   0  0  0  0  0  0  0  0  0  0  0  0
  149.7952  141.4947  156.1233 C   0  0  0  0  0  0  0  0  0  0  0  0
  151.0126  141.0886  156.5800 C   0  0  0  0  0  0  0  0  0  0  0  0
  151.7782  141.7758  157.5550 N   0  0  0  0  0  0  0  0  0  0  0  0
  151.4548  142.9070  158.2100 C   0  0  0  0  0  0  0  0  0  0  0  0
  150.4119  143.5288  158.0039 O   0  0  0  0  0  0  0  0  0  0  0  0
  152.3906  143.3225  159.1025 N   0  0  0  0  0  0  0  0  0  0  0  0
  153.5520  142.5439  159.5664 C   0  0  0  0  0  0  0  0  0  0  0  0
  153.2018  141.8647  160.9008 C   0  0  0  0  0  0  0  0  0  0  0  0
  152.8511  143.1025  162.1887 S   0  0  0  0  0  0  0  0  0  0  0  0
  151.6626  144.1503  161.2921 C   0  0  0  0  0  0  0  0  0  0  0  0
  152.2033  144.5377  159.9051 C   0  0  0  0  0  0  0  0  0  0  0  0
  151.3071  139.8833  155.8821 C   0  0  0  0  0  0  0  0  0  0  0  0
  150.3289  139.5672  155.0469 N   0  0  0  0  0  0  0  0  0  0  0  0
  148.3392  137.6314  152.6470 H   0  0  0  0  0  0  0  0  0  0  0  0
  149.2561  139.1169  152.5074 H   0  0  0  0  0  0  0  0  0  0  0  0
  148.3127  141.1511  153.5277 H   0  0  0  0  0  0  0  0  0  0  0  0
  147.3677  140.9400  154.9908 H   0  0  0  0  0  0  0  0  0  0  0  0
  149.1860  142.3518  156.3706 H   0  0  0  0  0  0  0  0  0  0  0  0
  152.6662  141.3582  157.7918 H   0  0  0  0  0  0  0  0  0  0  0  0
  153.8862  141.7979  158.8452 H   0  0  0  0  0  0  0  0  0  0  0  0
  154.4104  143.2037  159.7006 H   0  0  0  0  0  0  0  0  0  0  0  0
  152.3332  141.2157  160.7825 H   0  0  0  0  0  0  0  0  0  0  0  0
  154.0273  141.2367  161.2360 H   0  0  0  0  0  0  0  0  0  0  0  0
  150.7173  143.6150  161.1962 H   0  0  0  0  0  0  0  0  0  0  0  0
  151.4653  145.0425  161.8865 H   0  0  0  0  0  0  0  0  0  0  0  0
  153.1484  145.0730  160.0052 H   0  0  0  0  0  0  0  0  0  0  0  0
  151.5238  145.2435  159.4250 H   0  0  0  0  0  0  0  0  0  0  0  0
  152.1695  139.2363  155.9438 H   0  0  0  0  0  0  0  0  0  0  0  0
  1  2  1  0  0  0  0
  1 19  1  0  0  0  0
  1 20  1  0  0  0  0
  2  3  2  0  0  0  0
  2  4  1  0  0  0  0
  4  5  1  0  0  0  0
  4 21  1  0  0  0  0
  4 22  1  0  0  0  0
  5 18  1  0  0  0  0
  5  6  1  0  0  0  0
  6  7  2  0  0  0  0
  6 23  1  0  0  0  0
  7  8  1  0  0  0  0
  7 17  1  0  0  0  0
  8  9  1  0  0  0  0
  8 24  1  0  0  0  0
  9 10  2  0  0  0  0
  9 11  1  0  0  0  0
 11 16  1  0  0  0  0
 11 12  1  0  0  0  0
 12 13  1  0  0  0  0
 12 25  1  0  0  0  0
 12 26  1  0  0  0  0
 13 14  1  0  0  0  0
 13 27  1  0  0  0  0
 13 28  1  0  0  0  0
 14 15  1  0  0  0  0
 15 16  1  0  0  0  0
 15 29  1  0  0  0  0
 15 30  1  0  0  0  0
 16 31  1  0  0  0  0
 16 32  1  0  0  0  0
 17 18  2  0  0  0  0
 17 33  1  0  0  0  0
M  END
> <s_m_source_file>
AV-unprocessed.smi

> <i_m_source_file_index>
1497

> <i_lp_mmshare_version>
43012

> <i_f3d_flags>
0

> <s_epik_input>
W05IMl1DKD1PKVtDSDJdbjFbY0hdYyhbY0hdbjEpW05IXUMoPU8pTjJbQ0gyXVtDSDJdU1tDSDJdW0NIMl0y

> <s_epik_cmdline>
J2VwaWtfcHl0aG9uJywgJy1waCcsICc3LjAnLCAnLXRuJywgJzgnLCAnLW1hJywgJzIwMCcsICctbWV0YWxfYmluZGluZycsICctaW1hZScsICc8aW5maWxlLm1hZT4nLCAnLW9tYWUnLCAnPG91dGZpbGUubWFlPic=

> <r_lp_tautomer_probability>
1

> <r_epik_Ionization_Penalty>
3.75542e-05

> <r_epik_Ionization_Penalty_Charging>
0

> <r_epik_Ionization_Penalty_Neutral>
3.75542e-05

> <r_epik_State_Penalty>
-0

> <r_epik_Charging_Adjusted_Penalty>
0

> <i_epik_Tot_Q>
0

> <i_epik_Tot_abs_Q>
0

> <r_epik_Metal_State_Penalty>
-0

> <b_epik_Metal_Only>
0

> <s_lp_Force_Field>
OPLS_2005

> <r_lp_Energy>
28.4964

> <b_lp_Chiralities_Consistent>
1

> <s_lp_Variant>
AV-unprocessed.smi:1497-1

> <Gold.Version>
5.8.1

> <Gold.Id.Protein>
6NUR|6NUR_protein|mol2

> <Gold.PLP.Fitness>
47.2667

> <Gold.PLP.PLP>
-39.8064

> <Gold.PLP.part.hbond>
-1.6926

> <Gold.PLP.part.metal>
0.0000

> <Gold.PLP.part.buried>
-4.4158

> <Gold.PLP.part.nonpolar>
-35.5343

> <Gold.PLP.part.repulsive>
1.2265

> <Gold.PLP.ligand.clash>
0.0000

> <Gold.PLP.ligand.torsion>
0.6006

> <Gold.PLP.Chemscore.Hbond>
1.8741

> <Gold.PLP.Chemscore.CHOScore>
1.0000

> <Gold.PLP.Chemscore.Metal>
0.0000

> <Gold.Chemscore.Hbonds>
donor molecule, donor type, donor heavy atom, donor atom, acceptor molecule, acceptor atom, score
      L1  H     1    19       P1  7948  0.90
      L1  H     1    20       P1  7957  0.88
      P1  H  7989  7998       L1    18  0.01
      L1  C     6    23       P1  8028  1.00

> <Gold.PLP.Chemscore.Internal.Correction>
0.0392

> <Gold.Rescore>
     Score         DG    S(hbond)    S(metal)    S(lipo)     H(rot)  DE(clash)    DE(int)     intcor
     15.56     -17.73       1.93        0.00      83.45       1.54       0.10       2.07       ----

> <Gold.Chemscore.Fitness>
15.5626

> <Gold.Chemscore.DG>
-17.7348

> <Gold.Chemscore.ZeroCoef>
-5.4800

> <Gold.Chemscore.Hbond>
1.9252

> <Gold.Chemscore.Metal>
0.0000

> <Gold.Chemscore.Lipo>
83.4510

> <Gold.Chemscore.Internal_Hbond>
0.0000

> <Gold.Chemscore.DEClash>
0.1007

> <Gold.Chemscore.DEInternal>
2.0715

> <Gold.Chemscore.Rot>
1.5388

> <Gold.Chemscore.Internal.Correction>
   9.000000E+99

> <Gold.Chemscore.Hbonds>
donor molecule, donor type, donor heavy atom, donor atom, acceptor molecule, acceptor atom, score
      L1  H     1    19       P1  7948  0.88
      L1  H     1    20       P1  7957  0.85

> <Gold.Chemscore.Hbond.Weighted>
-6.4303

> <Gold.Chemscore.Metal.Weighted>
-0.0000

> <Gold.Chemscore.Lipo.Weighted>
-9.7638

> <Gold.Chemscore.Internal_Hbond.Weighted>
0.0000

> <Gold.Chemscore.DEClash.Weighted>
0.1007

> <Gold.Chemscore.DEInternal.Weighted>
2.0715

> <Gold.Chemscore.Rot.Weighted>
3.9392

> <Gold.Chemscore.Internal.Correction.Weighted>
   9.000000E+99

> <Gold.Protein.RotatedTorsions>
[ 6907 6896 6895 6894 ] final   64.74 input  -60.11 | X-H torsion
[ 7974 7965 7964 7962 ] final   82.54 input  175.53 | X-H torsion
[ 8008 7997 7996 7995 ] final -166.64 input   59.86 | X-H torsion
[ 10167 10162 10161 10158 ] final -135.08 input  -65.29 | X-H torsion
[ 10718 10713 10712 10709 ] final   77.87 input   66.30 | X-H torsion
[ 10763 10752 10751 10750 ] final  -26.61 input  -60.55 | X-H torsion
[ 11005 11000 10999 10996 ] final -157.36 input  -57.11 | X-H torsion

> <Gold.Protein.ActiveResidues>
 VAL166  LYS551  ARG553  GLY616  TRP617  ASP618  TYR619  PRO620  LYS621  CYS622 
 ASP623  PHE694  ASN695  SER759  ASP760  ASP761  ALA762  ILE779  LEU786  VAL792 
 PHE793  MET794  SER795  GLU796  ALA797  LYS798  CYS799  TRP800  GLU811  SER814 

> <Gold.Protein.RotatedAtoms>
  152.4355  134.5695  159.9916 H   0  0  0  0  0  0  0  0  0  0  0  0  # atno 6907 bound_to 6896
  151.5807  133.3372  159.3016 H   0  0  0  0  0  0  0  0  0  0  0  0  # atno 6908 bound_to 6896
  150.8252  134.7515  159.6871 H   0  0  0  0  0  0  0  0  0  0  0  0  # atno 6909 bound_to 6896
  145.6237  139.2391  143.2124 H   0  0  0  0  0  0  0  0  0  0  0  0  # atno 7974 bound_to 7965
  155.8666  140.0986  157.1578 H   0  0  0  0  0  0  0  0  0  0  0  0  # atno 8008 bound_to 7997
  154.3994  140.1355  156.4089 H   0  0  0  0  0  0  0  0  0  0  0  0  # atno 8009 bound_to 7997
  155.7797  140.3459  155.5293 H   0  0  0  0  0  0  0  0  0  0  0  0  # atno 8010 bound_to 7997
  139.8815  143.6833  152.2626 H   0  0  0  0  0  0  0  0  0  0  0  0  # atno 10167 bound_to 10162
  157.6725  130.9842  150.1704 H   0  0  0  0  0  0  0  0  0  0  0  0  # atno 10718 bound_to 10713
  153.7188  135.6946  153.5018 H   0  0  0  0  0  0  0  0  0  0  0  0  # atno 10763 bound_to 10752
  153.2219  135.4367  155.0498 H   0  0  0  0  0  0  0  0  0  0  0  0  # atno 10764 bound_to 10752
  154.8291  135.3462  154.6722 H   0  0  0  0  0  0  0  0  0  0  0  0  # atno 10765 bound_to 10752
  140.6655  134.4304  157.5233 H   0  0  0  0  0  0  0  0  0  0  0  0  # atno 11005 bound_to 11000
  146.1411  140.7056  142.9366 LP  0  0  0  0  0  0  0  0  0  0  0  0  # atno 17320 bound_to 7965
  144.7221  140.4407  143.7000 LP  0  0  0  0  0  0  0  0  0  0  0  0  # atno 17321 bound_to 7965
  139.7192  144.7606  151.0984 LP  0  0  0  0  0  0  0  0  0  0  0  0  # atno 17342 bound_to 10162
  140.7743  143.5230  150.9514 LP  0  0  0  0  0  0  0  0  0  0  0  0  # atno 17343 bound_to 10162
  156.2459  130.3695  149.8285 LP  0  0  0  0  0  0  0  0  0  0  0  0  # atno 17370 bound_to 10713
  156.6071  130.8571  151.3446 LP  0  0  0  0  0  0  0  0  0  0  0  0  # atno 17371 bound_to 10713
  139.8999  134.8581  156.1942 LP  0  0  0  0  0  0  0  0  0  0  0  0  # atno 17394 bound_to 11000
  141.0433  133.6926  156.1637 LP  0  0  0  0  0  0  0  0  0  0  0  0  # atno 17395 bound_to 11000

$$$$
