#       Name:                AV-unprocessed.smi:84
#       Creating user name   scv26
#       Creation time:       Thu Mar 26 17:20:29 2020


#       File generated by GOLD software.
#

@<TRIPOS>MOLECULE
AV-unprocessed.smi:84
    60    64     1
SMALL
NO_CHARGES


@<TRIPOS>ATOM
      1 ****        -5.0075  -0.4086  -3.5937 O.2            1 S1                 0.0000
      2 ****        -5.1491  -0.4241  -2.3732 C.2            1 S1                 0.0000
      3 ****        -4.7629   0.7310  -1.4634 C.3            1 S1                 0.0000
      4 ****        -4.7527   0.0739  -0.0662 C.3            1 S1                 0.0000
      5 ****        -5.1313   1.0362   1.0673 C.3            1 S1                 0.0000
      6 ****        -3.8094   1.7252   1.4008 C.3            1 S1                 0.0000
      7 ****        -2.7927   0.7124   1.1574 N.pl3          1 S1                 0.0000
      8 ****        -1.4659   1.0005   1.1924 C.ar           1 S1                 0.0000
      9 ****        -1.0814   2.2616   1.5247 N.ar           1 S1                 0.0000
     10 ****         0.2133   2.5869   1.5720 C.ar           1 S1                 0.0000
     11 ****         1.2756   1.8178   1.3307 N.ar           1 S1                 0.0000
     12 ****         0.9015   0.5477   1.0054 C.ar           1 S1                 0.0000
     13 ****        -0.4328   0.0549   0.9206 C.ar           1 S1                 0.0000
     14 ****        -0.4090  -1.2970   0.5936 N.2            1 S1                 0.0000
     15 ****         0.8595  -1.5826   0.4866 C.2            1 S1                 0.0000
     16 ****         1.7164  -0.5258   0.6915 N.pl3          1 S1                 0.0000
     17 ****         3.1493  -0.5596   0.6746 C.3            1 S1                 0.0000
     18 ****         3.9495   0.4870  -0.1060 C.3            1 S1                 0.0000
     19 ****         5.0382  -0.5747  -0.3883 C.3            1 S1                 0.0000
     20 ****         5.6762  -0.5799  -1.7917 C.3            1 S1                 0.0000
     21 ****         4.7134  -0.5763  -2.8268 O.3            1 S1                 0.0000
     22 ****         6.1891  -0.6284   0.6343 C.3            1 S1                 0.0000
     23 ****         6.9530   0.5604   0.6183 O.3            1 S1                 0.0000
     24 ****         3.9180  -1.6100  -0.1349 C.3            1 S1                 0.0000
     25 ****        -3.3231  -0.3588   0.3248 C.3            1 S1                 0.0000
     26 ****        -5.7018  -1.1308  -0.2367 C.3            1 S1                 0.0000
     27 ****        -5.6533  -1.4271  -1.6559 N.am           1 S1                 0.0000
     28 ****        -3.8032   1.1681  -1.7421 H              1 S1                 0.0000
     29 ****        -5.5273   1.5049  -1.5424 H              1 S1                 0.0000
     30 ****        -5.9204   1.7395   0.7997 H              1 S1                 0.0000
     31 ****        -5.4729   0.4696   1.9348 H              1 S1                 0.0000
     32 ****        -3.6472   2.5783   0.7401 H              1 S1                 0.0000
     33 ****        -3.7873   2.0773   2.4327 H              1 S1                 0.0000
     34 ****         0.4284   3.6106   1.8409 H              1 S1                 0.0000
     35 ****         1.2036  -2.5789   0.2501 H              1 S1                 0.0000
     36 ****         3.4593  -0.5765   1.7206 H              1 S1                 0.0000
     37 ****         3.4236   0.8240  -1.0007 H              1 S1                 0.0000
     38 ****         4.2751   1.3379   0.4927 H              1 S1                 0.0000
     39 ****         6.3148   0.2919  -1.9364 H              1 S1                 0.0000
     40 ****         6.3081  -1.4583  -1.9264 H              1 S1                 0.0000
     41 ****         5.1649  -0.5730  -3.6571 H              1 S1                 0.0000
     42 ****         5.8145  -0.7692   1.6484 H              1 S1                 0.0000
     43 ****         6.8512  -1.4720   0.4356 H              1 S1                 0.0000
     44 ****         6.3866   1.2837   0.8403 H              1 S1                 0.0000
     45 ****         4.2238  -2.4847   0.4400 H              1 S1                 0.0000
     46 ****         3.3849  -1.9094  -1.0385 H              1 S1                 0.0000
     47 ****        -3.3341  -1.2714   0.9213 H              1 S1                 0.0000
     48 ****        -2.7065  -0.5433  -0.5557 H              1 S1                 0.0000
     49 ****        -5.4127  -1.9943   0.3630 H              1 S1                 0.0000
     50 ****        -6.7266  -0.8657   0.0274 H              1 S1                 0.0000
     51 ****        -5.9788  -2.3000  -2.0457 H              1 S1                 0.0000
     52 ****        -5.2826  -1.2004  -4.1391 LP             1 S1                 0.0000
     53 ****        -4.6173   0.3958  -4.0416 LP             1 S1                 0.0000
     54 ****        -1.7739   2.9516   1.7355 LP             1 S1                 0.0000
     55 ****         2.2236   2.1318   1.3817 LP             1 S1                 0.0000
     56 ****        -1.1882  -1.9112   0.4687 LP             1 S1                 0.0000
     57 ****         4.1403   0.2397  -2.7514 LP             1 S1                 0.0000
     58 ****         4.1408  -1.3933  -2.7576 LP             1 S1                 0.0000
     59 ****         7.3385   0.7014  -0.2936 LP             1 S1                 0.0000
     60 ****         7.6937   0.4944   1.2868 LP             1 S1                 0.0000
@<TRIPOS>BOND
    1    1    2 2     
    2    2   27 am    
    3    2    3 1     
    4    3    4 1     
    5    3   28 1     
    6    3   29 1     
    7    4   25 1     
    8    4    5 1     
    9    4   26 1     
   10    5    6 1     
   11    5   30 1     
   12    5   31 1     
   13    6    7 1     
   14    6   32 1     
   15    6   33 1     
   16    7    8 1     
   17    7   25 1     
   18    8   13 ar    
   19    8    9 ar    
   20    9   10 ar    
   21   10   11 ar    
   22   10   34 1     
   23   11   12 ar    
   24   12   16 1     
   25   12   13 ar    
   26   13   14 1     
   27   14   15 2     
   28   15   16 1     
   29   15   35 1     
   30   16   17 1     
   31   17   24 1     
   32   17   18 1     
   33   17   36 1     
   34   18   19 1     
   35   18   37 1     
   36   18   38 1     
   37   19   20 1     
   38   19   22 1     
   39   19   24 1     
   40   20   21 1     
   41   20   39 1     
   42   20   40 1     
   43   21   41 1     
   44   22   23 1     
   45   22   42 1     
   46   22   43 1     
   47   23   44 1     
   48   24   45 1     
   49   24   46 1     
   50   25   47 1     
   51   25   48 1     
   52   26   27 1     
   53   26   49 1     
   54   26   50 1     
   55   27   51 1     
   56    1   52 1     
   57    1   53 1     
   58    9   54 1     
   59   11   55 1     
   60   14   56 1     
   61   21   57 1     
   62   21   58 1     
   63   23   59 1     
   64   23   60 1     
@<TRIPOS>SUBSTRUCTURE
      1 S1             1
@<TRIPOS>SET
LONE_PAIRS      STATIC     ATOMS    <user>   **** ""
9 52 53 54 55 56 57 58 59 60
DONOR_HYDROGENS      STATIC     ATOMS    <user>   **** ""
3 41 44 51
ATOM$BLUE        STATIC     ATOMS    COLORGROUP SYSTEM
9 52 53 54 55 56 57 58 59 60
ATOM$RED        STATIC     ATOMS    COLORGROUP SYSTEM
3 41 44 51
