#       Name:                AV-unprocessed.smi:2253
#       Creating user name   scv26
#       Creation time:       Fri Mar 27 12:32:08 2020


#       File generated by GOLD software.
#

@<TRIPOS>MOLECULE
AV-unprocessed.smi:2253
    55    57     1
SMALL
NO_CHARGES


@<TRIPOS>ATOM
      1 ****        -6.7599  -2.6572  -0.3239 C.3            1 S1                 0.0000
      2 ****        -5.3199  -2.3582  -0.1670 N.4            1 S1                 1.0000
      3 ****        -5.0432  -1.5143   1.0190 C.3            1 S1                 0.0000
      4 ****        -3.5305  -1.3178   1.2224 C.3            1 S1                 0.0000
      5 ****        -2.8476  -0.7046  -0.0269 C.3            1 S1                 0.0000
      6 ****        -1.3599  -0.5459   0.0956 N.4            1 S1                 1.0000
      7 ****        -0.8621  -0.1999   1.4596 C.3            1 S1                 0.0000
      8 ****         0.6751  -0.1751   1.5190 C.3            1 S1                 0.0000
      9 ****         1.2662   0.7888   0.4824 C.3            1 S1                 0.0000
     10 ****         2.7242   0.7172   0.5128 N.am           1 S1                 0.0000
     11 ****         3.5534   1.6748   0.0723 C.2            1 S1                 0.0000
     12 ****         3.1617   2.7348  -0.4152 O.2            1 S1                 0.0000
     13 ****         4.8386   1.3231   0.2499 N.am           1 S1                 0.0000
     14 ****         6.0185   2.0434  -0.0843 C.ar           1 S1                 0.0000
     15 ****         6.0669   3.1084  -1.0166 C.ar           1 S1                 0.0000
     16 ****         7.3070   3.7290  -1.2687 C.ar           1 S1                 0.0000
     17 ****         8.4603   3.3576  -0.6737 N.ar           1 S1                 0.0000
     18 ****         8.4131   2.3336   0.2044 C.ar           1 S1                 0.0000
     19 ****         7.2262   1.6458   0.5280 C.ar           1 S1                 0.0000
     20 ****         7.2498   0.6224   1.4158 F              1 S1                 0.0000
     21 ****         0.7258   0.4217  -0.9083 C.3            1 S1                 0.0000
     22 ****        -0.8108   0.4038  -0.9150 C.3            1 S1                 0.0000
     23 ****        -3.2062  -1.5952  -1.2409 C.3            1 S1                 0.0000
     24 ****        -4.7251  -1.7820  -1.3957 C.3            1 S1                 0.0000
     25 ****        -7.3323  -1.7470  -0.5077 H              1 S1                 0.0000
     26 ****        -7.1545  -3.1345   0.5737 H              1 S1                 0.0000
     27 ****        -6.9224  -3.3384  -1.1599 H              1 S1                 0.0000
     28 ****        -5.5354  -0.5471   0.9037 H              1 S1                 0.0000
     29 ****        -5.4708  -1.9826   1.9067 H              1 S1                 0.0000
     30 ****        -3.4008  -0.6721   2.0911 H              1 S1                 0.0000
     31 ****        -3.0712  -2.2771   1.4674 H              1 S1                 0.0000
     32 ****        -3.2775   0.2876  -0.1760 H              1 S1                 0.0000
     33 ****        -1.2691   0.7655   1.7647 H              1 S1                 0.0000
     34 ****        -1.1885  -0.9362   2.1926 H              1 S1                 0.0000
     35 ****         0.9982   0.1118   2.5206 H              1 S1                 0.0000
     36 ****         1.0578  -1.1828   1.3489 H              1 S1                 0.0000
     37 ****         0.9513   1.8034   0.7351 H              1 S1                 0.0000
     38 ****         3.1323  -0.1199   0.9035 H              1 S1                 0.0000
     39 ****         4.9959   0.4505   0.7328 H              1 S1                 0.0000
     40 ****         5.1938   3.4529  -1.5479 H              1 S1                 0.0000
     41 ****         7.3748   4.5439  -1.9741 H              1 S1                 0.0000
     42 ****         9.3503   2.0522   0.6616 H              1 S1                 0.0000
     43 ****         1.0841   1.1351  -1.6515 H              1 S1                 0.0000
     44 ****         1.1036  -0.5560  -1.2114 H              1 S1                 0.0000
     45 ****        -1.1399   0.1423  -1.9187 H              1 S1                 0.0000
     46 ****        -1.1932   1.4063  -0.7160 H              1 S1                 0.0000
     47 ****        -2.8250  -1.1749  -2.1700 H              1 S1                 0.0000
     48 ****        -2.7314  -2.5715  -1.1318 H              1 S1                 0.0000
     49 ****        -4.9261  -2.4419  -2.2407 H              1 S1                 0.0000
     50 ****        -5.2005  -0.8256  -1.6203 H              1 S1                 0.0000
     51 ****        -0.9643  -1.4516  -0.1137 H              1 S1                 0.0000
     52 ****        -4.8614  -3.2444  -0.0082 H              1 S1                 0.0000
     53 ****         2.1816   2.9150  -0.4980 LP             1 S1                 0.0000
     54 ****         3.8236   3.4158  -0.7285 LP             1 S1                 0.0000
     55 ****         9.3206   3.8252  -0.8766 LP             1 S1                 0.0000
@<TRIPOS>BOND
    1    1    2 1     
    2    1   25 1     
    3    1   26 1     
    4    1   27 1     
    5    2   24 1     
    6    2    3 1     
    7    2   52 1     
    8    3    4 1     
    9    3   28 1     
   10    3   29 1     
   11    4    5 1     
   12    4   30 1     
   13    4   31 1     
   14    5    6 1     
   15    5   23 1     
   16    5   32 1     
   17    6   22 1     
   18    6    7 1     
   19    6   51 1     
   20    7    8 1     
   21    7   33 1     
   22    7   34 1     
   23    8    9 1     
   24    8   35 1     
   25    8   36 1     
   26    9   10 1     
   27    9   21 1     
   28    9   37 1     
   29   10   11 am    
   30   10   38 1     
   31   11   12 2     
   32   11   13 am    
   33   13   14 1     
   34   13   39 1     
   35   14   19 ar    
   36   14   15 ar    
   37   15   16 ar    
   38   15   40 1     
   39   16   17 ar    
   40   16   41 1     
   41   17   18 ar    
   42   18   19 ar    
   43   18   42 1     
   44   19   20 1     
   45   21   22 1     
   46   21   43 1     
   47   21   44 1     
   48   22   45 1     
   49   22   46 1     
   50   23   24 1     
   51   23   47 1     
   52   23   48 1     
   53   24   49 1     
   54   24   50 1     
   55   12   53 1     
   56   12   54 1     
   57   17   55 1     
@<TRIPOS>SUBSTRUCTURE
      1 S1             1
@<TRIPOS>SET
LONE_PAIRS      STATIC     ATOMS    <user>   **** ""
3 53 54 55
DONOR_HYDROGENS      STATIC     ATOMS    <user>   **** ""
4 52 51 38 39
ATOM$BLUE        STATIC     ATOMS    COLORGROUP SYSTEM
3 53 54 55
ATOM$RED        STATIC     ATOMS    COLORGROUP SYSTEM
4 52 51 38 39
