#       Name:                AV-unprocessed.smi:1352
#       Creating user name   scv26
#       Creation time:       Fri Mar 27 05:12:13 2020


#       File generated by GOLD software.
#

@<TRIPOS>MOLECULE
AV-unprocessed.smi:1352
    51    52     1
SMALL
NO_CHARGES


@<TRIPOS>ATOM
      1 ****        -0.0291   4.5689   1.1234 C.3            1 S1                 0.0000
      2 ****        -0.2089   3.7107   2.3879 C.3            1 S1                 0.0000
      3 ****        -1.6729   3.6357   2.8594 C.3            1 S1                 0.0000
      4 ****        -2.5173   2.7236   1.9517 C.3            1 S1                 0.0000
      5 ****        -3.9585   2.6027   2.4668 C.3            1 S1                 0.0000
      6 ****        -1.8507   1.3411   1.8143 C.3            1 S1                 0.0000
      7 ****        -0.4560   1.4584   1.3158 N.4            1 S1                 1.0000
      8 ****         0.1483   0.1354   1.0181 C.3            1 S1                 0.0000
      9 ****         1.3086   0.2351   0.0088 C.3            1 S1                 0.0000
     10 ****         1.8577  -1.0774  -0.3105 N.am           1 S1                 0.0000
     11 ****         1.3116  -1.9503  -1.1707 C.2            1 S1                 0.0000
     12 ****         0.2552  -1.7340  -1.7661 O.2            1 S1                 0.0000
     13 ****         2.0702  -3.2714  -1.3638 C.3            1 S1                 0.0000
     14 ****         1.7419  -3.9524  -2.6275 N.am           1 S1                 0.0000
     15 ****         0.7960  -4.9951  -2.5681 C.2            1 S1                 0.0000
     16 ****         0.4235  -5.6790  -3.6616 C.2            1 S1                 0.0000
     17 ****         1.0211  -5.3219  -4.9263 C.2            1 S1                 0.0000
     18 ****         1.9245  -4.3240  -4.9950 C.2            1 S1                 0.0000
     19 ****         2.3321  -3.5717  -3.8027 C.2            1 S1                 0.0000
     20 ****         3.1530  -2.6554  -3.8562 O.2            1 S1                 0.0000
     21 ****         0.3780   2.2951   2.2201 C.3            1 S1                 0.0000
     22 ****        -0.5356   4.1374   0.2602 H              1 S1                 0.0000
     23 ****         1.0261   4.6691   0.8676 H              1 S1                 0.0000
     24 ****        -0.4251   5.5737   1.2723 H              1 S1                 0.0000
     25 ****         0.3585   4.2074   3.1760 H              1 S1                 0.0000
     26 ****        -1.6969   3.2490   3.8793 H              1 S1                 0.0000
     27 ****        -2.1068   4.6356   2.9043 H              1 S1                 0.0000
     28 ****        -2.5674   3.1753   0.9605 H              1 S1                 0.0000
     29 ****        -3.9902   2.1489   3.4577 H              1 S1                 0.0000
     30 ****        -4.5640   1.9885   1.7997 H              1 S1                 0.0000
     31 ****        -4.4343   3.5816   2.5339 H              1 S1                 0.0000
     32 ****        -1.8517   0.8189   2.7727 H              1 S1                 0.0000
     33 ****        -2.4344   0.7329   1.1218 H              1 S1                 0.0000
     34 ****         0.4769  -0.3396   1.9438 H              1 S1                 0.0000
     35 ****        -0.6176  -0.5159   0.5948 H              1 S1                 0.0000
     36 ****         0.9793   0.7328  -0.9052 H              1 S1                 0.0000
     37 ****         2.1243   0.8347   0.4104 H              1 S1                 0.0000
     38 ****         2.7247  -1.3342   0.1396 H              1 S1                 0.0000
     39 ****         3.1445  -3.0848  -1.3091 H              1 S1                 0.0000
     40 ****         1.8494  -3.9166  -0.5126 H              1 S1                 0.0000
     41 ****         0.3919  -5.1960  -1.5866 H              1 S1                 0.0000
     42 ****        -0.3063  -6.4727  -3.5975 H              1 S1                 0.0000
     43 ****         0.7412  -5.8569  -5.8219 H              1 S1                 0.0000
     44 ****         2.3606  -4.0702  -5.9498 H              1 S1                 0.0000
     45 ****         1.3971   2.3732   1.8433 H              1 S1                 0.0000
     46 ****         0.4459   1.8062   3.1934 H              1 S1                 0.0000
     47 ****        -0.5163   1.9468   0.4336 H              1 S1                 0.0000
     48 ****        -0.2358  -0.8755  -1.6176 LP             1 S1                 0.0000
     49 ****        -0.1115  -2.4168  -2.3980 LP             1 S1                 0.0000
     50 ****         3.4078  -2.1632  -3.0239 LP             1 S1                 0.0000
     51 ****         3.5647  -2.4035  -4.7320 LP             1 S1                 0.0000
@<TRIPOS>BOND
    1    1    2 1     
    2    1   22 1     
    3    1   23 1     
    4    1   24 1     
    5    2   21 1     
    6    2    3 1     
    7    2   25 1     
    8    3    4 1     
    9    3   26 1     
   10    3   27 1     
   11    4    5 1     
   12    4    6 1     
   13    4   28 1     
   14    5   29 1     
   15    5   30 1     
   16    5   31 1     
   17    6    7 1     
   18    6   32 1     
   19    6   33 1     
   20    7    8 1     
   21    7   21 1     
   22    7   47 1     
   23    8    9 1     
   24    8   34 1     
   25    8   35 1     
   26    9   10 1     
   27    9   36 1     
   28    9   37 1     
   29   10   11 am    
   30   10   38 1     
   31   11   12 2     
   32   11   13 1     
   33   13   14 1     
   34   13   39 1     
   35   13   40 1     
   36   14   19 am    
   37   14   15 1     
   38   15   16 2     
   39   15   41 1     
   40   16   17 1     
   41   16   42 1     
   42   17   18 2     
   43   17   43 1     
   44   18   19 1     
   45   18   44 1     
   46   19   20 2     
   47   21   45 1     
   48   21   46 1     
   49   12   48 1     
   50   12   49 1     
   51   20   50 1     
   52   20   51 1     
@<TRIPOS>SUBSTRUCTURE
      1 S1             1
@<TRIPOS>SET
LONE_PAIRS      STATIC     ATOMS    <user>   **** ""
4 48 49 50 51
DONOR_HYDROGENS      STATIC     ATOMS    <user>   **** ""
2 47 38
ATOM$BLUE        STATIC     ATOMS    COLORGROUP SYSTEM
4 48 49 50 51
ATOM$RED        STATIC     ATOMS    COLORGROUP SYSTEM
2 47 38
