AV-unprocessed.smi:1576|AV-procd|sdf|6344|dock10
  -GOLD-   22720 6563D 1   1.00000     0.00000
 Structure written by MMmdl.
 45 47  0  0  0  0  0  0  0  0  1 V2000
  149.4099  135.3971  156.4150 O   0  0  0  0  0  0  0  0  0  0  0  0
  149.3692  135.6837  155.2191 C   0  0  0  0  0  0  0  0  0  0  0  0
  149.6710  136.8834  154.6934 N   0  0  0  0  0  0  0  0  0  0  0  0
  150.0746  138.0718  155.3612 C   0  0  0  0  0  0  0  0  0  0  0  0
  150.2236  139.3317  154.7363 C   0  0  0  0  0  0  0  0  0  0  0  0
  150.6466  140.4304  155.5089 C   0  0  0  0  0  0  0  0  0  0  0  0
  150.9197  140.2467  156.8848 C   0  0  0  0  0  0  0  0  0  0  0  0
  151.3437  141.3366  157.6758 N   0  0  0  0  0  0  0  0  0  0  0  0
  151.1950  142.6556  157.0574 C   0  0  0  0  0  0  0  0  0  0  0  0
  151.2861  143.7755  158.1083 C   0  0  0  0  0  0  0  0  0  0  0  0
  152.5734  143.6534  158.9371 C   0  0  0  0  0  0  0  0  0  0  0  0
  152.6649  142.2535  159.5617 C   0  0  0  0  0  0  0  0  0  0  0  0
  152.5515  141.1598  158.4862 C   0  0  0  0  0  0  0  0  0  0  0  0
  150.7835  139.0356  157.4781 N   0  0  0  0  0  0  0  0  0  0  0  0
  150.3795  137.9853  156.7340 C   0  0  0  0  0  0  0  0  0  0  0  0
  149.0265  134.8090  154.2625 N   0  0  0  0  0  0  0  0  0  0  0  0
  148.6638  133.4137  154.4937 C   0  0  1  0  0  0  0  0  0  0  0  0
  148.7580  132.5642  153.2093 C   0  0  0  0  0  0  0  0  0  0  0  0
  148.7329  131.0810  153.5986 C   0  0  0  0  0  0  0  0  0  0  0  0
  149.5238  130.9744  155.2484 S   0  0  0  0  0  0  0  0  0  0  0  0
  148.5807  130.3530  156.1903 O   0  0  0  0  0  0  0  0  0  0  0  0
  150.8965  130.4662  155.1055 O   0  0  0  0  0  0  0  0  0  0  0  0
  149.5845  132.7816  155.5472 C   0  0  0  0  0  0  0  0  0  0  0  0
  149.6618  136.9392  153.6855 H   0  0  0  0  0  0  0  0  0  0  0  0
  150.0339  139.4791  153.6849 H   0  0  0  0  0  0  0  0  0  0  0  0
  150.7460  141.3993  155.0424 H   0  0  0  0  0  0  0  0  0  0  0  0
  151.9839  142.7804  156.3145 H   0  0  0  0  0  0  0  0  0  0  0  0
  150.2495  142.7478  156.5246 H   0  0  0  0  0  0  0  0  0  0  0  0
  151.2468  144.7491  157.6193 H   0  0  0  0  0  0  0  0  0  0  0  0
  150.4199  143.7258  158.7697 H   0  0  0  0  0  0  0  0  0  0  0  0
  153.4404  143.8300  158.2994 H   0  0  0  0  0  0  0  0  0  0  0  0
  152.5949  144.4164  159.7155 H   0  0  0  0  0  0  0  0  0  0  0  0
  153.6035  142.1458  160.1058 H   0  0  0  0  0  0  0  0  0  0  0  0
  151.8659  142.1282  160.2937 H   0  0  0  0  0  0  0  0  0  0  0  0
  152.5392  140.1835  158.9727 H   0  0  0  0  0  0  0  0  0  0  0  0
  153.4261  141.1850  157.8347 H   0  0  0  0  0  0  0  0  0  0  0  0
  150.2925  137.0440  157.2568 H   0  0  0  0  0  0  0  0  0  0  0  0
  149.0238  135.1284  153.3049 H   0  0  0  0  0  0  0  0  0  0  0  0
  147.6395  133.3616  154.8682 H   0  0  0  0  0  0  0  0  0  0  0  0
  147.9624  132.8023  152.5027 H   0  0  0  0  0  0  0  0  0  0  0  0
  149.7029  132.7768  152.7073 H   0  0  0  0  0  0  0  0  0  0  0  0
  147.7070  130.7251  153.6951 H   0  0  0  0  0  0  0  0  0  0  0  0
  149.2568  130.4440  152.8857 H   0  0  0  0  0  0  0  0  0  0  0  0
  150.6183  133.1023  155.4153 H   0  0  0  0  0  0  0  0  0  0  0  0
  149.2787  133.0038  156.5698 H   0  0  0  0  0  0  0  0  0  0  0  0
  1  2  2  0  0  0  0
  2  3  1  0  0  0  0
  2 16  1  0  0  0  0
  3  4  1  0  0  0  0
  3 24  1  0  0  0  0
  4 15  1  0  0  0  0
  4  5  2  0  0  0  0
  5  6  1  0  0  0  0
  5 25  1  0  0  0  0
  6  7  2  0  0  0  0
  6 26  1  0  0  0  0
  7  8  1  0  0  0  0
  7 14  1  0  0  0  0
  8 13  1  0  0  0  0
  8  9  1  0  0  0  0
  9 10  1  0  0  0  0
  9 27  1  0  0  0  0
  9 28  1  0  0  0  0
 10 11  1  0  0  0  0
 10 29  1  0  0  0  0
 10 30  1  0  0  0  0
 11 12  1  0  0  0  0
 11 31  1  0  0  0  0
 11 32  1  0  0  0  0
 12 13  1  0  0  0  0
 12 33  1  0  0  0  0
 12 34  1  0  0  0  0
 13 35  1  0  0  0  0
 13 36  1  0  0  0  0
 14 15  2  0  0  0  0
 15 37  1  0  0  0  0
 16 17  1  0  0  0  0
 16 38  1  0  0  0  0
 17 23  1  0  0  0  0
 17 18  1  0  0  0  0
 17 39  1  0  0  0  0
 18 19  1  0  0  0  0
 18 40  1  0  0  0  0
 18 41  1  0  0  0  0
 19 20  1  0  0  0  0
 19 42  1  0  0  0  0
 19 43  1  0  0  0  0
 20 21  2  0  0  0  0
 20 22  2  0  0  0  0
 20 23  1  0  0  0  0
 23 44  1  0  0  0  0
 23 45  1  0  0  0  0
M  END
> <s_m_source_file>
AV-unprocessed.smi

> <i_m_source_file_index>
1576

> <i_lp_mmshare_version>
43012

> <i_f3d_flags>
0

> <s_epik_input>
Tz1TMSg9TylbQ0gyXVtDSDJdW0NASF0oW0NIMl0xKVtOSF1DKD1PKVtOSF1jMltjSF1bY0hdYyhuW2NIXTIpTjNbQ0gyXVtDSDJdW0NIMl1bQ0gyXVtDSDJdMw==

> <s_epik_cmdline>
J2VwaWtfcHl0aG9uJywgJy1waCcsICc3LjAnLCAnLXRuJywgJzgnLCAnLW1hJywgJzIwMCcsICctbWV0YWxfYmluZGluZycsICctaW1hZScsICc8aW5maWxlLm1hZT4nLCAnLW9tYWUnLCAnPG91dGZpbGUubWFlPic=

> <r_lp_tautomer_probability>
1

> <r_epik_Ionization_Penalty>
0.0900267

> <r_epik_Ionization_Penalty_Charging>
0

> <r_epik_Ionization_Penalty_Neutral>
0.0900267

> <r_epik_State_Penalty>
0.0748882

> <r_epik_Charging_Adjusted_Penalty>
0.0748882

> <i_epik_Tot_Q>
0

> <i_epik_Tot_abs_Q>
0

> <r_epik_Metal_State_Penalty>
0.0662821

> <b_epik_Metal_Only>
0

> <s_lp_Force_Field>
OPLS_2005

> <r_lp_Energy>
22.1821

> <b_lp_Chiralities_Consistent>
1

> <s_lp_Variant>
AV-unprocessed.smi:1576-2

> <Gold.Version>
5.8.1

> <Gold.Id.Protein>
6NUR|6NUR_protein|mol2

> <Gold.PLP.Fitness>
42.1978

> <Gold.PLP.PLP>
-36.8666

> <Gold.PLP.part.hbond>
-2.0000

> <Gold.PLP.part.metal>
0.0000

> <Gold.PLP.part.buried>
-4.2408

> <Gold.PLP.part.nonpolar>
-31.3389

> <Gold.PLP.part.repulsive>
0.0958

> <Gold.PLP.ligand.clash>
0.0000

> <Gold.PLP.ligand.torsion>
0.4833

> <Gold.PLP.Chemscore.Hbond>
1.9588

> <Gold.PLP.Chemscore.CHOScore>
0.0000

> <Gold.PLP.Chemscore.Metal>
0.0000

> <Gold.Chemscore.Hbonds>
donor molecule, donor type, donor heavy atom, donor atom, acceptor molecule, acceptor atom, score
      L1  H     3    24       P1  7948  0.96
      L1  H    16    38       P1  7948  1.00

> <Gold.PLP.Chemscore.Internal.Correction>
0.4215

> <Gold.Rescore>
     Score         DG    S(hbond)    S(metal)    S(lipo)     H(rot)  DE(clash)    DE(int)     intcor
     16.20     -19.66       1.82        0.00      96.18       1.24       0.04       3.42       ----

> <Gold.Chemscore.Fitness>
16.2034

> <Gold.Chemscore.DG>
-19.6626

> <Gold.Chemscore.ZeroCoef>
-5.4800

> <Gold.Chemscore.Hbond>
1.8248

> <Gold.Chemscore.Metal>
0.0000

> <Gold.Chemscore.Lipo>
96.1827

> <Gold.Chemscore.Internal_Hbond>
0.0000

> <Gold.Chemscore.DEClash>
0.0421

> <Gold.Chemscore.DEInternal>
3.4171

> <Gold.Chemscore.Rot>
1.2366

> <Gold.Chemscore.Internal.Correction>
   9.000000E+99

> <Gold.Chemscore.Hbonds>
donor molecule, donor type, donor heavy atom, donor atom, acceptor molecule, acceptor atom, score
      L1  H     3    24       P1  7948  0.63
      L1  H    16    38       P1  7948  0.30

> <Gold.Chemscore.Hbond.Weighted>
-6.0949

> <Gold.Chemscore.Metal.Weighted>
-0.0000

> <Gold.Chemscore.Lipo.Weighted>
-11.2534

> <Gold.Chemscore.Internal_Hbond.Weighted>
0.0000

> <Gold.Chemscore.DEClash.Weighted>
0.0421

> <Gold.Chemscore.DEInternal.Weighted>
3.4171

> <Gold.Chemscore.Rot.Weighted>
3.1657

> <Gold.Chemscore.Internal.Correction.Weighted>
   9.000000E+99

> <Gold.Protein.RotatedTorsions>
[ 6907 6896 6895 6894 ] final   -7.89 input  -60.11 | X-H torsion
[ 7974 7965 7964 7962 ] final -174.27 input  175.53 | X-H torsion
[ 8008 7997 7996 7995 ] final -144.08 input   59.86 | X-H torsion
[ 10167 10162 10161 10158 ] final  -48.04 input  -65.29 | X-H torsion
[ 10718 10713 10712 10709 ] final  -73.48 input   66.30 | X-H torsion
[ 10763 10752 10751 10750 ] final -124.22 input  -60.55 | X-H torsion
[ 11005 11000 10999 10996 ] final   65.92 input  -57.11 | X-H torsion

> <Gold.Protein.ActiveResidues>
 VAL166  LYS551  ARG553  GLY616  TRP617  ASP618  TYR619  PRO620  LYS621  CYS622 
 ASP623  PHE694  ASN695  SER759  ASP760  ASP761  ALA762  ILE779  LEU786  VAL792 
 PHE793  MET794  SER795  GLU796  ALA797  LYS798  CYS799  TRP800  GLU811  SER814 

> <Gold.Protein.RotatedAtoms>
  151.4423  135.1021  159.9673 H   0  0  0  0  0  0  0  0  0  0  0  0  # atno 6907 bound_to 6896
  152.4918  133.8517  159.7215 H   0  0  0  0  0  0  0  0  0  0  0  0  # atno 6908 bound_to 6896
  150.9079  133.6975  159.2889 H   0  0  0  0  0  0  0  0  0  0  0  0  # atno 6909 bound_to 6896
  144.7133  140.1497  143.6385 H   0  0  0  0  0  0  0  0  0  0  0  0  # atno 7974 bound_to 7965
  155.5211  140.0591  157.2906 H   0  0  0  0  0  0  0  0  0  0  0  0  # atno 8008 bound_to 7997
  154.4517  140.1952  156.0445 H   0  0  0  0  0  0  0  0  0  0  0  0  # atno 8009 bound_to 7997
  156.0718  140.3259  155.7589 H   0  0  0  0  0  0  0  0  0  0  0  0  # atno 8010 bound_to 7997
  140.6748  143.2757  151.4014 H   0  0  0  0  0  0  0  0  0  0  0  0  # atno 10167 bound_to 10162
  156.0279  130.4395  150.2748 H   0  0  0  0  0  0  0  0  0  0  0  0  # atno 10718 bound_to 10713
  154.8720  135.4071  154.3071 H   0  0  0  0  0  0  0  0  0  0  0  0  # atno 10763 bound_to 10752
  153.3921  135.7015  153.6493 H   0  0  0  0  0  0  0  0  0  0  0  0  # atno 10764 bound_to 10752
  153.5271  135.3675  155.2630 H   0  0  0  0  0  0  0  0  0  0  0  0  # atno 10765 bound_to 10752
  139.9864  134.6661  156.0168 H   0  0  0  0  0  0  0  0  0  0  0  0  # atno 11005 bound_to 11000
  145.9128  139.2497  143.1428 LP  0  0  0  0  0  0  0  0  0  0  0  0  # atno 17320 bound_to 7965
  145.9699  140.8768  143.0167 LP  0  0  0  0  0  0  0  0  0  0  0  0  # atno 17321 bound_to 7965
  139.6035  144.1246  152.2224 LP  0  0  0  0  0  0  0  0  0  0  0  0  # atno 17342 bound_to 10162
  140.0637  144.5835  150.7243 LP  0  0  0  0  0  0  0  0  0  0  0  0  # atno 17343 bound_to 10162
  157.0852  131.0154  151.3142 LP  0  0  0  0  0  0  0  0  0  0  0  0  # atno 17370 bound_to 10713
  157.4897  130.7814  149.7495 LP  0  0  0  0  0  0  0  0  0  0  0  0  # atno 17371 bound_to 10713
  141.1528  133.6546  156.4067 LP  0  0  0  0  0  0  0  0  0  0  0  0  # atno 17394 bound_to 11000
  140.4994  134.6500  157.5242 LP  0  0  0  0  0  0  0  0  0  0  0  0  # atno 17395 bound_to 11000

$$$$
